MODEL 1
REMARK VINA RESULT:    -6.999      0.000      0.000
REMARK INTER + INTRA:          -9.351
REMARK INTER:                  -8.840
REMARK INTRA:                  -0.511
REMARK UNBOUND:                -0.511
REMARK SMILES Oc1cc(O)cc(CCc2ccccc2O)c1
REMARK SMILES IDX 9 1 10 2 12 3 13 4 11 5 14 6 15 7 16 8 8 10 7 11 6 12 17 13
REMARK SMILES IDX 4 14 2 15 3 16 5 17 1 19
REMARK H PARENT 16 9 5 18 1 20
REMARK Flexibility Score: inf
ROOT
ATOM      1  C   UNL     1     -11.872   5.735  35.246  1.00  0.00     0.044 C 
ENDROOT
BRANCH   1   2
ATOM      2  C   UNL     1     -13.195   5.837  34.524  1.00  0.00    -0.006 A 
ATOM      3  C   UNL     1     -15.040   4.707  33.406  1.00  0.00     0.001 A 
ATOM      4  C   UNL     1     -15.640   5.937  33.140  1.00  0.00     0.004 A 
ATOM      5  C   UNL     1     -13.822   4.656  34.089  1.00  0.00     0.007 A 
ATOM      6  C   UNL     1     -15.023   7.119  33.549  1.00  0.00     0.046 A 
ATOM      7  C   UNL     1     -13.800   7.086  34.231  1.00  0.00     0.118 A 
BRANCH   7   8
ATOM      8  O   UNL     1     -13.219   8.303  34.596  1.00  0.00    -0.508 OA
ATOM      9  H   UNL     1     -13.736   9.169  34.671  1.00  0.00     0.293 HD
ENDBRANCH   7   8
ENDBRANCH   1   2
BRANCH   1  10
ATOM     10  C   UNL     1     -10.707   5.749  34.251  1.00  0.00     0.040 C 
BRANCH  10  11
ATOM     11  C   UNL     1      -9.597   6.634  34.750  1.00  0.00    -0.040 A 
ATOM     12  C   UNL     1      -9.854   7.613  35.725  1.00  0.00     0.050 A 
ATOM     13  C   UNL     1      -8.308   6.526  34.204  1.00  0.00     0.050 A 
ATOM     14  C   UNL     1      -8.827   8.459  36.165  1.00  0.00     0.119 A 
ATOM     15  C   UNL     1      -7.281   7.371  34.642  1.00  0.00     0.119 A 
ATOM     16  C   UNL     1      -7.543   8.334  35.625  1.00  0.00     0.092 A 
BRANCH  14  17
ATOM     17  O   UNL     1      -9.073   9.428  37.135  1.00  0.00    -0.508 OA
ATOM     18  H   UNL     1      -9.014  10.418  36.924  1.00  0.00     0.293 HD
ENDBRANCH  14  17
BRANCH  15  19
ATOM     19  O   UNL     1      -6.007   7.245  34.093  1.00  0.00    -0.508 OA
ATOM     20  H   UNL     1      -5.349   6.554  34.434  1.00  0.00     0.293 HD
ENDBRANCH  15  19
ENDBRANCH  10  11
ENDBRANCH   1  10
TORSDOF 6
ENDMDL
MODEL 2
REMARK VINA RESULT:    -6.966      0.025      2.035
REMARK INTER + INTRA:          -9.310
REMARK INTER:                  -8.795
REMARK INTRA:                  -0.515
REMARK UNBOUND:                -0.511
REMARK SMILES Oc1cc(O)cc(CCc2ccccc2O)c1
REMARK SMILES IDX 9 1 10 2 12 3 13 4 11 5 14 6 15 7 16 8 8 10 7 11 6 12 17 13
REMARK SMILES IDX 4 14 2 15 3 16 5 17 1 19
REMARK H PARENT 16 9 5 18 1 20
REMARK Flexibility Score: inf
ROOT
ATOM      1  C   UNL     1     -11.864   5.766  35.256  1.00  0.00     0.044 C 
ENDROOT
BRANCH   1   2
ATOM      2  C   UNL     1     -13.186   5.860  34.533  1.00  0.00    -0.006 A 
ATOM      3  C   UNL     1     -15.020   4.718  33.407  1.00  0.00     0.001 A 
ATOM      4  C   UNL     1     -15.631   5.945  33.146  1.00  0.00     0.004 A 
ATOM      5  C   UNL     1     -13.803   4.675  34.092  1.00  0.00     0.007 A 
ATOM      6  C   UNL     1     -15.024   7.130  33.561  1.00  0.00     0.046 A 
ATOM      7  C   UNL     1     -13.802   7.104  34.245  1.00  0.00     0.118 A 
BRANCH   7   8
ATOM      8  O   UNL     1     -13.232   8.325  34.616  1.00  0.00    -0.508 OA
ATOM      9  H   UNL     1     -12.761   8.477  35.497  1.00  0.00     0.293 HD
ENDBRANCH   7   8
ENDBRANCH   1   2
BRANCH   1  10
ATOM     10  C   UNL     1     -10.700   5.742  34.261  1.00  0.00     0.040 C 
BRANCH  10  11
ATOM     11  C   UNL     1      -9.600   6.664  34.712  1.00  0.00    -0.040 A 
ATOM     12  C   UNL     1      -8.303   6.533  34.187  1.00  0.00     0.050 A 
ATOM     13  C   UNL     1      -9.848   7.626  35.704  1.00  0.00     0.050 A 
ATOM     14  C   UNL     1      -7.272   7.370  34.632  1.00  0.00     0.119 A 
ATOM     15  C   UNL     1      -8.819   8.463  36.151  1.00  0.00     0.119 A 
ATOM     16  C   UNL     1      -7.533   8.335  35.611  1.00  0.00     0.092 A 
BRANCH  14  17
ATOM     17  O   UNL     1      -5.985   7.250  34.111  1.00  0.00    -0.508 OA
ATOM     18  H   UNL     1      -5.537   8.018  33.624  1.00  0.00     0.293 HD
ENDBRANCH  14  17
BRANCH  15  19
ATOM     19  O   UNL     1      -9.085   9.416  37.132  1.00  0.00    -0.508 OA
ATOM     20  H   UNL     1      -9.469   9.156  38.033  1.00  0.00     0.293 HD
ENDBRANCH  15  19
ENDBRANCH  10  11
ENDBRANCH   1  10
TORSDOF 6
ENDMDL
MODEL 3
REMARK VINA RESULT:    -6.926      1.675      6.413
REMARK INTER + INTRA:          -9.258
REMARK INTER:                  -8.780
REMARK INTRA:                  -0.478
REMARK UNBOUND:                -0.511
REMARK SMILES Oc1cc(O)cc(CCc2ccccc2O)c1
REMARK SMILES IDX 9 1 10 2 12 3 13 4 11 5 14 6 15 7 16 8 8 10 7 11 6 12 17 13
REMARK SMILES IDX 4 14 2 15 3 16 5 17 1 19
REMARK H PARENT 16 9 5 18 1 20
REMARK Flexibility Score: inf
ROOT
ATOM      1  C   UNL     1      -9.235   6.254  34.386  1.00  0.00     0.044 C 
ENDROOT
BRANCH   1   2
ATOM      2  C   UNL     1      -8.213   7.235  34.909  1.00  0.00    -0.006 A 
ATOM      3  C   UNL     1      -7.716   9.156  36.321  1.00  0.00     0.001 A 
ATOM      4  C   UNL     1      -6.385   9.124  35.906  1.00  0.00     0.004 A 
ATOM      5  C   UNL     1      -8.627   8.222  35.822  1.00  0.00     0.007 A 
ATOM      6  C   UNL     1      -5.962   8.162  34.988  1.00  0.00     0.046 A 
ATOM      7  C   UNL     1      -6.863   7.221  34.476  1.00  0.00     0.118 A 
BRANCH   7   8
ATOM      8  O   UNL     1      -6.386   6.297  33.542  1.00  0.00    -0.508 OA
ATOM      9  H   UNL     1      -5.620   6.485  32.911  1.00  0.00     0.293 HD
ENDBRANCH   7   8
ENDBRANCH   1   2
BRANCH   1  10
ATOM     10  C   UNL     1     -10.276   5.927  35.462  1.00  0.00     0.040 C 
BRANCH  10  11
ATOM     11  C   UNL     1     -11.645   6.375  35.026  1.00  0.00    -0.040 A 
ATOM     12  C   UNL     1     -12.104   7.664  35.345  1.00  0.00     0.050 A 
ATOM     13  C   UNL     1     -12.496   5.488  34.348  1.00  0.00     0.050 A 
ATOM     14  C   UNL     1     -13.391   8.069  34.969  1.00  0.00     0.119 A 
ATOM     15  C   UNL     1     -13.783   5.891  33.971  1.00  0.00     0.119 A 
ATOM     16  C   UNL     1     -14.226   7.183  34.280  1.00  0.00     0.092 A 
BRANCH  14  17
ATOM     17  O   UNL     1     -13.851   9.349  35.275  1.00  0.00    -0.508 OA
ATOM     18  H   UNL     1     -13.221  10.076  35.594  1.00  0.00     0.293 HD
ENDBRANCH  14  17
BRANCH  15  19
ATOM     19  O   UNL     1     -14.610   4.999  33.293  1.00  0.00    -0.508 OA
ATOM     20  H   UNL     1     -14.765   4.057  33.632  1.00  0.00     0.293 HD
ENDBRANCH  15  19
ENDBRANCH  10  11
ENDBRANCH   1  10
TORSDOF 6
ENDMDL
MODEL 4
REMARK VINA RESULT:    -6.925      1.663      6.573
REMARK INTER + INTRA:          -9.258
REMARK INTER:                  -8.809
REMARK INTRA:                  -0.449
REMARK UNBOUND:                -0.511
REMARK SMILES Oc1cc(O)cc(CCc2ccccc2O)c1
REMARK SMILES IDX 9 1 10 2 12 3 13 4 11 5 14 6 15 7 16 8 8 10 7 11 6 12 17 13
REMARK SMILES IDX 4 14 2 15 3 16 5 17 1 19
REMARK H PARENT 16 9 5 18 1 20
REMARK Flexibility Score: inf
ROOT
ATOM      1  C   UNL     1      -9.213   6.284  34.349  1.00  0.00     0.044 C 
ENDROOT
BRANCH   1   2
ATOM      2  C   UNL     1      -8.175   7.249  34.870  1.00  0.00    -0.006 A 
ATOM      3  C   UNL     1      -7.650   9.174  36.268  1.00  0.00     0.001 A 
ATOM      4  C   UNL     1      -6.317   9.112  35.862  1.00  0.00     0.004 A 
ATOM      5  C   UNL     1      -8.575   8.253  35.772  1.00  0.00     0.007 A 
ATOM      6  C   UNL     1      -5.907   8.133  34.956  1.00  0.00     0.046 A 
ATOM      7  C   UNL     1      -6.823   7.205  34.446  1.00  0.00     0.118 A 
BRANCH   7   8
ATOM      8  O   UNL     1      -6.358   6.263  33.525  1.00  0.00    -0.508 OA
ATOM      9  H   UNL     1      -5.467   6.334  33.054  1.00  0.00     0.293 HD
ENDBRANCH   7   8
ENDBRANCH   1   2
BRANCH   1  10
ATOM     10  C   UNL     1     -10.223   5.928  35.445  1.00  0.00     0.040 C 
BRANCH  10  11
ATOM     11  C   UNL     1     -11.601   6.402  35.067  1.00  0.00    -0.040 A 
ATOM     12  C   UNL     1     -12.482   5.549  34.383  1.00  0.00     0.050 A 
ATOM     13  C   UNL     1     -11.995   7.720  35.347  1.00  0.00     0.050 A 
ATOM     14  C   UNL     1     -13.752   6.002  34.001  1.00  0.00     0.119 A 
ATOM     15  C   UNL     1     -13.263   8.175  34.967  1.00  0.00     0.119 A 
ATOM     16  C   UNL     1     -14.141   7.312  34.298  1.00  0.00     0.092 A 
BRANCH  14  17
ATOM     17  O   UNL     1     -14.634   5.159  33.328  1.00  0.00    -0.508 OA
ATOM     18  H   UNL     1     -15.636   5.218  33.470  1.00  0.00     0.293 HD
ENDBRANCH  14  17
BRANCH  15  19
ATOM     19  O   UNL     1     -13.639   9.485  35.258  1.00  0.00    -0.508 OA
ATOM     20  H   UNL     1     -14.527   9.695  35.699  1.00  0.00     0.293 HD
ENDBRANCH  15  19
ENDBRANCH  10  11
ENDBRANCH   1  10
TORSDOF 6
ENDMDL
MODEL 5
REMARK VINA RESULT:    -6.879      2.279      3.381
REMARK INTER + INTRA:          -9.199
REMARK INTER:                  -8.705
REMARK INTRA:                  -0.494
REMARK UNBOUND:                -0.511
REMARK SMILES Oc1cc(O)cc(CCc2ccccc2O)c1
REMARK SMILES IDX 9 1 10 2 12 3 13 4 11 5 14 6 15 7 16 8 8 10 7 11 6 12 17 13
REMARK SMILES IDX 4 14 2 15 3 16 5 17 1 19
REMARK H PARENT 16 9 5 18 1 20
REMARK Flexibility Score: inf
ROOT
ATOM      1  C   UNL     1     -11.929   4.470  35.408  1.00  0.00     0.044 C 
ENDROOT
BRANCH   1   2
ATOM      2  C   UNL     1     -13.277   3.944  34.978  1.00  0.00    -0.006 A 
ATOM      3  C   UNL     1     -15.374   4.329  33.799  1.00  0.00     0.001 A 
ATOM      4  C   UNL     1     -15.819   3.058  34.164  1.00  0.00     0.004 A 
ATOM      5  C   UNL     1     -14.113   4.772  34.207  1.00  0.00     0.007 A 
ATOM      6  C   UNL     1     -15.009   2.230  34.942  1.00  0.00     0.046 A 
ATOM      7  C   UNL     1     -13.745   2.662  35.363  1.00  0.00     0.118 A 
BRANCH   7   8
ATOM      8  O   UNL     1     -12.989   1.798  36.159  1.00  0.00    -0.508 OA
ATOM      9  H   UNL     1     -13.090   1.729  37.162  1.00  0.00     0.293 HD
ENDBRANCH   7   8
ENDBRANCH   1   2
BRANCH   1  10
ATOM     10  C   UNL     1     -11.369   5.446  34.368  1.00  0.00     0.040 C 
BRANCH  10  11
ATOM     11  C   UNL     1     -11.218   6.821  34.961  1.00  0.00    -0.040 A 
ATOM     12  C   UNL     1     -12.227   7.783  34.785  1.00  0.00     0.050 A 
ATOM     13  C   UNL     1     -10.044   7.170  35.647  1.00  0.00     0.050 A 
ATOM     14  C   UNL     1     -12.071   9.074  35.308  1.00  0.00     0.119 A 
ATOM     15  C   UNL     1      -9.886   8.458  36.170  1.00  0.00     0.119 A 
ATOM     16  C   UNL     1     -10.904   9.407  36.003  1.00  0.00     0.092 A 
BRANCH  14  17
ATOM     17  O   UNL     1     -13.069  10.032  35.143  1.00  0.00    -0.508 OA
ATOM     18  H   UNL     1     -13.907   9.838  34.606  1.00  0.00     0.293 HD
ENDBRANCH  14  17
BRANCH  15  19
ATOM     19  O   UNL     1      -8.717   8.784  36.853  1.00  0.00    -0.508 OA
ATOM     20  H   UNL     1      -7.812   8.449  36.543  1.00  0.00     0.293 HD
ENDBRANCH  15  19
ENDBRANCH  10  11
ENDBRANCH   1  10
TORSDOF 6
ENDMDL
MODEL 6
REMARK VINA RESULT:    -6.876      1.996      3.412
REMARK INTER + INTRA:          -9.195
REMARK INTER:                  -8.733
REMARK INTRA:                  -0.462
REMARK UNBOUND:                -0.511
REMARK SMILES Oc1cc(O)cc(CCc2ccccc2O)c1
REMARK SMILES IDX 9 1 10 2 12 3 13 4 11 5 14 6 15 7 16 8 8 10 7 11 6 12 17 13
REMARK SMILES IDX 4 14 2 15 3 16 5 17 1 19
REMARK H PARENT 16 9 5 18 1 20
REMARK Flexibility Score: inf
ROOT
ATOM      1  C   UNL     1     -13.095   5.992  34.004  1.00  0.00     0.044 C 
ENDROOT
BRANCH   1   2
ATOM      2  C   UNL     1     -13.876   4.730  34.282  1.00  0.00    -0.006 A 
ATOM      3  C   UNL     1     -14.007   2.581  35.421  1.00  0.00     0.001 A 
ATOM      4  C   UNL     1     -15.245   2.335  34.827  1.00  0.00     0.004 A 
ATOM      5  C   UNL     1     -13.324   3.768  35.147  1.00  0.00     0.007 A 
ATOM      6  C   UNL     1     -15.800   3.271  33.954  1.00  0.00     0.046 A 
ATOM      7  C   UNL     1     -15.125   4.464  33.665  1.00  0.00     0.118 A 
BRANCH   7   8
ATOM      8  O   UNL     1     -15.720   5.353  32.766  1.00  0.00    -0.508 OA
ATOM      9  H   UNL     1     -15.225   6.114  32.322  1.00  0.00     0.293 HD
ENDBRANCH   7   8
ENDBRANCH   1   2
BRANCH   1  10
ATOM     10  C   UNL     1     -11.737   5.959  34.714  1.00  0.00     0.040 C 
BRANCH  10  11
ATOM     11  C   UNL     1     -11.340   7.341  35.158  1.00  0.00    -0.040 A 
ATOM     12  C   UNL     1     -10.159   7.538  35.893  1.00  0.00     0.050 A 
ATOM     13  C   UNL     1     -12.175   8.437  34.889  1.00  0.00     0.050 A 
ATOM     14  C   UNL     1      -9.806   8.820  36.334  1.00  0.00     0.119 A 
ATOM     15  C   UNL     1     -11.825   9.719  35.329  1.00  0.00     0.119 A 
ATOM     16  C   UNL     1     -10.638   9.908  36.048  1.00  0.00     0.092 A 
BRANCH  14  17
ATOM     17  O   UNL     1      -8.634   9.024  37.058  1.00  0.00    -0.508 OA
ATOM     18  H   UNL     1      -7.721   8.911  36.632  1.00  0.00     0.293 HD
ENDBRANCH  14  17
BRANCH  15  19
ATOM     19  O   UNL     1     -12.664  10.795  35.047  1.00  0.00    -0.508 OA
ATOM     20  H   UNL     1     -13.197  10.839  34.186  1.00  0.00     0.293 HD
ENDBRANCH  15  19
ENDBRANCH  10  11
ENDBRANCH   1  10
TORSDOF 6
ENDMDL
MODEL 7
REMARK VINA RESULT:    -6.873      2.262      6.315
REMARK INTER + INTRA:          -9.192
REMARK INTER:                  -8.699
REMARK INTRA:                  -0.494
REMARK UNBOUND:                -0.511
REMARK SMILES Oc1cc(O)cc(CCc2ccccc2O)c1
REMARK SMILES IDX 9 1 10 2 12 3 13 4 11 5 14 6 15 7 16 8 8 10 7 11 6 12 17 13
REMARK SMILES IDX 4 14 2 15 3 16 5 17 1 19
REMARK H PARENT 16 9 5 18 1 20
REMARK Flexibility Score: inf
ROOT
ATOM      1  C   UNL     1     -10.486   6.896  34.830  1.00  0.00     0.044 C 
ENDROOT
BRANCH   1   2
ATOM      2  C   UNL     1      -9.986   8.058  35.653  1.00  0.00    -0.006 A 
ATOM      3  C   UNL     1      -8.146   9.107  36.856  1.00  0.00     0.001 A 
ATOM      4  C   UNL     1      -8.979  10.165  37.220  1.00  0.00     0.004 A 
ATOM      5  C   UNL     1      -8.646   8.057  36.082  1.00  0.00     0.007 A 
ATOM      6  C   UNL     1     -10.315  10.173  36.817  1.00  0.00     0.046 A 
ATOM      7  C   UNL     1     -10.833   9.126  36.044  1.00  0.00     0.118 A 
BRANCH   7   8
ATOM      8  O   UNL     1     -12.183   9.178  35.690  1.00  0.00    -0.508 OA
ATOM      9  H   UNL     1     -12.610   9.969  35.227  1.00  0.00     0.293 HD
ENDBRANCH   7   8
ENDBRANCH   1   2
BRANCH   1  10
ATOM     10  C   UNL     1     -10.806   5.693  35.724  1.00  0.00     0.040 C 
BRANCH  10  11
ATOM     11  C   UNL     1     -12.096   5.046  35.298  1.00  0.00    -0.040 A 
ATOM     12  C   UNL     1     -12.413   3.747  35.728  1.00  0.00     0.050 A 
ATOM     13  C   UNL     1     -12.965   5.714  34.420  1.00  0.00     0.050 A 
ATOM     14  C   UNL     1     -13.599   3.131  35.303  1.00  0.00     0.119 A 
ATOM     15  C   UNL     1     -14.149   5.101  33.995  1.00  0.00     0.119 A 
ATOM     16  C   UNL     1     -14.465   3.811  34.441  1.00  0.00     0.092 A 
BRANCH  14  17
ATOM     17  O   UNL     1     -13.924   1.846  35.731  1.00  0.00    -0.508 OA
ATOM     18  H   UNL     1     -14.885   1.567  35.888  1.00  0.00     0.293 HD
ENDBRANCH  14  17
BRANCH  15  19
ATOM     19  O   UNL     1     -15.002   5.782  33.129  1.00  0.00    -0.508 OA
ATOM     20  H   UNL     1     -15.324   6.720  33.333  1.00  0.00     0.293 HD
ENDBRANCH  15  19
ENDBRANCH  10  11
ENDBRANCH   1  10
TORSDOF 6
ENDMDL
MODEL 8
REMARK VINA RESULT:    -6.860      2.313      6.460
REMARK INTER + INTRA:          -9.175
REMARK INTER:                  -8.691
REMARK INTRA:                  -0.484
REMARK UNBOUND:                -0.511
REMARK SMILES Oc1cc(O)cc(CCc2ccccc2O)c1
REMARK SMILES IDX 9 1 10 2 12 3 13 4 11 5 14 6 15 7 16 8 8 10 7 11 6 12 17 13
REMARK SMILES IDX 4 14 2 15 3 16 5 17 1 19
REMARK H PARENT 16 9 5 18 1 20
REMARK Flexibility Score: inf
ROOT
ATOM      1  C   UNL     1     -11.075   6.263  34.453  1.00  0.00     0.044 C 
ENDROOT
BRANCH   1   2
ATOM      2  C   UNL     1     -10.419   7.385  35.221  1.00  0.00    -0.006 A 
ATOM      3  C   UNL     1      -8.377   8.381  36.098  1.00  0.00     0.001 A 
ATOM      4  C   UNL     1      -9.119   9.415  36.668  1.00  0.00     0.004 A 
ATOM      5  C   UNL     1      -9.022   7.369  35.383  1.00  0.00     0.007 A 
ATOM      6  C   UNL     1     -10.508   9.437  36.531  1.00  0.00     0.046 A 
ATOM      7  C   UNL     1     -11.170   8.428  35.821  1.00  0.00     0.118 A 
BRANCH   7   8
ATOM      8  O   UNL     1     -12.563   8.491  35.737  1.00  0.00    -0.508 OA
ATOM      9  H   UNL     1     -13.140   8.999  36.393  1.00  0.00     0.293 HD
ENDBRANCH   7   8
ENDBRANCH   1   2
BRANCH   1  10
ATOM     10  C   UNL     1     -11.542   5.154  35.402  1.00  0.00     0.040 C 
BRANCH  10  11
ATOM     11  C   UNL     1     -12.858   4.585  34.942  1.00  0.00    -0.040 A 
ATOM     12  C   UNL     1     -13.678   5.314  34.065  1.00  0.00     0.050 A 
ATOM     13  C   UNL     1     -13.301   3.346  35.432  1.00  0.00     0.050 A 
ATOM     14  C   UNL     1     -14.918   4.798  33.664  1.00  0.00     0.119 A 
ATOM     15  C   UNL     1     -14.539   2.830  35.033  1.00  0.00     0.119 A 
ATOM     16  C   UNL     1     -15.344   3.556  34.146  1.00  0.00     0.092 A 
BRANCH  14  17
ATOM     17  O   UNL     1     -15.734   5.512  32.789  1.00  0.00    -0.508 OA
ATOM     18  H   UNL     1     -15.732   6.526  32.770  1.00  0.00     0.293 HD
ENDBRANCH  14  17
BRANCH  15  19
ATOM     19  O   UNL     1     -14.959   1.596  35.525  1.00  0.00    -0.508 OA
ATOM     20  H   UNL     1     -15.724   1.087  35.096  1.00  0.00     0.293 HD
ENDBRANCH  15  19
ENDBRANCH  10  11
ENDBRANCH   1  10
TORSDOF 6
ENDMDL
MODEL 9
REMARK VINA RESULT:    -6.555      1.974      6.578
REMARK INTER + INTRA:          -8.789
REMARK INTER:                  -8.367
REMARK INTRA:                  -0.422
REMARK UNBOUND:                -0.511
REMARK SMILES Oc1cc(O)cc(CCc2ccccc2O)c1
REMARK SMILES IDX 9 1 10 2 12 3 13 4 11 5 14 6 15 7 16 8 8 10 7 11 6 12 17 13
REMARK SMILES IDX 4 14 2 15 3 16 5 17 1 19
REMARK H PARENT 16 9 5 18 1 20
REMARK Flexibility Score: inf
ROOT
ATOM      1  C   UNL     1     -10.871   7.295  35.616  1.00  0.00     0.044 C 
ENDROOT
BRANCH   1   2
ATOM      2  C   UNL     1      -9.479   7.877  35.683  1.00  0.00    -0.006 A 
ATOM      3  C   UNL     1      -7.145   7.755  35.000  1.00  0.00     0.001 A 
ATOM      4  C   UNL     1      -6.852   8.874  35.780  1.00  0.00     0.004 A 
ATOM      5  C   UNL     1      -8.449   7.256  34.954  1.00  0.00     0.007 A 
ATOM      6  C   UNL     1      -7.859   9.492  36.522  1.00  0.00     0.046 A 
ATOM      7  C   UNL     1      -9.170   9.001  36.491  1.00  0.00     0.118 A 
BRANCH   7   8
ATOM      8  O   UNL     1     -10.131   9.648  37.272  1.00  0.00    -0.508 OA
ATOM      9  H   UNL     1     -11.101   9.367  37.313  1.00  0.00     0.293 HD
ENDBRANCH   7   8
ENDBRANCH   1   2
BRANCH   1  10
ATOM     10  C   UNL     1     -10.816   5.783  35.371  1.00  0.00     0.040 C 
BRANCH  10  11
ATOM     11  C   UNL     1     -12.181   5.256  35.019  1.00  0.00    -0.040 A 
ATOM     12  C   UNL     1     -12.574   3.972  35.433  1.00  0.00     0.050 A 
ATOM     13  C   UNL     1     -13.051   6.021  34.226  1.00  0.00     0.050 A 
ATOM     14  C   UNL     1     -13.832   3.468  35.076  1.00  0.00     0.119 A 
ATOM     15  C   UNL     1     -14.308   5.520  33.868  1.00  0.00     0.119 A 
ATOM     16  C   UNL     1     -14.697   4.244  34.298  1.00  0.00     0.092 A 
BRANCH  14  17
ATOM     17  O   UNL     1     -14.231   2.199  35.489  1.00  0.00    -0.508 OA
ATOM     18  H   UNL     1     -14.043   1.376  34.928  1.00  0.00     0.293 HD
ENDBRANCH  14  17
BRANCH  15  19
ATOM     19  O   UNL     1     -15.160   6.296  33.085  1.00  0.00    -0.508 OA
ATOM     20  H   UNL     1     -16.066   5.953  32.789  1.00  0.00     0.293 HD
ENDBRANCH  15  19
ENDBRANCH  10  11
ENDBRANCH   1  10
TORSDOF 6
ENDMDL
