MODEL 1
REMARK VINA RESULT:    -4.543      0.000      0.000
REMARK INTER + INTRA:          -4.970
REMARK INTER:                  -4.942
REMARK INTRA:                  -0.028
REMARK UNBOUND:                -0.028
REMARK SMILES O=C([O-])c1ccc(O)cc1
REMARK SMILES IDX 4 1 5 2 10 3 6 4 9 5 7 6 2 7 1 8 3 9 8 10
REMARK H PARENT 8 11
REMARK Flexibility Score: inf
ROOT
ATOM      1  C   UNL     1      10.370  -4.946  27.489  1.00  0.00    -0.003 A 
ATOM      2  C   UNL     1      11.057  -5.117  28.705  1.00  0.00     0.014 A 
ATOM      3  C   UNL     1       9.236  -4.113  27.458  1.00  0.00     0.014 A 
ATOM      4  C   UNL     1      10.617  -4.469  29.863  1.00  0.00     0.047 A 
ATOM      5  C   UNL     1       8.800  -3.466  28.618  1.00  0.00     0.047 A 
ATOM      6  C   UNL     1       9.488  -3.642  29.822  1.00  0.00     0.115 A 
ENDROOT
BRANCH   1   7
ATOM      7  C   UNL     1      10.836  -5.633  26.264  1.00  0.00     0.071 C 
ATOM      8  O   UNL     1      11.961  -5.363  25.766  1.00  0.00    -0.545 OA
ATOM      9  O   UNL     1      10.036  -6.587  25.644  1.00  0.00    -0.545 OA
ENDBRANCH   1   7
BRANCH   6  10
ATOM     10  O   UNL     1       9.043  -2.991  30.970  1.00  0.00    -0.508 OA
ATOM     11  H   UNL     1       9.468  -2.127  31.289  1.00  0.00     0.293 HD
ENDBRANCH   6  10
TORSDOF 2
ENDMDL
MODEL 2
REMARK VINA RESULT:    -4.499      1.696      3.900
REMARK INTER + INTRA:          -4.922
REMARK INTER:                  -4.895
REMARK INTRA:                  -0.027
REMARK UNBOUND:                -0.028
REMARK SMILES O=C([O-])c1ccc(O)cc1
REMARK SMILES IDX 4 1 5 2 10 3 6 4 9 5 7 6 2 7 1 8 3 9 8 10
REMARK H PARENT 8 11
REMARK Flexibility Score: inf
ROOT
ATOM      1  C   UNL     1      10.533  -4.516  29.703  1.00  0.00    -0.003 A 
ATOM      2  C   UNL     1      11.075  -5.276  28.651  1.00  0.00     0.014 A 
ATOM      3  C   UNL     1       9.405  -3.712  29.453  1.00  0.00     0.014 A 
ATOM      4  C   UNL     1      10.500  -5.231  27.377  1.00  0.00     0.047 A 
ATOM      5  C   UNL     1       8.834  -3.670  28.178  1.00  0.00     0.047 A 
ATOM      6  C   UNL     1       9.378  -4.429  27.138  1.00  0.00     0.115 A 
ENDROOT
BRANCH   1   7
ATOM      7  C   UNL     1      11.143  -4.564  31.051  1.00  0.00     0.071 C 
ATOM      8  O   UNL     1      12.210  -3.941  31.294  1.00  0.00    -0.545 OA
ATOM      9  O   UNL     1      10.545  -5.299  32.068  1.00  0.00    -0.545 OA
ENDBRANCH   1   7
BRANCH   6  10
ATOM     10  O   UNL     1       8.797  -4.378  25.873  1.00  0.00    -0.508 OA
ATOM     11  H   UNL     1       9.190  -3.808  25.132  1.00  0.00     0.293 HD
ENDBRANCH   6  10
TORSDOF 2
ENDMDL
MODEL 3
REMARK VINA RESULT:    -4.490      1.692      4.079
REMARK INTER + INTRA:          -4.912
REMARK INTER:                  -4.884
REMARK INTRA:                  -0.027
REMARK UNBOUND:                -0.028
REMARK SMILES O=C([O-])c1ccc(O)cc1
REMARK SMILES IDX 4 1 5 2 10 3 6 4 9 5 7 6 2 7 1 8 3 9 8 10
REMARK H PARENT 8 11
REMARK Flexibility Score: inf
ROOT
ATOM      1  C   UNL     1      10.553  -4.500  29.688  1.00  0.00    -0.003 A 
ATOM      2  C   UNL     1       9.414  -3.710  29.448  1.00  0.00     0.014 A 
ATOM      3  C   UNL     1      11.096  -5.254  28.631  1.00  0.00     0.014 A 
ATOM      4  C   UNL     1       8.832  -3.677  28.178  1.00  0.00     0.047 A 
ATOM      5  C   UNL     1      10.510  -5.218  27.362  1.00  0.00     0.047 A 
ATOM      6  C   UNL     1       9.378  -4.431  27.131  1.00  0.00     0.115 A 
ENDROOT
BRANCH   1   7
ATOM      7  C   UNL     1      11.169  -4.534  31.033  1.00  0.00     0.071 C 
ATOM      8  O   UNL     1      12.211  -3.871  31.278  1.00  0.00    -0.545 OA
ATOM      9  O   UNL     1      10.605  -5.302  32.046  1.00  0.00    -0.545 OA
ENDBRANCH   1   7
BRANCH   6  10
ATOM     10  O   UNL     1       8.805  -4.404  25.862  1.00  0.00    -0.508 OA
ATOM     11  H   UNL     1       7.939  -3.910  25.681  1.00  0.00     0.293 HD
ENDBRANCH   6  10
TORSDOF 2
ENDMDL
MODEL 4
REMARK VINA RESULT:    -4.370      2.863      4.225
REMARK INTER + INTRA:          -4.782
REMARK INTER:                  -4.753
REMARK INTRA:                  -0.029
REMARK UNBOUND:                -0.028
REMARK SMILES O=C([O-])c1ccc(O)cc1
REMARK SMILES IDX 4 1 5 2 10 3 6 4 9 5 7 6 2 7 1 8 3 9 8 10
REMARK H PARENT 8 11
REMARK Flexibility Score: inf
ROOT
ATOM      1  C   UNL     1      11.603  -5.003  30.250  1.00  0.00    -0.003 A 
ATOM      2  C   UNL     1      12.380  -3.880  30.587  1.00  0.00     0.014 A 
ATOM      3  C   UNL     1      11.168  -5.157  28.920  1.00  0.00     0.014 A 
ATOM      4  C   UNL     1      12.713  -2.933  29.614  1.00  0.00     0.047 A 
ATOM      5  C   UNL     1      11.503  -4.207  27.951  1.00  0.00     0.047 A 
ATOM      6  C   UNL     1      12.276  -3.094  28.294  1.00  0.00     0.115 A 
ENDROOT
BRANCH   1   7
ATOM      7  C   UNL     1      11.251  -6.005  31.280  1.00  0.00     0.071 C 
ATOM      8  O   UNL     1      10.611  -5.667  32.310  1.00  0.00    -0.545 OA
ATOM      9  O   UNL     1      11.624  -7.336  31.124  1.00  0.00    -0.545 OA
ENDBRANCH   1   7
BRANCH   6  10
ATOM     10  O   UNL     1      12.602  -2.156  27.317  1.00  0.00    -0.508 OA
ATOM     11  H   UNL     1      12.400  -1.170  27.440  1.00  0.00     0.293 HD
ENDBRANCH   6  10
TORSDOF 2
ENDMDL
MODEL 5
REMARK VINA RESULT:    -4.349      2.823      4.352
REMARK INTER + INTRA:          -4.759
REMARK INTER:                  -4.730
REMARK INTRA:                  -0.029
REMARK UNBOUND:                -0.028
REMARK SMILES O=C([O-])c1ccc(O)cc1
REMARK SMILES IDX 4 1 5 2 10 3 6 4 9 5 7 6 2 7 1 8 3 9 8 10
REMARK H PARENT 8 11
REMARK Flexibility Score: inf
ROOT
ATOM      1  C   UNL     1      11.576  -4.991  30.215  1.00  0.00    -0.003 A 
ATOM      2  C   UNL     1      11.160  -5.191  28.886  1.00  0.00     0.014 A 
ATOM      3  C   UNL     1      12.330  -3.845  30.529  1.00  0.00     0.014 A 
ATOM      4  C   UNL     1      11.493  -4.265  27.894  1.00  0.00     0.047 A 
ATOM      5  C   UNL     1      12.661  -2.921  29.533  1.00  0.00     0.047 A 
ATOM      6  C   UNL     1      12.244  -3.128  28.215  1.00  0.00     0.115 A 
ENDROOT
BRANCH   1   7
ATOM      7  C   UNL     1      11.223  -5.973  31.265  1.00  0.00     0.071 C 
ATOM      8  O   UNL     1      10.540  -5.625  32.264  1.00  0.00    -0.545 OA
ATOM      9  O   UNL     1      11.642  -7.295  31.162  1.00  0.00    -0.545 OA
ENDBRANCH   1   7
BRANCH   6  10
ATOM     10  O   UNL     1      12.581  -2.198  27.234  1.00  0.00    -0.508 OA
ATOM     11  H   UNL     1      11.953  -1.986  26.466  1.00  0.00     0.293 HD
ENDBRANCH   6  10
TORSDOF 2
ENDMDL
MODEL 6
REMARK VINA RESULT:    -4.251      2.565      3.374
REMARK INTER + INTRA:          -4.652
REMARK INTER:                  -4.625
REMARK INTRA:                  -0.027
REMARK UNBOUND:                -0.028
REMARK SMILES O=C([O-])c1ccc(O)cc1
REMARK SMILES IDX 4 1 5 2 10 3 6 4 9 5 7 6 2 7 1 8 3 9 8 10
REMARK H PARENT 8 11
REMARK Flexibility Score: inf
ROOT
ATOM      1  C   UNL     1      11.378  -4.910  29.239  1.00  0.00    -0.003 A 
ATOM      2  C   UNL     1      12.204  -3.799  29.490  1.00  0.00     0.014 A 
ATOM      3  C   UNL     1      11.293  -5.930  30.206  1.00  0.00     0.014 A 
ATOM      4  C   UNL     1      12.928  -3.712  30.682  1.00  0.00     0.047 A 
ATOM      5  C   UNL     1      12.020  -5.838  31.397  1.00  0.00     0.047 A 
ATOM      6  C   UNL     1      12.838  -4.731  31.639  1.00  0.00     0.115 A 
ENDROOT
BRANCH   1   7
ATOM      7  C   UNL     1      10.612  -5.002  27.976  1.00  0.00     0.071 C 
ATOM      8  O   UNL     1       9.470  -4.481  27.881  1.00  0.00    -0.545 OA
ATOM      9  O   UNL     1      11.144  -5.666  26.876  1.00  0.00    -0.545 OA
ENDBRANCH   1   7
BRANCH   6  10
ATOM     10  O   UNL     1      13.555  -4.653  32.831  1.00  0.00    -0.508 OA
ATOM     11  H   UNL     1      13.298  -5.206  33.640  1.00  0.00     0.293 HD
ENDBRANCH   6  10
TORSDOF 2
ENDMDL
MODEL 7
REMARK VINA RESULT:    -4.219      2.519      3.691
REMARK INTER + INTRA:          -4.618
REMARK INTER:                  -4.589
REMARK INTRA:                  -0.029
REMARK UNBOUND:                -0.028
REMARK SMILES O=C([O-])c1ccc(O)cc1
REMARK SMILES IDX 4 1 5 2 10 3 6 4 9 5 7 6 2 7 1 8 3 9 8 10
REMARK H PARENT 8 11
REMARK Flexibility Score: inf
ROOT
ATOM      1  C   UNL     1      10.652  -4.208  29.852  1.00  0.00    -0.003 A 
ATOM      2  C   UNL     1      10.234  -4.626  31.128  1.00  0.00     0.014 A 
ATOM      3  C   UNL     1      12.014  -3.925  29.639  1.00  0.00     0.014 A 
ATOM      4  C   UNL     1      11.159  -4.757  32.168  1.00  0.00     0.047 A 
ATOM      5  C   UNL     1      12.936  -4.057  30.681  1.00  0.00     0.047 A 
ATOM      6  C   UNL     1      12.513  -4.473  31.947  1.00  0.00     0.115 A 
ENDROOT
BRANCH   1   7
ATOM      7  C   UNL     1       9.671  -4.070  28.752  1.00  0.00     0.071 C 
ATOM      8  O   UNL     1       9.763  -4.783  27.718  1.00  0.00    -0.545 OA
ATOM      9  O   UNL     1       8.634  -3.149  28.845  1.00  0.00    -0.545 OA
ENDBRANCH   1   7
BRANCH   6  10
ATOM     10  O   UNL     1      13.443  -4.601  32.976  1.00  0.00    -0.508 OA
ATOM     11  H   UNL     1      13.759  -5.510  33.295  1.00  0.00     0.293 HD
ENDBRANCH   6  10
TORSDOF 2
ENDMDL
MODEL 8
REMARK VINA RESULT:    -4.191      2.546      3.631
REMARK INTER + INTRA:          -4.587
REMARK INTER:                  -4.556
REMARK INTRA:                  -0.031
REMARK UNBOUND:                -0.028
REMARK SMILES O=C([O-])c1ccc(O)cc1
REMARK SMILES IDX 4 1 5 2 10 3 6 4 9 5 7 6 2 7 1 8 3 9 8 10
REMARK H PARENT 8 11
REMARK Flexibility Score: inf
ROOT
ATOM      1  C   UNL     1      10.734  -4.295  29.909  1.00  0.00    -0.003 A 
ATOM      2  C   UNL     1      12.113  -4.086  29.725  1.00  0.00     0.014 A 
ATOM      3  C   UNL     1      10.253  -4.583  31.200  1.00  0.00     0.014 A 
ATOM      4  C   UNL     1      12.990  -4.164  30.811  1.00  0.00     0.047 A 
ATOM      5  C   UNL     1      11.135  -4.661  32.283  1.00  0.00     0.047 A 
ATOM      6  C   UNL     1      12.504  -4.452  32.092  1.00  0.00     0.115 A 
ENDROOT
BRANCH   1   7
ATOM      7  C   UNL     1       9.806  -4.211  28.759  1.00  0.00     0.071 C 
ATOM      8  O   UNL     1       8.739  -3.547  28.844  1.00  0.00    -0.545 OA
ATOM      9  O   UNL     1      10.099  -4.867  27.568  1.00  0.00    -0.545 OA
ENDBRANCH   1   7
BRANCH   6  10
ATOM     10  O   UNL     1      13.370  -4.531  33.180  1.00  0.00    -0.508 OA
ATOM     11  H   UNL     1      13.502  -5.398  33.690  1.00  0.00     0.293 HD
ENDBRANCH   6  10
TORSDOF 2
ENDMDL
MODEL 9
REMARK VINA RESULT:    -3.933      4.710      5.960
REMARK INTER + INTRA:          -4.306
REMARK INTER:                  -4.279
REMARK INTRA:                  -0.027
REMARK UNBOUND:                -0.028
REMARK SMILES O=C([O-])c1ccc(O)cc1
REMARK SMILES IDX 4 1 5 2 10 3 6 4 9 5 7 6 2 7 1 8 3 9 8 10
REMARK H PARENT 8 11
REMARK Flexibility Score: inf
ROOT
ATOM      1  C   UNL     1      11.518  -3.097  32.244  1.00  0.00    -0.003 A 
ATOM      2  C   UNL     1      12.309  -3.741  31.276  1.00  0.00     0.014 A 
ATOM      3  C   UNL     1      11.447  -3.642  33.540  1.00  0.00     0.014 A 
ATOM      4  C   UNL     1      13.012  -4.906  31.598  1.00  0.00     0.047 A 
ATOM      5  C   UNL     1      12.152  -4.806  33.858  1.00  0.00     0.047 A 
ATOM      6  C   UNL     1      12.936  -5.441  32.890  1.00  0.00     0.115 A 
ENDROOT
BRANCH   1   7
ATOM      7  C   UNL     1      10.774  -1.864  31.902  1.00  0.00     0.071 C 
ATOM      8  O   UNL     1      11.292  -0.732  32.084  1.00  0.00    -0.545 OA
ATOM      9  O   UNL     1       9.489  -1.941  31.375  1.00  0.00    -0.545 OA
ENDBRANCH   1   7
BRANCH   6  10
ATOM     10  O   UNL     1      13.634  -6.600  33.222  1.00  0.00    -0.508 OA
ATOM     11  H   UNL     1      13.894  -7.282  32.518  1.00  0.00     0.293 HD
ENDBRANCH   6  10
TORSDOF 2
ENDMDL
