MODEL 1
REMARK VINA RESULT:    -4.998      0.000      0.000
REMARK INTER + INTRA:          -7.426
REMARK INTER:                  -6.751
REMARK INTRA:                  -0.676
REMARK UNBOUND:                -0.676
REMARK SMILES CC(=O)CCC=C(C)CCC=C(C)C
REMARK SMILES IDX 7 1 6 2 8 3 9 4 10 5 11 6 13 7 12 8 14 9 5 10 4 11 2 12 3 13
REMARK SMILES IDX 1 14
REMARK H PARENT
REMARK Flexibility Score: inf
ROOT
ATOM      1  C   UNL     1     -14.794   3.925  26.806  1.00  0.00    -0.077 C 
ATOM      2  C   UNL     1     -13.781   3.350  27.492  1.00  0.00    -0.028 C 
ATOM      3  C   UNL     1     -16.182   3.329  26.781  1.00  0.00     0.039 C 
ENDROOT
BRANCH   1   4
ATOM      4  C   UNL     1     -14.526   5.192  26.022  1.00  0.00     0.034 C 
BRANCH   4   5
ATOM      5  C   UNL     1     -13.399   6.004  26.669  1.00  0.00     0.032 C 
BRANCH   5   6
ATOM      6  C   UNL     1     -12.559   6.685  25.619  1.00  0.00    -0.028 C 
ATOM      7  C   UNL     1     -10.614   5.139  25.943  1.00  0.00     0.039 C 
ATOM      8  C   UNL     1     -11.316   6.286  25.259  1.00  0.00    -0.080 C 
ATOM      9  C   UNL     1     -10.576   7.025  24.175  1.00  0.00     0.039 C 
ENDBRANCH   5   6
ENDBRANCH   4   5
ENDBRANCH   1   4
BRANCH   2  10
ATOM     10  C   UNL     1     -13.916   2.109  28.342  1.00  0.00     0.035 C 
BRANCH  10  11
ATOM     11  C   UNL     1     -12.580   1.368  28.486  1.00  0.00     0.079 C 
BRANCH  11  12
ATOM     12  C   UNL     1     -12.785  -0.110  28.690  1.00  0.00     0.130 C 
ATOM     13  O   UNL     1     -11.859  -0.882  28.488  1.00  0.00    -0.300 OA
ATOM     14  C   UNL     1     -14.119  -0.656  29.099  1.00  0.00     0.087 C 
ENDBRANCH  11  12
ENDBRANCH  10  11
ENDBRANCH   2  10
TORSDOF 6
ENDMDL
MODEL 2
REMARK VINA RESULT:    -4.868      1.451      2.018
REMARK INTER + INTRA:          -7.251
REMARK INTER:                  -6.618
REMARK INTRA:                  -0.633
REMARK UNBOUND:                -0.676
REMARK SMILES CC(=O)CCC=C(C)CCC=C(C)C
REMARK SMILES IDX 7 1 6 2 8 3 9 4 10 5 11 6 13 7 12 8 14 9 5 10 4 11 2 12 3 13
REMARK SMILES IDX 1 14
REMARK H PARENT
REMARK Flexibility Score: inf
ROOT
ATOM      1  C   UNL     1     -14.950   5.113  26.812  1.00  0.00    -0.077 C 
ATOM      2  C   UNL     1     -15.055   3.846  26.350  1.00  0.00    -0.028 C 
ATOM      3  C   UNL     1     -15.377   5.492  28.211  1.00  0.00     0.039 C 
ENDROOT
BRANCH   1   4
ATOM      4  C   UNL     1     -14.409   6.187  25.894  1.00  0.00     0.034 C 
BRANCH   4   5
ATOM      5  C   UNL     1     -13.095   6.758  26.438  1.00  0.00     0.032 C 
BRANCH   5   6
ATOM      6  C   UNL     1     -12.029   5.693  26.491  1.00  0.00    -0.028 C 
ATOM      7  C   UNL     1     -10.720   6.684  24.599  1.00  0.00     0.039 C 
ATOM      8  C   UNL     1     -10.938   5.665  25.691  1.00  0.00    -0.080 C 
ATOM      9  C   UNL     1      -9.920   4.566  25.848  1.00  0.00     0.039 C 
ENDBRANCH   5   6
ENDBRANCH   4   5
ENDBRANCH   1   4
BRANCH   2  10
ATOM     10  C   UNL     1     -15.542   2.673  27.168  1.00  0.00     0.035 C 
BRANCH  10  11
ATOM     11  C   UNL     1     -14.386   1.946  27.866  1.00  0.00     0.079 C 
BRANCH  11  12
ATOM     12  C   UNL     1     -14.753   0.528  28.217  1.00  0.00     0.130 C 
ATOM     13  O   UNL     1     -14.569   0.119  29.353  1.00  0.00    -0.300 OA
ATOM     14  C   UNL     1     -15.307  -0.405  27.182  1.00  0.00     0.087 C 
ENDBRANCH  11  12
ENDBRANCH  10  11
ENDBRANCH   2  10
TORSDOF 6
ENDMDL
MODEL 3
REMARK VINA RESULT:    -4.863      2.381      5.383
REMARK INTER + INTRA:          -7.244
REMARK INTER:                  -6.477
REMARK INTRA:                  -0.767
REMARK UNBOUND:                -0.676
REMARK SMILES CC(=O)CCC=C(C)CCC=C(C)C
REMARK SMILES IDX 7 1 6 2 8 3 9 4 10 5 11 6 13 7 12 8 14 9 5 10 4 11 2 12 3 13
REMARK SMILES IDX 1 14
REMARK H PARENT
REMARK Flexibility Score: inf
ROOT
ATOM      1  C   UNL     1     -13.989   6.291  26.239  1.00  0.00    -0.077 C 
ATOM      2  C   UNL     1     -12.859   5.578  26.032  1.00  0.00    -0.028 C 
ATOM      3  C   UNL     1     -14.023   7.795  26.097  1.00  0.00     0.039 C 
ENDROOT
BRANCH   1   4
ATOM      4  C   UNL     1     -15.253   5.565  26.644  1.00  0.00     0.034 C 
BRANCH   4   5
ATOM      5  C   UNL     1     -15.181   4.086  26.249  1.00  0.00     0.032 C 
BRANCH   5   6
ATOM      6  C   UNL     1     -15.819   3.218  27.305  1.00  0.00    -0.028 C 
ATOM      7  C   UNL     1     -13.627   2.319  28.118  1.00  0.00     0.039 C 
ATOM      8  C   UNL     1     -15.130   2.443  28.174  1.00  0.00    -0.080 C 
ATOM      9  C   UNL     1     -15.869   1.636  29.209  1.00  0.00     0.039 C 
ENDBRANCH   5   6
ENDBRANCH   4   5
ENDBRANCH   1   4
BRANCH   2  10
ATOM     10  C   UNL     1     -11.540   6.169  25.590  1.00  0.00     0.035 C 
BRANCH  10  11
ATOM     11  C   UNL     1     -10.358   5.556  26.351  1.00  0.00     0.079 C 
BRANCH  11  12
ATOM     12  C   UNL     1      -9.748   4.405  25.595  1.00  0.00     0.130 C 
ATOM     13  O   UNL     1      -9.390   4.565  24.437  1.00  0.00    -0.300 OA
ATOM     14  C   UNL     1      -9.609   3.053  26.226  1.00  0.00     0.087 C 
ENDBRANCH  11  12
ENDBRANCH  10  11
ENDBRANCH   2  10
TORSDOF 6
ENDMDL
MODEL 4
REMARK VINA RESULT:    -4.785      1.525      2.074
REMARK INTER + INTRA:          -7.139
REMARK INTER:                  -6.381
REMARK INTRA:                  -0.758
REMARK UNBOUND:                -0.676
REMARK SMILES CC(=O)CCC=C(C)CCC=C(C)C
REMARK SMILES IDX 7 1 6 2 8 3 9 4 10 5 11 6 13 7 12 8 14 9 5 10 4 11 2 12 3 13
REMARK SMILES IDX 1 14
REMARK H PARENT
REMARK Flexibility Score: inf
ROOT
ATOM      1  C   UNL     1     -14.575   3.758  26.771  1.00  0.00    -0.077 C 
ATOM      2  C   UNL     1     -15.699   3.031  26.576  1.00  0.00    -0.028 C 
ATOM      3  C   UNL     1     -13.359   3.179  27.457  1.00  0.00     0.039 C 
ENDROOT
BRANCH   1   4
ATOM      4  C   UNL     1     -14.541   5.198  26.310  1.00  0.00     0.034 C 
BRANCH   4   5
ATOM      5  C   UNL     1     -13.312   5.921  26.871  1.00  0.00     0.032 C 
BRANCH   5   6
ATOM      6  C   UNL     1     -12.568   6.643  25.776  1.00  0.00    -0.028 C 
ATOM      7  C   UNL     1     -10.552   5.167  25.953  1.00  0.00     0.039 C 
ATOM      8  C   UNL     1     -11.339   6.293  25.331  1.00  0.00    -0.080 C 
ATOM      9  C   UNL     1     -10.699   7.069  24.209  1.00  0.00     0.039 C 
ENDBRANCH   5   6
ENDBRANCH   4   5
ENDBRANCH   1   4
BRANCH   2  10
ATOM     10  C   UNL     1     -15.857   1.577  26.952  1.00  0.00     0.035 C 
BRANCH  10  11
ATOM     11  C   UNL     1     -16.263   1.410  28.423  1.00  0.00     0.079 C 
BRANCH  11  12
ATOM     12  C   UNL     1     -15.477   0.314  29.094  1.00  0.00     0.130 C 
ATOM     13  O   UNL     1     -15.782  -0.044  30.222  1.00  0.00    -0.300 OA
ATOM     14  C   UNL     1     -14.300  -0.319  28.416  1.00  0.00     0.087 C 
ENDBRANCH  11  12
ENDBRANCH  10  11
ENDBRANCH   2  10
TORSDOF 6
ENDMDL
MODEL 5
REMARK VINA RESULT:    -4.779      2.537      6.412
REMARK INTER + INTRA:          -7.131
REMARK INTER:                  -6.893
REMARK INTRA:                  -0.238
REMARK UNBOUND:                -0.676
REMARK SMILES CC(=O)CCC=C(C)CCC=C(C)C
REMARK SMILES IDX 7 1 6 2 8 3 9 4 10 5 11 6 13 7 12 8 14 9 5 10 4 11 2 12 3 13
REMARK SMILES IDX 1 14
REMARK H PARENT
REMARK Flexibility Score: inf
ROOT
ATOM      1  C   UNL     1     -14.380   3.492  27.196  1.00  0.00    -0.077 C 
ATOM      2  C   UNL     1     -13.570   4.565  27.047  1.00  0.00    -0.028 C 
ATOM      3  C   UNL     1     -15.601   3.288  26.329  1.00  0.00     0.039 C 
ENDROOT
BRANCH   1   4
ATOM      4  C   UNL     1     -14.068   2.479  28.275  1.00  0.00     0.034 C 
BRANCH   4   5
ATOM      5  C   UNL     1     -14.631   1.101  27.907  1.00  0.00     0.032 C 
BRANCH   5   6
ATOM      6  C   UNL     1     -14.500   0.144  29.065  1.00  0.00    -0.028 C 
ATOM      7  C   UNL     1     -12.212  -0.617  28.383  1.00  0.00     0.039 C 
ATOM      8  C   UNL     1     -13.404  -0.612  29.309  1.00  0.00    -0.080 C 
ATOM      9  C   UNL     1     -13.370  -1.517  30.513  1.00  0.00     0.039 C 
ENDBRANCH   5   6
ENDBRANCH   4   5
ENDBRANCH   1   4
BRANCH   2  10
ATOM     10  C   UNL     1     -13.742   5.631  25.991  1.00  0.00     0.035 C 
BRANCH  10  11
ATOM     11  C   UNL     1     -12.692   6.742  26.127  1.00  0.00     0.079 C 
BRANCH  11  12
ATOM     12  C   UNL     1     -11.407   6.379  25.430  1.00  0.00     0.130 C 
ATOM     13  O   UNL     1     -11.065   6.996  24.433  1.00  0.00    -0.300 OA
ATOM     14  C   UNL     1     -10.559   5.243  25.918  1.00  0.00     0.087 C 
ENDBRANCH  11  12
ENDBRANCH  10  11
ENDBRANCH   2  10
TORSDOF 6
ENDMDL
MODEL 6
REMARK VINA RESULT:    -4.743      3.669      5.579
REMARK INTER + INTRA:          -7.082
REMARK INTER:                  -6.546
REMARK INTRA:                  -0.536
REMARK UNBOUND:                -0.676
REMARK SMILES CC(=O)CCC=C(C)CCC=C(C)C
REMARK SMILES IDX 7 1 6 2 8 3 9 4 10 5 11 6 13 7 12 8 14 9 5 10 4 11 2 12 3 13
REMARK SMILES IDX 1 14
REMARK H PARENT
REMARK Flexibility Score: inf
ROOT
ATOM      1  C   UNL     1     -13.615   6.154  26.539  1.00  0.00    -0.077 C 
ATOM      2  C   UNL     1     -12.416   6.712  26.255  1.00  0.00    -0.028 C 
ATOM      3  C   UNL     1     -13.751   4.696  26.909  1.00  0.00     0.039 C 
ENDROOT
BRANCH   1   4
ATOM      4  C   UNL     1     -14.860   7.010  26.463  1.00  0.00     0.034 C 
BRANCH   4   5
ATOM      5  C   UNL     1     -14.495   8.496  26.376  1.00  0.00     0.032 C 
BRANCH   5   6
ATOM      6  C   UNL     1     -15.480   9.336  27.151  1.00  0.00    -0.028 C 
ATOM      7  C   UNL     1     -15.112  11.366  25.730  1.00  0.00     0.039 C 
ATOM      8  C   UNL     1     -15.791  10.618  26.850  1.00  0.00    -0.080 C 
ATOM      9  C   UNL     1     -16.812  11.355  27.677  1.00  0.00     0.039 C 
ENDBRANCH   5   6
ENDBRANCH   4   5
ENDBRANCH   1   4
BRANCH   2  10
ATOM     10  C   UNL     1     -11.093   5.985  26.328  1.00  0.00     0.035 C 
BRANCH  10  11
ATOM     11  C   UNL     1     -10.565   5.625  24.933  1.00  0.00     0.079 C 
BRANCH  11  12
ATOM     12  C   UNL     1      -9.622   4.451  24.984  1.00  0.00     0.130 C 
ATOM     13  O   UNL     1      -8.863   4.245  24.049  1.00  0.00    -0.300 OA
ATOM     14  C   UNL     1      -9.628   3.505  26.147  1.00  0.00     0.087 C 
ENDBRANCH  11  12
ENDBRANCH  10  11
ENDBRANCH   2  10
TORSDOF 6
ENDMDL
MODEL 7
REMARK VINA RESULT:    -4.728      1.153      1.709
REMARK INTER + INTRA:          -7.062
REMARK INTER:                  -6.516
REMARK INTRA:                  -0.546
REMARK UNBOUND:                -0.676
REMARK SMILES CC(=O)CCC=C(C)CCC=C(C)C
REMARK SMILES IDX 7 1 6 2 8 3 9 4 10 5 11 6 13 7 12 8 14 9 5 10 4 11 2 12 3 13
REMARK SMILES IDX 1 14
REMARK H PARENT
REMARK Flexibility Score: inf
ROOT
ATOM      1  C   UNL     1     -15.343   2.757  26.970  1.00  0.00    -0.077 C 
ATOM      2  C   UNL     1     -14.642   2.185  27.975  1.00  0.00    -0.028 C 
ATOM      3  C   UNL     1     -16.608   2.136  26.424  1.00  0.00     0.039 C 
ENDROOT
BRANCH   1   4
ATOM      4  C   UNL     1     -14.835   4.044  26.358  1.00  0.00     0.034 C 
BRANCH   4   5
ATOM      5  C   UNL     1     -13.773   4.690  27.254  1.00  0.00     0.032 C 
BRANCH   5   6
ATOM      6  C   UNL     1     -12.563   5.089  26.447  1.00  0.00    -0.028 C 
ATOM      7  C   UNL     1     -13.392   7.422  26.061  1.00  0.00     0.039 C 
ATOM      8  C   UNL     1     -12.364   6.325  25.932  1.00  0.00    -0.080 C 
ATOM      9  C   UNL     1     -11.102   6.622  25.164  1.00  0.00     0.039 C 
ENDBRANCH   5   6
ENDBRANCH   4   5
ENDBRANCH   1   4
BRANCH   2  10
ATOM     10  C   UNL     1     -15.053   0.924  28.699  1.00  0.00     0.035 C 
BRANCH  10  11
ATOM     11  C   UNL     1     -14.385  -0.320  28.099  1.00  0.00     0.079 C 
BRANCH  11  12
ATOM     12  C   UNL     1     -13.216  -0.777  28.930  1.00  0.00     0.130 C 
ATOM     13  O   UNL     1     -12.099  -0.814  28.434  1.00  0.00    -0.300 OA
ATOM     14  C   UNL     1     -13.404  -1.227  30.347  1.00  0.00     0.087 C 
ENDBRANCH  11  12
ENDBRANCH  10  11
ENDBRANCH   2  10
TORSDOF 6
ENDMDL
MODEL 8
REMARK VINA RESULT:    -4.661      3.118      6.490
REMARK INTER + INTRA:          -6.971
REMARK INTER:                  -6.356
REMARK INTRA:                  -0.616
REMARK UNBOUND:                -0.676
REMARK SMILES CC(=O)CCC=C(C)CCC=C(C)C
REMARK SMILES IDX 7 1 6 2 8 3 9 4 10 5 11 6 13 7 12 8 14 9 5 10 4 11 2 12 3 13
REMARK SMILES IDX 1 14
REMARK H PARENT
REMARK Flexibility Score: inf
ROOT
ATOM      1  C   UNL     1     -14.678   3.990  26.588  1.00  0.00    -0.077 C 
ATOM      2  C   UNL     1     -14.374   5.278  26.307  1.00  0.00    -0.028 C 
ATOM      3  C   UNL     1     -13.799   3.137  27.473  1.00  0.00     0.039 C 
ENDROOT
BRANCH   1   4
ATOM      4  C   UNL     1     -15.921   3.378  25.980  1.00  0.00     0.034 C 
BRANCH   4   5
ATOM      5  C   UNL     1     -16.371   2.151  26.780  1.00  0.00     0.032 C 
BRANCH   5   6
ATOM      6  C   UNL     1     -17.072   1.158  25.888  1.00  0.00    -0.028 C 
ATOM      7  C   UNL     1     -15.626  -0.756  26.611  1.00  0.00     0.039 C 
ATOM      8  C   UNL     1     -16.768  -0.159  25.827  1.00  0.00    -0.080 C 
ATOM      9  C   UNL     1     -17.555  -1.069  24.918  1.00  0.00     0.039 C 
ENDBRANCH   5   6
ENDBRANCH   4   5
ENDBRANCH   1   4
BRANCH   2  10
ATOM     10  C   UNL     1     -13.188   6.023  26.873  1.00  0.00     0.035 C 
BRANCH  10  11
ATOM     11  C   UNL     1     -12.577   6.985  25.845  1.00  0.00     0.079 C 
BRANCH  11  12
ATOM     12  C   UNL     1     -11.281   6.454  25.291  1.00  0.00     0.130 C 
ATOM     13  O   UNL     1     -10.772   6.994  24.320  1.00  0.00    -0.300 OA
ATOM     14  C   UNL     1     -10.624   5.246  25.887  1.00  0.00     0.087 C 
ENDBRANCH  11  12
ENDBRANCH  10  11
ENDBRANCH   2  10
TORSDOF 6
ENDMDL
MODEL 9
REMARK VINA RESULT:    -4.601      3.017      6.035
REMARK INTER + INTRA:          -6.891
REMARK INTER:                  -5.854
REMARK INTRA:                  -1.037
REMARK UNBOUND:                -0.676
REMARK SMILES CC(=O)CCC=C(C)CCC=C(C)C
REMARK SMILES IDX 7 1 6 2 8 3 9 4 10 5 11 6 13 7 12 8 14 9 5 10 4 11 2 12 3 13
REMARK SMILES IDX 1 14
REMARK H PARENT
REMARK Flexibility Score: inf
ROOT
ATOM      1  C   UNL     1     -14.583   4.040  26.641  1.00  0.00    -0.077 C 
ATOM      2  C   UNL     1     -14.376   5.330  26.292  1.00  0.00    -0.028 C 
ATOM      3  C   UNL     1     -13.573   3.258  27.448  1.00  0.00     0.039 C 
ENDROOT
BRANCH   1   4
ATOM      4  C   UNL     1     -15.854   3.352  26.192  1.00  0.00     0.034 C 
BRANCH   4   5
ATOM      5  C   UNL     1     -16.842   3.219  27.357  1.00  0.00     0.032 C 
BRANCH   5   6
ATOM      6  C   UNL     1     -17.675   4.468  27.497  1.00  0.00    -0.028 C 
ATOM      7  C   UNL     1     -16.490   5.218  29.573  1.00  0.00     0.039 C 
ATOM      8  C   UNL     1     -17.505   5.392  28.471  1.00  0.00    -0.080 C 
ATOM      9  C   UNL     1     -18.378   6.620  28.500  1.00  0.00     0.039 C 
ENDBRANCH   5   6
ENDBRANCH   4   5
ENDBRANCH   1   4
BRANCH   2  10
ATOM     10  C   UNL     1     -13.173   6.147  26.702  1.00  0.00     0.035 C 
BRANCH  10  11
ATOM     11  C   UNL     1     -12.621   6.973  25.532  1.00  0.00     0.079 C 
BRANCH  11  12
ATOM     12  C   UNL     1     -11.262   6.486  25.103  1.00  0.00     0.130 C 
ATOM     13  O   UNL     1     -10.687   7.038  24.176  1.00  0.00    -0.300 OA
ATOM     14  C   UNL     1     -10.618   5.308  25.768  1.00  0.00     0.087 C 
ENDBRANCH  11  12
ENDBRANCH  10  11
ENDBRANCH   2  10
TORSDOF 6
ENDMDL
