MODEL 1
REMARK VINA RESULT:    -4.572      0.000      0.000
REMARK INTER + INTRA:          -7.179
REMARK INTER:                  -6.710
REMARK INTRA:                  -0.468
REMARK UNBOUND:                -0.468
REMARK SMILES O=C([O-])CCCCCCCC(=O)[O-]
REMARK SMILES IDX 7 1 6 2 5 3 4 4 2 5 1 6 3 7 8 8 9 9 10 10 11 11 12 12 13 13
REMARK H PARENT
REMARK Flexibility Score: inf
ROOT
ATOM      1  C   UNL     1       4.811  46.627  10.693  1.00  0.00     0.000 C 
ENDROOT
BRANCH   1   2
ATOM      2  C   UNL     1       4.814  46.882   9.177  1.00  0.00     0.000 C 
BRANCH   2   3
ATOM      3  C   UNL     1       3.558  47.632   8.699  1.00  0.00     0.006 C 
BRANCH   3   4
ATOM      4  C   UNL     1       3.877  48.647   7.594  1.00  0.00     0.053 C 
BRANCH   4   5
ATOM      5  C   UNL     1       2.908  49.790   7.588  1.00  0.00     0.041 C 
ATOM      6  O   UNL     1       1.669  49.571   7.535  1.00  0.00    -0.550 OA
ATOM      7  O   UNL     1       3.372  51.097   7.674  1.00  0.00    -0.550 OA
ENDBRANCH   4   5
ENDBRANCH   3   4
ENDBRANCH   2   3
ENDBRANCH   1   2
BRANCH   1   8
ATOM      8  C   UNL     1       3.493  46.005  11.185  1.00  0.00     0.000 C 
BRANCH   8   9
ATOM      9  C   UNL     1       3.680  44.580  11.731  1.00  0.00     0.006 C 
BRANCH   9  10
ATOM     10  C   UNL     1       2.683  43.580  11.133  1.00  0.00     0.053 C 
BRANCH  10  11
ATOM     11  C   UNL     1       2.851  43.500   9.648  1.00  0.00     0.041 C 
ATOM     12  O   UNL     1       1.842  43.518   8.895  1.00  0.00    -0.550 OA
ATOM     13  O   UNL     1       4.119  43.355   9.099  1.00  0.00    -0.550 OA
ENDBRANCH  10  11
ENDBRANCH   9  10
ENDBRANCH   8   9
ENDBRANCH   1   8
TORSDOF 8
ENDMDL
MODEL 2
REMARK VINA RESULT:    -4.561      1.083      1.722
REMARK INTER + INTRA:          -7.163
REMARK INTER:                  -6.650
REMARK INTRA:                  -0.513
REMARK UNBOUND:                -0.468
REMARK SMILES O=C([O-])CCCCCCCC(=O)[O-]
REMARK SMILES IDX 7 1 6 2 5 3 4 4 2 5 1 6 3 7 8 8 9 9 10 10 11 11 12 12 13 13
REMARK H PARENT
REMARK Flexibility Score: inf
ROOT
ATOM      1  C   UNL     1       3.737  45.902  11.367  1.00  0.00     0.000 C 
ENDROOT
BRANCH   1   2
ATOM      2  C   UNL     1       4.966  46.473  10.640  1.00  0.00     0.000 C 
BRANCH   2   3
ATOM      3  C   UNL     1       4.623  47.038   9.250  1.00  0.00     0.006 C 
BRANCH   3   4
ATOM      4  C   UNL     1       3.111  47.054   8.990  1.00  0.00     0.053 C 
BRANCH   4   5
ATOM      5  C   UNL     1       2.745  47.994   7.882  1.00  0.00     0.041 C 
ATOM      6  O   UNL     1       1.550  48.083   7.496  1.00  0.00    -0.550 OA
ATOM      7  O   UNL     1       3.719  48.794   7.297  1.00  0.00    -0.550 OA
ENDBRANCH   4   5
ENDBRANCH   3   4
ENDBRANCH   2   3
ENDBRANCH   1   2
BRANCH   1   8
ATOM      8  C   UNL     1       4.083  44.692  12.253  1.00  0.00     0.000 C 
BRANCH   8   9
ATOM      9  C   UNL     1       3.502  43.377  11.708  1.00  0.00     0.006 C 
BRANCH   9  10
ATOM     10  C   UNL     1       2.208  43.585  10.911  1.00  0.00     0.053 C 
BRANCH  10  11
ATOM     11  C   UNL     1       2.467  43.432   9.445  1.00  0.00     0.041 C 
ATOM     12  O   UNL     1       3.633  43.201   9.029  1.00  0.00    -0.550 OA
ATOM     13  O   UNL     1       1.430  43.594   8.535  1.00  0.00    -0.550 OA
ENDBRANCH  10  11
ENDBRANCH   9  10
ENDBRANCH   8   9
ENDBRANCH   1   8
TORSDOF 8
ENDMDL
MODEL 3
REMARK VINA RESULT:    -4.501      1.064      5.150
REMARK INTER + INTRA:          -7.074
REMARK INTER:                  -6.572
REMARK INTRA:                  -0.501
REMARK UNBOUND:                -0.468
REMARK SMILES O=C([O-])CCCCCCCC(=O)[O-]
REMARK SMILES IDX 7 1 6 2 5 3 4 4 2 5 1 6 3 7 8 8 9 9 10 10 11 11 12 12 13 13
REMARK H PARENT
REMARK Flexibility Score: inf
ROOT
ATOM      1  C   UNL     1       3.731  46.034  11.350  1.00  0.00     0.000 C 
ENDROOT
BRANCH   1   2
ATOM      2  C   UNL     1       4.042  44.741  12.121  1.00  0.00     0.000 C 
BRANCH   2   3
ATOM      3  C   UNL     1       2.961  43.662  11.930  1.00  0.00     0.006 C 
BRANCH   3   4
ATOM      4  C   UNL     1       1.825  44.138  11.016  1.00  0.00     0.053 C 
BRANCH   4   5
ATOM      5  C   UNL     1       2.004  43.662   9.606  1.00  0.00     0.041 C 
ATOM      6  O   UNL     1       1.206  44.031   8.706  1.00  0.00    -0.550 OA
ATOM      7  O   UNL     1       3.071  42.833   9.282  1.00  0.00    -0.550 OA
ENDBRANCH   4   5
ENDBRANCH   3   4
ENDBRANCH   2   3
ENDBRANCH   1   2
BRANCH   1   8
ATOM      8  C   UNL     1       4.945  46.563  10.567  1.00  0.00     0.000 C 
BRANCH   8   9
ATOM      9  C   UNL     1       4.589  46.964   9.127  1.00  0.00     0.006 C 
BRANCH   9  10
ATOM     10  C   UNL     1       3.083  47.177   8.925  1.00  0.00     0.053 C 
BRANCH  10  11
ATOM     11  C   UNL     1       2.839  48.243   7.904  1.00  0.00     0.041 C 
ATOM     12  O   UNL     1       1.665  48.513   7.538  1.00  0.00    -0.550 OA
ATOM     13  O   UNL     1       3.912  48.905   7.321  1.00  0.00    -0.550 OA
ENDBRANCH  10  11
ENDBRANCH   9  10
ENDBRANCH   8   9
ENDBRANCH   1   8
TORSDOF 8
ENDMDL
MODEL 4
REMARK VINA RESULT:    -4.485      1.082      5.477
REMARK INTER + INTRA:          -7.050
REMARK INTER:                  -6.507
REMARK INTRA:                  -0.543
REMARK UNBOUND:                -0.468
REMARK SMILES O=C([O-])CCCCCCCC(=O)[O-]
REMARK SMILES IDX 7 1 6 2 5 3 4 4 2 5 1 6 3 7 8 8 9 9 10 10 11 11 12 12 13 13
REMARK H PARENT
REMARK Flexibility Score: inf
ROOT
ATOM      1  C   UNL     1       4.813  46.579  10.627  1.00  0.00     0.000 C 
ENDROOT
BRANCH   1   2
ATOM      2  C   UNL     1       4.198  45.381  11.368  1.00  0.00     0.000 C 
BRANCH   2   3
ATOM      3  C   UNL     1       4.057  44.138  10.472  1.00  0.00     0.006 C 
BRANCH   3   4
ATOM      4  C   UNL     1       2.718  43.420  10.686  1.00  0.00     0.053 C 
BRANCH   4   5
ATOM      5  C   UNL     1       1.557  44.257  10.241  1.00  0.00     0.041 C 
ATOM      6  O   UNL     1       1.356  44.459   9.015  1.00  0.00    -0.550 OA
ATOM      7  O   UNL     1       0.681  44.788  11.179  1.00  0.00    -0.550 OA
ENDBRANCH   4   5
ENDBRANCH   3   4
ENDBRANCH   2   3
ENDBRANCH   1   2
BRANCH   1   8
ATOM      8  C   UNL     1       4.530  46.548   9.115  1.00  0.00     0.000 C 
BRANCH   8   9
ATOM      9  C   UNL     1       3.383  47.489   8.710  1.00  0.00     0.006 C 
BRANCH   9  10
ATOM     10  C   UNL     1       3.800  48.506   7.640  1.00  0.00     0.053 C 
BRANCH  10  11
ATOM     11  C   UNL     1       2.874  49.681   7.649  1.00  0.00     0.041 C 
ATOM     12  O   UNL     1       1.629  49.507   7.587  1.00  0.00    -0.550 OA
ATOM     13  O   UNL     1       3.389  50.971   7.676  1.00  0.00    -0.550 OA
ENDBRANCH  10  11
ENDBRANCH   9  10
ENDBRANCH   8   9
ENDBRANCH   1   8
TORSDOF 8
ENDMDL
MODEL 5
REMARK VINA RESULT:    -4.455      2.670      3.634
REMARK INTER + INTRA:          -7.007
REMARK INTER:                  -6.432
REMARK INTRA:                  -0.575
REMARK UNBOUND:                -0.468
REMARK SMILES O=C([O-])CCCCCCCC(=O)[O-]
REMARK SMILES IDX 7 1 6 2 5 3 4 4 2 5 1 6 3 7 8 8 9 9 10 10 11 11 12 12 13 13
REMARK H PARENT
REMARK Flexibility Score: inf
ROOT
ATOM      1  C   UNL     1       1.202  44.724   9.568  1.00  0.00     0.000 C 
ENDROOT
BRANCH   1   2
ATOM      2  C   UNL     1       1.448  46.133   9.004  1.00  0.00     0.000 C 
BRANCH   2   3
ATOM      3  C   UNL     1       2.572  46.880   9.745  1.00  0.00     0.006 C 
BRANCH   3   4
ATOM      4  C   UNL     1       3.692  47.326   8.797  1.00  0.00     0.053 C 
BRANCH   4   5
ATOM      5  C   UNL     1       5.037  47.268   9.455  1.00  0.00     0.041 C 
ATOM      6  O   UNL     1       6.041  47.778   8.891  1.00  0.00    -0.550 OA
ATOM      7  O   UNL     1       5.176  46.677  10.705  1.00  0.00    -0.550 OA
ENDBRANCH   4   5
ENDBRANCH   3   4
ENDBRANCH   2   3
ENDBRANCH   1   2
BRANCH   1   8
ATOM      8  C   UNL     1       2.077  43.654   8.891  1.00  0.00     0.000 C 
BRANCH   8   9
ATOM      9  C   UNL     1       2.758  42.721   9.905  1.00  0.00     0.006 C 
BRANCH   9  10
ATOM     10  C   UNL     1       3.883  43.413  10.686  1.00  0.00     0.053 C 
BRANCH  10  11
ATOM     11  C   UNL     1       3.429  43.740  12.074  1.00  0.00     0.041 C 
ATOM     12  O   UNL     1       4.145  44.456  12.822  1.00  0.00    -0.550 OA
ATOM     13  O   UNL     1       2.239  43.212  12.558  1.00  0.00    -0.550 OA
ENDBRANCH  10  11
ENDBRANCH   9  10
ENDBRANCH   8   9
ENDBRANCH   1   8
TORSDOF 8
ENDMDL
MODEL 6
REMARK VINA RESULT:    -4.426      2.331      3.495
REMARK INTER + INTRA:          -6.965
REMARK INTER:                  -6.396
REMARK INTRA:                  -0.569
REMARK UNBOUND:                -0.468
REMARK SMILES O=C([O-])CCCCCCCC(=O)[O-]
REMARK SMILES IDX 7 1 6 2 5 3 4 4 2 5 1 6 3 7 8 8 9 9 10 10 11 11 12 12 13 13
REMARK H PARENT
REMARK Flexibility Score: inf
ROOT
ATOM      1  C   UNL     1       2.767  44.033  11.574  1.00  0.00     0.000 C 
ENDROOT
BRANCH   1   2
ATOM      2  C   UNL     1       4.088  44.792  11.785  1.00  0.00     0.000 C 
BRANCH   2   3
ATOM      3  C   UNL     1       4.090  46.176  11.113  1.00  0.00     0.006 C 
BRANCH   3   4
ATOM      4  C   UNL     1       4.491  46.100   9.634  1.00  0.00     0.053 C 
BRANCH   4   5
ATOM      5  C   UNL     1       5.076  47.390   9.146  1.00  0.00     0.041 C 
ATOM      6  O   UNL     1       6.281  47.669   9.380  1.00  0.00    -0.550 OA
ATOM      7  O   UNL     1       4.297  48.272   8.405  1.00  0.00    -0.550 OA
ENDBRANCH   4   5
ENDBRANCH   3   4
ENDBRANCH   2   3
ENDBRANCH   1   2
BRANCH   1   8
ATOM      8  C   UNL     1       2.833  43.048  10.394  1.00  0.00     0.000 C 
BRANCH   8   9
ATOM      9  C   UNL     1       1.998  43.514   9.190  1.00  0.00     0.006 C 
BRANCH   9  10
ATOM     10  C   UNL     1       1.071  44.688   9.530  1.00  0.00     0.053 C 
BRANCH  10  11
ATOM     11  C   UNL     1       0.697  45.433   8.287  1.00  0.00     0.041 C 
ATOM     12  O   UNL     1       0.031  44.863   7.383  1.00  0.00    -0.550 OA
ATOM     13  O   UNL     1       1.126  46.742   8.106  1.00  0.00    -0.550 OA
ENDBRANCH  10  11
ENDBRANCH   9  10
ENDBRANCH   8   9
ENDBRANCH   1   8
TORSDOF 8
ENDMDL
MODEL 7
REMARK VINA RESULT:    -4.339      1.670      5.851
REMARK INTER + INTRA:          -6.837
REMARK INTER:                  -6.350
REMARK INTRA:                  -0.487
REMARK UNBOUND:                -0.468
REMARK SMILES O=C([O-])CCCCCCCC(=O)[O-]
REMARK SMILES IDX 7 1 6 2 5 3 4 4 2 5 1 6 3 7 8 8 9 9 10 10 11 11 12 12 13 13
REMARK H PARENT
REMARK Flexibility Score: inf
ROOT
ATOM      1  C   UNL     1       2.337  46.742  10.044  1.00  0.00     0.000 C 
ENDROOT
BRANCH   1   2
ATOM      2  C   UNL     1       3.699  46.079   9.781  1.00  0.00     0.000 C 
BRANCH   2   3
ATOM      3  C   UNL     1       4.497  45.830  11.074  1.00  0.00     0.006 C 
BRANCH   3   4
ATOM      4  C   UNL     1       3.852  44.749  11.952  1.00  0.00     0.053 C 
BRANCH   4   5
ATOM      5  C   UNL     1       3.466  43.539  11.156  1.00  0.00     0.041 C 
ATOM      6  O   UNL     1       4.350  42.848  10.585  1.00  0.00    -0.550 OA
ATOM      7  O   UNL     1       2.133  43.159  11.070  1.00  0.00    -0.550 OA
ENDBRANCH   4   5
ENDBRANCH   3   4
ENDBRANCH   2   3
ENDBRANCH   1   2
BRANCH   1   8
ATOM      8  C   UNL     1       1.315  46.454   8.931  1.00  0.00     0.000 C 
BRANCH   8   9
ATOM      9  C   UNL     1       1.270  47.566   7.870  1.00  0.00     0.006 C 
BRANCH   9  10
ATOM     10  C   UNL     1       1.707  48.929   8.420  1.00  0.00     0.053 C 
BRANCH  10  11
ATOM     11  C   UNL     1       2.854  49.470   7.626  1.00  0.00     0.041 C 
ATOM     12  O   UNL     1       2.846  50.667   7.237  1.00  0.00    -0.550 OA
ATOM     13  O   UNL     1       3.908  48.637   7.274  1.00  0.00    -0.550 OA
ENDBRANCH  10  11
ENDBRANCH   9  10
ENDBRANCH   8   9
ENDBRANCH   1   8
TORSDOF 8
ENDMDL
MODEL 8
REMARK VINA RESULT:    -4.262      2.121      2.842
REMARK INTER + INTRA:          -6.724
REMARK INTER:                  -6.324
REMARK INTRA:                  -0.400
REMARK UNBOUND:                -0.468
REMARK SMILES O=C([O-])CCCCCCCC(=O)[O-]
REMARK SMILES IDX 7 1 6 2 5 3 4 4 2 5 1 6 3 7 8 8 9 9 10 10 11 11 12 12 13 13
REMARK H PARENT
REMARK Flexibility Score: inf
ROOT
ATOM      1  C   UNL     1       1.060  45.062  10.006  1.00  0.00     0.000 C 
ENDROOT
BRANCH   1   2
ATOM      2  C   UNL     1       0.902  46.347   9.177  1.00  0.00     0.000 C 
BRANCH   2   3
ATOM      3  C   UNL     1       2.226  47.115   9.013  1.00  0.00     0.006 C 
BRANCH   3   4
ATOM      4  C   UNL     1       2.198  48.064   7.809  1.00  0.00     0.053 C 
BRANCH   4   5
ATOM      5  C   UNL     1       3.428  48.918   7.741  1.00  0.00     0.041 C 
ATOM      6  O   UNL     1       3.353  50.104   7.327  1.00  0.00    -0.550 OA
ATOM      7  O   UNL     1       4.651  48.412   8.165  1.00  0.00    -0.550 OA
ENDBRANCH   4   5
ENDBRANCH   3   4
ENDBRANCH   2   3
ENDBRANCH   1   2
BRANCH   1   8
ATOM      8  C   UNL     1       1.788  43.947   9.235  1.00  0.00     0.000 C 
BRANCH   8   9
ATOM      9  C   UNL     1       2.616  43.036  10.156  1.00  0.00     0.006 C 
BRANCH   9  10
ATOM     10  C   UNL     1       4.052  43.537  10.350  1.00  0.00     0.053 C 
BRANCH  10  11
ATOM     11  C   UNL     1       4.111  44.534  11.465  1.00  0.00     0.041 C 
ATOM     12  O   UNL     1       3.666  44.237  12.604  1.00  0.00    -0.550 OA
ATOM     13  O   UNL     1       4.611  45.809  11.231  1.00  0.00    -0.550 OA
ENDBRANCH  10  11
ENDBRANCH   9  10
ENDBRANCH   8   9
ENDBRANCH   1   8
TORSDOF 8
ENDMDL
MODEL 9
REMARK VINA RESULT:    -4.187      2.318      2.889
REMARK INTER + INTRA:          -6.614
REMARK INTER:                  -6.110
REMARK INTRA:                  -0.504
REMARK UNBOUND:                -0.468
REMARK SMILES O=C([O-])CCCCCCCC(=O)[O-]
REMARK SMILES IDX 7 1 6 2 5 3 4 4 2 5 1 6 3 7 8 8 9 9 10 10 11 11 12 12 13 13
REMARK H PARENT
REMARK Flexibility Score: inf
ROOT
ATOM      1  C   UNL     1       4.629  47.409   8.968  1.00  0.00     0.000 C 
ENDROOT
BRANCH   1   2
ATOM      2  C   UNL     1       3.622  48.063   8.008  1.00  0.00     0.000 C 
BRANCH   2   3
ATOM      3  C   UNL     1       2.203  48.141   8.600  1.00  0.00     0.006 C 
BRANCH   3   4
ATOM      4  C   UNL     1       1.141  47.616   7.625  1.00  0.00     0.053 C 
BRANCH   4   5
ATOM      5  C   UNL     1       0.522  46.339   8.107  1.00  0.00     0.041 C 
ATOM      6  O   UNL     1      -0.110  45.600   7.308  1.00  0.00    -0.550 OA
ATOM      7  O   UNL     1       0.671  45.950   9.433  1.00  0.00    -0.550 OA
ENDBRANCH   4   5
ENDBRANCH   3   4
ENDBRANCH   2   3
ENDBRANCH   1   2
BRANCH   1   8
ATOM      8  C   UNL     1       4.129  46.065   9.524  1.00  0.00     0.000 C 
BRANCH   8   9
ATOM      9  C   UNL     1       4.507  45.860  11.000  1.00  0.00     0.006 C 
BRANCH   9  10
ATOM     10  C   UNL     1       3.574  44.878  11.721  1.00  0.00     0.053 C 
BRANCH  10  11
ATOM     11  C   UNL     1       3.395  43.635  10.907  1.00  0.00     0.041 C 
ATOM     12  O   UNL     1       2.240  43.251  10.584  1.00  0.00    -0.550 OA
ATOM     13  O   UNL     1       4.500  42.875  10.548  1.00  0.00    -0.550 OA
ENDBRANCH  10  11
ENDBRANCH   9  10
ENDBRANCH   8   9
ENDBRANCH   1   8
TORSDOF 8
ENDMDL
