MODEL 1
REMARK VINA RESULT:     4.175      0.000      0.000
REMARK INTER + INTRA:           7.322
REMARK INTER:                   9.056
REMARK INTRA:                  -1.733
REMARK UNBOUND:                -1.733
REMARK SMILES CCCCCCCCCCCCCCCCCCCCCC(=O)[O-]
REMARK SMILES IDX 12 1 11 2 10 3 9 4 8 5 7 6 6 7 5 8 4 9 3 10 2 11 1 12 13 13
REMARK SMILES IDX 14 14 15 15 16 16 17 17 18 18 19 19 20 20 21 21 22 22 23 23
REMARK SMILES IDX 24 24
REMARK H PARENT
REMARK Flexibility Score: inf
ROOT
ATOM      1  C   UNL     1      -5.123  35.355  22.355  1.00  0.00     0.000 C 
ENDROOT
BRANCH   1   2
ATOM      2  C   UNL     1      -4.882  34.657  23.702  1.00  0.00     0.000 C 
BRANCH   2   3
ATOM      3  C   UNL     1      -5.023  35.611  24.900  1.00  0.00     0.000 C 
BRANCH   3   4
ATOM      4  C   UNL     1      -5.122  37.087  24.479  1.00  0.00    -0.000 C 
BRANCH   4   5
ATOM      5  C   UNL     1      -4.682  38.075  25.580  1.00  0.00    -0.000 C 
BRANCH   5   6
ATOM      6  C   UNL     1      -3.948  37.368  26.734  1.00  0.00    -0.000 C 
BRANCH   6   7
ATOM      7  C   UNL     1      -2.528  37.915  26.956  1.00  0.00    -0.000 C 
BRANCH   7   8
ATOM      8  C   UNL     1      -1.484  36.800  27.120  1.00  0.00    -0.000 C 
BRANCH   8   9
ATOM      9  C   UNL     1      -1.935  35.781  28.177  1.00  0.00    -0.000 C 
BRANCH   9  10
ATOM     10  C   UNL     1      -0.782  34.895  28.685  1.00  0.00    -0.000 C 
BRANCH  10  11
ATOM     11  C   UNL     1      -0.943  34.387  30.129  1.00  0.00    -0.003 C 
ATOM     12  C   UNL     1      -2.276  33.677  30.368  1.00  0.00     0.004 C 
ENDBRANCH  10  11
ENDBRANCH   9  10
ENDBRANCH   8   9
ENDBRANCH   7   8
ENDBRANCH   6   7
ENDBRANCH   5   6
ENDBRANCH   4   5
ENDBRANCH   3   4
ENDBRANCH   2   3
ENDBRANCH   1   2
BRANCH   1  13
ATOM     13  C   UNL     1      -4.421  34.648  21.184  1.00  0.00     0.000 C 
BRANCH  13  14
ATOM     14  C   UNL     1      -4.537  35.470  19.895  1.00  0.00     0.000 C 
BRANCH  14  15
ATOM     15  C   UNL     1      -5.080  36.878  20.189  1.00  0.00     0.000 C 
BRANCH  15  16
ATOM     16  C   UNL     1      -4.213  37.987  19.574  1.00  0.00     0.000 C 
BRANCH  16  17
ATOM     17  C   UNL     1      -2.709  37.684  19.664  1.00  0.00     0.000 C 
BRANCH  17  18
ATOM     18  C   UNL     1      -1.974  37.913  18.333  1.00  0.00     0.000 C 
BRANCH  18  19
ATOM     19  C   UNL     1      -1.362  36.629  17.735  1.00  0.00     0.000 C 
BRANCH  19  20
ATOM     20  C   UNL     1      -1.966  36.284  16.362  1.00  0.00     0.006 C 
BRANCH  20  21
ATOM     21  C   UNL     1      -3.375  36.867  16.183  1.00  0.00     0.053 C 
BRANCH  21  22
ATOM     22  C   UNL     1      -3.531  37.560  14.863  1.00  0.00     0.041 C 
ATOM     23  O   UNL     1      -2.827  37.212  13.878  1.00  0.00    -0.550 OA
ATOM     24  O   UNL     1      -4.441  38.601  14.726  1.00  0.00    -0.550 OA
ENDBRANCH  21  22
ENDBRANCH  20  21
ENDBRANCH  19  20
ENDBRANCH  18  19
ENDBRANCH  17  18
ENDBRANCH  16  17
ENDBRANCH  15  16
ENDBRANCH  14  15
ENDBRANCH  13  14
ENDBRANCH   1  13
TORSDOF 20
ENDMDL
MODEL 2
REMARK VINA RESULT:     4.744      2.120      3.280
REMARK INTER + INTRA:           8.558
REMARK INTER:                   9.249
REMARK INTRA:                  -0.690
REMARK UNBOUND:                -1.733
REMARK SMILES CCCCCCCCCCCCCCCCCCCCCC(=O)[O-]
REMARK SMILES IDX 12 1 11 2 10 3 9 4 8 5 7 6 6 7 5 8 4 9 3 10 2 11 1 12 13 13
REMARK SMILES IDX 14 14 15 15 16 16 17 17 18 18 19 19 20 20 21 21 22 22 23 23
REMARK SMILES IDX 24 24
REMARK H PARENT
REMARK Flexibility Score: inf
ROOT
ATOM      1  C   UNL     1      -4.226  36.126  20.952  1.00  0.00     0.000 C 
ENDROOT
BRANCH   1   2
ATOM      2  C   UNL     1      -3.488  34.822  21.292  1.00  0.00     0.000 C 
BRANCH   2   3
ATOM      3  C   UNL     1      -3.751  34.347  22.731  1.00  0.00     0.000 C 
BRANCH   3   4
ATOM      4  C   UNL     1      -5.123  34.796  23.266  1.00  0.00    -0.000 C 
BRANCH   4   5
ATOM      5  C   UNL     1      -5.125  36.233  23.830  1.00  0.00    -0.000 C 
BRANCH   5   6
ATOM      6  C   UNL     1      -4.693  36.277  25.308  1.00  0.00    -0.000 C 
BRANCH   6   7
ATOM      7  C   UNL     1      -4.882  37.667  25.938  1.00  0.00    -0.000 C 
BRANCH   7   8
ATOM      8  C   UNL     1      -3.951  37.904  27.136  1.00  0.00    -0.000 C 
BRANCH   8   9
ATOM      9  C   UNL     1      -2.484  37.673  26.742  1.00  0.00    -0.000 C 
BRANCH   9  10
ATOM     10  C   UNL     1      -1.688  36.910  27.817  1.00  0.00    -0.000 C 
BRANCH  10  11
ATOM     11  C   UNL     1      -2.244  35.518  28.169  1.00  0.00    -0.003 C 
ATOM     12  C   UNL     1      -1.385  34.773  29.193  1.00  0.00     0.004 C 
ENDBRANCH  10  11
ENDBRANCH   9  10
ENDBRANCH   8   9
ENDBRANCH   7   8
ENDBRANCH   6   7
ENDBRANCH   5   6
ENDBRANCH   4   5
ENDBRANCH   3   4
ENDBRANCH   2   3
ENDBRANCH   1   2
BRANCH   1  13
ATOM     13  C   UNL     1      -5.013  36.037  19.634  1.00  0.00     0.000 C 
BRANCH  13  14
ATOM     14  C   UNL     1      -4.932  34.628  19.037  1.00  0.00     0.000 C 
BRANCH  14  15
ATOM     15  C   UNL     1      -4.402  34.673  17.594  1.00  0.00     0.000 C 
BRANCH  15  16
ATOM     16  C   UNL     1      -3.927  36.074  17.182  1.00  0.00     0.000 C 
BRANCH  16  17
ATOM     17  C   UNL     1      -3.915  36.273  15.658  1.00  0.00     0.000 C 
BRANCH  17  18
ATOM     18  C   UNL     1      -2.497  36.455  15.091  1.00  0.00     0.000 C 
BRANCH  18  19
ATOM     19  C   UNL     1      -1.392  36.425  16.167  1.00  0.00     0.000 C 
BRANCH  19  20
ATOM     20  C   UNL     1      -1.444  37.658  17.087  1.00  0.00     0.006 C 
BRANCH  20  21
ATOM     21  C   UNL     1      -0.439  37.564  18.243  1.00  0.00     0.053 C 
BRANCH  21  22
ATOM     22  C   UNL     1      -1.113  37.665  19.579  1.00  0.00     0.041 C 
ATOM     23  O   UNL     1      -0.564  37.180  20.604  1.00  0.00    -0.550 OA
ATOM     24  O   UNL     1      -2.355  38.280  19.688  1.00  0.00    -0.550 OA
ENDBRANCH  21  22
ENDBRANCH  20  21
ENDBRANCH  19  20
ENDBRANCH  18  19
ENDBRANCH  17  18
ENDBRANCH  16  17
ENDBRANCH  15  16
ENDBRANCH  14  15
ENDBRANCH  13  14
ENDBRANCH   1  13
TORSDOF 20
ENDMDL
MODEL 3
REMARK VINA RESULT:     5.297      2.008      2.834
REMARK INTER + INTRA:           9.757
REMARK INTER:                  10.254
REMARK INTRA:                  -0.497
REMARK UNBOUND:                -1.733
REMARK SMILES CCCCCCCCCCCCCCCCCCCCCC(=O)[O-]
REMARK SMILES IDX 12 1 11 2 10 3 9 4 8 5 7 6 6 7 5 8 4 9 3 10 2 11 1 12 13 13
REMARK SMILES IDX 14 14 15 15 16 16 17 17 18 18 19 19 20 20 21 21 22 22 23 23
REMARK SMILES IDX 24 24
REMARK H PARENT
REMARK Flexibility Score: inf
ROOT
ATOM      1  C   UNL     1      -3.253  34.902  21.799  1.00  0.00     0.000 C 
ENDROOT
BRANCH   1   2
ATOM      2  C   UNL     1      -4.638  35.019  22.455  1.00  0.00     0.000 C 
BRANCH   2   3
ATOM      3  C   UNL     1      -4.747  34.216  23.762  1.00  0.00     0.000 C 
BRANCH   3   4
ATOM      4  C   UNL     1      -5.125  35.090  24.970  1.00  0.00    -0.000 C 
BRANCH   4   5
ATOM      5  C   UNL     1      -5.015  36.605  24.694  1.00  0.00    -0.000 C 
BRANCH   5   6
ATOM      6  C   UNL     1      -4.753  37.412  25.979  1.00  0.00    -0.000 C 
BRANCH   6   7
ATOM      7  C   UNL     1      -3.362  38.066  25.993  1.00  0.00    -0.000 C 
BRANCH   7   8
ATOM      8  C   UNL     1      -2.624  37.858  27.324  1.00  0.00    -0.000 C 
BRANCH   8   9
ATOM      9  C   UNL     1      -1.838  36.538  27.311  1.00  0.00    -0.000 C 
BRANCH   9  10
ATOM     10  C   UNL     1      -2.156  35.640  28.521  1.00  0.00    -0.000 C 
BRANCH  10  11
ATOM     11  C   UNL     1      -1.018  34.692  28.942  1.00  0.00    -0.003 C 
ATOM     12  C   UNL     1      -1.318  33.935  30.236  1.00  0.00     0.004 C 
ENDBRANCH  10  11
ENDBRANCH   9  10
ENDBRANCH   8   9
ENDBRANCH   7   8
ENDBRANCH   6   7
ENDBRANCH   5   6
ENDBRANCH   4   5
ENDBRANCH   3   4
ENDBRANCH   2   3
ENDBRANCH   1   2
BRANCH   1  13
ATOM     13  C   UNL     1      -3.083  35.843  20.596  1.00  0.00     0.000 C 
BRANCH  13  14
ATOM     14  C   UNL     1      -4.437  36.167  19.953  1.00  0.00     0.000 C 
BRANCH  14  15
ATOM     15  C   UNL     1      -5.070  34.906  19.342  1.00  0.00     0.000 C 
BRANCH  15  16
ATOM     16  C   UNL     1      -4.476  34.552  17.970  1.00  0.00     0.000 C 
BRANCH  16  17
ATOM     17  C   UNL     1      -4.274  35.784  17.074  1.00  0.00     0.000 C 
BRANCH  17  18
ATOM     18  C   UNL     1      -2.970  35.723  16.261  1.00  0.00     0.000 C 
BRANCH  18  19
ATOM     19  C   UNL     1      -1.901  36.732  16.729  1.00  0.00     0.000 C 
BRANCH  19  20
ATOM     20  C   UNL     1      -2.526  37.973  17.391  1.00  0.00     0.006 C 
BRANCH  20  21
ATOM     21  C   UNL     1      -2.019  38.185  18.825  1.00  0.00     0.053 C 
BRANCH  21  22
ATOM     22  C   UNL     1      -0.580  37.790  18.973  1.00  0.00     0.041 C 
ATOM     23  O   UNL     1       0.235  37.999  18.035  1.00  0.00    -0.550 OA
ATOM     24  O   UNL     1      -0.143  37.175  20.140  1.00  0.00    -0.550 OA
ENDBRANCH  21  22
ENDBRANCH  20  21
ENDBRANCH  19  20
ENDBRANCH  18  19
ENDBRANCH  17  18
ENDBRANCH  16  17
ENDBRANCH  15  16
ENDBRANCH  14  15
ENDBRANCH  13  14
ENDBRANCH   1  13
TORSDOF 20
ENDMDL
MODEL 4
REMARK VINA RESULT:     5.319      4.750      9.878
REMARK INTER + INTRA:           9.805
REMARK INTER:                  10.413
REMARK INTRA:                  -0.608
REMARK UNBOUND:                -1.733
REMARK SMILES CCCCCCCCCCCCCCCCCCCCCC(=O)[O-]
REMARK SMILES IDX 12 1 11 2 10 3 9 4 8 5 7 6 6 7 5 8 4 9 3 10 2 11 1 12 13 13
REMARK SMILES IDX 14 14 15 15 16 16 17 17 18 18 19 19 20 20 21 21 22 22 23 23
REMARK SMILES IDX 24 24
REMARK H PARENT
REMARK Flexibility Score: inf
ROOT
ATOM      1  C   UNL     1      -4.161  35.025  21.741  1.00  0.00     0.000 C 
ENDROOT
BRANCH   1   2
ATOM      2  C   UNL     1      -5.062  36.023  20.997  1.00  0.00     0.000 C 
BRANCH   2   3
ATOM      3  C   UNL     1      -4.270  37.178  20.360  1.00  0.00     0.000 C 
BRANCH   3   4
ATOM      4  C   UNL     1      -3.936  36.928  18.880  1.00  0.00    -0.000 C 
BRANCH   4   5
ATOM      5  C   UNL     1      -4.712  35.745  18.264  1.00  0.00    -0.000 C 
BRANCH   5   6
ATOM      6  C   UNL     1      -4.121  35.303  16.912  1.00  0.00    -0.000 C 
BRANCH   6   7
ATOM      7  C   UNL     1      -3.305  36.414  16.231  1.00  0.00    -0.000 C 
BRANCH   7   8
ATOM      8  C   UNL     1      -1.852  35.997  15.958  1.00  0.00    -0.000 C 
BRANCH   8   9
ATOM      9  C   UNL     1      -0.884  36.758  16.877  1.00  0.00    -0.000 C 
BRANCH   9  10
ATOM     10  C   UNL     1      -1.472  38.080  17.403  1.00  0.00    -0.000 C 
BRANCH  10  11
ATOM     11  C   UNL     1      -1.133  38.403  18.869  1.00  0.00    -0.003 C 
ATOM     12  C   UNL     1      -0.401  37.262  19.578  1.00  0.00     0.004 C 
ENDBRANCH  10  11
ENDBRANCH   9  10
ENDBRANCH   8   9
ENDBRANCH   7   8
ENDBRANCH   6   7
ENDBRANCH   5   6
ENDBRANCH   4   5
ENDBRANCH   3   4
ENDBRANCH   2   3
ENDBRANCH   1   2
BRANCH   1  13
ATOM     13  C   UNL     1      -4.924  34.206  22.794  1.00  0.00     0.000 C 
BRANCH  13  14
ATOM     14  C   UNL     1      -4.980  34.948  24.135  1.00  0.00     0.000 C 
BRANCH  14  15
ATOM     15  C   UNL     1      -5.125  36.463  23.918  1.00  0.00     0.000 C 
BRANCH  15  16
ATOM     16  C   UNL     1      -5.111  37.254  25.234  1.00  0.00     0.000 C 
BRANCH  16  17
ATOM     17  C   UNL     1      -4.050  36.743  26.222  1.00  0.00     0.000 C 
BRANCH  17  18
ATOM     18  C   UNL     1      -3.274  37.882  26.905  1.00  0.00     0.000 C 
BRANCH  18  19
ATOM     19  C   UNL     1      -1.852  37.482  27.350  1.00  0.00     0.000 C 
BRANCH  19  20
ATOM     20  C   UNL     1      -1.714  35.962  27.551  1.00  0.00     0.006 C 
BRANCH  20  21
ATOM     21  C   UNL     1      -2.023  35.536  28.993  1.00  0.00     0.053 C 
BRANCH  21  22
ATOM     22  C   UNL     1      -1.184  34.369  29.424  1.00  0.00     0.041 C 
ATOM     23  O   UNL     1      -1.670  33.481  30.173  1.00  0.00    -0.550 OA
ATOM     24  O   UNL     1       0.139  34.274  29.011  1.00  0.00    -0.550 OA
ENDBRANCH  21  22
ENDBRANCH  20  21
ENDBRANCH  19  20
ENDBRANCH  18  19
ENDBRANCH  17  18
ENDBRANCH  16  17
ENDBRANCH  15  16
ENDBRANCH  14  15
ENDBRANCH  13  14
ENDBRANCH   1  13
TORSDOF 20
ENDMDL
MODEL 5
REMARK VINA RESULT:     5.585      3.569      9.413
REMARK INTER + INTRA:          10.382
REMARK INTER:                  11.506
REMARK INTRA:                  -1.123
REMARK UNBOUND:                -1.733
REMARK SMILES CCCCCCCCCCCCCCCCCCCCCC(=O)[O-]
REMARK SMILES IDX 12 1 11 2 10 3 9 4 8 5 7 6 6 7 5 8 4 9 3 10 2 11 1 12 13 13
REMARK SMILES IDX 14 14 15 15 16 16 17 17 18 18 19 19 20 20 21 21 22 22 23 23
REMARK SMILES IDX 24 24
REMARK H PARENT
REMARK Flexibility Score: inf
ROOT
ATOM      1  C   UNL     1      -2.284  36.572  21.278  1.00  0.00     0.000 C 
ENDROOT
BRANCH   1   2
ATOM      2  C   UNL     1      -2.745  36.720  19.820  1.00  0.00     0.000 C 
BRANCH   2   3
ATOM      3  C   UNL     1      -4.172  37.282  19.702  1.00  0.00     0.000 C 
BRANCH   3   4
ATOM      4  C   UNL     1      -5.108  36.368  18.891  1.00  0.00    -0.000 C 
BRANCH   4   5
ATOM      5  C   UNL     1      -4.716  34.876  18.949  1.00  0.00    -0.000 C 
BRANCH   5   6
ATOM      6  C   UNL     1      -4.124  34.379  17.617  1.00  0.00    -0.000 C 
BRANCH   6   7
ATOM      7  C   UNL     1      -4.069  35.480  16.546  1.00  0.00    -0.000 C 
BRANCH   7   8
ATOM      8  C   UNL     1      -2.657  35.678  15.973  1.00  0.00    -0.000 C 
BRANCH   8   9
ATOM      9  C   UNL     1      -2.419  37.151  15.606  1.00  0.00    -0.000 C 
BRANCH   9  10
ATOM     10  C   UNL     1      -3.716  37.981  15.588  1.00  0.00    -0.000 C 
BRANCH  10  11
ATOM     11  C   UNL     1      -4.312  38.221  14.190  1.00  0.00    -0.003 C 
ATOM     12  C   UNL     1      -4.523  39.703  13.876  1.00  0.00     0.004 C 
ENDBRANCH  10  11
ENDBRANCH   9  10
ENDBRANCH   8   9
ENDBRANCH   7   8
ENDBRANCH   6   7
ENDBRANCH   5   6
ENDBRANCH   4   5
ENDBRANCH   3   4
ENDBRANCH   2   3
ENDBRANCH   1   2
BRANCH   1  13
ATOM     13  C   UNL     1      -2.293  35.112  21.759  1.00  0.00     0.000 C 
BRANCH  13  14
ATOM     14  C   UNL     1      -3.671  34.472  21.550  1.00  0.00     0.000 C 
BRANCH  14  15
ATOM     15  C   UNL     1      -4.752  35.225  22.343  1.00  0.00     0.000 C 
BRANCH  15  16
ATOM     16  C   UNL     1      -4.765  34.846  23.831  1.00  0.00     0.000 C 
BRANCH  16  17
ATOM     17  C   UNL     1      -5.120  36.031  24.743  1.00  0.00     0.000 C 
BRANCH  17  18
ATOM     18  C   UNL     1      -3.883  36.686  25.380  1.00  0.00     0.000 C 
BRANCH  18  19
ATOM     19  C   UNL     1      -4.104  38.155  25.793  1.00  0.00     0.000 C 
BRANCH  19  20
ATOM     20  C   UNL     1      -4.935  38.931  24.756  1.00  0.00     0.006 C 
BRANCH  20  21
ATOM     21  C   UNL     1      -5.118  40.405  25.142  1.00  0.00     0.053 C 
BRANCH  21  22
ATOM     22  C   UNL     1      -4.991  41.314  23.956  1.00  0.00     0.041 C 
ATOM     23  O   UNL     1      -4.989  42.564  24.112  1.00  0.00    -0.550 OA
ATOM     24  O   UNL     1      -4.893  40.780  22.676  1.00  0.00    -0.550 OA
ENDBRANCH  21  22
ENDBRANCH  20  21
ENDBRANCH  19  20
ENDBRANCH  18  19
ENDBRANCH  17  18
ENDBRANCH  16  17
ENDBRANCH  15  16
ENDBRANCH  14  15
ENDBRANCH  13  14
ENDBRANCH   1  13
TORSDOF 20
ENDMDL
MODEL 6
REMARK VINA RESULT:     6.527      2.849      4.871
REMARK INTER + INTRA:          12.425
REMARK INTER:                  11.221
REMARK INTRA:                   1.204
REMARK UNBOUND:                -1.733
REMARK SMILES CCCCCCCCCCCCCCCCCCCCCC(=O)[O-]
REMARK SMILES IDX 12 1 11 2 10 3 9 4 8 5 7 6 6 7 5 8 4 9 3 10 2 11 1 12 13 13
REMARK SMILES IDX 14 14 15 15 16 16 17 17 18 18 19 19 20 20 21 21 22 22 23 23
REMARK SMILES IDX 24 24
REMARK H PARENT
REMARK Flexibility Score: inf
ROOT
ATOM      1  C   UNL     1      -3.396  36.390  21.207  1.00  0.00     0.000 C 
ENDROOT
BRANCH   1   2
ATOM      2  C   UNL     1      -4.277  35.141  21.358  1.00  0.00     0.000 C 
BRANCH   2   3
ATOM      3  C   UNL     1      -3.999  34.369  22.659  1.00  0.00     0.000 C 
BRANCH   3   4
ATOM      4  C   UNL     1      -5.039  34.655  23.756  1.00  0.00    -0.000 C 
BRANCH   4   5
ATOM      5  C   UNL     1      -5.065  36.129  24.212  1.00  0.00    -0.000 C 
BRANCH   5   6
ATOM      6  C   UNL     1      -4.168  36.374  25.439  1.00  0.00    -0.000 C 
BRANCH   6   7
ATOM      7  C   UNL     1      -4.453  37.721  26.123  1.00  0.00    -0.000 C 
BRANCH   7   8
ATOM      8  C   UNL     1      -3.782  38.902  25.406  1.00  0.00    -0.000 C 
BRANCH   8   9
ATOM      9  C   UNL     1      -4.820  39.969  25.022  1.00  0.00    -0.000 C 
BRANCH   9  10
ATOM     10  C   UNL     1      -4.659  40.466  23.574  1.00  0.00    -0.000 C 
BRANCH  10  11
ATOM     11  C   UNL     1      -4.919  39.404  22.491  1.00  0.00    -0.003 C 
ATOM     12  C   UNL     1      -5.124  40.005  21.100  1.00  0.00     0.004 C 
ENDBRANCH  10  11
ENDBRANCH   9  10
ENDBRANCH   8   9
ENDBRANCH   7   8
ENDBRANCH   6   7
ENDBRANCH   5   6
ENDBRANCH   4   5
ENDBRANCH   3   4
ENDBRANCH   2   3
ENDBRANCH   1   2
BRANCH   1  13
ATOM     13  C   UNL     1      -3.422  36.969  19.784  1.00  0.00     0.000 C 
BRANCH  13  14
ATOM     14  C   UNL     1      -4.707  36.568  19.050  1.00  0.00     0.000 C 
BRANCH  14  15
ATOM     15  C   UNL     1      -4.402  36.139  17.605  1.00  0.00     0.000 C 
BRANCH  15  16
ATOM     16  C   UNL     1      -3.614  37.203  16.826  1.00  0.00     0.000 C 
BRANCH  16  17
ATOM     17  C   UNL     1      -3.839  37.115  15.308  1.00  0.00     0.000 C 
BRANCH  17  18
ATOM     18  C   UNL     1      -2.802  36.225  14.601  1.00  0.00     0.000 C 
BRANCH  18  19
ATOM     19  C   UNL     1      -1.487  36.060  15.392  1.00  0.00     0.000 C 
BRANCH  19  20
ATOM     20  C   UNL     1      -1.227  37.245  16.339  1.00  0.00     0.006 C 
BRANCH  20  21
ATOM     21  C   UNL     1      -0.507  36.814  17.624  1.00  0.00     0.053 C 
BRANCH  21  22
ATOM     22  C   UNL     1      -0.747  37.777  18.749  1.00  0.00     0.041 C 
ATOM     23  O   UNL     1      -0.886  39.006  18.512  1.00  0.00    -0.550 OA
ATOM     24  O   UNL     1      -0.800  37.317  20.060  1.00  0.00    -0.550 OA
ENDBRANCH  21  22
ENDBRANCH  20  21
ENDBRANCH  19  20
ENDBRANCH  18  19
ENDBRANCH  17  18
ENDBRANCH  16  17
ENDBRANCH  15  16
ENDBRANCH  14  15
ENDBRANCH  13  14
ENDBRANCH   1  13
TORSDOF 20
ENDMDL
