MODEL 1
REMARK VINA RESULT:    -4.426      0.000      0.000
REMARK INTER + INTRA:          -4.426
REMARK INTER:                  -4.426
REMARK INTRA:                   0.000
REMARK UNBOUND:                 0.000
REMARK SMILES CC1=CC(=O)[C@@H]2C[C@H]1C2(C)C
REMARK SMILES IDX 1 1 2 2 3 3 4 4 5 5 6 6 7 7 8 8 9 9 10 10 11 11
REMARK H PARENT
REMARK Flexibility Score: inf
ROOT
ATOM      1  C   UNL     1       6.738  -9.532  40.962  1.00  0.00     0.040 C 
ATOM      2  C   UNL     1       7.596  -8.583  41.738  1.00  0.00    -0.066 C 
ATOM      3  C   UNL     1       8.242  -8.976  42.871  1.00  0.00     0.047 C 
ATOM      4  C   UNL     1       9.094  -7.942  43.542  1.00  0.00     0.159 C 
ATOM      5  O   UNL     1       9.772  -8.194  44.572  1.00  0.00    -0.295 OA
ATOM      6  C   UNL     1       9.084  -6.560  42.886  1.00  0.00     0.067 C 
ATOM      7  C   UNL     1       7.591  -6.287  42.603  1.00  0.00     0.021 C 
ATOM      8  C   UNL     1       7.774  -7.111  41.308  1.00  0.00     0.022 C 
ATOM      9  C   UNL     1       9.285  -6.739  41.353  1.00  0.00    -0.019 C 
ATOM     10  C   UNL     1       9.583  -5.397  40.638  1.00  0.00     0.012 C 
ATOM     11  C   UNL     1      10.317  -7.793  40.861  1.00  0.00     0.012 C 
ENDROOT
TORSDOF 0
ENDMDL
MODEL 2
REMARK VINA RESULT:    -4.347      2.908      4.530
REMARK INTER + INTRA:          -4.347
REMARK INTER:                  -4.347
REMARK INTRA:                   0.000
REMARK UNBOUND:                 0.000
REMARK SMILES CC1=CC(=O)[C@@H]2C[C@H]1C2(C)C
REMARK SMILES IDX 1 1 2 2 3 3 4 4 5 5 6 6 7 7 8 8 9 9 10 10 11 11
REMARK H PARENT
REMARK Flexibility Score: inf
ROOT
ATOM      1  C   UNL     1       8.703  -3.401  38.637  1.00  0.00     0.040 C 
ATOM      2  C   UNL     1       9.207  -3.931  39.943  1.00  0.00    -0.066 C 
ATOM      3  C   UNL     1      10.431  -3.580  40.425  1.00  0.00     0.047 C 
ATOM      4  C   UNL     1      10.809  -4.154  41.757  1.00  0.00     0.159 C 
ATOM      5  O   UNL     1      11.896  -3.872  42.326  1.00  0.00    -0.295 OA
ATOM      6  C   UNL     1       9.781  -5.102  42.376  1.00  0.00     0.067 C 
ATOM      7  C   UNL     1       9.368  -6.026  41.209  1.00  0.00     0.021 C 
ATOM      8  C   UNL     1       8.376  -4.915  40.795  1.00  0.00     0.022 C 
ATOM      9  C   UNL     1       8.376  -4.441  42.277  1.00  0.00    -0.019 C 
ATOM     10  C   UNL     1       7.316  -5.181  43.132  1.00  0.00     0.012 C 
ATOM     11  C   UNL     1       8.254  -2.917  42.562  1.00  0.00     0.012 C 
ENDROOT
TORSDOF 0
ENDMDL
MODEL 3
REMARK VINA RESULT:    -4.344      3.276      4.602
REMARK INTER + INTRA:          -4.344
REMARK INTER:                  -4.344
REMARK INTRA:                   0.000
REMARK UNBOUND:                 0.000
REMARK SMILES CC1=CC(=O)[C@@H]2C[C@H]1C2(C)C
REMARK SMILES IDX 1 1 2 2 3 3 4 4 5 5 6 6 7 7 8 8 9 9 10 10 11 11
REMARK H PARENT
REMARK Flexibility Score: inf
ROOT
ATOM      1  C   UNL     1       7.141  -5.247  43.189  1.00  0.00     0.040 C 
ATOM      2  C   UNL     1       8.230  -4.492  42.493  1.00  0.00    -0.066 C 
ATOM      3  C   UNL     1       9.244  -5.139  41.854  1.00  0.00     0.047 C 
ATOM      4  C   UNL     1      10.257  -4.272  41.170  1.00  0.00     0.159 C 
ATOM      5  O   UNL     1      11.218  -4.751  40.513  1.00  0.00    -0.295 OA
ATOM      6  C   UNL     1      10.041  -2.766  41.326  1.00  0.00     0.067 C 
ATOM      7  C   UNL     1       9.732  -2.582  42.828  1.00  0.00     0.021 C 
ATOM      8  C   UNL     1       8.271  -2.949  42.484  1.00  0.00     0.022 C 
ATOM      9  C   UNL     1       8.546  -2.448  41.036  1.00  0.00    -0.019 C 
ATOM     10  C   UNL     1       8.286  -0.929  40.878  1.00  0.00     0.012 C 
ATOM     11  C   UNL     1       7.848  -3.186  39.858  1.00  0.00     0.012 C 
ENDROOT
TORSDOF 0
ENDMDL
MODEL 4
REMARK VINA RESULT:    -4.325      2.888      4.690
REMARK INTER + INTRA:          -4.325
REMARK INTER:                  -4.325
REMARK INTRA:                   0.000
REMARK UNBOUND:                 0.000
REMARK SMILES CC1=CC(=O)[C@@H]2C[C@H]1C2(C)C
REMARK SMILES IDX 1 1 2 2 3 3 4 4 5 5 6 6 7 7 8 8 9 9 10 10 11 11
REMARK H PARENT
REMARK Flexibility Score: inf
ROOT
ATOM      1  C   UNL     1       7.453  -3.119  38.992  1.00  0.00     0.040 C 
ATOM      2  C   UNL     1       8.207  -3.356  40.262  1.00  0.00    -0.066 C 
ATOM      3  C   UNL     1       8.199  -2.443  41.272  1.00  0.00     0.047 C 
ATOM      4  C   UNL     1       8.969  -2.810  42.505  1.00  0.00     0.159 C 
ATOM      5  O   UNL     1       9.004  -2.068  43.521  1.00  0.00    -0.295 OA
ATOM      6  C   UNL     1       9.705  -4.149  42.442  1.00  0.00     0.067 C 
ATOM      7  C   UNL     1      10.392  -4.138  41.059  1.00  0.00     0.021 C 
ATOM      8  C   UNL     1       9.046  -4.633  40.482  1.00  0.00     0.022 C 
ATOM      9  C   UNL     1       8.728  -5.225  41.886  1.00  0.00    -0.019 C 
ATOM     10  C   UNL     1       9.277  -6.663  42.059  1.00  0.00     0.012 C 
ATOM     11  C   UNL     1       7.252  -5.206  42.375  1.00  0.00     0.012 C 
ENDROOT
TORSDOF 0
ENDMDL
MODEL 5
REMARK VINA RESULT:    -4.237      3.100      4.342
REMARK INTER + INTRA:          -4.237
REMARK INTER:                  -4.237
REMARK INTRA:                   0.000
REMARK UNBOUND:                 0.000
REMARK SMILES CC1=CC(=O)[C@@H]2C[C@H]1C2(C)C
REMARK SMILES IDX 1 1 2 2 3 3 4 4 5 5 6 6 7 7 8 8 9 9 10 10 11 11
REMARK H PARENT
REMARK Flexibility Score: inf
ROOT
ATOM      1  C   UNL     1       7.909  -6.340  43.622  1.00  0.00     0.040 C 
ATOM      2  C   UNL     1       8.432  -5.508  42.494  1.00  0.00    -0.066 C 
ATOM      3  C   UNL     1       7.594  -4.957  41.572  1.00  0.00     0.047 C 
ATOM      4  C   UNL     1       8.237  -4.119  40.508  1.00  0.00     0.159 C 
ATOM      5  O   UNL     1       7.567  -3.525  39.624  1.00  0.00    -0.295 OA
ATOM      6  C   UNL     1       9.763  -4.035  40.575  1.00  0.00     0.067 C 
ATOM      7  C   UNL     1      10.212  -5.495  40.806  1.00  0.00     0.021 C 
ATOM      8  C   UNL     1       9.942  -5.249  42.308  1.00  0.00     0.022 C 
ATOM      9  C   UNL     1      10.178  -3.733  42.043  1.00  0.00    -0.019 C 
ATOM     10  C   UNL     1      11.672  -3.339  42.163  1.00  0.00     0.012 C 
ATOM     11  C   UNL     1       9.337  -2.706  42.853  1.00  0.00     0.012 C 
ENDROOT
TORSDOF 0
ENDMDL
MODEL 6
REMARK VINA RESULT:    -4.211      3.076      4.761
REMARK INTER + INTRA:          -4.211
REMARK INTER:                  -4.211
REMARK INTRA:                   0.000
REMARK UNBOUND:                 0.000
REMARK SMILES CC1=CC(=O)[C@@H]2C[C@H]1C2(C)C
REMARK SMILES IDX 1 1 2 2 3 3 4 4 5 5 6 6 7 7 8 8 9 9 10 10 11 11
REMARK H PARENT
REMARK Flexibility Score: inf
ROOT
ATOM      1  C   UNL     1       8.941  -1.683  43.330  1.00  0.00     0.040 C 
ATOM      2  C   UNL     1       8.896  -2.929  42.503  1.00  0.00    -0.066 C 
ATOM      3  C   UNL     1       7.992  -3.915  42.756  1.00  0.00     0.047 C 
ATOM      4  C   UNL     1       8.027  -5.100  41.837  1.00  0.00     0.159 C 
ATOM      5  O   UNL     1       7.217  -6.057  41.943  1.00  0.00    -0.295 OA
ATOM      6  C   UNL     1       9.115  -5.061  40.762  1.00  0.00     0.067 C 
ATOM      7  C   UNL     1      10.383  -4.616  41.523  1.00  0.00     0.021 C 
ATOM      8  C   UNL     1       9.881  -3.166  41.338  1.00  0.00     0.022 C 
ATOM      9  C   UNL     1       9.095  -3.659  40.088  1.00  0.00    -0.019 C 
ATOM     10  C   UNL     1       9.950  -3.614  38.797  1.00  0.00     0.012 C 
ATOM     11  C   UNL     1       7.717  -3.006  39.782  1.00  0.00     0.012 C 
ENDROOT
TORSDOF 0
ENDMDL
MODEL 7
REMARK VINA RESULT:    -4.204      3.120      5.033
REMARK INTER + INTRA:          -4.204
REMARK INTER:                  -4.204
REMARK INTRA:                   0.000
REMARK UNBOUND:                 0.000
REMARK SMILES CC1=CC(=O)[C@@H]2C[C@H]1C2(C)C
REMARK SMILES IDX 1 1 2 2 3 3 4 4 5 5 6 6 7 7 8 8 9 9 10 10 11 11
REMARK H PARENT
REMARK Flexibility Score: inf
ROOT
ATOM      1  C   UNL     1      11.969  -3.732  41.982  1.00  0.00     0.040 C 
ATOM      2  C   UNL     1      10.576  -3.809  41.442  1.00  0.00    -0.066 C 
ATOM      3  C   UNL     1      10.337  -3.870  40.103  1.00  0.00     0.047 C 
ATOM      4  C   UNL     1       8.900  -3.974  39.689  1.00  0.00     0.159 C 
ATOM      5  O   UNL     1       8.554  -4.078  38.483  1.00  0.00    -0.295 OA
ATOM      6  C   UNL     1       7.886  -3.947  40.833  1.00  0.00     0.067 C 
ATOM      7  C   UNL     1       8.364  -2.787  41.735  1.00  0.00     0.021 C 
ATOM      8  C   UNL     1       9.343  -3.801  42.371  1.00  0.00     0.022 C 
ATOM      9  C   UNL     1       8.363  -4.931  41.940  1.00  0.00    -0.019 C 
ATOM     10  C   UNL     1       7.267  -5.198  43.002  1.00  0.00     0.012 C 
ATOM     11  C   UNL     1       8.964  -6.298  41.505  1.00  0.00     0.012 C 
ENDROOT
TORSDOF 0
ENDMDL
MODEL 8
REMARK VINA RESULT:    -4.179      3.046      4.300
REMARK INTER + INTRA:          -4.179
REMARK INTER:                  -4.179
REMARK INTRA:                   0.000
REMARK UNBOUND:                 0.000
REMARK SMILES CC1=CC(=O)[C@@H]2C[C@H]1C2(C)C
REMARK SMILES IDX 1 1 2 2 3 3 4 4 5 5 6 6 7 7 8 8 9 9 10 10 11 11
REMARK H PARENT
REMARK Flexibility Score: inf
ROOT
ATOM      1  C   UNL     1       7.499  -6.245  41.665  1.00  0.00     0.040 C 
ATOM      2  C   UNL     1       8.010  -4.839  41.631  1.00  0.00    -0.066 C 
ATOM      3  C   UNL     1       8.019  -4.061  42.749  1.00  0.00     0.047 C 
ATOM      4  C   UNL     1       8.583  -2.681  42.593  1.00  0.00     0.159 C 
ATOM      5  O   UNL     1       8.682  -1.882  43.560  1.00  0.00    -0.295 OA
ATOM      6  C   UNL     1       9.030  -2.314  41.177  1.00  0.00     0.067 C 
ATOM      7  C   UNL     1       7.872  -2.798  40.277  1.00  0.00     0.021 C 
ATOM      8  C   UNL     1       8.531  -4.195  40.328  1.00  0.00     0.022 C 
ATOM      9  C   UNL     1       9.886  -3.483  40.610  1.00  0.00    -0.019 C 
ATOM     10  C   UNL     1      10.628  -3.091  39.307  1.00  0.00     0.012 C 
ATOM     11  C   UNL     1      10.902  -4.183  41.557  1.00  0.00     0.012 C 
ENDROOT
TORSDOF 0
ENDMDL
MODEL 9
REMARK VINA RESULT:    -4.103      3.388      4.888
REMARK INTER + INTRA:          -4.103
REMARK INTER:                  -4.103
REMARK INTRA:                   0.000
REMARK UNBOUND:                 0.000
REMARK SMILES CC1=CC(=O)[C@@H]2C[C@H]1C2(C)C
REMARK SMILES IDX 1 1 2 2 3 3 4 4 5 5 6 6 7 7 8 8 9 9 10 10 11 11
REMARK H PARENT
REMARK Flexibility Score: inf
ROOT
ATOM      1  C   UNL     1      12.058  -3.751  41.639  1.00  0.00     0.040 C 
ATOM      2  C   UNL     1      10.579  -3.925  41.496  1.00  0.00    -0.066 C 
ATOM      3  C   UNL     1       9.854  -4.614  42.421  1.00  0.00     0.047 C 
ATOM      4  C   UNL     1       8.377  -4.693  42.181  1.00  0.00     0.159 C 
ATOM      5  O   UNL     1       7.595  -5.266  42.983  1.00  0.00    -0.295 OA
ATOM      6  C   UNL     1       7.887  -4.028  40.894  1.00  0.00     0.067 C 
ATOM      7  C   UNL     1       8.886  -4.505  39.817  1.00  0.00     0.021 C 
ATOM      8  C   UNL     1       9.807  -3.355  40.287  1.00  0.00     0.022 C 
ATOM      9  C   UNL     1       8.533  -2.616  40.790  1.00  0.00    -0.019 C 
ATOM     10  C   UNL     1       7.879  -1.750  39.684  1.00  0.00     0.012 C 
ATOM     11  C   UNL     1       8.642  -1.757  42.081  1.00  0.00     0.012 C 
ENDROOT
TORSDOF 0
ENDMDL
