MODEL 1
REMARK VINA RESULT:    -3.877      0.000      0.000
REMARK INTER + INTRA:          -4.514
REMARK INTER:                  -4.444
REMARK INTRA:                  -0.070
REMARK UNBOUND:                -0.070
REMARK SMILES C=Cc1ccc(O)c(OC)c1
REMARK SMILES IDX 8 1 6 2 5 3 4 4 3 5 11 6 9 7 10 8 7 9 2 11 1 12
REMARK H PARENT 7 10
REMARK Flexibility Score: inf
ROOT
ATOM      1  C   UNL     1     116.460 117.223 111.988  1.00  0.00     0.161 A 
ATOM      2  C   UNL     1     117.360 118.302 111.979  1.00  0.00     0.157 A 
ATOM      3  C   UNL     1     118.734 118.068 112.073  1.00  0.00     0.051 A 
ATOM      4  C   UNL     1     119.225 116.765 112.182  1.00  0.00     0.012 A 
ATOM      5  C   UNL     1     118.342 115.670 112.205  1.00  0.00    -0.022 A 
ATOM      6  C   UNL     1     116.961 115.910 112.097  1.00  0.00     0.058 A 
ENDROOT
BRANCH   1   7
ATOM      7  O   UNL     1     115.084 117.488 111.887  1.00  0.00    -0.493 OA
ATOM      8  C   UNL     1     114.056 116.566 112.235  1.00  0.00     0.278 C 
ENDBRANCH   1   7
BRANCH   2   9
ATOM      9  O   UNL     1     116.908 119.618 111.875  1.00  0.00    -0.504 OA
ATOM     10  H   UNL     1     116.023 119.852 111.440  1.00  0.00     0.293 HD
ENDBRANCH   2   9
BRANCH   5  11
ATOM     11  C   UNL     1     118.811 114.267 112.308  1.00  0.00     0.000 C 
ATOM     12  C   UNL     1     118.422 113.413 113.257  1.00  0.00     0.009 C 
ENDBRANCH   5  11
TORSDOF 3
ENDMDL
MODEL 2
REMARK VINA RESULT:    -3.861      1.486      3.150
REMARK INTER + INTRA:          -4.495
REMARK INTER:                  -4.425
REMARK INTRA:                  -0.070
REMARK UNBOUND:                -0.070
REMARK SMILES C=Cc1ccc(O)c(OC)c1
REMARK SMILES IDX 8 1 6 2 5 3 4 4 3 5 11 6 9 7 10 8 7 9 2 11 1 12
REMARK H PARENT 7 10
REMARK Flexibility Score: inf
ROOT
ATOM      1  C   UNL     1     116.137 116.397 112.087  1.00  0.00     0.161 A 
ATOM      2  C   UNL     1     116.321 115.004 112.042  1.00  0.00     0.157 A 
ATOM      3  C   UNL     1     117.612 114.470 112.046  1.00  0.00     0.051 A 
ATOM      4  C   UNL     1     118.727 115.309 112.089  1.00  0.00     0.012 A 
ATOM      5  C   UNL     1     118.566 116.706 112.121  1.00  0.00    -0.022 A 
ATOM      6  C   UNL     1     117.266 117.240 112.130  1.00  0.00     0.058 A 
ENDROOT
BRANCH   1   7
ATOM      7  O   UNL     1     114.828 116.907 112.086  1.00  0.00    -0.493 OA
ATOM      8  C   UNL     1     114.490 118.267 112.338  1.00  0.00     0.278 C 
ENDBRANCH   1   7
BRANCH   2   9
ATOM      9  O   UNL     1     115.232 114.133 111.996  1.00  0.00    -0.504 OA
ATOM     10  H   UNL     1     114.450 114.279 111.368  1.00  0.00     0.293 HD
ENDBRANCH   2   9
BRANCH   5  11
ATOM     11  C   UNL     1     119.716 117.642 112.177  1.00  0.00     0.000 C 
ATOM     12  C   UNL     1     119.944 118.493 113.179  1.00  0.00     0.009 C 
ENDBRANCH   5  11
TORSDOF 3
ENDMDL
MODEL 3
REMARK VINA RESULT:    -3.844      1.884      3.323
REMARK INTER + INTRA:          -4.476
REMARK INTER:                  -4.404
REMARK INTRA:                  -0.071
REMARK UNBOUND:                -0.070
REMARK SMILES C=Cc1ccc(O)c(OC)c1
REMARK SMILES IDX 8 1 6 2 5 3 4 4 3 5 11 6 9 7 10 8 7 9 2 11 1 12
REMARK H PARENT 7 10
REMARK Flexibility Score: inf
ROOT
ATOM      1  C   UNL     1     116.018 116.392 112.048  1.00  0.00     0.161 A 
ATOM      2  C   UNL     1     115.013 117.372 111.967  1.00  0.00     0.157 A 
ATOM      3  C   UNL     1     115.355 118.726 111.974  1.00  0.00     0.051 A 
ATOM      4  C   UNL     1     116.692 119.120 112.067  1.00  0.00     0.012 A 
ATOM      5  C   UNL     1     117.713 118.157 112.163  1.00  0.00    -0.022 A 
ATOM      6  C   UNL     1     117.366 116.795 112.141  1.00  0.00     0.058 A 
ENDROOT
BRANCH   1   7
ATOM      7  O   UNL     1     115.645 115.038 112.034  1.00  0.00    -0.493 OA
ATOM      8  C   UNL     1     116.553 113.949 112.164  1.00  0.00     0.278 C 
ENDBRANCH   1   7
BRANCH   2   9
ATOM      9  O   UNL     1     113.667 117.019 111.875  1.00  0.00    -0.504 OA
ATOM     10  H   UNL     1     113.287 116.543 111.065  1.00  0.00     0.293 HD
ENDBRANCH   2   9
BRANCH   5  11
ATOM     11  C   UNL     1     119.148 118.520 112.254  1.00  0.00     0.000 C 
ATOM     12  C   UNL     1     119.859 118.498 113.383  1.00  0.00     0.009 C 
ENDBRANCH   5  11
TORSDOF 3
ENDMDL
MODEL 4
REMARK VINA RESULT:    -3.841      2.190      4.834
REMARK INTER + INTRA:          -4.472
REMARK INTER:                  -4.402
REMARK INTRA:                  -0.070
REMARK UNBOUND:                -0.070
REMARK SMILES C=Cc1ccc(O)c(OC)c1
REMARK SMILES IDX 8 1 6 2 5 3 4 4 3 5 11 6 9 7 10 8 7 9 2 11 1 12
REMARK H PARENT 7 10
REMARK Flexibility Score: inf
ROOT
ATOM      1  C   UNL     1     116.833 115.898 112.113  1.00  0.00     0.161 A 
ATOM      2  C   UNL     1     115.950 114.805 112.058  1.00  0.00     0.157 A 
ATOM      3  C   UNL     1     114.574 115.011 112.185  1.00  0.00     0.051 A 
ATOM      4  C   UNL     1     114.064 116.297 112.373  1.00  0.00     0.012 A 
ATOM      5  C   UNL     1     114.929 117.404 112.444  1.00  0.00    -0.022 A 
ATOM      6  C   UNL     1     116.312 117.194 112.302  1.00  0.00     0.058 A 
ENDROOT
BRANCH   1   7
ATOM      7  O   UNL     1     118.211 115.662 111.978  1.00  0.00    -0.493 OA
ATOM      8  C   UNL     1     119.208 116.678 111.977  1.00  0.00     0.278 C 
ENDBRANCH   1   7
BRANCH   2   9
ATOM      9  O   UNL     1     116.422 113.505 111.875  1.00  0.00    -0.504 OA
ATOM     10  H   UNL     1     117.029 113.051 112.547  1.00  0.00     0.293 HD
ENDBRANCH   2   9
BRANCH   5  11
ATOM     11  C   UNL     1     114.439 118.791 112.632  1.00  0.00     0.000 C 
ATOM     12  C   UNL     1     115.139 119.884 112.320  1.00  0.00     0.009 C 
ENDBRANCH   5  11
TORSDOF 3
ENDMDL
MODEL 5
REMARK VINA RESULT:    -3.840      1.143      2.922
REMARK INTER + INTRA:          -4.471
REMARK INTER:                  -4.401
REMARK INTRA:                  -0.071
REMARK UNBOUND:                -0.070
REMARK SMILES C=Cc1ccc(O)c(OC)c1
REMARK SMILES IDX 8 1 6 2 5 3 4 4 3 5 11 6 9 7 10 8 7 9 2 11 1 12
REMARK H PARENT 7 10
REMARK Flexibility Score: inf
ROOT
ATOM      1  C   UNL     1     116.557 117.102 111.976  1.00  0.00     0.161 A 
ATOM      2  C   UNL     1     115.155 117.022 111.918  1.00  0.00     0.157 A 
ATOM      3  C   UNL     1     114.526 115.774 111.904  1.00  0.00     0.051 A 
ATOM      4  C   UNL     1     115.280 114.600 111.942  1.00  0.00     0.012 A 
ATOM      5  C   UNL     1     116.685 114.656 111.988  1.00  0.00    -0.022 A 
ATOM      6  C   UNL     1     117.313 115.913 112.015  1.00  0.00     0.058 A 
ENDROOT
BRANCH   1   7
ATOM      7  O   UNL     1     117.162 118.369 111.993  1.00  0.00    -0.493 OA
ATOM      8  C   UNL     1     118.495 118.623 112.427  1.00  0.00     0.278 C 
ENDBRANCH   1   7
BRANCH   2   9
ATOM      9  O   UNL     1     114.368 118.173 111.876  1.00  0.00    -0.504 OA
ATOM     10  H   UNL     1     113.771 118.391 111.086  1.00  0.00     0.293 HD
ENDBRANCH   2   9
BRANCH   5  11
ATOM     11  C   UNL     1     117.532 113.439 112.040  1.00  0.00     0.000 C 
ATOM     12  C   UNL     1     118.492 113.230 112.943  1.00  0.00     0.009 C 
ENDBRANCH   5  11
TORSDOF 3
ENDMDL
MODEL 6
REMARK VINA RESULT:    -3.840      1.599      3.656
REMARK INTER + INTRA:          -4.471
REMARK INTER:                  -4.401
REMARK INTRA:                  -0.070
REMARK UNBOUND:                -0.070
REMARK SMILES C=Cc1ccc(O)c(OC)c1
REMARK SMILES IDX 8 1 6 2 5 3 4 4 3 5 11 6 9 7 10 8 7 9 2 11 1 12
REMARK H PARENT 7 10
REMARK Flexibility Score: inf
ROOT
ATOM      1  C   UNL     1     117.137 116.736 112.097  1.00  0.00     0.161 A 
ATOM      2  C   UNL     1     117.089 118.136 111.978  1.00  0.00     0.157 A 
ATOM      3  C   UNL     1     115.858 118.789 111.890  1.00  0.00     0.051 A 
ATOM      4  C   UNL     1     114.666 118.061 111.912  1.00  0.00     0.012 A 
ATOM      5  C   UNL     1     114.690 116.658 112.018  1.00  0.00    -0.022 A 
ATOM      6  C   UNL     1     115.931 116.006 112.120  1.00  0.00     0.058 A 
ENDROOT
BRANCH   1   7
ATOM      7  O   UNL     1     118.389 116.107 112.189  1.00  0.00    -0.493 OA
ATOM      8  C   UNL     1     118.591 114.698 112.140  1.00  0.00     0.278 C 
ENDBRANCH   1   7
BRANCH   2   9
ATOM      9  O   UNL     1     118.258 118.898 111.949  1.00  0.00    -0.504 OA
ATOM     10  H   UNL     1     118.691 119.189 111.081  1.00  0.00     0.293 HD
ENDBRANCH   2   9
BRANCH   5  11
ATOM     11  C   UNL     1     113.454 115.839 112.057  1.00  0.00     0.000 C 
ATOM     12  C   UNL     1     113.253 114.822 112.897  1.00  0.00     0.009 C 
ENDBRANCH   5  11
TORSDOF 3
ENDMDL
MODEL 7
REMARK VINA RESULT:    -3.821      2.193      3.785
REMARK INTER + INTRA:          -4.449
REMARK INTER:                  -4.379
REMARK INTRA:                  -0.070
REMARK UNBOUND:                -0.070
REMARK SMILES C=Cc1ccc(O)c(OC)c1
REMARK SMILES IDX 8 1 6 2 5 3 4 4 3 5 11 6 9 7 10 8 7 9 2 11 1 12
REMARK H PARENT 7 10
REMARK Flexibility Score: inf
ROOT
ATOM      1  C   UNL     1     116.770 115.937 112.095  1.00  0.00     0.161 A 
ATOM      2  C   UNL     1     118.166 116.027 111.954  1.00  0.00     0.157 A 
ATOM      3  C   UNL     1     118.783 117.279 111.893  1.00  0.00     0.051 A 
ATOM      4  C   UNL     1     118.023 118.448 111.965  1.00  0.00     0.012 A 
ATOM      5  C   UNL     1     116.624 118.382 112.093  1.00  0.00    -0.022 A 
ATOM      6  C   UNL     1     116.008 117.120 112.168  1.00  0.00     0.058 A 
ENDROOT
BRANCH   1   7
ATOM      7  O   UNL     1     116.178 114.665 112.158  1.00  0.00    -0.493 OA
ATOM      8  C   UNL     1     114.845 114.415 112.592  1.00  0.00     0.278 C 
ENDBRANCH   1   7
BRANCH   2   9
ATOM      9  O   UNL     1     118.959 114.882 111.875  1.00  0.00    -0.504 OA
ATOM     10  H   UNL     1     119.122 114.397 111.001  1.00  0.00     0.293 HD
ENDBRANCH   2   9
BRANCH   5  11
ATOM     11  C   UNL     1     115.771 119.592 112.184  1.00  0.00     0.000 C 
ATOM     12  C   UNL     1     114.750 119.729 113.034  1.00  0.00     0.009 C 
ENDBRANCH   5  11
TORSDOF 3
ENDMDL
MODEL 8
REMARK VINA RESULT:    -3.729      2.151      3.981
REMARK INTER + INTRA:          -4.343
REMARK INTER:                  -4.267
REMARK INTRA:                  -0.076
REMARK UNBOUND:                -0.070
REMARK SMILES C=Cc1ccc(O)c(OC)c1
REMARK SMILES IDX 8 1 6 2 5 3 4 4 3 5 11 6 9 7 10 8 7 9 2 11 1 12
REMARK H PARENT 7 10
REMARK Flexibility Score: inf
ROOT
ATOM      1  C   UNL     1     117.275 115.013 112.236  1.00  0.00     0.161 A 
ATOM      2  C   UNL     1     115.918 115.319 112.037  1.00  0.00     0.157 A 
ATOM      3  C   UNL     1     115.509 116.650 111.931  1.00  0.00     0.051 A 
ATOM      4  C   UNL     1     116.440 117.687 112.028  1.00  0.00     0.012 A 
ATOM      5  C   UNL     1     117.802 117.405 112.239  1.00  0.00    -0.022 A 
ATOM      6  C   UNL     1     118.211 116.063 112.331  1.00  0.00     0.058 A 
ENDROOT
BRANCH   1   7
ATOM      7  O   UNL     1     117.658 113.665 112.333  1.00  0.00    -0.493 OA
ATOM      8  C   UNL     1     118.560 113.150 113.307  1.00  0.00     0.278 C 
ENDBRANCH   1   7
BRANCH   2   9
ATOM      9  O   UNL     1     114.958 114.311 111.938  1.00  0.00    -0.504 OA
ATOM     10  H   UNL     1     114.696 113.899 111.050  1.00  0.00     0.293 HD
ENDBRANCH   2   9
BRANCH   5  11
ATOM     11  C   UNL     1     118.832 118.468 112.339  1.00  0.00     0.000 C 
ATOM     12  C   UNL     1     119.820 118.474 113.236  1.00  0.00     0.009 C 
ENDBRANCH   5  11
TORSDOF 3
ENDMDL
MODEL 9
REMARK VINA RESULT:    -3.726      1.976      3.479
REMARK INTER + INTRA:          -4.341
REMARK INTER:                  -4.270
REMARK INTRA:                  -0.071
REMARK UNBOUND:                -0.070
REMARK SMILES C=Cc1ccc(O)c(OC)c1
REMARK SMILES IDX 8 1 6 2 5 3 4 4 3 5 11 6 9 7 10 8 7 9 2 11 1 12
REMARK H PARENT 7 10
REMARK Flexibility Score: inf
ROOT
ATOM      1  C   UNL     1     117.235 116.692 112.086  1.00  0.00     0.161 A 
ATOM      2  C   UNL     1     118.282 115.756 112.015  1.00  0.00     0.157 A 
ATOM      3  C   UNL     1     118.003 114.389 112.081  1.00  0.00     0.051 A 
ATOM      4  C   UNL     1     116.688 113.939 112.224  1.00  0.00     0.012 A 
ATOM      5  C   UNL     1     115.627 114.858 112.310  1.00  0.00    -0.022 A 
ATOM      6  C   UNL     1     115.910 116.232 112.229  1.00  0.00     0.058 A 
ENDROOT
BRANCH   1   7
ATOM      7  O   UNL     1     117.545 118.060 112.012  1.00  0.00    -0.493 OA
ATOM      8  C   UNL     1     116.735 119.101 112.549  1.00  0.00     0.278 C 
ENDBRANCH   1   7
BRANCH   2   9
ATOM      9  O   UNL     1     119.608 116.166 111.875  1.00  0.00    -0.504 OA
ATOM     10  H   UNL     1     119.967 116.996 112.331  1.00  0.00     0.293 HD
ENDBRANCH   2   9
BRANCH   5  11
ATOM     11  C   UNL     1     114.212 114.434 112.452  1.00  0.00     0.000 C 
ATOM     12  C   UNL     1     113.438 114.738 113.496  1.00  0.00     0.009 C 
ENDBRANCH   5  11
TORSDOF 3
ENDMDL
