MODEL 1
REMARK VINA RESULT:    -4.730      0.000      0.000
REMARK INTER + INTRA:         -10.342
REMARK INTER:                  -8.324
REMARK INTRA:                  -2.018
REMARK UNBOUND:                -2.018
REMARK SMILES CCCCCCCCCCCCCCC(=O)[O-]
REMARK SMILES IDX 9 1 10 2 11 3 12 4 13 5 14 6 15 7 16 8 17 9 8 10 7 11 6 12
REMARK SMILES IDX 5 13 4 14 3 15 2 16 1 17
REMARK H PARENT
REMARK Flexibility Score: inf
ROOT
ATOM      1  C   UNL     1     -21.410  -6.543  14.544  1.00  0.00     0.000 C 
ENDROOT
BRANCH   1   2
ATOM      2  C   UNL     1     -20.565  -7.826  14.461  1.00  0.00     0.000 C 
BRANCH   2   3
ATOM      3  C   UNL     1     -19.055  -7.541  14.513  1.00  0.00     0.000 C 
BRANCH   3   4
ATOM      4  C   UNL     1     -18.404  -8.026  15.821  1.00  0.00     0.000 C 
BRANCH   4   5
ATOM      5  C   UNL     1     -19.296  -9.008  16.596  1.00  0.00     0.006 C 
BRANCH   5   6
ATOM      6  C   UNL     1     -19.038  -8.972  18.107  1.00  0.00     0.053 C 
BRANCH   6   7
ATOM      7  C   UNL     1     -17.927  -9.905  18.470  1.00  0.00     0.041 C 
ATOM      8  O   UNL     1     -16.786  -9.455  18.753  1.00  0.00    -0.550 OA
ATOM      9  O   UNL     1     -18.164 -11.273  18.545  1.00  0.00    -0.550 OA
ENDBRANCH   6   7
ENDBRANCH   5   6
ENDBRANCH   4   5
ENDBRANCH   3   4
ENDBRANCH   2   3
ENDBRANCH   1   2
BRANCH   1  10
ATOM     10  C   UNL     1     -20.633  -5.363  15.151  1.00  0.00     0.000 C 
BRANCH  10  11
ATOM     11  C   UNL     1     -21.300  -4.798  16.418  1.00  0.00    -0.000 C 
BRANCH  11  12
ATOM     12  C   UNL     1     -21.549  -5.893  17.479  1.00  0.00    -0.000 C 
BRANCH  12  13
ATOM     13  C   UNL     1     -22.970  -5.871  18.068  1.00  0.00    -0.000 C 
BRANCH  13  14
ATOM     14  C   UNL     1     -23.554  -7.278  18.268  1.00  0.00    -0.000 C 
BRANCH  14  15
ATOM     15  C   UNL     1     -22.771  -8.366  17.512  1.00  0.00    -0.000 C 
BRANCH  15  16
ATOM     16  C   UNL     1     -23.571  -9.112  16.428  1.00  0.00    -0.003 C 
ATOM     17  C   UNL     1     -23.300 -10.616  16.412  1.00  0.00     0.004 C 
ENDBRANCH  15  16
ENDBRANCH  14  15
ENDBRANCH  13  14
ENDBRANCH  12  13
ENDBRANCH  11  12
ENDBRANCH  10  11
ENDBRANCH   1  10
TORSDOF 13
ENDMDL
MODEL 2
REMARK VINA RESULT:    -4.551      1.183      2.288
REMARK INTER + INTRA:         -10.027
REMARK INTER:                  -8.290
REMARK INTRA:                  -1.737
REMARK UNBOUND:                -2.018
REMARK SMILES CCCCCCCCCCCCCCC(=O)[O-]
REMARK SMILES IDX 9 1 10 2 11 3 12 4 13 5 14 6 15 7 16 8 17 9 8 10 7 11 6 12
REMARK SMILES IDX 5 13 4 14 3 15 2 16 1 17
REMARK H PARENT
REMARK Flexibility Score: inf
ROOT
ATOM      1  C   UNL     1     -21.091  -5.688  14.710  1.00  0.00     0.000 C 
ENDROOT
BRANCH   1   2
ATOM      2  C   UNL     1     -19.678  -5.733  15.317  1.00  0.00     0.000 C 
BRANCH   2   3
ATOM      3  C   UNL     1     -18.765  -6.745  14.606  1.00  0.00     0.000 C 
BRANCH   3   4
ATOM      4  C   UNL     1     -18.842  -8.152  15.224  1.00  0.00     0.000 C 
BRANCH   4   5
ATOM      5  C   UNL     1     -18.126  -8.241  16.581  1.00  0.00     0.006 C 
BRANCH   5   6
ATOM      6  C   UNL     1     -18.805  -9.225  17.542  1.00  0.00     0.053 C 
BRANCH   6   7
ATOM      7  C   UNL     1     -17.788  -9.882  18.421  1.00  0.00     0.041 C 
ATOM      8  O   UNL     1     -17.965 -11.062  18.824  1.00  0.00    -0.550 OA
ATOM      9  O   UNL     1     -16.619  -9.209  18.755  1.00  0.00    -0.550 OA
ENDBRANCH   6   7
ENDBRANCH   5   6
ENDBRANCH   4   5
ENDBRANCH   3   4
ENDBRANCH   2   3
ENDBRANCH   1   2
BRANCH   1  10
ATOM     10  C   UNL     1     -22.173  -6.154  15.698  1.00  0.00     0.000 C 
BRANCH  10  11
ATOM     11  C   UNL     1     -21.694  -6.135  17.160  1.00  0.00    -0.000 C 
BRANCH  11  12
ATOM     12  C   UNL     1     -22.013  -7.457  17.892  1.00  0.00    -0.000 C 
BRANCH  12  13
ATOM     13  C   UNL     1     -22.420  -8.603  16.950  1.00  0.00    -0.000 C 
BRANCH  13  14
ATOM     14  C   UNL     1     -23.874  -9.055  17.154  1.00  0.00    -0.000 C 
BRANCH  14  15
ATOM     15  C   UNL     1     -24.653  -8.153  18.128  1.00  0.00    -0.000 C 
BRANCH  15  16
ATOM     16  C   UNL     1     -25.547  -7.091  17.462  1.00  0.00    -0.003 C 
ATOM     17  C   UNL     1     -26.083  -6.055  18.449  1.00  0.00     0.004 C 
ENDBRANCH  15  16
ENDBRANCH  14  15
ENDBRANCH  13  14
ENDBRANCH  12  13
ENDBRANCH  11  12
ENDBRANCH  10  11
ENDBRANCH   1  10
TORSDOF 13
ENDMDL
MODEL 3
REMARK VINA RESULT:    -4.490      3.208      4.001
REMARK INTER + INTRA:          -9.921
REMARK INTER:                  -8.344
REMARK INTRA:                  -1.577
REMARK UNBOUND:                -2.018
REMARK SMILES CCCCCCCCCCCCCCC(=O)[O-]
REMARK SMILES IDX 9 1 10 2 11 3 12 4 13 5 14 6 15 7 16 8 17 9 8 10 7 11 6 12
REMARK SMILES IDX 5 13 4 14 3 15 2 16 1 17
REMARK H PARENT
REMARK Flexibility Score: inf
ROOT
ATOM      1  C   UNL     1     -21.774  -6.518  14.934  1.00  0.00     0.000 C 
ENDROOT
BRANCH   1   2
ATOM      2  C   UNL     1     -20.791  -7.592  14.436  1.00  0.00     0.000 C 
BRANCH   2   3
ATOM      3  C   UNL     1     -19.644  -7.844  15.427  1.00  0.00     0.000 C 
BRANCH   3   4
ATOM      4  C   UNL     1     -18.256  -7.621  14.800  1.00  0.00     0.000 C 
BRANCH   4   5
ATOM      5  C   UNL     1     -17.918  -6.131  14.631  1.00  0.00     0.006 C 
BRANCH   5   6
ATOM      6  C   UNL     1     -17.214  -5.834  13.301  1.00  0.00     0.053 C 
BRANCH   6   7
ATOM      7  C   UNL     1     -16.761  -4.409  13.256  1.00  0.00     0.041 C 
ATOM      8  O   UNL     1     -15.637  -4.086  13.720  1.00  0.00    -0.550 OA
ATOM      9  O   UNL     1     -17.561  -3.444  12.655  1.00  0.00    -0.550 OA
ENDBRANCH   6   7
ENDBRANCH   5   6
ENDBRANCH   4   5
ENDBRANCH   3   4
ENDBRANCH   2   3
ENDBRANCH   1   2
BRANCH   1  10
ATOM     10  C   UNL     1     -21.077  -5.401  15.728  1.00  0.00     0.000 C 
BRANCH  10  11
ATOM     11  C   UNL     1     -21.707  -5.172  17.114  1.00  0.00    -0.000 C 
BRANCH  11  12
ATOM     12  C   UNL     1     -21.931  -6.496  17.876  1.00  0.00    -0.000 C 
BRANCH  12  13
ATOM     13  C   UNL     1     -23.323  -6.610  18.520  1.00  0.00    -0.000 C 
BRANCH  13  14
ATOM     14  C   UNL     1     -24.392  -7.128  17.544  1.00  0.00    -0.000 C 
BRANCH  14  15
ATOM     15  C   UNL     1     -24.484  -8.664  17.514  1.00  0.00    -0.000 C 
BRANCH  15  16
ATOM     16  C   UNL     1     -23.773  -9.337  16.327  1.00  0.00    -0.003 C 
ATOM     17  C   UNL     1     -22.462 -10.018  16.721  1.00  0.00     0.004 C 
ENDBRANCH  15  16
ENDBRANCH  14  15
ENDBRANCH  13  14
ENDBRANCH  12  13
ENDBRANCH  11  12
ENDBRANCH  10  11
ENDBRANCH   1  10
TORSDOF 13
ENDMDL
MODEL 4
REMARK VINA RESULT:    -4.466      2.478      4.371
REMARK INTER + INTRA:          -9.879
REMARK INTER:                  -7.815
REMARK INTRA:                  -2.064
REMARK UNBOUND:                -2.018
REMARK SMILES CCCCCCCCCCCCCCC(=O)[O-]
REMARK SMILES IDX 9 1 10 2 11 3 12 4 13 5 14 6 15 7 16 8 17 9 8 10 7 11 6 12
REMARK SMILES IDX 5 13 4 14 3 15 2 16 1 17
REMARK H PARENT
REMARK Flexibility Score: inf
ROOT
ATOM      1  C   UNL     1     -22.660  -8.157  17.560  1.00  0.00     0.000 C 
ENDROOT
BRANCH   1   2
ATOM      2  C   UNL     1     -21.658  -7.047  17.924  1.00  0.00     0.000 C 
BRANCH   2   3
ATOM      3  C   UNL     1     -22.150  -5.651  17.511  1.00  0.00     0.000 C 
BRANCH   3   4
ATOM      4  C   UNL     1     -21.124  -4.889  16.653  1.00  0.00     0.000 C 
BRANCH   4   5
ATOM      5  C   UNL     1     -20.923  -5.526  15.269  1.00  0.00     0.006 C 
BRANCH   5   6
ATOM      6  C   UNL     1     -19.472  -5.958  15.024  1.00  0.00     0.053 C 
BRANCH   6   7
ATOM      7  C   UNL     1     -19.396  -7.436  14.808  1.00  0.00     0.041 C 
ATOM      8  O   UNL     1     -18.746  -8.161  15.606  1.00  0.00    -0.550 OA
ATOM      9  O   UNL     1     -20.086  -8.021  13.753  1.00  0.00    -0.550 OA
ENDBRANCH   6   7
ENDBRANCH   5   6
ENDBRANCH   4   5
ENDBRANCH   3   4
ENDBRANCH   2   3
ENDBRANCH   1   2
BRANCH   1  10
ATOM     10  C   UNL     1     -22.161  -9.048  16.410  1.00  0.00     0.000 C 
BRANCH  10  11
ATOM     11  C   UNL     1     -23.132  -9.080  15.216  1.00  0.00    -0.000 C 
BRANCH  11  12
ATOM     12  C   UNL     1     -23.620  -7.667  14.828  1.00  0.00    -0.000 C 
BRANCH  12  13
ATOM     13  C   UNL     1     -25.150  -7.513  14.852  1.00  0.00    -0.000 C 
BRANCH  13  14
ATOM     14  C   UNL     1     -25.631  -6.504  15.906  1.00  0.00    -0.000 C 
BRANCH  14  15
ATOM     15  C   UNL     1     -26.008  -7.165  17.243  1.00  0.00    -0.000 C 
BRANCH  15  16
ATOM     16  C   UNL     1     -26.302  -6.187  18.395  1.00  0.00    -0.003 C 
ATOM     17  C   UNL     1     -25.198  -6.156  19.452  1.00  0.00     0.004 C 
ENDBRANCH  15  16
ENDBRANCH  14  15
ENDBRANCH  13  14
ENDBRANCH  12  13
ENDBRANCH  11  12
ENDBRANCH  10  11
ENDBRANCH   1  10
TORSDOF 13
ENDMDL
MODEL 5
REMARK VINA RESULT:    -4.462      4.099      6.417
REMARK INTER + INTRA:          -9.870
REMARK INTER:                  -8.283
REMARK INTRA:                  -1.587
REMARK UNBOUND:                -2.018
REMARK SMILES CCCCCCCCCCCCCCC(=O)[O-]
REMARK SMILES IDX 9 1 10 2 11 3 12 4 13 5 14 6 15 7 16 8 17 9 8 10 7 11 6 12
REMARK SMILES IDX 5 13 4 14 3 15 2 16 1 17
REMARK H PARENT
REMARK Flexibility Score: inf
ROOT
ATOM      1  C   UNL     1     -22.231  -7.271  18.084  1.00  0.00     0.000 C 
ENDROOT
BRANCH   1   2
ATOM      2  C   UNL     1     -22.606  -8.506  17.247  1.00  0.00     0.000 C 
BRANCH   2   3
ATOM      3  C   UNL     1     -24.092  -8.874  17.372  1.00  0.00     0.000 C 
BRANCH   3   4
ATOM      4  C   UNL     1     -24.904  -7.814  18.139  1.00  0.00     0.000 C 
BRANCH   4   5
ATOM      5  C   UNL     1     -25.875  -7.044  17.231  1.00  0.00     0.006 C 
BRANCH   5   6
ATOM      6  C   UNL     1     -25.507  -7.153  15.746  1.00  0.00     0.053 C 
BRANCH   6   7
ATOM      7  C   UNL     1     -26.584  -6.560  14.895  1.00  0.00     0.041 C 
ATOM      8  O   UNL     1     -27.311  -5.636  15.345  1.00  0.00    -0.550 OA
ATOM      9  O   UNL     1     -26.752  -6.992  13.585  1.00  0.00    -0.550 OA
ENDBRANCH   6   7
ENDBRANCH   5   6
ENDBRANCH   4   5
ENDBRANCH   3   4
ENDBRANCH   2   3
ENDBRANCH   1   2
BRANCH   1  10
ATOM     10  C   UNL     1     -21.814  -6.073  17.215  1.00  0.00     0.000 C 
BRANCH  10  11
ATOM     11  C   UNL     1     -21.874  -6.380  15.708  1.00  0.00    -0.000 C 
BRANCH  11  12
ATOM     12  C   UNL     1     -20.778  -5.631  14.919  1.00  0.00    -0.000 C 
BRANCH  12  13
ATOM     13  C   UNL     1     -19.388  -6.282  15.022  1.00  0.00    -0.000 C 
BRANCH  13  14
ATOM     14  C   UNL     1     -19.456  -7.807  15.199  1.00  0.00    -0.000 C 
BRANCH  14  15
ATOM     15  C   UNL     1     -18.441  -8.338  16.227  1.00  0.00    -0.000 C 
BRANCH  15  16
ATOM     16  C   UNL     1     -19.047  -9.159  17.379  1.00  0.00    -0.003 C 
ATOM     17  C   UNL     1     -18.004  -9.639  18.388  1.00  0.00     0.004 C 
ENDBRANCH  15  16
ENDBRANCH  14  15
ENDBRANCH  13  14
ENDBRANCH  12  13
ENDBRANCH  11  12
ENDBRANCH  10  11
ENDBRANCH   1  10
TORSDOF 13
ENDMDL
MODEL 6
REMARK VINA RESULT:    -4.455      3.433      5.789
REMARK INTER + INTRA:          -9.858
REMARK INTER:                  -8.046
REMARK INTRA:                  -1.813
REMARK UNBOUND:                -2.018
REMARK SMILES CCCCCCCCCCCCCCC(=O)[O-]
REMARK SMILES IDX 9 1 10 2 11 3 12 4 13 5 14 6 15 7 16 8 17 9 8 10 7 11 6 12
REMARK SMILES IDX 5 13 4 14 3 15 2 16 1 17
REMARK H PARENT
REMARK Flexibility Score: inf
ROOT
ATOM      1  C   UNL     1     -21.635  -6.505  17.177  1.00  0.00     0.000 C 
ENDROOT
BRANCH   1   2
ATOM      2  C   UNL     1     -22.056  -7.832  17.832  1.00  0.00     0.000 C 
BRANCH   2   3
ATOM      3  C   UNL     1     -22.424  -8.908  16.798  1.00  0.00     0.000 C 
BRANCH   3   4
ATOM      4  C   UNL     1     -23.841  -9.472  17.007  1.00  0.00     0.000 C 
BRANCH   4   5
ATOM      5  C   UNL     1     -24.681  -8.616  17.968  1.00  0.00     0.006 C 
BRANCH   5   6
ATOM      6  C   UNL     1     -25.580  -7.615  17.233  1.00  0.00     0.053 C 
BRANCH   6   7
ATOM      7  C   UNL     1     -25.733  -6.362  18.037  1.00  0.00     0.041 C 
ATOM      8  O   UNL     1     -26.709  -5.593  17.833  1.00  0.00    -0.550 OA
ATOM      9  O   UNL     1     -24.825  -6.069  19.047  1.00  0.00    -0.550 OA
ENDBRANCH   6   7
ENDBRANCH   5   6
ENDBRANCH   4   5
ENDBRANCH   3   4
ENDBRANCH   2   3
ENDBRANCH   1   2
BRANCH   1  10
ATOM     10  C   UNL     1     -22.256  -6.312  15.783  1.00  0.00     0.000 C 
BRANCH  10  11
ATOM     11  C   UNL     1     -21.204  -6.292  14.659  1.00  0.00    -0.000 C 
BRANCH  11  12
ATOM     12  C   UNL     1     -19.814  -5.860  15.173  1.00  0.00    -0.000 C 
BRANCH  12  13
ATOM     13  C   UNL     1     -18.677  -6.805  14.749  1.00  0.00    -0.000 C 
BRANCH  13  14
ATOM     14  C   UNL     1     -18.810  -8.209  15.361  1.00  0.00    -0.000 C 
BRANCH  14  15
ATOM     15  C   UNL     1     -18.178  -8.317  16.760  1.00  0.00    -0.000 C 
BRANCH  15  16
ATOM     16  C   UNL     1     -18.793  -9.393  17.672  1.00  0.00    -0.003 C 
ATOM     17  C   UNL     1     -17.774 -10.035  18.614  1.00  0.00     0.004 C 
ENDBRANCH  15  16
ENDBRANCH  14  15
ENDBRANCH  13  14
ENDBRANCH  12  13
ENDBRANCH  11  12
ENDBRANCH  10  11
ENDBRANCH   1  10
TORSDOF 13
ENDMDL
MODEL 7
REMARK VINA RESULT:    -4.442      3.998      6.779
REMARK INTER + INTRA:          -9.835
REMARK INTER:                  -8.740
REMARK INTRA:                  -1.095
REMARK UNBOUND:                -2.018
REMARK SMILES CCCCCCCCCCCCCCC(=O)[O-]
REMARK SMILES IDX 9 1 10 2 11 3 12 4 13 5 14 6 15 7 16 8 17 9 8 10 7 11 6 12
REMARK SMILES IDX 5 13 4 14 3 15 2 16 1 17
REMARK H PARENT
REMARK Flexibility Score: inf
ROOT
ATOM      1  C   UNL     1     -21.665  -5.277  17.109  1.00  0.00     0.000 C 
ENDROOT
BRANCH   1   2
ATOM      2  C   UNL     1     -21.790  -6.631  17.829  1.00  0.00     0.000 C 
BRANCH   2   3
ATOM      3  C   UNL     1     -23.246  -6.987  18.167  1.00  0.00     0.000 C 
BRANCH   3   4
ATOM      4  C   UNL     1     -23.677  -8.345  17.583  1.00  0.00     0.000 C 
BRANCH   4   5
ATOM      5  C   UNL     1     -25.185  -8.599  17.731  1.00  0.00     0.006 C 
BRANCH   5   6
ATOM      6  C   UNL     1     -26.019  -7.327  17.537  1.00  0.00     0.053 C 
BRANCH   6   7
ATOM      7  C   UNL     1     -26.571  -7.272  16.148  1.00  0.00     0.041 C 
ATOM      8  O   UNL     1     -25.847  -6.892  15.191  1.00  0.00    -0.550 OA
ATOM      9  O   UNL     1     -27.874  -7.689  15.901  1.00  0.00    -0.550 OA
ENDBRANCH   6   7
ENDBRANCH   5   6
ENDBRANCH   4   5
ENDBRANCH   3   4
ENDBRANCH   2   3
ENDBRANCH   1   2
BRANCH   1  10
ATOM     10  C   UNL     1     -21.100  -5.416  15.686  1.00  0.00     0.000 C 
BRANCH  10  11
ATOM     11  C   UNL     1     -21.691  -6.616  14.923  1.00  0.00    -0.000 C 
BRANCH  11  12
ATOM     12  C   UNL     1     -20.594  -7.578  14.418  1.00  0.00    -0.000 C 
BRANCH  12  13
ATOM     13  C   UNL     1     -19.300  -7.531  15.249  1.00  0.00    -0.000 C 
BRANCH  13  14
ATOM     14  C   UNL     1     -18.061  -7.199  14.403  1.00  0.00    -0.000 C 
BRANCH  14  15
ATOM     15  C   UNL     1     -17.666  -5.713  14.474  1.00  0.00    -0.000 C 
BRANCH  15  16
ATOM     16  C   UNL     1     -16.924  -5.175  13.237  1.00  0.00    -0.003 C 
ATOM     17  C   UNL     1     -15.901  -4.091  13.577  1.00  0.00     0.004 C 
ENDBRANCH  15  16
ENDBRANCH  14  15
ENDBRANCH  13  14
ENDBRANCH  12  13
ENDBRANCH  11  12
ENDBRANCH  10  11
ENDBRANCH   1  10
TORSDOF 13
ENDMDL
MODEL 8
REMARK VINA RESULT:    -4.433      2.327      5.509
REMARK INTER + INTRA:          -9.819
REMARK INTER:                  -8.419
REMARK INTRA:                  -1.400
REMARK UNBOUND:                -2.018
REMARK SMILES CCCCCCCCCCCCCCC(=O)[O-]
REMARK SMILES IDX 9 1 10 2 11 3 12 4 13 5 14 6 15 7 16 8 17 9 8 10 7 11 6 12
REMARK SMILES IDX 5 13 4 14 3 15 2 16 1 17
REMARK H PARENT
REMARK Flexibility Score: inf
ROOT
ATOM      1  C   UNL     1     -21.706  -5.163  17.051  1.00  0.00     0.000 C 
ENDROOT
BRANCH   1   2
ATOM      2  C   UNL     1     -22.146  -6.512  17.647  1.00  0.00     0.000 C 
BRANCH   2   3
ATOM      3  C   UNL     1     -23.372  -6.377  18.565  1.00  0.00     0.000 C 
BRANCH   3   4
ATOM      4  C   UNL     1     -24.691  -6.712  17.846  1.00  0.00     0.000 C 
BRANCH   4   5
ATOM      5  C   UNL     1     -24.491  -7.669  16.661  1.00  0.00     0.006 C 
BRANCH   5   6
ATOM      6  C   UNL     1     -24.333  -9.129  17.102  1.00  0.00     0.053 C 
BRANCH   6   7
ATOM      7  C   UNL     1     -23.260  -9.802  16.305  1.00  0.00     0.041 C 
ATOM      8  O   UNL     1     -23.114  -9.534  15.084  1.00  0.00    -0.550 OA
ATOM      9  O   UNL     1     -22.388 -10.689  16.924  1.00  0.00    -0.550 OA
ENDBRANCH   6   7
ENDBRANCH   5   6
ENDBRANCH   4   5
ENDBRANCH   3   4
ENDBRANCH   2   3
ENDBRANCH   1   2
BRANCH   1  10
ATOM     10  C   UNL     1     -20.992  -5.321  15.699  1.00  0.00     0.000 C 
BRANCH  10  11
ATOM     11  C   UNL     1     -21.651  -6.378  14.795  1.00  0.00    -0.000 C 
BRANCH  11  12
ATOM     12  C   UNL     1     -20.652  -7.469  14.354  1.00  0.00    -0.000 C 
BRANCH  12  13
ATOM     13  C   UNL     1     -19.897  -8.125  15.522  1.00  0.00    -0.000 C 
BRANCH  13  14
ATOM     14  C   UNL     1     -18.384  -7.860  15.479  1.00  0.00    -0.000 C 
BRANCH  14  15
ATOM     15  C   UNL     1     -17.950  -7.057  14.240  1.00  0.00    -0.000 C 
BRANCH  15  16
ATOM     16  C   UNL     1     -17.560  -5.594  14.514  1.00  0.00    -0.003 C 
ATOM     17  C   UNL     1     -16.805  -4.947  13.352  1.00  0.00     0.004 C 
ENDBRANCH  15  16
ENDBRANCH  14  15
ENDBRANCH  13  14
ENDBRANCH  12  13
ENDBRANCH  11  12
ENDBRANCH  10  11
ENDBRANCH   1  10
TORSDOF 13
ENDMDL
MODEL 9
REMARK VINA RESULT:    -4.358      4.110      6.919
REMARK INTER + INTRA:          -9.687
REMARK INTER:                  -8.637
REMARK INTRA:                  -1.050
REMARK UNBOUND:                -2.018
REMARK SMILES CCCCCCCCCCCCCCC(=O)[O-]
REMARK SMILES IDX 9 1 10 2 11 3 12 4 13 5 14 6 15 7 16 8 17 9 8 10 7 11 6 12
REMARK SMILES IDX 5 13 4 14 3 15 2 16 1 17
REMARK H PARENT
REMARK Flexibility Score: inf
ROOT
ATOM      1  C   UNL     1     -22.651  -9.218  16.625  1.00  0.00     0.000 C 
ENDROOT
BRANCH   1   2
ATOM      2  C   UNL     1     -24.069  -9.591  17.091  1.00  0.00     0.000 C 
BRANCH   2   3
ATOM      3  C   UNL     1     -24.714  -8.492  17.950  1.00  0.00     0.000 C 
BRANCH   3   4
ATOM      4  C   UNL     1     -25.862  -7.767  17.224  1.00  0.00     0.000 C 
BRANCH   4   5
ATOM      5  C   UNL     1     -26.287  -6.474  17.936  1.00  0.00     0.006 C 
BRANCH   5   6
ATOM      6  C   UNL     1     -25.339  -6.092  19.080  1.00  0.00     0.053 C 
BRANCH   6   7
ATOM      7  C   UNL     1     -26.072  -5.319  20.130  1.00  0.00     0.041 C 
ATOM      8  O   UNL     1     -27.094  -4.648  19.826  1.00  0.00    -0.550 OA
ATOM      9  O   UNL     1     -25.657  -5.379  21.455  1.00  0.00    -0.550 OA
ENDBRANCH   6   7
ENDBRANCH   5   6
ENDBRANCH   4   5
ENDBRANCH   3   4
ENDBRANCH   2   3
ENDBRANCH   1   2
BRANCH   1  10
ATOM     10  C   UNL     1     -22.100  -7.977  17.347  1.00  0.00     0.000 C 
BRANCH  10  11
ATOM     11  C   UNL     1     -21.504  -6.939  16.379  1.00  0.00    -0.000 C 
BRANCH  11  12
ATOM     12  C   UNL     1     -21.725  -7.330  14.901  1.00  0.00    -0.000 C 
BRANCH  12  13
ATOM     13  C   UNL     1     -20.457  -7.849  14.202  1.00  0.00    -0.000 C 
BRANCH  13  14
ATOM     14  C   UNL     1     -19.188  -7.650  15.046  1.00  0.00    -0.000 C 
BRANCH  14  15
ATOM     15  C   UNL     1     -18.017  -7.060  14.240  1.00  0.00    -0.000 C 
BRANCH  15  16
ATOM     16  C   UNL     1     -17.780  -5.552  14.442  1.00  0.00    -0.003 C 
ATOM     17  C   UNL     1     -16.831  -4.950  13.407  1.00  0.00     0.004 C 
ENDBRANCH  15  16
ENDBRANCH  14  15
ENDBRANCH  13  14
ENDBRANCH  12  13
ENDBRANCH  11  12
ENDBRANCH  10  11
ENDBRANCH   1  10
TORSDOF 13
ENDMDL
