MODEL 1
REMARK VINA RESULT:    -3.732      0.000      0.000
REMARK INTER + INTRA:          -4.959
REMARK INTER:                  -4.823
REMARK INTRA:                  -0.136
REMARK UNBOUND:                -0.136
REMARK SMILES CCCCCCC(=O)[O-]
REMARK SMILES IDX 5 1 6 2 7 3 8 4 9 5 4 6 3 7 2 8 1 9
REMARK H PARENT
REMARK Flexibility Score: inf
ROOT
ATOM      1  C   UNL     1       5.276  -9.181 -11.833  1.00  0.00     0.006 C 
ENDROOT
BRANCH   1   2
ATOM      2  C   UNL     1       4.944  -9.039 -10.342  1.00  0.00     0.053 C 
BRANCH   2   3
ATOM      3  C   UNL     1       6.184  -8.969  -9.502  1.00  0.00     0.041 C 
ATOM      4  O   UNL     1       7.124  -9.784  -9.693  1.00  0.00    -0.550 OA
ATOM      5  O   UNL     1       6.286  -8.025  -8.488  1.00  0.00    -0.550 OA
ENDBRANCH   2   3
ENDBRANCH   1   2
BRANCH   1   6
ATOM      6  C   UNL     1       5.266  -7.826 -12.562  1.00  0.00     0.000 C 
BRANCH   6   7
ATOM      7  C   UNL     1       5.153  -7.989 -14.093  1.00  0.00    -0.000 C 
BRANCH   7   8
ATOM      8  C   UNL     1       5.225  -6.657 -14.860  1.00  0.00    -0.003 C 
ATOM      9  C   UNL     1       4.875  -5.448 -13.995  1.00  0.00     0.004 C 
ENDBRANCH   7   8
ENDBRANCH   6   7
ENDBRANCH   1   6
TORSDOF 5
ENDMDL
MODEL 2
REMARK VINA RESULT:    -3.653      1.548      2.141
REMARK INTER + INTRA:          -4.856
REMARK INTER:                  -4.656
REMARK INTRA:                  -0.199
REMARK UNBOUND:                -0.136
REMARK SMILES CCCCCCC(=O)[O-]
REMARK SMILES IDX 5 1 6 2 7 3 8 4 9 5 4 6 3 7 2 8 1 9
REMARK H PARENT
REMARK Flexibility Score: inf
ROOT
ATOM      1  C   UNL     1       5.896  -8.678 -10.379  1.00  0.00     0.006 C 
ENDROOT
BRANCH   1   2
ATOM      2  C   UNL     1       4.986  -7.450 -10.245  1.00  0.00     0.053 C 
BRANCH   2   3
ATOM      3  C   UNL     1       5.302  -6.658  -9.012  1.00  0.00     0.041 C 
ATOM      4  O   UNL     1       5.755  -7.234  -7.988  1.00  0.00    -0.550 OA
ATOM      5  O   UNL     1       5.066  -5.289  -8.983  1.00  0.00    -0.550 OA
ENDBRANCH   2   3
ENDBRANCH   1   2
BRANCH   1   6
ATOM      6  C   UNL     1       5.938  -9.216 -11.820  1.00  0.00     0.000 C 
BRANCH   6   7
ATOM      7  C   UNL     1       5.018  -8.417 -12.768  1.00  0.00    -0.000 C 
BRANCH   7   8
ATOM      8  C   UNL     1       5.719  -7.948 -14.054  1.00  0.00    -0.003 C 
ATOM      9  C   UNL     1       5.278  -6.558 -14.504  1.00  0.00     0.004 C 
ENDBRANCH   7   8
ENDBRANCH   6   7
ENDBRANCH   1   6
TORSDOF 5
ENDMDL
MODEL 3
REMARK VINA RESULT:    -3.595      3.362      5.088
REMARK INTER + INTRA:          -4.782
REMARK INTER:                  -4.601
REMARK INTRA:                  -0.181
REMARK UNBOUND:                -0.136
REMARK SMILES CCCCCCC(=O)[O-]
REMARK SMILES IDX 5 1 6 2 7 3 8 4 9 5 4 6 3 7 2 8 1 9
REMARK H PARENT
REMARK Flexibility Score: inf
ROOT
ATOM      1  C   UNL     1       4.894  -7.181 -12.404  1.00  0.00     0.006 C 
ENDROOT
BRANCH   1   2
ATOM      2  C   UNL     1       5.146  -7.922 -13.723  1.00  0.00     0.053 C 
BRANCH   2   3
ATOM      3  C   UNL     1       5.082  -6.996 -14.900  1.00  0.00     0.041 C 
ATOM      4  O   UNL     1       5.243  -7.442 -16.067  1.00  0.00    -0.550 OA
ATOM      5  O   UNL     1       4.875  -5.636 -14.707  1.00  0.00    -0.550 OA
ENDBRANCH   2   3
ENDBRANCH   1   2
BRANCH   1   6
ATOM      6  C   UNL     1       5.186  -8.062 -11.177  1.00  0.00     0.000 C 
BRANCH   6   7
ATOM      7  C   UNL     1       5.915  -9.369 -11.558  1.00  0.00    -0.000 C 
BRANCH   7   8
ATOM      8  C   UNL     1       6.563 -10.083 -10.359  1.00  0.00    -0.003 C 
ATOM      9  C   UNL     1       6.785  -9.162  -9.162  1.00  0.00     0.004 C 
ENDBRANCH   7   8
ENDBRANCH   6   7
ENDBRANCH   1   6
TORSDOF 5
ENDMDL
MODEL 4
REMARK VINA RESULT:    -3.403     16.646     17.372
REMARK INTER + INTRA:          -4.534
REMARK INTER:                  -4.405
REMARK INTRA:                  -0.128
REMARK UNBOUND:                -0.136
REMARK SMILES CCCCCCC(=O)[O-]
REMARK SMILES IDX 5 1 6 2 7 3 8 4 9 5 4 6 3 7 2 8 1 9
REMARK H PARENT
REMARK Flexibility Score: inf
ROOT
ATOM      1  C   UNL     1      19.620 -15.919 -16.169  1.00  0.00     0.006 C 
ENDROOT
BRANCH   1   2
ATOM      2  C   UNL     1      18.362 -16.095 -15.308  1.00  0.00     0.053 C 
BRANCH   2   3
ATOM      3  C   UNL     1      17.270 -15.156 -15.724  1.00  0.00     0.041 C 
ATOM      4  O   UNL     1      16.670 -15.327 -16.818  1.00  0.00    -0.550 OA
ATOM      5  O   UNL     1      16.936 -14.074 -14.918  1.00  0.00    -0.550 OA
ENDBRANCH   2   3
ENDBRANCH   1   2
BRANCH   1   6
ATOM      6  C   UNL     1      20.253 -17.267 -16.556  1.00  0.00     0.000 C 
BRANCH   6   7
ATOM      7  C   UNL     1      21.705 -17.106 -17.055  1.00  0.00    -0.000 C 
BRANCH   7   8
ATOM      8  C   UNL     1      22.499 -18.424 -17.069  1.00  0.00    -0.003 C 
ATOM      9  C   UNL     1      21.625 -19.652 -16.827  1.00  0.00     0.004 C 
ENDBRANCH   7   8
ENDBRANCH   6   7
ENDBRANCH   1   6
TORSDOF 5
ENDMDL
MODEL 5
REMARK VINA RESULT:    -3.375     12.786     13.797
REMARK INTER + INTRA:          -4.497
REMARK INTER:                  -4.420
REMARK INTRA:                  -0.078
REMARK UNBOUND:                -0.136
REMARK SMILES CCCCCCC(=O)[O-]
REMARK SMILES IDX 5 1 6 2 7 3 8 4 9 5 4 6 3 7 2 8 1 9
REMARK H PARENT
REMARK Flexibility Score: inf
ROOT
ATOM      1  C   UNL     1       5.680 -22.616 -11.718  1.00  0.00     0.006 C 
ENDROOT
BRANCH   1   2
ATOM      2  C   UNL     1       5.283 -22.367 -10.256  1.00  0.00     0.053 C 
BRANCH   2   3
ATOM      3  C   UNL     1       6.019 -23.276  -9.319  1.00  0.00     0.041 C 
ATOM      4  O   UNL     1       6.179 -24.491  -9.611  1.00  0.00    -0.550 OA
ATOM      5  O   UNL     1       6.502 -22.790  -8.111  1.00  0.00    -0.550 OA
ENDBRANCH   2   3
ENDBRANCH   1   2
BRANCH   1   6
ATOM      6  C   UNL     1       5.013 -21.617 -12.680  1.00  0.00     0.000 C 
BRANCH   6   7
ATOM      7  C   UNL     1       6.027 -20.981 -13.655  1.00  0.00    -0.000 C 
BRANCH   7   8
ATOM      8  C   UNL     1       5.672 -19.539 -14.055  1.00  0.00    -0.003 C 
ATOM      9  C   UNL     1       6.543 -19.001 -15.188  1.00  0.00     0.004 C 
ENDBRANCH   7   8
ENDBRANCH   6   7
ENDBRANCH   1   6
TORSDOF 5
ENDMDL
MODEL 6
REMARK VINA RESULT:    -3.338     11.244     12.829
REMARK INTER + INTRA:          -4.449
REMARK INTER:                  -4.280
REMARK INTRA:                  -0.169
REMARK UNBOUND:                -0.136
REMARK SMILES CCCCCCC(=O)[O-]
REMARK SMILES IDX 5 1 6 2 7 3 8 4 9 5 4 6 3 7 2 8 1 9
REMARK H PARENT
REMARK Flexibility Score: inf
ROOT
ATOM      1  C   UNL     1       6.627 -19.659 -14.953  1.00  0.00     0.006 C 
ENDROOT
BRANCH   1   2
ATOM      2  C   UNL     1       5.548 -18.568 -14.934  1.00  0.00     0.053 C 
BRANCH   2   3
ATOM      3  C   UNL     1       5.587 -17.728 -16.175  1.00  0.00     0.041 C 
ATOM      4  O   UNL     1       4.993 -18.111 -17.218  1.00  0.00    -0.550 OA
ATOM      5  O   UNL     1       6.305 -16.539 -16.189  1.00  0.00    -0.550 OA
ENDBRANCH   2   3
ENDBRANCH   1   2
BRANCH   1   6
ATOM      6  C   UNL     1       6.286 -20.831 -14.016  1.00  0.00     0.000 C 
BRANCH   6   7
ATOM      7  C   UNL     1       5.217 -20.449 -12.970  1.00  0.00    -0.000 C 
BRANCH   7   8
ATOM      8  C   UNL     1       5.039 -21.500 -11.861  1.00  0.00    -0.003 C 
ATOM      9  C   UNL     1       5.778 -22.805 -12.149  1.00  0.00     0.004 C 
ENDBRANCH   7   8
ENDBRANCH   6   7
ENDBRANCH   1   6
TORSDOF 5
ENDMDL
MODEL 7
REMARK VINA RESULT:    -3.304     16.511     17.118
REMARK INTER + INTRA:          -4.406
REMARK INTER:                  -4.246
REMARK INTRA:                  -0.159
REMARK UNBOUND:                -0.136
REMARK SMILES CCCCCCC(=O)[O-]
REMARK SMILES IDX 5 1 6 2 7 3 8 4 9 5 4 6 3 7 2 8 1 9
REMARK H PARENT
REMARK Flexibility Score: inf
ROOT
ATOM      1  C   UNL     1      19.663 -15.907 -16.147  1.00  0.00     0.006 C 
ENDROOT
BRANCH   1   2
ATOM      2  C   UNL     1      18.410 -16.155 -15.296  1.00  0.00     0.053 C 
BRANCH   2   3
ATOM      3  C   UNL     1      17.318 -15.181 -15.622  1.00  0.00     0.041 C 
ATOM      4  O   UNL     1      16.982 -14.304 -14.784  1.00  0.00    -0.550 OA
ATOM      5  O   UNL     1      16.650 -15.264 -16.837  1.00  0.00    -0.550 OA
ENDBRANCH   2   3
ENDBRANCH   1   2
BRANCH   1   6
ATOM      6  C   UNL     1      20.310 -17.219 -16.625  1.00  0.00     0.000 C 
BRANCH   6   7
ATOM      7  C   UNL     1      21.768 -17.014 -17.091  1.00  0.00    -0.000 C 
BRANCH   7   8
ATOM      8  C   UNL     1      22.305 -15.598 -16.821  1.00  0.00    -0.003 C 
ATOM      9  C   UNL     1      23.688 -15.358 -17.421  1.00  0.00     0.004 C 
ENDBRANCH   7   8
ENDBRANCH   6   7
ENDBRANCH   1   6
TORSDOF 5
ENDMDL
MODEL 8
REMARK VINA RESULT:    -3.253     12.056     13.045
REMARK INTER + INTRA:          -4.340
REMARK INTER:                  -4.266
REMARK INTRA:                  -0.074
REMARK UNBOUND:                -0.136
REMARK SMILES CCCCCCC(=O)[O-]
REMARK SMILES IDX 5 1 6 2 7 3 8 4 9 5 4 6 3 7 2 8 1 9
REMARK H PARENT
REMARK Flexibility Score: inf
ROOT
ATOM      1  C   UNL     1       5.854 -21.382 -13.195  1.00  0.00     0.006 C 
ENDROOT
BRANCH   1   2
ATOM      2  C   UNL     1       5.054 -21.678 -11.919  1.00  0.00     0.053 C 
BRANCH   2   3
ATOM      3  C   UNL     1       5.580 -22.885 -11.202  1.00  0.00     0.041 C 
ATOM      4  O   UNL     1       5.775 -22.846  -9.958  1.00  0.00    -0.550 OA
ATOM      5  O   UNL     1       5.885 -24.039 -11.911  1.00  0.00    -0.550 OA
ENDBRANCH   2   3
ENDBRANCH   1   2
BRANCH   1   6
ATOM      6  C   UNL     1       5.559 -19.979 -13.754  1.00  0.00     0.000 C 
BRANCH   6   7
ATOM      7  C   UNL     1       6.493 -19.611 -14.927  1.00  0.00    -0.000 C 
BRANCH   7   8
ATOM      8  C   UNL     1       6.403 -18.133 -15.343  1.00  0.00    -0.003 C 
ATOM      9  C   UNL     1       5.330 -17.872 -16.397  1.00  0.00     0.004 C 
ENDBRANCH   7   8
ENDBRANCH   6   7
ENDBRANCH   1   6
TORSDOF 5
ENDMDL
MODEL 9
REMARK VINA RESULT:    -3.182     12.039     13.712
REMARK INTER + INTRA:          -4.248
REMARK INTER:                  -4.145
REMARK INTRA:                  -0.103
REMARK UNBOUND:                -0.136
REMARK SMILES CCCCCCC(=O)[O-]
REMARK SMILES IDX 5 1 6 2 7 3 8 4 9 5 4 6 3 7 2 8 1 9
REMARK H PARENT
REMARK Flexibility Score: inf
ROOT
ATOM      1  C   UNL     1       5.998 -21.373 -13.257  1.00  0.00     0.006 C 
ENDROOT
BRANCH   1   2
ATOM      2  C   UNL     1       5.287 -20.034 -13.495  1.00  0.00     0.053 C 
BRANCH   2   3
ATOM      3  C   UNL     1       5.894 -19.281 -14.641  1.00  0.00     0.041 C 
ATOM      4  O   UNL     1       6.949 -19.700 -15.185  1.00  0.00    -0.550 OA
ATOM      5  O   UNL     1       5.311 -18.101 -15.085  1.00  0.00    -0.550 OA
ENDBRANCH   2   3
ENDBRANCH   1   2
BRANCH   1   6
ATOM      6  C   UNL     1       5.223 -22.277 -12.282  1.00  0.00     0.000 C 
BRANCH   6   7
ATOM      7  C   UNL     1       5.214 -21.713 -10.845  1.00  0.00    -0.000 C 
BRANCH   7   8
ATOM      8  C   UNL     1       5.597 -22.750  -9.775  1.00  0.00    -0.003 C 
ATOM      9  C   UNL     1       6.257 -22.127  -8.548  1.00  0.00     0.004 C 
ENDBRANCH   7   8
ENDBRANCH   6   7
ENDBRANCH   1   6
TORSDOF 5
ENDMDL
