MODEL 1
REMARK VINA RESULT:    -0.691      0.000      0.000
REMARK INTER + INTRA:          -0.691
REMARK INTER:                  -0.691
REMARK INTRA:                   0.000
REMARK UNBOUND:                 0.000
REMARK SMILES CC1=CC[C@@]2(C)CCCC(C)(C)[C@]23C[C@H]13
REMARK SMILES IDX 1 1 2 2 3 3 4 4 5 5 7 6 8 7 9 8 10 9 13 10 15 11 14 12 11 13
REMARK SMILES IDX 12 14 6 15
REMARK H PARENT
REMARK Flexibility Score: inf
ROOT
ATOM      1  C   UNL     1       9.414   8.958  13.377  1.00  0.00     0.039 C 
ATOM      2  C   UNL     1       8.183   8.112  13.530  1.00  0.00    -0.074 C 
ATOM      3  C   UNL     1       8.126   7.179  14.492  1.00  0.00    -0.027 C 
ATOM      4  C   UNL     1       6.920   6.295  14.626  1.00  0.00     0.034 C 
ATOM      5  C   UNL     1       6.400   5.828  13.240  1.00  0.00    -0.022 C 
ATOM      6  C   UNL     1       5.108   4.996  13.475  1.00  0.00     0.008 C 
ATOM      7  C   UNL     1       4.283   4.875  12.200  1.00  0.00     0.001 C 
ATOM      8  C   UNL     1       3.689   6.223  11.772  1.00  0.00     0.007 C 
ATOM      9  C   UNL     1       4.571   7.490  12.068  1.00  0.00    -0.029 C 
ATOM     10  C   UNL     1       6.091   7.094  12.324  1.00  0.00    -0.012 C 
ATOM     11  C   UNL     1       7.024   8.308  12.583  1.00  0.00     0.022 C 
ATOM     12  C   UNL     1       7.163   7.527  11.287  1.00  0.00     0.017 C 
ATOM     13  C   UNL     1       4.016   8.214  13.324  1.00  0.00     0.012 C 
ATOM     14  C   UNL     1       4.363   8.464  10.875  1.00  0.00     0.012 C 
ATOM     15  C   UNL     1       7.456   4.875  12.603  1.00  0.00     0.012 C 
ENDROOT
TORSDOF 0
ENDMDL
