MODEL 1
REMARK VINA RESULT:    -3.504      0.000      0.000
REMARK INTER + INTRA:          -4.368
REMARK INTER:                  -4.221
REMARK INTRA:                  -0.146
REMARK UNBOUND:                -0.146
REMARK SMILES CC[C@H](C)[C@@H]([NH3+])C(=O)[O-]
REMARK SMILES IDX 3 1 4 2 5 3 6 4 7 8 8 9 9 10 2 11 1 12
REMARK H PARENT 6 5 6 6 6 7
REMARK Flexibility Score: inf
ROOT
ATOM      1  C   UNL     1      -5.601   2.725 -22.286  1.00  0.00     0.050 C 
ATOM      2  C   UNL     1      -5.929   1.514 -21.390  1.00  0.00     0.014 C 
ENDROOT
BRANCH   1   3
ATOM      3  C   UNL     1      -4.376   3.543 -21.772  1.00  0.00     0.230 C 
BRANCH   3   4
ATOM      4  N   UNL     1      -3.855   3.049 -20.487  1.00  0.00    -0.350 N 
ATOM      5  H   UNL     1      -3.516   3.845 -19.902  1.00  0.00     0.345 HD
ATOM      6  H   UNL     1      -4.581   2.515 -19.960  1.00  0.00     0.345 HD
ATOM      7  H   UNL     1      -3.039   2.417 -20.663  1.00  0.00     0.345 HD
ENDBRANCH   3   4
BRANCH   3   8
ATOM      8  C   UNL     1      -3.285   3.601 -22.815  1.00  0.00     0.099 C 
ATOM      9  O   UNL     1      -2.157   3.083 -22.601  1.00  0.00    -0.544 OA
ATOM     10  O   UNL     1      -3.541   4.192 -24.046  1.00  0.00    -0.544 OA
ENDBRANCH   3   8
ENDBRANCH   1   3
BRANCH   1  11
ATOM     11  C   UNL     1      -6.842   3.634 -22.475  1.00  0.00     0.006 C 
ATOM     12  C   UNL     1      -6.588   5.080 -22.044  1.00  0.00     0.004 C 
ENDBRANCH   1  11
TORSDOF 4
ENDMDL
MODEL 2
REMARK VINA RESULT:    -3.461      7.489      8.543
REMARK INTER + INTRA:          -4.316
REMARK INTER:                  -4.249
REMARK INTRA:                  -0.067
REMARK UNBOUND:                -0.146
REMARK SMILES CC[C@H](C)[C@@H]([NH3+])C(=O)[O-]
REMARK SMILES IDX 3 1 4 2 5 3 6 4 7 8 8 9 9 10 2 11 1 12
REMARK H PARENT 6 5 6 6 6 7
REMARK Flexibility Score: inf
ROOT
ATOM      1  C   UNL     1       2.461   0.112 -24.031  1.00  0.00     0.050 C 
ATOM      2  C   UNL     1       1.378   0.957 -24.732  1.00  0.00     0.014 C 
ENDROOT
BRANCH   1   3
ATOM      3  C   UNL     1       2.160  -0.120 -22.517  1.00  0.00     0.230 C 
BRANCH   3   4
ATOM      4  N   UNL     1       1.031   0.687 -22.027  1.00  0.00    -0.350 N 
ATOM      5  H   UNL     1       1.297   1.190 -21.151  1.00  0.00     0.345 HD
ATOM      6  H   UNL     1       0.717   1.379 -22.743  1.00  0.00     0.345 HD
ATOM      7  H   UNL     1       0.227   0.057 -21.797  1.00  0.00     0.345 HD
ENDBRANCH   3   4
BRANCH   3   8
ATOM      8  C   UNL     1       1.947  -1.586 -22.224  1.00  0.00     0.099 C 
ATOM      9  O   UNL     1       2.711  -2.461 -22.712  1.00  0.00    -0.544 OA
ATOM     10  O   UNL     1       0.925  -1.975 -21.368  1.00  0.00    -0.544 OA
ENDBRANCH   3   8
ENDBRANCH   1   3
BRANCH   1  11
ATOM     11  C   UNL     1       3.869   0.726 -24.234  1.00  0.00     0.006 C 
ATOM     12  C   UNL     1       3.851   1.970 -25.125  1.00  0.00     0.004 C 
ENDBRANCH   1  11
TORSDOF 4
ENDMDL
MODEL 3
REMARK VINA RESULT:    -3.291      2.186      3.244
REMARK INTER + INTRA:          -4.111
REMARK INTER:                  -4.156
REMARK INTRA:                   0.045
REMARK UNBOUND:                -0.146
REMARK SMILES CC[C@H](C)[C@@H]([NH3+])C(=O)[O-]
REMARK SMILES IDX 3 1 4 2 5 3 6 4 7 8 8 9 9 10 2 11 1 12
REMARK H PARENT 6 5 6 6 6 7
REMARK Flexibility Score: inf
ROOT
ATOM      1  C   UNL     1      -3.330   3.737 -22.695  1.00  0.00     0.050 C 
ATOM      2  C   UNL     1      -1.975   3.052 -22.962  1.00  0.00     0.014 C 
ENDROOT
BRANCH   1   3
ATOM      3  C   UNL     1      -4.241   2.917 -21.729  1.00  0.00     0.230 C 
BRANCH   3   4
ATOM      4  N   UNL     1      -3.853   3.059 -20.316  1.00  0.00    -0.350 N 
ATOM      5  H   UNL     1      -3.694   2.120 -19.887  1.00  0.00     0.345 HD
ATOM      6  H   UNL     1      -2.991   3.639 -20.214  1.00  0.00     0.345 HD
ATOM      7  H   UNL     1      -4.630   3.521 -19.787  1.00  0.00     0.345 HD
ENDBRANCH   3   4
BRANCH   3   8
ATOM      8  C   UNL     1      -5.697   3.263 -21.930  1.00  0.00     0.099 C 
ATOM      9  O   UNL     1      -6.491   2.441 -22.459  1.00  0.00    -0.544 OA
ATOM     10  O   UNL     1      -6.181   4.487 -21.484  1.00  0.00    -0.544 OA
ENDBRANCH   3   8
ENDBRANCH   1   3
BRANCH   1  11
ATOM     11  C   UNL     1      -4.066   4.057 -24.021  1.00  0.00     0.006 C 
ATOM     12  C   UNL     1      -3.418   5.207 -24.795  1.00  0.00     0.004 C 
ENDBRANCH   1  11
TORSDOF 4
ENDMDL
MODEL 4
REMARK VINA RESULT:    -3.226      1.962      2.820
REMARK INTER + INTRA:          -4.032
REMARK INTER:                  -3.901
REMARK INTRA:                  -0.131
REMARK UNBOUND:                -0.146
REMARK SMILES CC[C@H](C)[C@@H]([NH3+])C(=O)[O-]
REMARK SMILES IDX 3 1 4 2 5 3 6 4 7 8 8 9 9 10 2 11 1 12
REMARK H PARENT 6 5 6 6 6 7
REMARK Flexibility Score: inf
ROOT
ATOM      1  C   UNL     1      -6.649   4.399 -22.227  1.00  0.00     0.050 C 
ATOM      2  C   UNL     1      -6.848   5.928 -22.212  1.00  0.00     0.014 C 
ENDROOT
BRANCH   1   3
ATOM      3  C   UNL     1      -5.305   3.971 -22.895  1.00  0.00     0.230 C 
BRANCH   3   4
ATOM      4  N   UNL     1      -4.689   5.050 -23.684  1.00  0.00    -0.350 N 
ATOM      5  H   UNL     1      -5.332   5.353 -24.450  1.00  0.00     0.345 HD
ATOM      6  H   UNL     1      -4.449   5.872 -23.086  1.00  0.00     0.345 HD
ATOM      7  H   UNL     1      -3.811   4.696 -24.131  1.00  0.00     0.345 HD
ENDBRANCH   3   4
BRANCH   3   8
ATOM      8  C   UNL     1      -4.339   3.426 -21.871  1.00  0.00     0.099 C 
ATOM      9  O   UNL     1      -3.152   3.144 -22.187  1.00  0.00    -0.544 OA
ATOM     10  O   UNL     1      -4.747   3.277 -20.552  1.00  0.00    -0.544 OA
ENDBRANCH   3   8
ENDBRANCH   1   3
BRANCH   1  11
ATOM     11  C   UNL     1      -7.855   3.684 -22.887  1.00  0.00     0.006 C 
ATOM     12  C   UNL     1      -7.609   2.190 -23.109  1.00  0.00     0.004 C 
ENDBRANCH   1  11
TORSDOF 4
ENDMDL
MODEL 5
REMARK VINA RESULT:    -3.168      2.217      2.771
REMARK INTER + INTRA:          -3.963
REMARK INTER:                  -4.005
REMARK INTRA:                   0.042
REMARK UNBOUND:                -0.146
REMARK SMILES CC[C@H](C)[C@@H]([NH3+])C(=O)[O-]
REMARK SMILES IDX 3 1 4 2 5 3 6 4 7 8 8 9 9 10 2 11 1 12
REMARK H PARENT 6 5 6 6 6 7
REMARK Flexibility Score: inf
ROOT
ATOM      1  C   UNL     1      -5.428   4.352 -22.897  1.00  0.00     0.050 C 
ATOM      2  C   UNL     1      -6.164   3.983 -24.200  1.00  0.00     0.014 C 
ENDROOT
BRANCH   1   3
ATOM      3  C   UNL     1      -4.453   3.232 -22.417  1.00  0.00     0.230 C 
BRANCH   3   4
ATOM      4  N   UNL     1      -3.124   3.748 -22.051  1.00  0.00    -0.350 N 
ATOM      5  H   UNL     1      -2.811   4.468 -22.740  1.00  0.00     0.345 HD
ATOM      6  H   UNL     1      -3.125   4.162 -21.092  1.00  0.00     0.345 HD
ATOM      7  H   UNL     1      -2.429   2.965 -22.075  1.00  0.00     0.345 HD
ENDBRANCH   3   4
BRANCH   3   8
ATOM      8  C   UNL     1      -5.057   2.435 -21.285  1.00  0.00     0.099 C 
ATOM      9  O   UNL     1      -5.893   1.521 -21.512  1.00  0.00    -0.544 OA
ATOM     10  O   UNL     1      -4.651   2.678 -19.979  1.00  0.00    -0.544 OA
ENDBRANCH   3   8
ENDBRANCH   1   3
BRANCH   1  11
ATOM     11  C   UNL     1      -6.429   4.740 -21.779  1.00  0.00     0.006 C 
ATOM     12  C   UNL     1      -7.846   4.971 -22.306  1.00  0.00     0.004 C 
ENDBRANCH   1  11
TORSDOF 4
ENDMDL
MODEL 6
REMARK VINA RESULT:    -3.163      0.895      2.016
REMARK INTER + INTRA:          -3.957
REMARK INTER:                  -3.968
REMARK INTRA:                   0.011
REMARK UNBOUND:                -0.146
REMARK SMILES CC[C@H](C)[C@@H]([NH3+])C(=O)[O-]
REMARK SMILES IDX 3 1 4 2 5 3 6 4 7 8 8 9 9 10 2 11 1 12
REMARK H PARENT 6 5 6 6 6 7
REMARK Flexibility Score: inf
ROOT
ATOM      1  C   UNL     1      -5.941   3.548 -21.502  1.00  0.00     0.050 C 
ATOM      2  C   UNL     1      -6.556   4.754 -22.240  1.00  0.00     0.014 C 
ENDROOT
BRANCH   1   3
ATOM      3  C   UNL     1      -4.403   3.693 -21.285  1.00  0.00     0.230 C 
BRANCH   3   4
ATOM      4  N   UNL     1      -3.912   2.923 -20.130  1.00  0.00    -0.350 N 
ATOM      5  H   UNL     1      -4.231   3.364 -19.238  1.00  0.00     0.345 HD
ATOM      6  H   UNL     1      -4.239   1.932 -20.165  1.00  0.00     0.345 HD
ATOM      7  H   UNL     1      -2.865   2.929 -20.128  1.00  0.00     0.345 HD
ENDBRANCH   3   4
BRANCH   3   8
ATOM      8  C   UNL     1      -3.641   3.335 -22.539  1.00  0.00     0.099 C 
ATOM      9  O   UNL     1      -3.649   4.098 -23.541  1.00  0.00    -0.544 OA
ATOM     10  O   UNL     1      -2.884   2.171 -22.576  1.00  0.00    -0.544 OA
ENDBRANCH   3   8
ENDBRANCH   1   3
BRANCH   1  11
ATOM     11  C   UNL     1      -6.283   2.218 -22.221  1.00  0.00     0.006 C 
ATOM     12  C   UNL     1      -7.565   2.305 -23.050  1.00  0.00     0.004 C 
ENDBRANCH   1  11
TORSDOF 4
ENDMDL
MODEL 7
REMARK VINA RESULT:    -3.059      3.178      3.906
REMARK INTER + INTRA:          -3.832
REMARK INTER:                  -3.707
REMARK INTRA:                  -0.125
REMARK UNBOUND:                -0.146
REMARK SMILES CC[C@H](C)[C@@H]([NH3+])C(=O)[O-]
REMARK SMILES IDX 3 1 4 2 5 3 6 4 7 8 8 9 9 10 2 11 1 12
REMARK H PARENT 6 5 6 6 6 7
REMARK Flexibility Score: inf
ROOT
ATOM      1  C   UNL     1      -6.659   3.432 -22.403  1.00  0.00     0.050 C 
ATOM      2  C   UNL     1      -7.063   3.039 -23.838  1.00  0.00     0.014 C 
ENDROOT
BRANCH   1   3
ATOM      3  C   UNL     1      -6.092   4.884 -22.311  1.00  0.00     0.230 C 
BRANCH   3   4
ATOM      4  N   UNL     1      -5.282   5.258 -23.481  1.00  0.00    -0.350 N 
ATOM      5  H   UNL     1      -5.754   6.015 -24.023  1.00  0.00     0.345 HD
ATOM      6  H   UNL     1      -4.328   5.575 -23.199  1.00  0.00     0.345 HD
ATOM      7  H   UNL     1      -5.183   4.430 -24.114  1.00  0.00     0.345 HD
ENDBRANCH   3   4
BRANCH   3   8
ATOM      8  C   UNL     1      -7.198   5.884 -22.074  1.00  0.00     0.099 C 
ATOM      9  O   UNL     1      -7.018   7.112 -22.292  1.00  0.00    -0.544 OA
ATOM     10  O   UNL     1      -8.447   5.443 -21.654  1.00  0.00    -0.544 OA
ENDBRANCH   3   8
ENDBRANCH   1   3
BRANCH   1  11
ATOM     11  C   UNL     1      -5.668   2.405 -21.799  1.00  0.00     0.006 C 
ATOM     12  C   UNL     1      -4.867   2.974 -20.627  1.00  0.00     0.004 C 
ENDBRANCH   1  11
TORSDOF 4
ENDMDL
MODEL 8
REMARK VINA RESULT:    -2.975      2.917      3.900
REMARK INTER + INTRA:          -3.730
REMARK INTER:                  -3.583
REMARK INTRA:                  -0.147
REMARK UNBOUND:                -0.146
REMARK SMILES CC[C@H](C)[C@@H]([NH3+])C(=O)[O-]
REMARK SMILES IDX 3 1 4 2 5 3 6 4 7 8 8 9 9 10 2 11 1 12
REMARK H PARENT 6 5 6 6 6 7
REMARK Flexibility Score: inf
ROOT
ATOM      1  C   UNL     1      -4.903   3.469 -22.705  1.00  0.00     0.050 C 
ATOM      2  C   UNL     1      -4.055   4.257 -23.724  1.00  0.00     0.014 C 
ENDROOT
BRANCH   1   3
ATOM      3  C   UNL     1      -6.204   4.225 -22.290  1.00  0.00     0.230 C 
BRANCH   3   4
ATOM      4  N   UNL     1      -6.167   5.657 -22.625  1.00  0.00    -0.350 N 
ATOM      5  H   UNL     1      -5.740   5.799 -23.569  1.00  0.00     0.345 HD
ATOM      6  H   UNL     1      -7.122   6.079 -22.610  1.00  0.00     0.345 HD
ATOM      7  H   UNL     1      -5.569   6.161 -21.929  1.00  0.00     0.345 HD
ENDBRANCH   3   4
BRANCH   3   8
ATOM      8  C   UNL     1      -7.428   3.561 -22.876  1.00  0.00     0.099 C 
ATOM      9  O   UNL     1      -8.374   4.248 -23.345  1.00  0.00    -0.544 OA
ATOM     10  O   UNL     1      -7.494   2.175 -22.942  1.00  0.00    -0.544 OA
ENDBRANCH   3   8
ENDBRANCH   1   3
BRANCH   1  11
ATOM     11  C   UNL     1      -4.064   3.075 -21.463  1.00  0.00     0.006 C 
ATOM     12  C   UNL     1      -4.905   2.972 -20.189  1.00  0.00     0.004 C 
ENDBRANCH   1  11
TORSDOF 4
ENDMDL
MODEL 9
REMARK VINA RESULT:    -2.954      3.576      4.438
REMARK INTER + INTRA:          -3.705
REMARK INTER:                  -3.605
REMARK INTRA:                  -0.100
REMARK UNBOUND:                -0.146
REMARK SMILES CC[C@H](C)[C@@H]([NH3+])C(=O)[O-]
REMARK SMILES IDX 3 1 4 2 5 3 6 4 7 8 8 9 9 10 2 11 1 12
REMARK H PARENT 6 5 6 6 6 7
REMARK Flexibility Score: inf
ROOT
ATOM      1  C   UNL     1      -7.128   3.474 -22.517  1.00  0.00     0.050 C 
ATOM      2  C   UNL     1      -7.572   2.190 -23.246  1.00  0.00     0.014 C 
ENDROOT
BRANCH   1   3
ATOM      3  C   UNL     1      -7.725   4.767 -23.154  1.00  0.00     0.230 C 
BRANCH   3   4
ATOM      4  N   UNL     1      -8.988   4.523 -23.869  1.00  0.00    -0.350 N 
ATOM      5  H   UNL     1      -8.940   4.916 -24.836  1.00  0.00     0.345 HD
ATOM      6  H   UNL     1      -9.208   3.504 -23.919  1.00  0.00     0.345 HD
ATOM      7  H   UNL     1      -9.770   5.009 -23.370  1.00  0.00     0.345 HD
ENDBRANCH   3   4
BRANCH   3   8
ATOM      8  C   UNL     1      -7.888   5.856 -22.120  1.00  0.00     0.099 C 
ATOM      9  O   UNL     1      -7.054   6.797 -22.035  1.00  0.00    -0.544 OA
ATOM     10  O   UNL     1      -8.995   5.849 -21.281  1.00  0.00    -0.544 OA
ENDBRANCH   3   8
ENDBRANCH   1   3
BRANCH   1  11
ATOM     11  C   UNL     1      -5.584   3.558 -22.422  1.00  0.00     0.006 C 
ATOM     12  C   UNL     1      -5.063   3.318 -21.003  1.00  0.00     0.004 C 
ENDBRANCH   1  11
TORSDOF 4
ENDMDL
