MODEL 1
REMARK VINA RESULT:    -5.734      0.000      0.000
REMARK INTER + INTRA:          -9.390
REMARK INTER:                  -8.750
REMARK INTRA:                  -0.640
REMARK UNBOUND:                -0.640
REMARK SMILES CCCCCCCCCCC(=O)[O-]
REMARK SMILES IDX 7 1 8 2 9 3 10 4 11 5 12 6 13 7 6 8 5 9 4 10 3 11 2 12 1 13
REMARK H PARENT
REMARK Flexibility Score: inf
ROOT
ATOM      1  C   UNL     1      17.726   9.427 -19.322  1.00  0.00     0.000 C 
ENDROOT
BRANCH   1   2
ATOM      2  C   UNL     1      18.997   9.510 -20.185  1.00  0.00     0.000 C 
BRANCH   2   3
ATOM      3  C   UNL     1      19.193  10.896 -20.826  1.00  0.00     0.006 C 
BRANCH   3   4
ATOM      4  C   UNL     1      17.905  11.728 -20.944  1.00  0.00     0.053 C 
BRANCH   4   5
ATOM      5  C   UNL     1      17.934  12.939 -20.063  1.00  0.00     0.041 C 
ATOM      6  O   UNL     1      19.029  13.373 -19.619  1.00  0.00    -0.550 OA
ATOM      7  O   UNL     1      16.748  13.566 -19.704  1.00  0.00    -0.550 OA
ENDBRANCH   4   5
ENDBRANCH   3   4
ENDBRANCH   2   3
ENDBRANCH   1   2
BRANCH   1   8
ATOM      8  C   UNL     1      16.757   8.327 -19.792  1.00  0.00     0.000 C 
BRANCH   8   9
ATOM      9  C   UNL     1      16.340   8.410 -21.274  1.00  0.00    -0.000 C 
BRANCH   9  10
ATOM     10  C   UNL     1      15.405   7.283 -21.757  1.00  0.00    -0.000 C 
BRANCH  10  11
ATOM     11  C   UNL     1      14.656   6.537 -20.638  1.00  0.00    -0.000 C 
BRANCH  11  12
ATOM     12  C   UNL     1      13.309   7.185 -20.289  1.00  0.00    -0.003 C 
ATOM     13  C   UNL     1      13.193   7.436 -18.787  1.00  0.00     0.004 C 
ENDBRANCH  11  12
ENDBRANCH  10  11
ENDBRANCH   9  10
ENDBRANCH   8   9
ENDBRANCH   1   8
TORSDOF 9
ENDMDL
MODEL 2
REMARK VINA RESULT:    -5.012      2.310      2.447
REMARK INTER + INTRA:          -8.289
REMARK INTER:                  -7.745
REMARK INTRA:                  -0.544
REMARK UNBOUND:                -0.640
REMARK SMILES CCCCCCCCCCC(=O)[O-]
REMARK SMILES IDX 7 1 8 2 9 3 10 4 11 5 12 6 13 7 6 8 5 9 4 10 3 11 2 12 1 13
REMARK H PARENT
REMARK Flexibility Score: inf
ROOT
ATOM      1  C   UNL     1      18.274   9.260 -19.834  1.00  0.00     0.000 C 
ENDROOT
BRANCH   1   2
ATOM      2  C   UNL     1      18.221  10.742 -20.243  1.00  0.00     0.000 C 
BRANCH   2   3
ATOM      3  C   UNL     1      19.182  11.075 -21.400  1.00  0.00     0.006 C 
BRANCH   3   4
ATOM      4  C   UNL     1      18.638  12.112 -22.397  1.00  0.00     0.053 C 
BRANCH   4   5
ATOM      5  C   UNL     1      18.567  11.570 -23.791  1.00  0.00     0.041 C 
ATOM      6  O   UNL     1      19.546  11.702 -24.573  1.00  0.00    -0.550 OA
ATOM      7  O   UNL     1      17.408  10.949 -24.238  1.00  0.00    -0.550 OA
ENDBRANCH   4   5
ENDBRANCH   3   4
ENDBRANCH   2   3
ENDBRANCH   1   2
BRANCH   1   8
ATOM      8  C   UNL     1      16.922   8.544 -20.010  1.00  0.00     0.000 C 
BRANCH   8   9
ATOM      9  C   UNL     1      16.439   8.406 -21.468  1.00  0.00    -0.000 C 
BRANCH   9  10
ATOM     10  C   UNL     1      15.402   7.291 -21.713  1.00  0.00    -0.000 C 
BRANCH  10  11
ATOM     11  C   UNL     1      14.833   6.642 -20.438  1.00  0.00    -0.000 C 
BRANCH  11  12
ATOM     12  C   UNL     1      13.358   6.992 -20.200  1.00  0.00    -0.003 C 
ATOM     13  C   UNL     1      13.140   7.523 -18.785  1.00  0.00     0.004 C 
ENDBRANCH  11  12
ENDBRANCH  10  11
ENDBRANCH   9  10
ENDBRANCH   8   9
ENDBRANCH   1   8
TORSDOF 9
ENDMDL
MODEL 3
REMARK VINA RESULT:    -4.872      3.050      5.867
REMARK INTER + INTRA:          -8.075
REMARK INTER:                  -7.438
REMARK INTRA:                  -0.637
REMARK UNBOUND:                -0.640
REMARK SMILES CCCCCCCCCCC(=O)[O-]
REMARK SMILES IDX 7 1 8 2 9 3 10 4 11 5 12 6 13 7 6 8 5 9 4 10 3 11 2 12 1 13
REMARK H PARENT
REMARK Flexibility Score: inf
ROOT
ATOM      1  C   UNL     1      16.835   8.268 -19.800  1.00  0.00     0.000 C 
ENDROOT
BRANCH   1   2
ATOM      2  C   UNL     1      16.421   8.366 -21.279  1.00  0.00     0.000 C 
BRANCH   2   3
ATOM      3  C   UNL     1      15.315   7.362 -21.655  1.00  0.00     0.006 C 
BRANCH   3   4
ATOM      4  C   UNL     1      14.738   6.578 -20.464  1.00  0.00     0.053 C 
BRANCH   4   5
ATOM      5  C   UNL     1      13.525   7.240 -19.888  1.00  0.00     0.041 C 
ATOM      6  O   UNL     1      12.787   7.955 -20.616  1.00  0.00    -0.550 OA
ATOM      7  O   UNL     1      13.229   7.096 -18.538  1.00  0.00    -0.550 OA
ENDBRANCH   4   5
ENDBRANCH   3   4
ENDBRANCH   2   3
ENDBRANCH   1   2
BRANCH   1   8
ATOM      8  C   UNL     1      17.846   9.355 -19.391  1.00  0.00     0.000 C 
BRANCH   8   9
ATOM      9  C   UNL     1      19.211   9.284 -20.104  1.00  0.00    -0.000 C 
BRANCH   9  10
ATOM     10  C   UNL     1      19.678  10.598 -20.762  1.00  0.00    -0.000 C 
BRANCH  10  11
ATOM     11  C   UNL     1      18.679  11.215 -21.758  1.00  0.00    -0.000 C 
BRANCH  11  12
ATOM     12  C   UNL     1      18.418  12.705 -21.492  1.00  0.00    -0.003 C 
ATOM     13  C   UNL     1      17.886  12.924 -20.078  1.00  0.00     0.004 C 
ENDBRANCH  11  12
ENDBRANCH  10  11
ENDBRANCH   9  10
ENDBRANCH   8   9
ENDBRANCH   1   8
TORSDOF 9
ENDMDL
MODEL 4
REMARK VINA RESULT:    -4.834      1.077      1.818
REMARK INTER + INTRA:          -8.017
REMARK INTER:                  -7.618
REMARK INTRA:                  -0.399
REMARK UNBOUND:                -0.640
REMARK SMILES CCCCCCCCCCC(=O)[O-]
REMARK SMILES IDX 7 1 8 2 9 3 10 4 11 5 12 6 13 7 6 8 5 9 4 10 3 11 2 12 1 13
REMARK H PARENT
REMARK Flexibility Score: inf
ROOT
ATOM      1  C   UNL     1      19.300  10.463 -20.765  1.00  0.00     0.000 C 
ENDROOT
BRANCH   1   2
ATOM      2  C   UNL     1      18.708  11.221 -21.966  1.00  0.00     0.000 C 
BRANCH   2   3
ATOM      3  C   UNL     1      18.484  12.717 -21.674  1.00  0.00     0.006 C 
BRANCH   3   4
ATOM      4  C   UNL     1      18.383  13.064 -20.179  1.00  0.00     0.053 C 
BRANCH   4   5
ATOM      5  C   UNL     1      17.474  14.228 -19.931  1.00  0.00     0.041 C 
ATOM      6  O   UNL     1      17.045  14.461 -18.771  1.00  0.00    -0.550 OA
ATOM      7  O   UNL     1      17.073  15.035 -20.989  1.00  0.00    -0.550 OA
ENDBRANCH   4   5
ENDBRANCH   3   4
ENDBRANCH   2   3
ENDBRANCH   1   2
BRANCH   1   8
ATOM      8  C   UNL     1      18.316   9.446 -20.159  1.00  0.00     0.000 C 
BRANCH   8   9
ATOM      9  C   UNL     1      17.166   9.011 -21.089  1.00  0.00    -0.000 C 
BRANCH   9  10
ATOM     10  C   UNL     1      16.085   8.131 -20.430  1.00  0.00    -0.000 C 
BRANCH  10  11
ATOM     11  C   UNL     1      15.385   7.142 -21.380  1.00  0.00    -0.000 C 
BRANCH  11  12
ATOM     12  C   UNL     1      14.358   6.254 -20.663  1.00  0.00    -0.003 C 
ATOM     13  C   UNL     1      13.621   7.034 -19.577  1.00  0.00     0.004 C 
ENDBRANCH  11  12
ENDBRANCH  10  11
ENDBRANCH   9  10
ENDBRANCH   8   9
ENDBRANCH   1   8
TORSDOF 9
ENDMDL
MODEL 5
REMARK VINA RESULT:    -4.739      3.189      6.019
REMARK INTER + INTRA:          -7.872
REMARK INTER:                  -7.301
REMARK INTRA:                  -0.571
REMARK UNBOUND:                -0.640
REMARK SMILES CCCCCCCCCCC(=O)[O-]
REMARK SMILES IDX 7 1 8 2 9 3 10 4 11 5 12 6 13 7 6 8 5 9 4 10 3 11 2 12 1 13
REMARK H PARENT
REMARK Flexibility Score: inf
ROOT
ATOM      1  C   UNL     1      16.920   8.634 -19.683  1.00  0.00     0.000 C 
ENDROOT
BRANCH   1   2
ATOM      2  C   UNL     1      16.684   8.596 -21.203  1.00  0.00     0.000 C 
BRANCH   2   3
ATOM      3  C   UNL     1      15.529   7.659 -21.603  1.00  0.00     0.006 C 
BRANCH   3   4
ATOM      4  C   UNL     1      14.996   6.783 -20.457  1.00  0.00     0.053 C 
BRANCH   4   5
ATOM      5  C   UNL     1      13.686   7.282 -19.928  1.00  0.00     0.041 C 
ATOM      6  O   UNL     1      12.887   7.890 -20.688  1.00  0.00    -0.550 OA
ATOM      7  O   UNL     1      13.365   7.106 -18.588  1.00  0.00    -0.550 OA
ENDBRANCH   4   5
ENDBRANCH   3   4
ENDBRANCH   2   3
ENDBRANCH   1   2
BRANCH   1   8
ATOM      8  C   UNL     1      18.364   9.019 -19.314  1.00  0.00     0.000 C 
BRANCH   8   9
ATOM      9  C   UNL     1      19.280   9.353 -20.508  1.00  0.00    -0.000 C 
BRANCH   9  10
ATOM     10  C   UNL     1      19.735  10.823 -20.596  1.00  0.00    -0.000 C 
BRANCH  10  11
ATOM     11  C   UNL     1      19.941  11.355 -22.026  1.00  0.00    -0.000 C 
BRANCH  11  12
ATOM     12  C   UNL     1      18.645  11.884 -22.656  1.00  0.00    -0.003 C 
ATOM     13  C   UNL     1      18.624  11.632 -24.162  1.00  0.00     0.004 C 
ENDBRANCH  11  12
ENDBRANCH  10  11
ENDBRANCH   9  10
ENDBRANCH   8   9
ENDBRANCH   1   8
TORSDOF 9
ENDMDL
MODEL 6
REMARK VINA RESULT:    -4.687      1.025      1.980
REMARK INTER + INTRA:          -7.794
REMARK INTER:                  -7.269
REMARK INTRA:                  -0.525
REMARK UNBOUND:                -0.640
REMARK SMILES CCCCCCCCCCC(=O)[O-]
REMARK SMILES IDX 7 1 8 2 9 3 10 4 11 5 12 6 13 7 6 8 5 9 4 10 3 11 2 12 1 13
REMARK H PARENT
REMARK Flexibility Score: inf
ROOT
ATOM      1  C   UNL     1      16.745   8.724 -21.300  1.00  0.00     0.000 C 
ENDROOT
BRANCH   1   2
ATOM      2  C   UNL     1      17.040   8.725 -19.790  1.00  0.00     0.000 C 
BRANCH   2   3
ATOM      3  C   UNL     1      18.341   9.471 -19.438  1.00  0.00     0.006 C 
BRANCH   3   4
ATOM      4  C   UNL     1      18.937  10.289 -20.597  1.00  0.00     0.053 C 
BRANCH   4   5
ATOM      5  C   UNL     1      18.402  11.687 -20.633  1.00  0.00     0.041 C 
ATOM      6  O   UNL     1      18.565  12.402 -21.657  1.00  0.00    -0.550 OA
ATOM      7  O   UNL     1      17.753  12.213 -19.522  1.00  0.00    -0.550 OA
ENDBRANCH   4   5
ENDBRANCH   3   4
ENDBRANCH   2   3
ENDBRANCH   1   2
BRANCH   1   8
ATOM      8  C   UNL     1      15.560   7.816 -21.675  1.00  0.00     0.000 C 
BRANCH   8   9
ATOM      9  C   UNL     1      15.257   6.685 -20.672  1.00  0.00    -0.000 C 
BRANCH   9  10
ATOM     10  C   UNL     1      13.764   6.339 -20.503  1.00  0.00    -0.000 C 
BRANCH  10  11
ATOM     11  C   UNL     1      12.808   7.545 -20.560  1.00  0.00    -0.000 C 
BRANCH  11  12
ATOM     12  C   UNL     1      12.489   8.117 -19.172  1.00  0.00    -0.003 C 
ATOM     13  C   UNL     1      12.991   7.190 -18.067  1.00  0.00     0.004 C 
ENDBRANCH  11  12
ENDBRANCH  10  11
ENDBRANCH   9  10
ENDBRANCH   8   9
ENDBRANCH   1   8
TORSDOF 9
ENDMDL
MODEL 7
REMARK VINA RESULT:    -4.684      2.091      2.777
REMARK INTER + INTRA:          -7.788
REMARK INTER:                  -7.096
REMARK INTRA:                  -0.692
REMARK UNBOUND:                -0.640
REMARK SMILES CCCCCCCCCCC(=O)[O-]
REMARK SMILES IDX 7 1 8 2 9 3 10 4 11 5 12 6 13 7 6 8 5 9 4 10 3 11 2 12 1 13
REMARK H PARENT
REMARK Flexibility Score: inf
ROOT
ATOM      1  C   UNL     1      16.797   9.800 -22.106  1.00  0.00     0.000 C 
ENDROOT
BRANCH   1   2
ATOM      2  C   UNL     1      17.111  11.071 -21.297  1.00  0.00     0.000 C 
BRANCH   2   3
ATOM      3  C   UNL     1      18.415  10.953 -20.485  1.00  0.00     0.006 C 
BRANCH   3   4
ATOM      4  C   UNL     1      18.888   9.508 -20.252  1.00  0.00     0.053 C 
BRANCH   4   5
ATOM      5  C   UNL     1      18.578   9.030 -18.867  1.00  0.00     0.041 C 
ATOM      6  O   UNL     1      19.386   8.280 -18.260  1.00  0.00    -0.550 OA
ATOM      7  O   UNL     1      17.379   9.386 -18.261  1.00  0.00    -0.550 OA
ENDBRANCH   4   5
ENDBRANCH   3   4
ENDBRANCH   2   3
ENDBRANCH   1   2
BRANCH   1   8
ATOM      8  C   UNL     1      15.592   9.021 -21.548  1.00  0.00     0.000 C 
BRANCH   8   9
ATOM      9  C   UNL     1      15.812   7.504 -21.380  1.00  0.00    -0.000 C 
BRANCH   9  10
ATOM     10  C   UNL     1      14.736   6.772 -20.555  1.00  0.00    -0.000 C 
BRANCH  10  11
ATOM     11  C   UNL     1      13.289   7.213 -20.839  1.00  0.00    -0.000 C 
BRANCH  11  12
ATOM     12  C   UNL     1      12.594   7.804 -19.604  1.00  0.00    -0.003 C 
ATOM     13  C   UNL     1      13.320   7.405 -18.322  1.00  0.00     0.004 C 
ENDBRANCH  11  12
ENDBRANCH  10  11
ENDBRANCH   9  10
ENDBRANCH   8   9
ENDBRANCH   1   8
TORSDOF 9
ENDMDL
MODEL 8
REMARK VINA RESULT:    -4.615      4.751      6.822
REMARK INTER + INTRA:          -7.683
REMARK INTER:                  -7.309
REMARK INTRA:                  -0.373
REMARK UNBOUND:                -0.640
REMARK SMILES CCCCCCCCCCC(=O)[O-]
REMARK SMILES IDX 7 1 8 2 9 3 10 4 11 5 12 6 13 7 6 8 5 9 4 10 3 11 2 12 1 13
REMARK H PARENT
REMARK Flexibility Score: inf
ROOT
ATOM      1  C   UNL     1      11.122   9.698 -19.402  1.00  0.00     0.000 C 
ENDROOT
BRANCH   1   2
ATOM      2  C   UNL     1      10.860  10.670 -18.238  1.00  0.00     0.000 C 
BRANCH   2   3
ATOM      3  C   UNL     1      10.407  12.063 -18.715  1.00  0.00     0.006 C 
BRANCH   3   4
ATOM      4  C   UNL     1      10.188  12.173 -20.233  1.00  0.00     0.053 C 
BRANCH   4   5
ATOM      5  C   UNL     1       8.816  12.671 -20.570  1.00  0.00     0.041 C 
ATOM      6  O   UNL     1       7.950  11.880 -21.028  1.00  0.00    -0.550 OA
ATOM      7  O   UNL     1       8.506  14.016 -20.410  1.00  0.00    -0.550 OA
ENDBRANCH   4   5
ENDBRANCH   3   4
ENDBRANCH   2   3
ENDBRANCH   1   2
BRANCH   1   8
ATOM      8  C   UNL     1      12.013   8.510 -18.997  1.00  0.00     0.000 C 
BRANCH   8   9
ATOM      9  C   UNL     1      12.766   7.830 -20.158  1.00  0.00    -0.000 C 
BRANCH   9  10
ATOM     10  C   UNL     1      13.944   6.929 -19.738  1.00  0.00    -0.000 C 
BRANCH  10  11
ATOM     11  C   UNL     1      14.860   6.478 -20.891  1.00  0.00    -0.000 C 
BRANCH  11  12
ATOM     12  C   UNL     1      15.315   7.644 -21.780  1.00  0.00    -0.003 C 
ATOM     13  C   UNL     1      16.467   8.410 -21.133  1.00  0.00     0.004 C 
ENDBRANCH  11  12
ENDBRANCH  10  11
ENDBRANCH   9  10
ENDBRANCH   8   9
ENDBRANCH   1   8
TORSDOF 9
ENDMDL
MODEL 9
REMARK VINA RESULT:    -4.562      2.275      4.031
REMARK INTER + INTRA:          -7.602
REMARK INTER:                  -7.071
REMARK INTRA:                  -0.531
REMARK UNBOUND:                -0.640
REMARK SMILES CCCCCCCCCCC(=O)[O-]
REMARK SMILES IDX 7 1 8 2 9 3 10 4 11 5 12 6 13 7 6 8 5 9 4 10 3 11 2 12 1 13
REMARK H PARENT
REMARK Flexibility Score: inf
ROOT
ATOM      1  C   UNL     1      14.972   6.706 -20.512  1.00  0.00     0.000 C 
ENDROOT
BRANCH   1   2
ATOM      2  C   UNL     1      15.530   7.464 -21.728  1.00  0.00     0.000 C 
BRANCH   2   3
ATOM      3  C   UNL     1      16.497   8.596 -21.333  1.00  0.00     0.006 C 
BRANCH   3   4
ATOM      4  C   UNL     1      16.937   8.568 -19.859  1.00  0.00     0.053 C 
BRANCH   4   5
ATOM      5  C   UNL     1      18.009   9.574 -19.573  1.00  0.00     0.041 C 
ATOM      6  O   UNL     1      17.704  10.769 -19.319  1.00  0.00    -0.550 OA
ATOM      7  O   UNL     1      19.346   9.199 -19.620  1.00  0.00    -0.550 OA
ENDBRANCH   4   5
ENDBRANCH   3   4
ENDBRANCH   2   3
ENDBRANCH   1   2
BRANCH   1   8
ATOM      8  C   UNL     1      13.518   7.092 -20.184  1.00  0.00     0.000 C 
BRANCH   8   9
ATOM      9  C   UNL     1      13.252   7.452 -18.709  1.00  0.00    -0.000 C 
BRANCH   9  10
ATOM     10  C   UNL     1      11.996   8.311 -18.459  1.00  0.00    -0.000 C 
BRANCH  10  11
ATOM     11  C   UNL     1      11.570   9.197 -19.644  1.00  0.00    -0.000 C 
BRANCH  11  12
ATOM     12  C   UNL     1      10.789  10.444 -19.204  1.00  0.00    -0.003 C 
ATOM     13  C   UNL     1      11.009  10.734 -17.722  1.00  0.00     0.004 C 
ENDBRANCH  11  12
ENDBRANCH  10  11
ENDBRANCH   9  10
ENDBRANCH   8   9
ENDBRANCH   1   8
TORSDOF 9
ENDMDL
