MODEL 1
REMARK VINA RESULT:    -3.014      0.000      0.000
REMARK INTER + INTRA:          -3.429
REMARK INTER:                  -3.366
REMARK INTRA:                  -0.063
REMARK UNBOUND:                -0.063
REMARK SMILES CCCC(=O)[O-]
REMARK SMILES IDX 3 1 4 2 5 3 6 4 2 5 1 6
REMARK H PARENT
REMARK Flexibility Score: inf
ROOT
ATOM      1  C   UNL     1      59.978  28.039  12.555  1.00  0.00     0.052 C 
ENDROOT
BRANCH   1   2
ATOM      2  C   UNL     1      60.081  28.640  11.187  1.00  0.00     0.041 C 
ATOM      3  O   UNL     1      59.608  29.785  10.960  1.00  0.00    -0.550 OA
ATOM      4  O   UNL     1      60.728  27.949  10.170  1.00  0.00    -0.550 OA
ENDBRANCH   1   2
BRANCH   1   5
ATOM      5  C   UNL     1      60.879  28.765  13.563  1.00  0.00     0.003 C 
ATOM      6  C   UNL     1      62.360  28.655  13.202  1.00  0.00     0.004 C 
ENDBRANCH   1   5
TORSDOF 2
ENDMDL
MODEL 2
REMARK VINA RESULT:    -2.983     14.865     15.649
REMARK INTER + INTRA:          -3.395
REMARK INTER:                  -3.343
REMARK INTRA:                  -0.052
REMARK UNBOUND:                -0.063
REMARK SMILES CCCC(=O)[O-]
REMARK SMILES IDX 3 1 4 2 5 3 6 4 2 5 1 6
REMARK H PARENT
REMARK Flexibility Score: inf
ROOT
ATOM      1  C   UNL     1      61.320  27.300  27.618  1.00  0.00     0.052 C 
ENDROOT
BRANCH   1   2
ATOM      2  C   UNL     1      61.272  28.703  28.139  1.00  0.00     0.041 C 
ATOM      3  O   UNL     1      60.540  28.990  29.123  1.00  0.00    -0.550 OA
ATOM      4  O   UNL     1      62.062  29.688  27.559  1.00  0.00    -0.550 OA
ENDBRANCH   1   2
BRANCH   1   5
ATOM      5  C   UNL     1      61.519  27.266  26.097  1.00  0.00     0.003 C 
ATOM      6  C   UNL     1      60.228  27.565  25.336  1.00  0.00     0.004 C 
ENDBRANCH   1   5
TORSDOF 2
ENDMDL
MODEL 3
REMARK VINA RESULT:    -2.962     13.827     14.568
REMARK INTER + INTRA:          -3.371
REMARK INTER:                  -3.306
REMARK INTRA:                  -0.065
REMARK UNBOUND:                -0.063
REMARK SMILES CCCC(=O)[O-]
REMARK SMILES IDX 3 1 4 2 5 3 6 4 2 5 1 6
REMARK H PARENT
REMARK Flexibility Score: inf
ROOT
ATOM      1  C   UNL     1      60.593  27.656  25.620  1.00  0.00     0.052 C 
ENDROOT
BRANCH   1   2
ATOM      2  C   UNL     1      61.279  27.591  26.951  1.00  0.00     0.041 C 
ATOM      3  O   UNL     1      62.183  26.740  27.158  1.00  0.00    -0.550 OA
ATOM      4  O   UNL     1      60.941  28.493  27.952  1.00  0.00    -0.550 OA
ENDBRANCH   1   2
BRANCH   1   5
ATOM      5  C   UNL     1      61.543  28.139  24.516  1.00  0.00     0.003 C 
ATOM      6  C   UNL     1      62.107  29.530  24.802  1.00  0.00     0.004 C 
ENDBRANCH   1   5
TORSDOF 2
ENDMDL
MODEL 4
REMARK VINA RESULT:    -2.956      2.334      3.100
REMARK INTER + INTRA:          -3.365
REMARK INTER:                  -3.356
REMARK INTRA:                  -0.009
REMARK UNBOUND:                -0.063
REMARK SMILES CCCC(=O)[O-]
REMARK SMILES IDX 3 1 4 2 5 3 6 4 2 5 1 6
REMARK H PARENT
REMARK Flexibility Score: inf
ROOT
ATOM      1  C   UNL     1      59.705  28.880  11.160  1.00  0.00     0.052 C 
ENDROOT
BRANCH   1   2
ATOM      2  C   UNL     1      59.481  28.244  12.498  1.00  0.00     0.041 C 
ATOM      3  O   UNL     1      58.373  27.708  12.768  1.00  0.00    -0.550 OA
ATOM      4  O   UNL     1      60.506  28.214  13.434  1.00  0.00    -0.550 OA
ENDBRANCH   1   2
BRANCH   1   5
ATOM      5  C   UNL     1      60.837  28.192  10.387  1.00  0.00     0.003 C 
ATOM      6  C   UNL     1      60.429  27.828   8.960  1.00  0.00     0.004 C 
ENDBRANCH   1   5
TORSDOF 2
ENDMDL
MODEL 5
REMARK VINA RESULT:    -2.956      1.805      2.195
REMARK INTER + INTRA:          -3.364
REMARK INTER:                  -3.316
REMARK INTRA:                  -0.048
REMARK UNBOUND:                -0.063
REMARK SMILES CCCC(=O)[O-]
REMARK SMILES IDX 3 1 4 2 5 3 6 4 2 5 1 6
REMARK H PARENT
REMARK Flexibility Score: inf
ROOT
ATOM      1  C   UNL     1      59.635  28.845  10.676  1.00  0.00     0.052 C 
ENDROOT
BRANCH   1   2
ATOM      2  C   UNL     1      60.800  28.253   9.945  1.00  0.00     0.041 C 
ATOM      3  O   UNL     1      60.610  27.477   8.971  1.00  0.00    -0.550 OA
ATOM      4  O   UNL     1      62.096  28.584  10.318  1.00  0.00    -0.550 OA
ENDBRANCH   1   2
BRANCH   1   5
ATOM      5  C   UNL     1      59.963  29.103  12.153  1.00  0.00     0.003 C 
ATOM      6  C   UNL     1      59.878  27.831  12.997  1.00  0.00     0.004 C 
ENDBRANCH   1   5
TORSDOF 2
ENDMDL
MODEL 6
REMARK VINA RESULT:    -2.799     15.132     15.783
REMARK INTER + INTRA:          -3.189
REMARK INTER:                  -3.120
REMARK INTRA:                  -0.069
REMARK UNBOUND:                -0.063
REMARK SMILES CCCC(=O)[O-]
REMARK SMILES IDX 3 1 4 2 5 3 6 4 2 5 1 6
REMARK H PARENT
REMARK Flexibility Score: inf
ROOT
ATOM      1  C   UNL     1      61.638  27.419  28.550  1.00  0.00     0.052 C 
ENDROOT
BRANCH   1   2
ATOM      2  C   UNL     1      61.651  26.997  27.113  1.00  0.00     0.041 C 
ATOM      3  O   UNL     1      60.579  26.955  26.454  1.00  0.00    -0.550 OA
ATOM      4  O   UNL     1      62.853  26.680  26.493  1.00  0.00    -0.550 OA
ENDBRANCH   1   2
BRANCH   1   5
ATOM      5  C   UNL     1      61.158  28.868  28.711  1.00  0.00     0.003 C 
ATOM      6  C   UNL     1      62.171  29.878  28.174  1.00  0.00     0.004 C 
ENDBRANCH   1   5
TORSDOF 2
ENDMDL
MODEL 7
REMARK VINA RESULT:    -2.791      2.767      3.107
REMARK INTER + INTRA:          -3.181
REMARK INTER:                  -3.172
REMARK INTRA:                  -0.009
REMARK UNBOUND:                -0.063
REMARK SMILES CCCC(=O)[O-]
REMARK SMILES IDX 3 1 4 2 5 3 6 4 2 5 1 6
REMARK H PARENT
REMARK Flexibility Score: inf
ROOT
ATOM      1  C   UNL     1      59.973  30.921  12.828  1.00  0.00     0.052 C 
ENDROOT
BRANCH   1   2
ATOM      2  C   UNL     1      60.399  30.171  11.603  1.00  0.00     0.041 C 
ATOM      3  O   UNL     1      61.616  30.117  11.283  1.00  0.00    -0.550 OA
ATOM      4  O   UNL     1      59.455  29.504  10.833  1.00  0.00    -0.550 OA
ENDBRANCH   1   2
BRANCH   1   5
ATOM      5  C   UNL     1      60.437  32.382  12.788  1.00  0.00     0.003 C 
ATOM      6  C   UNL     1      60.350  33.057  14.157  1.00  0.00     0.004 C 
ENDBRANCH   1   5
TORSDOF 2
ENDMDL
MODEL 8
REMARK VINA RESULT:    -2.780     16.026     16.716
REMARK INTER + INTRA:          -3.168
REMARK INTER:                  -3.160
REMARK INTRA:                  -0.008
REMARK UNBOUND:                -0.063
REMARK SMILES CCCC(=O)[O-]
REMARK SMILES IDX 3 1 4 2 5 3 6 4 2 5 1 6
REMARK H PARENT
REMARK Flexibility Score: inf
ROOT
ATOM      1  C   UNL     1      62.712  29.975  27.713  1.00  0.00     0.052 C 
ENDROOT
BRANCH   1   2
ATOM      2  C   UNL     1      61.819  28.821  28.053  1.00  0.00     0.041 C 
ATOM      3  O   UNL     1      62.131  27.652  27.704  1.00  0.00    -0.550 OA
ATOM      4  O   UNL     1      60.658  29.033  28.786  1.00  0.00    -0.550 OA
ENDBRANCH   1   2
BRANCH   1   5
ATOM      5  C   UNL     1      62.932  30.897  28.919  1.00  0.00     0.003 C 
ATOM      6  C   UNL     1      64.407  31.242  29.125  1.00  0.00     0.004 C 
ENDBRANCH   1   5
TORSDOF 2
ENDMDL
