MODEL 1
REMARK VINA RESULT:    -5.971      0.000      0.000
REMARK INTER + INTRA:         -11.024
REMARK INTER:                  -9.112
REMARK INTRA:                  -1.912
REMARK UNBOUND:                -1.912
REMARK SMILES OC[C@@H]1O[C@H](O[C@@]2(CO)O[C@@H](CO)[C@@H](O)[C@@H]2O)[C@@H](O)[C@H](O)[C@H]1O
REMARK SMILES IDX 6 1 5 2 3 3 22 4 4 5 20 6 18 7 2 8 1 9 23 11 21 13 19 15
REMARK SMILES IDX 7 17 16 18 10 19 14 20 11 21 8 22 9 23 17 25 15 27 12 29
REMARK SMILES IDX 13 30
REMARK H PARENT 1 10 23 12 21 14 19 16 9 24 17 26 15 28 13 31
REMARK Flexibility Score: inf
ROOT
ATOM      1  O   UNL     1      13.483   9.380  45.266  1.00  0.00    -0.313 OA
ENDROOT
BRANCH   1   2
ATOM      2  C   UNL     1      12.383   8.493  45.464  1.00  0.00     0.285 C 
ATOM      3  C   UNL     1      13.501   6.517  44.690  1.00  0.00     0.178 C 
ATOM      4  C   UNL     1      13.609   5.940  46.127  1.00  0.00     0.177 C 
ATOM      5  O   UNL     1      12.423   7.435  44.517  1.00  0.00    -0.341 OA
ATOM      6  C   UNL     1      13.535   7.038  47.196  1.00  0.00     0.179 C 
ATOM      7  C   UNL     1      12.346   7.974  46.916  1.00  0.00     0.202 C 
BRANCH   3   8
ATOM      8  C   UNL     1      14.832   7.052  44.124  1.00  0.00     0.191 C 
BRANCH   8   9
ATOM      9  O   UNL     1      14.603   7.708  42.904  1.00  0.00    -0.394 OA
ATOM     10  H   UNL     1      15.470   7.754  42.421  1.00  0.00     0.210 HD
ENDBRANCH   8   9
ENDBRANCH   3   8
BRANCH   4  11
ATOM     11  O   UNL     1      12.569   5.021  46.345  1.00  0.00    -0.387 OA
ATOM     12  H   UNL     1      11.797   5.318  45.796  1.00  0.00     0.211 HD
ENDBRANCH   4  11
BRANCH   6  13
ATOM     13  O   UNL     1      14.739   7.761  47.222  1.00  0.00    -0.387 OA
ATOM     14  H   UNL     1      15.324   7.379  46.518  1.00  0.00     0.211 HD
ENDBRANCH   6  13
BRANCH   7  15
ATOM     15  O   UNL     1      11.129   7.304  47.135  1.00  0.00    -0.385 OA
ATOM     16  H   UNL     1      11.274   6.357  46.878  1.00  0.00     0.211 HD
ENDBRANCH   7  15
ENDBRANCH   1   2
BRANCH   1  17
ATOM     17  C   UNL     1      13.141  10.737  44.978  1.00  0.00     0.224 C 
ATOM     18  C   UNL     1      11.873  10.833  44.083  1.00  0.00     0.208 C 
ATOM     19  O   UNL     1      14.223  11.266  44.233  1.00  0.00    -0.337 OA
ATOM     20  C   UNL     1      12.440  10.837  42.683  1.00  0.00     0.180 C 
ATOM     21  C   UNL     1      13.822  11.459  42.896  1.00  0.00     0.179 C 
BRANCH  17  22
ATOM     22  C   UNL     1      13.050  11.579  46.279  1.00  0.00     0.225 C 
BRANCH  22  23
ATOM     23  O   UNL     1      11.795  11.403  46.873  1.00  0.00    -0.391 OA
ATOM     24  H   UNL     1      11.963  11.294  47.844  1.00  0.00     0.210 HD
ENDBRANCH  22  23
ENDBRANCH  17  22
BRANCH  18  25
ATOM     25  O   UNL     1      11.117  11.999  44.329  1.00  0.00    -0.385 OA
ATOM     26  H   UNL     1      10.884  12.030  45.293  1.00  0.00     0.211 HD
ENDBRANCH  18  25
BRANCH  20  27
ATOM     27  O   UNL     1      12.542   9.520  42.204  1.00  0.00    -0.387 OA
ATOM     28  H   UNL     1      13.483   9.239  42.338  1.00  0.00     0.211 HD
ENDBRANCH  20  27
BRANCH  21  29
ATOM     29  C   UNL     1      14.905  10.926  41.949  1.00  0.00     0.191 C 
BRANCH  29  30
ATOM     30  O   UNL     1      15.918  10.298  42.683  1.00  0.00    -0.394 OA
ATOM     31  H   UNL     1      15.481   9.559  43.184  1.00  0.00     0.210 HD
ENDBRANCH  29  30
ENDBRANCH  21  29
ENDBRANCH   1  17
TORSDOF 13
ENDMDL
MODEL 2
REMARK VINA RESULT:    -5.897      1.528      2.910
REMARK INTER + INTRA:         -10.911
REMARK INTER:                  -9.105
REMARK INTRA:                  -1.806
REMARK UNBOUND:                -1.912
REMARK SMILES OC[C@@H]1O[C@H](O[C@@]2(CO)O[C@@H](CO)[C@@H](O)[C@@H]2O)[C@@H](O)[C@H](O)[C@H]1O
REMARK SMILES IDX 6 1 5 2 3 3 22 4 4 5 20 6 18 7 2 8 1 9 23 11 21 13 19 15
REMARK SMILES IDX 7 17 16 18 10 19 14 20 11 21 8 22 9 23 17 25 15 27 12 29
REMARK SMILES IDX 13 30
REMARK H PARENT 1 10 23 12 21 14 19 16 9 24 17 26 15 28 13 31
REMARK Flexibility Score: inf
ROOT
ATOM      1  O   UNL     1      13.083   8.690  44.406  1.00  0.00    -0.313 OA
ENDROOT
BRANCH   1   2
ATOM      2  C   UNL     1      14.394   8.298  44.809  1.00  0.00     0.285 C 
ATOM      3  C   UNL     1      13.717   7.136  46.796  1.00  0.00     0.178 C 
ATOM      4  C   UNL     1      14.014   5.751  46.163  1.00  0.00     0.177 C 
ATOM      5  O   UNL     1      14.470   8.206  46.225  1.00  0.00    -0.341 OA
ATOM      6  C   UNL     1      13.981   5.800  44.629  1.00  0.00     0.179 C 
ATOM      7  C   UNL     1      14.816   6.986  44.116  1.00  0.00     0.202 C 
BRANCH   3   8
ATOM      8  C   UNL     1      12.216   7.467  46.915  1.00  0.00     0.191 C 
BRANCH   8   9
ATOM      9  O   UNL     1      12.049   8.814  47.272  1.00  0.00    -0.394 OA
ATOM     10  H   UNL     1      12.844   9.311  46.946  1.00  0.00     0.210 HD
ENDBRANCH   8   9
ENDBRANCH   3   8
BRANCH   4  11
ATOM     11  O   UNL     1      15.281   5.305  46.577  1.00  0.00    -0.387 OA
ATOM     12  H   UNL     1      15.185   4.979  47.510  1.00  0.00     0.211 HD
ENDBRANCH   4  11
BRANCH   6  13
ATOM     13  O   UNL     1      12.653   5.899  44.184  1.00  0.00    -0.387 OA
ATOM     14  H   UNL     1      12.682   5.963  43.194  1.00  0.00     0.211 HD
ENDBRANCH   6  13
BRANCH   7  15
ATOM     15  O   UNL     1      16.185   6.762  44.348  1.00  0.00    -0.385 OA
ATOM     16  H   UNL     1      16.298   6.671  45.330  1.00  0.00     0.211 HD
ENDBRANCH   7  15
ENDBRANCH   1   2
BRANCH   1  17
ATOM     17  C   UNL     1      12.970  10.005  43.857  1.00  0.00     0.224 C 
ATOM     18  C   UNL     1      11.485  10.412  43.643  1.00  0.00     0.208 C 
ATOM     19  O   UNL     1      13.581   9.952  42.581  1.00  0.00    -0.337 OA
ATOM     20  C   UNL     1      11.206   9.961  42.228  1.00  0.00     0.180 C 
ATOM     21  C   UNL     1      12.591  10.046  41.582  1.00  0.00     0.179 C 
BRANCH  17  22
ATOM     22  C   UNL     1      13.783  11.031  44.691  1.00  0.00     0.225 C 
BRANCH  22  23
ATOM     23  O   UNL     1      13.235  11.143  45.974  1.00  0.00    -0.391 OA
ATOM     24  H   UNL     1      13.920  10.792  46.598  1.00  0.00     0.210 HD
ENDBRANCH  22  23
ENDBRANCH  17  22
BRANCH  18  25
ATOM     25  O   UNL     1      11.272  11.800  43.784  1.00  0.00    -0.385 OA
ATOM     26  H   UNL     1      10.366  11.946  44.163  1.00  0.00     0.211 HD
ENDBRANCH  18  25
BRANCH  20  27
ATOM     27  O   UNL     1      10.727   8.640  42.233  1.00  0.00    -0.387 OA
ATOM     28  H   UNL     1      11.519   8.047  42.303  1.00  0.00     0.211 HD
ENDBRANCH  20  27
BRANCH  21  29
ATOM     29  C   UNL     1      12.847   8.990  40.499  1.00  0.00     0.191 C 
BRANCH  29  30
ATOM     30  O   UNL     1      13.062   7.739  41.089  1.00  0.00    -0.394 OA
ATOM     31  H   UNL     1      13.812   7.321  40.587  1.00  0.00     0.210 HD
ENDBRANCH  29  30
ENDBRANCH  21  29
ENDBRANCH   1  17
TORSDOF 13
ENDMDL
MODEL 3
REMARK VINA RESULT:    -5.873      1.080      2.532
REMARK INTER + INTRA:         -10.875
REMARK INTER:                  -9.280
REMARK INTRA:                  -1.595
REMARK UNBOUND:                -1.912
REMARK SMILES OC[C@@H]1O[C@H](O[C@@]2(CO)O[C@@H](CO)[C@@H](O)[C@@H]2O)[C@@H](O)[C@H](O)[C@H]1O
REMARK SMILES IDX 6 1 5 2 3 3 22 4 4 5 20 6 18 7 2 8 1 9 23 11 21 13 19 15
REMARK SMILES IDX 7 17 16 18 10 19 14 20 11 21 8 22 9 23 17 25 15 27 12 29
REMARK SMILES IDX 13 30
REMARK H PARENT 1 10 23 12 21 14 19 16 9 24 17 26 15 28 13 31
REMARK Flexibility Score: inf
ROOT
ATOM      1  O   UNL     1      13.216   8.920  44.958  1.00  0.00    -0.313 OA
ENDROOT
BRANCH   1   2
ATOM      2  C   UNL     1      14.485   8.443  45.404  1.00  0.00     0.285 C 
ATOM      3  C   UNL     1      13.625   6.857  46.984  1.00  0.00     0.178 C 
ATOM      4  C   UNL     1      14.022   5.653  46.087  1.00  0.00     0.177 C 
ATOM      5  O   UNL     1      14.409   8.027  46.760  1.00  0.00    -0.341 OA
ATOM      6  C   UNL     1      14.154   6.054  44.612  1.00  0.00     0.179 C 
ATOM      7  C   UNL     1      15.011   7.325  44.479  1.00  0.00     0.202 C 
BRANCH   3   8
ATOM      8  C   UNL     1      12.112   7.153  47.008  1.00  0.00     0.191 C 
BRANCH   8   9
ATOM      9  O   UNL     1      11.851   8.239  47.859  1.00  0.00    -0.394 OA
ATOM     10  H   UNL     1      12.575   8.269  48.537  1.00  0.00     0.210 HD
ENDBRANCH   8   9
ENDBRANCH   3   8
BRANCH   4  11
ATOM     11  O   UNL     1      15.246   5.122  46.526  1.00  0.00    -0.387 OA
ATOM     12  H   UNL     1      15.270   4.171  46.243  1.00  0.00     0.211 HD
ENDBRANCH   4  11
BRANCH   6  13
ATOM     13  O   UNL     1      12.879   6.255  44.056  1.00  0.00    -0.387 OA
ATOM     14  H   UNL     1      12.981   6.921  43.329  1.00  0.00     0.211 HD
ENDBRANCH   6  13
BRANCH   7  15
ATOM     15  O   UNL     1      16.352   7.052  44.804  1.00  0.00    -0.385 OA
ATOM     16  H   UNL     1      16.340   6.319  45.474  1.00  0.00     0.211 HD
ENDBRANCH   7  15
ENDBRANCH   1   2
BRANCH   1  17
ATOM     17  C   UNL     1      13.114  10.333  44.775  1.00  0.00     0.224 C 
ATOM     18  C   UNL     1      11.975  10.703  43.783  1.00  0.00     0.208 C 
ATOM     19  O   UNL     1      14.335  10.743  44.187  1.00  0.00    -0.337 OA
ATOM     20  C   UNL     1      12.680  10.733  42.447  1.00  0.00     0.180 C 
ATOM     21  C   UNL     1      14.110  11.107  42.844  1.00  0.00     0.179 C 
BRANCH  17  22
ATOM     22  C   UNL     1      13.015  11.068  46.138  1.00  0.00     0.225 C 
BRANCH  22  23
ATOM     23  O   UNL     1      11.787  10.782  46.745  1.00  0.00    -0.391 OA
ATOM     24  H   UNL     1      11.900   9.908  47.198  1.00  0.00     0.210 HD
ENDBRANCH  22  23
ENDBRANCH  17  22
BRANCH  18  25
ATOM     25  O   UNL     1      11.382  11.950  44.072  1.00  0.00    -0.385 OA
ATOM     26  H   UNL     1      11.113  11.961  45.027  1.00  0.00     0.211 HD
ENDBRANCH  18  25
BRANCH  20  27
ATOM     27  O   UNL     1      12.632   9.460  41.853  1.00  0.00    -0.387 OA
ATOM     28  H   UNL     1      12.332   8.827  42.554  1.00  0.00     0.211 HD
ENDBRANCH  20  27
BRANCH  21  29
ATOM     29  C   UNL     1      15.193  10.488  41.951  1.00  0.00     0.191 C 
BRANCH  29  30
ATOM     30  O   UNL     1      16.296  10.107  42.727  1.00  0.00    -0.394 OA
ATOM     31  H   UNL     1      15.928   9.792  43.594  1.00  0.00     0.210 HD
ENDBRANCH  29  30
ENDBRANCH  21  29
ENDBRANCH   1  17
TORSDOF 13
ENDMDL
MODEL 4
REMARK VINA RESULT:    -5.640      1.904      5.399
REMARK INTER + INTRA:         -10.519
REMARK INTER:                  -9.039
REMARK INTRA:                  -1.480
REMARK UNBOUND:                -1.912
REMARK SMILES OC[C@@H]1O[C@H](O[C@@]2(CO)O[C@@H](CO)[C@@H](O)[C@@H]2O)[C@@H](O)[C@H](O)[C@H]1O
REMARK SMILES IDX 6 1 5 2 3 3 22 4 4 5 20 6 18 7 2 8 1 9 23 11 21 13 19 15
REMARK SMILES IDX 7 17 16 18 10 19 14 20 11 21 8 22 9 23 17 25 15 27 12 29
REMARK SMILES IDX 13 30
REMARK H PARENT 1 10 23 12 21 14 19 16 9 24 17 26 15 28 13 31
REMARK Flexibility Score: inf
ROOT
ATOM      1  O   UNL     1      13.926   8.641  43.178  1.00  0.00    -0.313 OA
ENDROOT
BRANCH   1   2
ATOM      2  C   UNL     1      14.857   9.720  43.121  1.00  0.00     0.285 C 
ATOM      3  C   UNL     1      16.407   8.647  41.638  1.00  0.00     0.178 C 
ATOM      4  C   UNL     1      16.002   9.562  40.452  1.00  0.00     0.177 C 
ATOM      5  O   UNL     1      16.174   9.228  42.921  1.00  0.00    -0.341 OA
ATOM      6  C   UNL     1      14.597  10.153  40.634  1.00  0.00     0.179 C 
ATOM      7  C   UNL     1      14.448  10.747  42.045  1.00  0.00     0.202 C 
BRANCH   3   8
ATOM      8  C   UNL     1      15.870   7.205  41.535  1.00  0.00     0.191 C 
BRANCH   8   9
ATOM      9  O   UNL     1      16.245   6.473  42.672  1.00  0.00    -0.394 OA
ATOM     10  H   UNL     1      16.044   7.031  43.468  1.00  0.00     0.210 HD
ENDBRANCH   8   9
ENDBRANCH   3   8
BRANCH   4  11
ATOM     11  O   UNL     1      16.926  10.614  40.331  1.00  0.00    -0.387 OA
ATOM     12  H   UNL     1      17.152  10.695  39.367  1.00  0.00     0.211 HD
ENDBRANCH   4  11
BRANCH   6  13
ATOM     13  O   UNL     1      13.629   9.160  40.409  1.00  0.00    -0.387 OA
ATOM     14  H   UNL     1      13.008   9.509  39.720  1.00  0.00     0.211 HD
ENDBRANCH   6  13
BRANCH   7  15
ATOM     15  O   UNL     1      15.243  11.899  42.182  1.00  0.00    -0.385 OA
ATOM     16  H   UNL     1      15.469  11.978  43.145  1.00  0.00     0.211 HD
ENDBRANCH   7  15
ENDBRANCH   1   2
BRANCH   1  17
ATOM     17  C   UNL     1      13.183   8.526  44.393  1.00  0.00     0.224 C 
ATOM     18  C   UNL     1      14.086   8.744  45.641  1.00  0.00     0.208 C 
ATOM     19  O   UNL     1      12.712   7.191  44.442  1.00  0.00    -0.337 OA
ATOM     20  C   UNL     1      14.556   7.347  45.973  1.00  0.00     0.180 C 
ATOM     21  C   UNL     1      13.407   6.485  45.445  1.00  0.00     0.179 C 
BRANCH  17  22
ATOM     22  C   UNL     1      11.925   9.434  44.369  1.00  0.00     0.225 C 
BRANCH  22  23
ATOM     23  O   UNL     1      11.195   9.204  43.197  1.00  0.00    -0.391 OA
ATOM     24  H   UNL     1      11.782   9.478  42.447  1.00  0.00     0.210 HD
ENDBRANCH  22  23
ENDBRANCH  17  22
BRANCH  18  25
ATOM     25  O   UNL     1      13.389   9.316  46.727  1.00  0.00    -0.385 OA
ATOM     26  H   UNL     1      13.742   8.930  47.570  1.00  0.00     0.211 HD
ENDBRANCH  18  25
BRANCH  20  27
ATOM     27  O   UNL     1      15.754   7.072  45.293  1.00  0.00    -0.387 OA
ATOM     28  H   UNL     1      15.542   6.397  44.599  1.00  0.00     0.211 HD
ENDBRANCH  20  27
BRANCH  21  29
ATOM     29  C   UNL     1      13.844   5.116  44.906  1.00  0.00     0.191 C 
BRANCH  29  30
ATOM     30  O   UNL     1      12.729   4.402  44.448  1.00  0.00    -0.394 OA
ATOM     31  H   UNL     1      12.039   5.081  44.222  1.00  0.00     0.210 HD
ENDBRANCH  29  30
ENDBRANCH  21  29
ENDBRANCH   1  17
TORSDOF 13
ENDMDL
MODEL 5
REMARK VINA RESULT:    -5.560     13.201     15.890
REMARK INTER + INTRA:         -10.396
REMARK INTER:                  -9.124
REMARK INTRA:                  -1.272
REMARK UNBOUND:                -1.912
REMARK SMILES OC[C@@H]1O[C@H](O[C@@]2(CO)O[C@@H](CO)[C@@H](O)[C@@H]2O)[C@@H](O)[C@H](O)[C@H]1O
REMARK SMILES IDX 6 1 5 2 3 3 22 4 4 5 20 6 18 7 2 8 1 9 23 11 21 13 19 15
REMARK SMILES IDX 7 17 16 18 10 19 14 20 11 21 8 22 9 23 17 25 15 27 12 29
REMARK SMILES IDX 13 30
REMARK H PARENT 1 10 23 12 21 14 19 16 9 24 17 26 15 28 13 31
REMARK Flexibility Score: inf
ROOT
ATOM      1  O   UNL     1       7.351  18.407  55.949  1.00  0.00    -0.313 OA
ENDROOT
BRANCH   1   2
ATOM      2  C   UNL     1       6.104  17.819  56.314  1.00  0.00     0.285 C 
ATOM      3  C   UNL     1       6.209  16.000  54.754  1.00  0.00     0.178 C 
ATOM      4  C   UNL     1       6.483  14.967  55.881  1.00  0.00     0.177 C 
ATOM      5  O   UNL     1       5.518  17.167  55.197  1.00  0.00    -0.341 OA
ATOM      6  C   UNL     1       7.085  15.625  57.130  1.00  0.00     0.179 C 
ATOM      7  C   UNL     1       6.272  16.872  57.520  1.00  0.00     0.202 C 
BRANCH   3   8
ATOM      8  C   UNL     1       7.443  16.333  53.892  1.00  0.00     0.191 C 
BRANCH   8   9
ATOM      9  O   UNL     1       8.438  15.362  54.084  1.00  0.00    -0.394 OA
ATOM     10  H   UNL     1       9.307  15.835  54.168  1.00  0.00     0.210 HD
ENDBRANCH   8   9
ENDBRANCH   3   8
BRANCH   4  11
ATOM     11  O   UNL     1       5.283  14.328  56.236  1.00  0.00    -0.387 OA
ATOM     12  H   UNL     1       5.519  13.581  56.846  1.00  0.00     0.211 HD
ENDBRANCH   4  11
BRANCH   6  13
ATOM     13  O   UNL     1       8.427  15.962  56.891  1.00  0.00    -0.387 OA
ATOM     14  H   UNL     1       8.943  15.691  57.694  1.00  0.00     0.211 HD
ENDBRANCH   6  13
BRANCH   7  15
ATOM     15  O   UNL     1       5.001  16.503  57.997  1.00  0.00    -0.385 OA
ATOM     16  H   UNL     1       5.007  15.515  58.091  1.00  0.00     0.211 HD
ENDBRANCH   7  15
ENDBRANCH   1   2
BRANCH   1  17
ATOM     17  C   UNL     1       7.725  19.575  56.682  1.00  0.00     0.224 C 
ATOM     18  C   UNL     1       6.480  20.382  57.151  1.00  0.00     0.208 C 
ATOM     19  O   UNL     1       8.442  20.395  55.779  1.00  0.00    -0.337 OA
ATOM     20  C   UNL     1       6.252  21.352  56.015  1.00  0.00     0.180 C 
ATOM     21  C   UNL     1       7.664  21.523  55.448  1.00  0.00     0.179 C 
BRANCH  17  22
ATOM     22  C   UNL     1       8.707  19.224  57.831  1.00  0.00     0.225 C 
BRANCH  22  23
ATOM     23  O   UNL     1       9.836  18.580  57.312  1.00  0.00    -0.391 OA
ATOM     24  H   UNL     1      10.514  19.287  57.163  1.00  0.00     0.210 HD
ENDBRANCH  22  23
ENDBRANCH  17  22
BRANCH  18  25
ATOM     25  O   UNL     1       6.696  21.065  58.366  1.00  0.00    -0.385 OA
ATOM     26  H   UNL     1       7.318  21.820  58.200  1.00  0.00     0.211 HD
ENDBRANCH  18  25
BRANCH  20  27
ATOM     27  O   UNL     1       5.387  20.782  55.065  1.00  0.00    -0.387 OA
ATOM     28  H   UNL     1       5.959  20.370  54.368  1.00  0.00     0.211 HD
ENDBRANCH  20  27
BRANCH  21  29
ATOM     29  C   UNL     1       7.709  21.757  53.933  1.00  0.00     0.191 C 
BRANCH  29  30
ATOM     30  O   UNL     1       7.673  20.532  53.255  1.00  0.00    -0.394 OA
ATOM     31  H   UNL     1       7.494  20.747  52.302  1.00  0.00     0.210 HD
ENDBRANCH  29  30
ENDBRANCH  21  29
ENDBRANCH   1  17
TORSDOF 13
ENDMDL
MODEL 6
REMARK VINA RESULT:    -5.553     14.065     16.499
REMARK INTER + INTRA:         -10.386
REMARK INTER:                  -9.079
REMARK INTRA:                  -1.308
REMARK UNBOUND:                -1.912
REMARK SMILES OC[C@@H]1O[C@H](O[C@@]2(CO)O[C@@H](CO)[C@@H](O)[C@@H]2O)[C@@H](O)[C@H](O)[C@H]1O
REMARK SMILES IDX 6 1 5 2 3 3 22 4 4 5 20 6 18 7 2 8 1 9 23 11 21 13 19 15
REMARK SMILES IDX 7 17 16 18 10 19 14 20 11 21 8 22 9 23 17 25 15 27 12 29
REMARK SMILES IDX 13 30
REMARK H PARENT 1 10 23 12 21 14 19 16 9 24 17 26 15 28 13 31
REMARK Flexibility Score: inf
ROOT
ATOM      1  O   UNL     1       6.598  17.825  57.432  1.00  0.00    -0.313 OA
ENDROOT
BRANCH   1   2
ATOM      2  C   UNL     1       7.516  16.765  57.170  1.00  0.00     0.285 C 
ATOM      3  C   UNL     1       6.048  14.983  57.822  1.00  0.00     0.178 C 
ATOM      4  C   UNL     1       5.843  14.530  56.352  1.00  0.00     0.177 C 
ATOM      5  O   UNL     1       7.277  15.674  58.047  1.00  0.00    -0.341 OA
ATOM      6  C   UNL     1       6.124  15.662  55.356  1.00  0.00     0.179 C 
ATOM      7  C   UNL     1       7.464  16.343  55.686  1.00  0.00     0.202 C 
BRANCH   3   8
ATOM      8  C   UNL     1       4.837  15.717  58.431  1.00  0.00     0.191 C 
BRANCH   8   9
ATOM      9  O   UNL     1       3.651  15.263  57.831  1.00  0.00    -0.394 OA
ATOM     10  H   UNL     1       2.983  15.994  57.896  1.00  0.00     0.210 HD
ENDBRANCH   8   9
ENDBRANCH   3   8
BRANCH   4  11
ATOM     11  O   UNL     1       6.697  13.451  56.068  1.00  0.00    -0.387 OA
ATOM     12  H   UNL     1       6.187  12.619  56.251  1.00  0.00     0.211 HD
ENDBRANCH   4  11
BRANCH   6  13
ATOM     13  O   UNL     1       5.074  16.595  55.385  1.00  0.00    -0.387 OA
ATOM     14  H   UNL     1       4.872  16.835  54.444  1.00  0.00     0.211 HD
ENDBRANCH   6  13
BRANCH   7  15
ATOM     15  O   UNL     1       8.538  15.475  55.416  1.00  0.00    -0.385 OA
ATOM     16  H   UNL     1       9.370  15.999  55.551  1.00  0.00     0.211 HD
ENDBRANCH   7  15
ENDBRANCH   1   2
BRANCH   1  17
ATOM     17  C   UNL     1       7.182  19.066  57.832  1.00  0.00     0.224 C 
ATOM     18  C   UNL     1       6.119  20.198  57.921  1.00  0.00     0.208 C 
ATOM     19  O   UNL     1       8.092  19.421  56.806  1.00  0.00    -0.337 OA
ATOM     20  C   UNL     1       6.146  20.804  56.537  1.00  0.00     0.180 C 
ATOM     21  C   UNL     1       7.583  20.523  56.088  1.00  0.00     0.179 C 
BRANCH  17  22
ATOM     22  C   UNL     1       8.023  18.899  59.125  1.00  0.00     0.225 C 
BRANCH  22  23
ATOM     23  O   UNL     1       9.263  19.530  58.971  1.00  0.00    -0.391 OA
ATOM     24  H   UNL     1       9.899  19.032  59.546  1.00  0.00     0.210 HD
ENDBRANCH  22  23
ENDBRANCH  17  22
BRANCH  18  25
ATOM     25  O   UNL     1       6.429  21.163  58.903  1.00  0.00    -0.385 OA
ATOM     26  H   UNL     1       6.294  22.067  58.515  1.00  0.00     0.211 HD
ENDBRANCH  18  25
BRANCH  20  27
ATOM     27  O   UNL     1       5.218  20.150  55.710  1.00  0.00    -0.387 OA
ATOM     28  H   UNL     1       4.598  19.658  56.308  1.00  0.00     0.211 HD
ENDBRANCH  20  27
BRANCH  21  29
ATOM     29  C   UNL     1       7.735  20.274  54.582  1.00  0.00     0.191 C 
BRANCH  29  30
ATOM     30  O   UNL     1       7.020  21.238  53.861  1.00  0.00    -0.394 OA
ATOM     31  H   UNL     1       6.718  20.792  53.026  1.00  0.00     0.210 HD
ENDBRANCH  29  30
ENDBRANCH  21  29
ENDBRANCH   1  17
TORSDOF 13
ENDMDL
MODEL 7
REMARK VINA RESULT:    -5.480      1.405      2.830
REMARK INTER + INTRA:         -10.275
REMARK INTER:                  -9.051
REMARK INTRA:                  -1.224
REMARK UNBOUND:                -1.912
REMARK SMILES OC[C@@H]1O[C@H](O[C@@]2(CO)O[C@@H](CO)[C@@H](O)[C@@H]2O)[C@@H](O)[C@H](O)[C@H]1O
REMARK SMILES IDX 6 1 5 2 3 3 22 4 4 5 20 6 18 7 2 8 1 9 23 11 21 13 19 15
REMARK SMILES IDX 7 17 16 18 10 19 14 20 11 21 8 22 9 23 17 25 15 27 12 29
REMARK SMILES IDX 13 30
REMARK H PARENT 1 10 23 12 21 14 19 16 9 24 17 26 15 28 13 31
REMARK Flexibility Score: inf
ROOT
ATOM      1  O   UNL     1      13.511   8.405  44.154  1.00  0.00    -0.313 OA
ENDROOT
BRANCH   1   2
ATOM      2  C   UNL     1      12.710   7.378  44.736  1.00  0.00     0.285 C 
ATOM      3  C   UNL     1      14.309   5.612  44.455  1.00  0.00     0.178 C 
ATOM      4  C   UNL     1      14.623   5.569  45.975  1.00  0.00     0.177 C 
ATOM      5  O   UNL     1      13.012   6.121  44.147  1.00  0.00    -0.341 OA
ATOM      6  C   UNL     1      14.281   6.893  46.670  1.00  0.00     0.179 C 
ATOM      7  C   UNL     1      12.869   7.356  46.271  1.00  0.00     0.202 C 
BRANCH   3   8
ATOM      8  C   UNL     1      15.417   6.260  43.600  1.00  0.00     0.191 C 
BRANCH   8   9
ATOM      9  O   UNL     1      15.012   6.321  42.258  1.00  0.00    -0.394 OA
ATOM     10  H   UNL     1      14.940   5.389  41.923  1.00  0.00     0.210 HD
ENDBRANCH   8   9
ENDBRANCH   3   8
BRANCH   4  11
ATOM     11  O   UNL     1      13.889   4.534  46.578  1.00  0.00    -0.387 OA
ATOM     12  H   UNL     1      14.528   3.802  46.781  1.00  0.00     0.211 HD
ENDBRANCH   4  11
BRANCH   6  13
ATOM     13  O   UNL     1      15.235   7.868  46.337  1.00  0.00    -0.387 OA
ATOM     14  H   UNL     1      14.739   8.694  46.101  1.00  0.00     0.211 HD
ENDBRANCH   6  13
BRANCH   7  15
ATOM     15  O   UNL     1      11.896   6.504  46.823  1.00  0.00    -0.385 OA
ATOM     16  H   UNL     1      11.206   6.367  46.123  1.00  0.00     0.211 HD
ENDBRANCH   7  15
ENDBRANCH   1   2
BRANCH   1  17
ATOM     17  C   UNL     1      12.834   9.282  43.251  1.00  0.00     0.224 C 
ATOM     18  C   UNL     1      13.768  10.419  42.746  1.00  0.00     0.208 C 
ATOM     19  O   UNL     1      11.796   9.890  43.997  1.00  0.00    -0.337 OA
ATOM     20  C   UNL     1      13.540  11.523  43.753  1.00  0.00     0.180 C 
ATOM     21  C   UNL     1      12.107  11.247  44.215  1.00  0.00     0.179 C 
BRANCH  17  22
ATOM     22  C   UNL     1      12.147   8.488  42.108  1.00  0.00     0.225 C 
BRANCH  22  23
ATOM     23  O   UNL     1      10.758   8.635  42.196  1.00  0.00    -0.391 OA
ATOM     24  H   UNL     1      10.376   7.729  42.067  1.00  0.00     0.210 HD
ENDBRANCH  22  23
ENDBRANCH  17  22
BRANCH  18  25
ATOM     25  O   UNL     1      13.451  10.849  41.441  1.00  0.00    -0.385 OA
ATOM     26  H   UNL     1      14.292  11.089  40.971  1.00  0.00     0.211 HD
ENDBRANCH  18  25
BRANCH  20  27
ATOM     27  O   UNL     1      14.451  11.397  44.815  1.00  0.00    -0.387 OA
ATOM     28  H   UNL     1      14.580  10.427  44.970  1.00  0.00     0.211 HD
ENDBRANCH  20  27
BRANCH  21  29
ATOM     29  C   UNL     1      11.838  11.611  45.681  1.00  0.00     0.191 C 
BRANCH  29  30
ATOM     30  O   UNL     1      12.332  10.608  46.524  1.00  0.00    -0.394 OA
ATOM     31  H   UNL     1      11.869  10.725  47.395  1.00  0.00     0.210 HD
ENDBRANCH  29  30
ENDBRANCH  21  29
ENDBRANCH   1  17
TORSDOF 13
ENDMDL
MODEL 8
REMARK VINA RESULT:    -5.469      1.900      4.308
REMARK INTER + INTRA:         -10.258
REMARK INTER:                  -8.453
REMARK INTRA:                  -1.805
REMARK UNBOUND:                -1.912
REMARK SMILES OC[C@@H]1O[C@H](O[C@@]2(CO)O[C@@H](CO)[C@@H](O)[C@@H]2O)[C@@H](O)[C@H](O)[C@H]1O
REMARK SMILES IDX 6 1 5 2 3 3 22 4 4 5 20 6 18 7 2 8 1 9 23 11 21 13 19 15
REMARK SMILES IDX 7 17 16 18 10 19 14 20 11 21 8 22 9 23 17 25 15 27 12 29
REMARK SMILES IDX 13 30
REMARK H PARENT 1 10 23 12 21 14 19 16 9 24 17 26 15 28 13 31
REMARK Flexibility Score: inf
ROOT
ATOM      1  O   UNL     1      14.280   8.125  42.645  1.00  0.00    -0.313 OA
ENDROOT
BRANCH   1   2
ATOM      2  C   UNL     1      15.104   8.098  43.809  1.00  0.00     0.285 C 
ATOM      3  C   UNL     1      13.341   8.503  45.384  1.00  0.00     0.178 C 
ATOM      4  C   UNL     1      13.382   7.040  45.902  1.00  0.00     0.177 C 
ATOM      5  O   UNL     1      14.570   8.948  44.814  1.00  0.00    -0.341 OA
ATOM      6  C   UNL     1      13.986   6.080  44.868  1.00  0.00     0.179 C 
ATOM      7  C   UNL     1      15.301   6.653  44.313  1.00  0.00     0.202 C 
BRANCH   3   8
ATOM      8  C   UNL     1      12.124   8.821  44.491  1.00  0.00     0.191 C 
BRANCH   8   9
ATOM      9  O   UNL     1      12.286  10.081  43.893  1.00  0.00    -0.394 OA
ATOM     10  H   UNL     1      13.196  10.406  44.121  1.00  0.00     0.210 HD
ENDBRANCH   8   9
ENDBRANCH   3   8
BRANCH   4  11
ATOM     11  O   UNL     1      14.146   6.979  47.080  1.00  0.00    -0.387 OA
ATOM     12  H   UNL     1      13.511   6.859  47.834  1.00  0.00     0.211 HD
ENDBRANCH   4  11
BRANCH   6  13
ATOM     13  O   UNL     1      13.065   5.857  43.830  1.00  0.00    -0.387 OA
ATOM     14  H   UNL     1      13.521   5.295  43.152  1.00  0.00     0.211 HD
ENDBRANCH   6  13
BRANCH   7  15
ATOM     15  O   UNL     1      16.300   6.642  45.303  1.00  0.00    -0.385 OA
ATOM     16  H   UNL     1      17.079   6.162  44.919  1.00  0.00     0.211 HD
ENDBRANCH   7  15
ENDBRANCH   1   2
BRANCH   1  17
ATOM     17  C   UNL     1      14.936   8.493  41.430  1.00  0.00     0.224 C 
ATOM     18  C   UNL     1      16.037   9.565  41.673  1.00  0.00     0.208 C 
ATOM     19  O   UNL     1      13.944   9.087  40.612  1.00  0.00    -0.337 OA
ATOM     20  C   UNL     1      15.294  10.868  41.491  1.00  0.00     0.180 C 
ATOM     21  C   UNL     1      14.182  10.473  40.515  1.00  0.00     0.179 C 
BRANCH  17  22
ATOM     22  C   UNL     1      15.444   7.242  40.666  1.00  0.00     0.225 C 
BRANCH  22  23
ATOM     23  O   UNL     1      14.605   6.152  40.927  1.00  0.00    -0.391 OA
ATOM     24  H   UNL     1      14.372   6.207  41.889  1.00  0.00     0.210 HD
ENDBRANCH  22  23
ENDBRANCH  17  22
BRANCH  18  25
ATOM     25  O   UNL     1      17.111   9.462  40.765  1.00  0.00    -0.385 OA
ATOM     26  H   UNL     1      17.506   8.554  40.840  1.00  0.00     0.211 HD
ENDBRANCH  18  25
BRANCH  20  27
ATOM     27  O   UNL     1      14.765  11.293  42.721  1.00  0.00    -0.387 OA
ATOM     28  H   UNL     1      15.166  12.179  42.916  1.00  0.00     0.211 HD
ENDBRANCH  20  27
BRANCH  21  29
ATOM     29  C   UNL     1      12.868  11.238  40.715  1.00  0.00     0.191 C 
BRANCH  29  30
ATOM     30  O   UNL     1      13.111  12.618  40.715  1.00  0.00    -0.394 OA
ATOM     31  H   UNL     1      12.749  12.962  41.574  1.00  0.00     0.210 HD
ENDBRANCH  29  30
ENDBRANCH  21  29
ENDBRANCH   1  17
TORSDOF 13
ENDMDL
MODEL 9
REMARK VINA RESULT:    -5.356      1.780      4.944
REMARK INTER + INTRA:         -10.086
REMARK INTER:                  -8.569
REMARK INTRA:                  -1.517
REMARK UNBOUND:                -1.912
REMARK SMILES OC[C@@H]1O[C@H](O[C@@]2(CO)O[C@@H](CO)[C@@H](O)[C@@H]2O)[C@@H](O)[C@H](O)[C@H]1O
REMARK SMILES IDX 6 1 5 2 3 3 22 4 4 5 20 6 18 7 2 8 1 9 23 11 21 13 19 15
REMARK SMILES IDX 7 17 16 18 10 19 14 20 11 21 8 22 9 23 17 25 15 27 12 29
REMARK SMILES IDX 13 30
REMARK H PARENT 1 10 23 12 21 14 19 16 9 24 17 26 15 28 13 31
REMARK Flexibility Score: inf
ROOT
ATOM      1  O   UNL     1      14.037   8.126  43.881  1.00  0.00    -0.313 OA
ENDROOT
BRANCH   1   2
ATOM      2  C   UNL     1      14.928   9.186  43.540  1.00  0.00     0.285 C 
ATOM      3  C   UNL     1      15.863   8.125  41.603  1.00  0.00     0.178 C 
ATOM      4  C   UNL     1      15.114   9.083  40.638  1.00  0.00     0.177 C 
ATOM      5  O   UNL     1      16.088   8.672  42.901  1.00  0.00    -0.341 OA
ATOM      6  C   UNL     1      13.868   9.697  41.290  1.00  0.00     0.179 C 
ATOM      7  C   UNL     1      14.215  10.253  42.683  1.00  0.00     0.202 C 
BRANCH   3   8
ATOM      8  C   UNL     1      15.280   6.698  41.655  1.00  0.00     0.191 C 
BRANCH   8   9
ATOM      9  O   UNL     1      16.006   5.918  42.569  1.00  0.00    -0.394 OA
ATOM     10  H   UNL     1      16.302   5.098  42.094  1.00  0.00     0.210 HD
ENDBRANCH   8   9
ENDBRANCH   3   8
BRANCH   4  11
ATOM     11  O   UNL     1      15.976  10.117  40.237  1.00  0.00    -0.387 OA
ATOM     12  H   UNL     1      15.406  10.887  39.977  1.00  0.00     0.211 HD
ENDBRANCH   4  11
BRANCH   6  13
ATOM     13  O   UNL     1      12.852   8.732  41.381  1.00  0.00    -0.387 OA
ATOM     14  H   UNL     1      13.291   7.862  41.564  1.00  0.00     0.211 HD
ENDBRANCH   6  13
BRANCH   7  15
ATOM     15  O   UNL     1      15.045  11.384  42.570  1.00  0.00    -0.385 OA
ATOM     16  H   UNL     1      14.471  12.128  42.250  1.00  0.00     0.211 HD
ENDBRANCH   7  15
ENDBRANCH   1   2
BRANCH   1  17
ATOM     17  C   UNL     1      13.899   7.859  45.278  1.00  0.00     0.224 C 
ATOM     18  C   UNL     1      12.405   7.791  45.705  1.00  0.00     0.208 C 
ATOM     19  O   UNL     1      14.480   8.962  45.950  1.00  0.00    -0.337 OA
ATOM     20  C   UNL     1      12.097   9.216  46.101  1.00  0.00     0.180 C 
ATOM     21  C   UNL     1      13.465   9.729  46.557  1.00  0.00     0.179 C 
BRANCH  17  22
ATOM     22  C   UNL     1      14.722   6.610  45.693  1.00  0.00     0.225 C 
BRANCH  22  23
ATOM     23  O   UNL     1      16.056   6.766  45.299  1.00  0.00    -0.391 OA
ATOM     24  H   UNL     1      16.551   7.056  46.107  1.00  0.00     0.210 HD
ENDBRANCH  22  23
ENDBRANCH  17  22
BRANCH  18  25
ATOM     25  O   UNL     1      12.183   6.906  46.781  1.00  0.00    -0.385 OA
ATOM     26  H   UNL     1      11.637   6.143  46.458  1.00  0.00     0.211 HD
ENDBRANCH  18  25
BRANCH  20  27
ATOM     27  O   UNL     1      11.630   9.932  44.986  1.00  0.00    -0.387 OA
ATOM     28  H   UNL     1      10.866   9.421  44.615  1.00  0.00     0.211 HD
ENDBRANCH  20  27
BRANCH  21  29
ATOM     29  C   UNL     1      13.705  11.218  46.278  1.00  0.00     0.191 C 
BRANCH  29  30
ATOM     30  O   UNL     1      12.756  11.993  46.956  1.00  0.00    -0.394 OA
ATOM     31  H   UNL     1      12.054  11.363  47.267  1.00  0.00     0.210 HD
ENDBRANCH  29  30
ENDBRANCH  21  29
ENDBRANCH   1  17
TORSDOF 13
ENDMDL
