MODEL 1
REMARK VINA RESULT:    -4.018      0.000      0.000
REMARK INTER + INTRA:         -13.293
REMARK INTER:                  -9.185
REMARK INTRA:                  -4.107
REMARK UNBOUND:                -4.107
REMARK SMILES CCCCCCCCCCCCCCCCCCCCCCCC(=O)[O-]
REMARK SMILES IDX 13 1 14 2 15 3 16 4 17 5 18 6 19 7 20 8 21 9 22 10 23 11
REMARK SMILES IDX 24 12 25 13 26 14 12 15 11 16 10 17 9 18 8 19 7 20 6 21 5 22
REMARK SMILES IDX 4 23 3 24 2 25 1 26
REMARK H PARENT
REMARK Flexibility Score: inf
ROOT
ATOM      1  C   UNL     1     -39.307 -48.680  35.589  1.00  0.00     0.000 C 
ENDROOT
BRANCH   1   2
ATOM      2  C   UNL     1     -40.103 -48.699  34.275  1.00  0.00     0.000 C 
BRANCH   2   3
ATOM      3  C   UNL     1     -41.170 -47.598  34.265  1.00  0.00     0.000 C 
BRANCH   3   4
ATOM      4  C   UNL     1     -42.553 -48.174  33.921  1.00  0.00     0.000 C 
BRANCH   4   5
ATOM      5  C   UNL     1     -42.760 -49.591  34.478  1.00  0.00     0.000 C 
BRANCH   5   6
ATOM      6  C   UNL     1     -43.933 -49.674  35.467  1.00  0.00     0.000 C 
BRANCH   6   7
ATOM      7  C   UNL     1     -43.903 -48.499  36.452  1.00  0.00     0.000 C 
BRANCH   7   8
ATOM      8  C   UNL     1     -45.205 -48.427  37.264  1.00  0.00     0.000 C 
BRANCH   8   9
ATOM      9  C   UNL     1     -46.269 -49.430  36.782  1.00  0.00     0.000 C 
BRANCH   9  10
ATOM     10  C   UNL     1     -46.678 -50.497  37.818  1.00  0.00     0.006 C 
BRANCH  10  11
ATOM     11  C   UNL     1     -46.962 -51.885  37.223  1.00  0.00     0.053 C 
BRANCH  11  12
ATOM     12  C   UNL     1     -47.139 -52.926  38.286  1.00  0.00     0.041 C 
ATOM     13  O   UNL     1     -48.144 -52.893  39.042  1.00  0.00    -0.550 OA
ATOM     14  O   UNL     1     -46.208 -53.949  38.421  1.00  0.00    -0.550 OA
ENDBRANCH  11  12
ENDBRANCH  10  11
ENDBRANCH   9  10
ENDBRANCH   8   9
ENDBRANCH   7   8
ENDBRANCH   6   7
ENDBRANCH   5   6
ENDBRANCH   4   5
ENDBRANCH   3   4
ENDBRANCH   2   3
ENDBRANCH   1   2
BRANCH   1  15
ATOM     15  C   UNL     1     -40.064 -47.984  36.730  1.00  0.00     0.000 C 
BRANCH  15  16
ATOM     16  C   UNL     1     -40.476 -48.956  37.847  1.00  0.00     0.000 C 
BRANCH  16  17
ATOM     17  C   UNL     1     -40.565 -50.395  37.316  1.00  0.00     0.000 C 
BRANCH  17  18
ATOM     18  C   UNL     1     -41.749 -51.177  37.910  1.00  0.00    -0.000 C 
BRANCH  18  19
ATOM     19  C   UNL     1     -42.129 -50.782  39.351  1.00  0.00    -0.000 C 
BRANCH  19  20
ATOM     20  C   UNL     1     -43.630 -50.952  39.668  1.00  0.00    -0.000 C 
BRANCH  20  21
ATOM     21  C   UNL     1     -44.200 -49.761  40.460  1.00  0.00    -0.000 C 
BRANCH  21  22
ATOM     22  C   UNL     1     -43.133 -48.682  40.750  1.00  0.00    -0.000 C 
BRANCH  22  23
ATOM     23  C   UNL     1     -43.464 -47.304  40.148  1.00  0.00    -0.000 C 
BRANCH  23  24
ATOM     24  C   UNL     1     -42.244 -46.407  39.866  1.00  0.00    -0.000 C 
BRANCH  24  25
ATOM     25  C   UNL     1     -42.410 -44.937  40.293  1.00  0.00    -0.003 C 
ATOM     26  C   UNL     1     -41.589 -44.579  41.531  1.00  0.00     0.004 C 
ENDBRANCH  24  25
ENDBRANCH  23  24
ENDBRANCH  22  23
ENDBRANCH  21  22
ENDBRANCH  20  21
ENDBRANCH  19  20
ENDBRANCH  18  19
ENDBRANCH  17  18
ENDBRANCH  16  17
ENDBRANCH  15  16
ENDBRANCH   1  15
TORSDOF 22
ENDMDL
MODEL 2
REMARK VINA RESULT:    -3.791      3.241      6.278
REMARK INTER + INTRA:         -12.775
REMARK INTER:                  -9.632
REMARK INTRA:                  -3.142
REMARK UNBOUND:                -4.107
REMARK SMILES CCCCCCCCCCCCCCCCCCCCCCCC(=O)[O-]
REMARK SMILES IDX 13 1 14 2 15 3 16 4 17 5 18 6 19 7 20 8 21 9 22 10 23 11
REMARK SMILES IDX 24 12 25 13 26 14 12 15 11 16 10 17 9 18 8 19 7 20 6 21 5 22
REMARK SMILES IDX 4 23 3 24 2 25 1 26
REMARK H PARENT
REMARK Flexibility Score: inf
ROOT
ATOM      1  C   UNL     1     -42.850 -48.992  33.938  1.00  0.00     0.000 C 
ENDROOT
BRANCH   1   2
ATOM      2  C   UNL     1     -41.834 -47.875  34.220  1.00  0.00     0.000 C 
BRANCH   2   3
ATOM      3  C   UNL     1     -40.481 -48.458  34.644  1.00  0.00     0.000 C 
BRANCH   3   4
ATOM      4  C   UNL     1     -39.857 -47.634  35.781  1.00  0.00     0.000 C 
BRANCH   4   5
ATOM      5  C   UNL     1     -40.221 -48.172  37.174  1.00  0.00     0.000 C 
BRANCH   5   6
ATOM      6  C   UNL     1     -40.364 -49.701  37.200  1.00  0.00     0.000 C 
BRANCH   6   7
ATOM      7  C   UNL     1     -41.436 -50.134  38.209  1.00  0.00     0.000 C 
BRANCH   7   8
ATOM      8  C   UNL     1     -41.505 -49.158  39.392  1.00  0.00     0.000 C 
BRANCH   8   9
ATOM      9  C   UNL     1     -42.930 -48.991  39.950  1.00  0.00     0.000 C 
BRANCH   9  10
ATOM     10  C   UNL     1     -43.435 -47.536  40.026  1.00  0.00     0.006 C 
BRANCH  10  11
ATOM     11  C   UNL     1     -42.426 -46.485  39.536  1.00  0.00     0.053 C 
BRANCH  11  12
ATOM     12  C   UNL     1     -41.927 -45.621  40.654  1.00  0.00     0.041 C 
ATOM     13  O   UNL     1     -42.668 -45.375  41.642  1.00  0.00    -0.550 OA
ATOM     14  O   UNL     1     -40.635 -45.111  40.616  1.00  0.00    -0.550 OA
ENDBRANCH  11  12
ENDBRANCH  10  11
ENDBRANCH   9  10
ENDBRANCH   8   9
ENDBRANCH   7   8
ENDBRANCH   6   7
ENDBRANCH   5   6
ENDBRANCH   4   5
ENDBRANCH   3   4
ENDBRANCH   2   3
ENDBRANCH   1   2
BRANCH   1  15
ATOM     15  C   UNL     1     -43.534 -49.507  35.213  1.00  0.00     0.000 C 
BRANCH  15  16
ATOM     16  C   UNL     1     -43.897 -48.376  36.188  1.00  0.00     0.000 C 
BRANCH  16  17
ATOM     17  C   UNL     1     -45.154 -48.732  36.997  1.00  0.00     0.000 C 
BRANCH  17  18
ATOM     18  C   UNL     1     -45.297 -50.245  37.240  1.00  0.00    -0.000 C 
BRANCH  18  19
ATOM     19  C   UNL     1     -46.749 -50.760  37.275  1.00  0.00    -0.000 C 
BRANCH  19  20
ATOM     20  C   UNL     1     -46.867 -52.297  37.183  1.00  0.00    -0.000 C 
BRANCH  20  21
ATOM     21  C   UNL     1     -47.818 -52.876  38.247  1.00  0.00    -0.000 C 
BRANCH  21  22
ATOM     22  C   UNL     1     -47.250 -54.148  38.914  1.00  0.00    -0.000 C 
BRANCH  22  23
ATOM     23  C   UNL     1     -47.662 -54.312  40.389  1.00  0.00    -0.000 C 
BRANCH  23  24
ATOM     24  C   UNL     1     -48.695 -53.287  40.893  1.00  0.00    -0.000 C 
BRANCH  24  25
ATOM     25  C   UNL     1     -48.150 -52.266  41.910  1.00  0.00    -0.003 C 
ATOM     26  C   UNL     1     -47.064 -52.848  42.814  1.00  0.00     0.004 C 
ENDBRANCH  24  25
ENDBRANCH  23  24
ENDBRANCH  22  23
ENDBRANCH  21  22
ENDBRANCH  20  21
ENDBRANCH  19  20
ENDBRANCH  18  19
ENDBRANCH  17  18
ENDBRANCH  16  17
ENDBRANCH  15  16
ENDBRANCH   1  15
TORSDOF 22
ENDMDL
MODEL 3
REMARK VINA RESULT:    -3.732      1.637      4.240
REMARK INTER + INTRA:         -12.639
REMARK INTER:                  -8.052
REMARK INTRA:                  -4.588
REMARK UNBOUND:                -4.107
REMARK SMILES CCCCCCCCCCCCCCCCCCCCCCCC(=O)[O-]
REMARK SMILES IDX 13 1 14 2 15 3 16 4 17 5 18 6 19 7 20 8 21 9 22 10 23 11
REMARK SMILES IDX 24 12 25 13 26 14 12 15 11 16 10 17 9 18 8 19 7 20 6 21 5 22
REMARK SMILES IDX 4 23 3 24 2 25 1 26
REMARK H PARENT
REMARK Flexibility Score: inf
ROOT
ATOM      1  C   UNL     1     -40.171 -47.642  37.969  1.00  0.00     0.000 C 
ENDROOT
BRANCH   1   2
ATOM      2  C   UNL     1     -41.439 -48.377  38.430  1.00  0.00     0.000 C 
BRANCH   2   3
ATOM      3  C   UNL     1     -42.299 -47.478  39.325  1.00  0.00     0.000 C 
BRANCH   3   4
ATOM      4  C   UNL     1     -43.795 -47.684  39.038  1.00  0.00     0.000 C 
BRANCH   4   5
ATOM      5  C   UNL     1     -44.085 -47.930  37.549  1.00  0.00     0.000 C 
BRANCH   5   6
ATOM      6  C   UNL     1     -45.551 -48.302  37.284  1.00  0.00     0.000 C 
BRANCH   6   7
ATOM      7  C   UNL     1     -45.919 -49.615  37.986  1.00  0.00     0.000 C 
BRANCH   7   8
ATOM      8  C   UNL     1     -46.812 -50.487  37.092  1.00  0.00     0.000 C 
BRANCH   8   9
ATOM      9  C   UNL     1     -46.509 -51.991  37.224  1.00  0.00     0.000 C 
BRANCH   9  10
ATOM     10  C   UNL     1     -47.619 -52.826  37.894  1.00  0.00     0.006 C 
BRANCH  10  11
ATOM     11  C   UNL     1     -47.290 -53.294  39.320  1.00  0.00     0.053 C 
BRANCH  11  12
ATOM     12  C   UNL     1     -47.980 -52.464  40.358  1.00  0.00     0.041 C 
ATOM     13  O   UNL     1     -47.479 -51.370  40.728  1.00  0.00    -0.550 OA
ATOM     14  O   UNL     1     -49.190 -52.884  40.895  1.00  0.00    -0.550 OA
ENDBRANCH  11  12
ENDBRANCH  10  11
ENDBRANCH   9  10
ENDBRANCH   8   9
ENDBRANCH   7   8
ENDBRANCH   6   7
ENDBRANCH   5   6
ENDBRANCH   4   5
ENDBRANCH   3   4
ENDBRANCH   2   3
ENDBRANCH   1   2
BRANCH   1  15
ATOM     15  C   UNL     1     -39.267 -48.516  37.086  1.00  0.00     0.000 C 
BRANCH  15  16
ATOM     16  C   UNL     1     -39.909 -48.853  35.731  1.00  0.00     0.000 C 
BRANCH  16  17
ATOM     17  C   UNL     1     -40.476 -47.590  35.065  1.00  0.00     0.000 C 
BRANCH  17  18
ATOM     18  C   UNL     1     -41.857 -47.822  34.426  1.00  0.00    -0.000 C 
BRANCH  18  19
ATOM     19  C   UNL     1     -42.178 -49.292  34.094  1.00  0.00    -0.000 C 
BRANCH  19  20
ATOM     20  C   UNL     1     -43.553 -49.763  34.615  1.00  0.00    -0.000 C 
BRANCH  20  21
ATOM     21  C   UNL     1     -43.471 -51.119  35.340  1.00  0.00    -0.000 C 
BRANCH  21  22
ATOM     22  C   UNL     1     -42.605 -51.052  36.617  1.00  0.00    -0.000 C 
BRANCH  22  23
ATOM     23  C   UNL     1     -42.939 -52.143  37.652  1.00  0.00    -0.000 C 
BRANCH  23  24
ATOM     24  C   UNL     1     -42.684 -51.747  39.118  1.00  0.00    -0.000 C 
BRANCH  24  25
ATOM     25  C   UNL     1     -43.918 -51.837  40.036  1.00  0.00    -0.003 C 
ATOM     26  C   UNL     1     -44.013 -50.673  41.022  1.00  0.00     0.004 C 
ENDBRANCH  24  25
ENDBRANCH  23  24
ENDBRANCH  22  23
ENDBRANCH  21  22
ENDBRANCH  20  21
ENDBRANCH  19  20
ENDBRANCH  18  19
ENDBRANCH  17  18
ENDBRANCH  16  17
ENDBRANCH  15  16
ENDBRANCH   1  15
TORSDOF 22
ENDMDL
MODEL 4
REMARK VINA RESULT:    -3.724      2.151      3.949
REMARK INTER + INTRA:         -12.621
REMARK INTER:                  -8.093
REMARK INTRA:                  -4.528
REMARK UNBOUND:                -4.107
REMARK SMILES CCCCCCCCCCCCCCCCCCCCCCCC(=O)[O-]
REMARK SMILES IDX 13 1 14 2 15 3 16 4 17 5 18 6 19 7 20 8 21 9 22 10 23 11
REMARK SMILES IDX 24 12 25 13 26 14 12 15 11 16 10 17 9 18 8 19 7 20 6 21 5 22
REMARK SMILES IDX 4 23 3 24 2 25 1 26
REMARK H PARENT
REMARK Flexibility Score: inf
ROOT
ATOM      1  C   UNL     1     -44.178 -49.052  36.034  1.00  0.00     0.000 C 
ENDROOT
BRANCH   1   2
ATOM      2  C   UNL     1     -42.727 -49.117  36.535  1.00  0.00     0.000 C 
BRANCH   2   3
ATOM      3  C   UNL     1     -42.244 -50.569  36.631  1.00  0.00     0.000 C 
BRANCH   3   4
ATOM      4  C   UNL     1     -43.423 -51.549  36.527  1.00  0.00     0.000 C 
BRANCH   4   5
ATOM      5  C   UNL     1     -43.540 -52.469  37.752  1.00  0.00     0.000 C 
BRANCH   5   6
ATOM      6  C   UNL     1     -44.811 -53.331  37.729  1.00  0.00     0.000 C 
BRANCH   6   7
ATOM      7  C   UNL     1     -45.777 -52.852  36.637  1.00  0.00     0.000 C 
BRANCH   7   8
ATOM      8  C   UNL     1     -47.232 -52.906  37.126  1.00  0.00     0.000 C 
BRANCH   8   9
ATOM      9  C   UNL     1     -47.393 -53.678  38.448  1.00  0.00     0.000 C 
BRANCH   9  10
ATOM     10  C   UNL     1     -48.021 -52.872  39.603  1.00  0.00     0.006 C 
BRANCH  10  11
ATOM     11  C   UNL     1     -47.684 -53.403  41.006  1.00  0.00     0.053 C 
BRANCH  11  12
ATOM     12  C   UNL     1     -48.056 -52.428  42.081  1.00  0.00     0.041 C 
ATOM     13  O   UNL     1     -48.665 -51.366  41.787  1.00  0.00    -0.550 OA
ATOM     14  O   UNL     1     -47.755 -52.707  43.408  1.00  0.00    -0.550 OA
ENDBRANCH  11  12
ENDBRANCH  10  11
ENDBRANCH   9  10
ENDBRANCH   8   9
ENDBRANCH   7   8
ENDBRANCH   6   7
ENDBRANCH   5   6
ENDBRANCH   4   5
ENDBRANCH   3   4
ENDBRANCH   2   3
ENDBRANCH   1   2
BRANCH   1  15
ATOM     15  C   UNL     1     -45.125 -48.389  37.047  1.00  0.00     0.000 C 
BRANCH  15  16
ATOM     16  C   UNL     1     -46.425 -49.183  37.251  1.00  0.00     0.000 C 
BRANCH  16  17
ATOM     17  C   UNL     1     -46.450 -49.847  38.636  1.00  0.00     0.000 C 
BRANCH  17  18
ATOM     18  C   UNL     1     -45.108 -49.725  39.379  1.00  0.00    -0.000 C 
BRANCH  18  19
ATOM     19  C   UNL     1     -44.977 -50.617  40.629  1.00  0.00    -0.000 C 
BRANCH  19  20
ATOM     20  C   UNL     1     -43.580 -50.570  41.284  1.00  0.00    -0.000 C 
BRANCH  20  21
ATOM     21  C   UNL     1     -42.525 -49.921  40.369  1.00  0.00    -0.000 C 
BRANCH  21  22
ATOM     22  C   UNL     1     -41.830 -48.713  41.035  1.00  0.00    -0.000 C 
BRANCH  22  23
ATOM     23  C   UNL     1     -41.113 -47.783  40.040  1.00  0.00    -0.000 C 
BRANCH  23  24
ATOM     24  C   UNL     1     -42.046 -46.941  39.150  1.00  0.00    -0.000 C 
BRANCH  24  25
ATOM     25  C   UNL     1     -43.331 -46.449  39.843  1.00  0.00    -0.003 C 
ATOM     26  C   UNL     1     -43.162 -45.086  40.513  1.00  0.00     0.004 C 
ENDBRANCH  24  25
ENDBRANCH  23  24
ENDBRANCH  22  23
ENDBRANCH  21  22
ENDBRANCH  20  21
ENDBRANCH  19  20
ENDBRANCH  18  19
ENDBRANCH  17  18
ENDBRANCH  16  17
ENDBRANCH  15  16
ENDBRANCH   1  15
TORSDOF 22
ENDMDL
MODEL 5
REMARK VINA RESULT:    -3.717      1.751      4.424
REMARK INTER + INTRA:         -12.605
REMARK INTER:                  -8.968
REMARK INTRA:                  -3.636
REMARK UNBOUND:                -4.107
REMARK SMILES CCCCCCCCCCCCCCCCCCCCCCCC(=O)[O-]
REMARK SMILES IDX 13 1 14 2 15 3 16 4 17 5 18 6 19 7 20 8 21 9 22 10 23 11
REMARK SMILES IDX 24 12 25 13 26 14 12 15 11 16 10 17 9 18 8 19 7 20 6 21 5 22
REMARK SMILES IDX 4 23 3 24 2 25 1 26
REMARK H PARENT
REMARK Flexibility Score: inf
ROOT
ATOM      1  C   UNL     1     -43.246 -49.121  34.680  1.00  0.00     0.000 C 
ENDROOT
BRANCH   1   2
ATOM      2  C   UNL     1     -43.865 -48.650  36.005  1.00  0.00     0.000 C 
BRANCH   2   3
ATOM      3  C   UNL     1     -44.579 -49.806  36.717  1.00  0.00     0.000 C 
BRANCH   3   4
ATOM      4  C   UNL     1     -46.072 -49.496  36.908  1.00  0.00     0.000 C 
BRANCH   4   5
ATOM      5  C   UNL     1     -46.804 -50.580  37.715  1.00  0.00     0.000 C 
BRANCH   5   6
ATOM      6  C   UNL     1     -46.388 -52.003  37.312  1.00  0.00     0.000 C 
BRANCH   6   7
ATOM      7  C   UNL     1     -47.614 -52.918  37.191  1.00  0.00     0.000 C 
BRANCH   7   8
ATOM      8  C   UNL     1     -47.479 -54.143  38.107  1.00  0.00     0.000 C 
BRANCH   8   9
ATOM      9  C   UNL     1     -46.338 -54.005  39.130  1.00  0.00     0.000 C 
BRANCH   9  10
ATOM     10  C   UNL     1     -46.790 -53.833  40.595  1.00  0.00     0.006 C 
BRANCH  10  11
ATOM     11  C   UNL     1     -48.217 -53.288  40.760  1.00  0.00     0.053 C 
BRANCH  11  12
ATOM     12  C   UNL     1     -48.307 -52.269  41.854  1.00  0.00     0.041 C 
ATOM     13  O   UNL     1     -47.832 -52.520  42.992  1.00  0.00    -0.550 OA
ATOM     14  O   UNL     1     -48.889 -51.032  41.608  1.00  0.00    -0.550 OA
ENDBRANCH  11  12
ENDBRANCH  10  11
ENDBRANCH   9  10
ENDBRANCH   8   9
ENDBRANCH   7   8
ENDBRANCH   6   7
ENDBRANCH   5   6
ENDBRANCH   4   5
ENDBRANCH   3   4
ENDBRANCH   2   3
ENDBRANCH   1   2
BRANCH   1  15
ATOM     15  C   UNL     1     -42.386 -48.038  34.010  1.00  0.00     0.000 C 
BRANCH  15  16
ATOM     16  C   UNL     1     -41.169 -47.638  34.858  1.00  0.00     0.000 C 
BRANCH  16  17
ATOM     17  C   UNL     1     -40.241 -48.841  35.085  1.00  0.00     0.000 C 
BRANCH  17  18
ATOM     18  C   UNL     1     -40.111 -49.221  36.571  1.00  0.00    -0.000 C 
BRANCH  18  19
ATOM     19  C   UNL     1     -40.310 -48.054  37.558  1.00  0.00    -0.000 C 
BRANCH  19  20
ATOM     20  C   UNL     1     -41.293 -48.369  38.706  1.00  0.00    -0.000 C 
BRANCH  20  21
ATOM     21  C   UNL     1     -42.288 -47.221  38.956  1.00  0.00    -0.000 C 
BRANCH  21  22
ATOM     22  C   UNL     1     -43.585 -47.705  39.640  1.00  0.00    -0.000 C 
BRANCH  22  23
ATOM     23  C   UNL     1     -43.376 -48.888  40.602  1.00  0.00    -0.000 C 
BRANCH  23  24
ATOM     24  C   UNL     1     -44.422 -50.012  40.488  1.00  0.00    -0.000 C 
BRANCH  24  25
ATOM     25  C   UNL     1     -43.874 -51.354  39.965  1.00  0.00    -0.003 C 
ATOM     26  C   UNL     1     -42.402 -51.572  40.311  1.00  0.00     0.004 C 
ENDBRANCH  24  25
ENDBRANCH  23  24
ENDBRANCH  22  23
ENDBRANCH  21  22
ENDBRANCH  20  21
ENDBRANCH  19  20
ENDBRANCH  18  19
ENDBRANCH  17  18
ENDBRANCH  16  17
ENDBRANCH  15  16
ENDBRANCH   1  15
TORSDOF 22
ENDMDL
MODEL 6
REMARK VINA RESULT:    -3.708      2.937      6.259
REMARK INTER + INTRA:         -12.585
REMARK INTER:                  -8.000
REMARK INTRA:                  -4.586
REMARK UNBOUND:                -4.107
REMARK SMILES CCCCCCCCCCCCCCCCCCCCCCCC(=O)[O-]
REMARK SMILES IDX 13 1 14 2 15 3 16 4 17 5 18 6 19 7 20 8 21 9 22 10 23 11
REMARK SMILES IDX 24 12 25 13 26 14 12 15 11 16 10 17 9 18 8 19 7 20 6 21 5 22
REMARK SMILES IDX 4 23 3 24 2 25 1 26
REMARK H PARENT
REMARK Flexibility Score: inf
ROOT
ATOM      1  C   UNL     1     -44.593 -49.301  36.521  1.00  0.00     0.000 C 
ENDROOT
BRANCH   1   2
ATOM      2  C   UNL     1     -45.752 -48.440  37.047  1.00  0.00     0.000 C 
BRANCH   2   3
ATOM      3  C   UNL     1     -46.850 -49.317  37.661  1.00  0.00     0.000 C 
BRANCH   3   4
ATOM      4  C   UNL     1     -46.750 -50.763  37.151  1.00  0.00     0.000 C 
BRANCH   4   5
ATOM      5  C   UNL     1     -46.612 -51.786  38.289  1.00  0.00     0.000 C 
BRANCH   5   6
ATOM      6  C   UNL     1     -46.744 -51.148  39.680  1.00  0.00     0.000 C 
BRANCH   6   7
ATOM      7  C   UNL     1     -45.505 -51.439  40.537  1.00  0.00     0.000 C 
BRANCH   7   8
ATOM      8  C   UNL     1     -44.273 -50.704  39.990  1.00  0.00     0.000 C 
BRANCH   8   9
ATOM      9  C   UNL     1     -44.223 -49.223  40.407  1.00  0.00     0.000 C 
BRANCH   9  10
ATOM     10  C   UNL     1     -43.091 -48.399  39.759  1.00  0.00     0.006 C 
BRANCH  10  11
ATOM     11  C   UNL     1     -43.452 -46.931  39.481  1.00  0.00     0.053 C 
BRANCH  11  12
ATOM     12  C   UNL     1     -42.405 -45.989  39.990  1.00  0.00     0.041 C 
ATOM     13  O   UNL     1     -42.703 -44.793  40.249  1.00  0.00    -0.550 OA
ATOM     14  O   UNL     1     -41.109 -46.439  40.206  1.00  0.00    -0.550 OA
ENDBRANCH  11  12
ENDBRANCH  10  11
ENDBRANCH   9  10
ENDBRANCH   8   9
ENDBRANCH   7   8
ENDBRANCH   6   7
ENDBRANCH   5   6
ENDBRANCH   4   5
ENDBRANCH   3   4
ENDBRANCH   2   3
ENDBRANCH   1   2
BRANCH   1  15
ATOM     15  C   UNL     1     -43.464 -48.460  35.904  1.00  0.00     0.000 C 
BRANCH  15  16
ATOM     16  C   UNL     1     -43.140 -48.871  34.459  1.00  0.00     0.000 C 
BRANCH  16  17
ATOM     17  C   UNL     1     -41.642 -48.699  34.164  1.00  0.00     0.000 C 
BRANCH  17  18
ATOM     18  C   UNL     1     -40.937 -47.779  35.175  1.00  0.00    -0.000 C 
BRANCH  18  19
ATOM     19  C   UNL     1     -39.635 -48.349  35.772  1.00  0.00    -0.000 C 
BRANCH  19  20
ATOM     20  C   UNL     1     -39.424 -47.996  37.260  1.00  0.00    -0.000 C 
BRANCH  20  21
ATOM     21  C   UNL     1     -39.949 -49.094  38.203  1.00  0.00    -0.000 C 
BRANCH  21  22
ATOM     22  C   UNL     1     -40.059 -50.467  37.504  1.00  0.00    -0.000 C 
BRANCH  22  23
ATOM     23  C   UNL     1     -41.476 -51.069  37.538  1.00  0.00    -0.000 C 
BRANCH  23  24
ATOM     24  C   UNL     1     -41.879 -51.855  36.276  1.00  0.00    -0.000 C 
BRANCH  24  25
ATOM     25  C   UNL     1     -42.602 -53.188  36.549  1.00  0.00    -0.003 C 
ATOM     26  C   UNL     1     -44.046 -53.196  36.049  1.00  0.00     0.004 C 
ENDBRANCH  24  25
ENDBRANCH  23  24
ENDBRANCH  22  23
ENDBRANCH  21  22
ENDBRANCH  20  21
ENDBRANCH  19  20
ENDBRANCH  18  19
ENDBRANCH  17  18
ENDBRANCH  16  17
ENDBRANCH  15  16
ENDBRANCH   1  15
TORSDOF 22
ENDMDL
MODEL 7
REMARK VINA RESULT:    -3.682      1.535      2.842
REMARK INTER + INTRA:         -12.526
REMARK INTER:                  -9.595
REMARK INTRA:                  -2.931
REMARK UNBOUND:                -4.107
REMARK SMILES CCCCCCCCCCCCCCCCCCCCCCCC(=O)[O-]
REMARK SMILES IDX 13 1 14 2 15 3 16 4 17 5 18 6 19 7 20 8 21 9 22 10 23 11
REMARK SMILES IDX 24 12 25 13 26 14 12 15 11 16 10 17 9 18 8 19 7 20 6 21 5 22
REMARK SMILES IDX 4 23 3 24 2 25 1 26
REMARK H PARENT
REMARK Flexibility Score: inf
ROOT
ATOM      1  C   UNL     1     -40.292 -48.528  35.122  1.00  0.00     0.000 C 
ENDROOT
BRANCH   1   2
ATOM      2  C   UNL     1     -41.276 -47.756  34.228  1.00  0.00     0.000 C 
BRANCH   2   3
ATOM      3  C   UNL     1     -42.722 -47.980  34.684  1.00  0.00     0.000 C 
BRANCH   3   4
ATOM      4  C   UNL     1     -43.089 -49.472  34.639  1.00  0.00     0.000 C 
BRANCH   4   5
ATOM      5  C   UNL     1     -44.134 -49.858  35.698  1.00  0.00     0.000 C 
BRANCH   5   6
ATOM      6  C   UNL     1     -44.619 -48.655  36.520  1.00  0.00     0.000 C 
BRANCH   6   7
ATOM      7  C   UNL     1     -45.897 -49.001  37.295  1.00  0.00     0.000 C 
BRANCH   7   8
ATOM      8  C   UNL     1     -46.053 -50.520  37.449  1.00  0.00     0.000 C 
BRANCH   8   9
ATOM      9  C   UNL     1     -45.427 -51.060  38.748  1.00  0.00     0.000 C 
BRANCH   9  10
ATOM     10  C   UNL     1     -45.946 -52.440  39.200  1.00  0.00     0.006 C 
BRANCH  10  11
ATOM     11  C   UNL     1     -47.473 -52.602  39.125  1.00  0.00     0.053 C 
BRANCH  11  12
ATOM     12  C   UNL     1     -48.128 -52.374  40.453  1.00  0.00     0.041 C 
ATOM     13  O   UNL     1     -49.098 -53.093  40.810  1.00  0.00    -0.550 OA
ATOM     14  O   UNL     1     -47.648 -51.389  41.307  1.00  0.00    -0.550 OA
ENDBRANCH  11  12
ENDBRANCH  10  11
ENDBRANCH   9  10
ENDBRANCH   8   9
ENDBRANCH   7   8
ENDBRANCH   6   7
ENDBRANCH   5   6
ENDBRANCH   4   5
ENDBRANCH   3   4
ENDBRANCH   2   3
ENDBRANCH   1   2
BRANCH   1  15
ATOM     15  C   UNL     1     -39.980 -47.790  36.433  1.00  0.00     0.000 C 
BRANCH  15  16
ATOM     16  C   UNL     1     -40.480 -48.548  37.673  1.00  0.00     0.000 C 
BRANCH  16  17
ATOM     17  C   UNL     1     -41.745 -47.888  38.244  1.00  0.00     0.000 C 
BRANCH  17  18
ATOM     18  C   UNL     1     -42.219 -48.544  39.553  1.00  0.00    -0.000 C 
BRANCH  18  19
ATOM     19  C   UNL     1     -42.930 -47.591  40.534  1.00  0.00    -0.000 C 
BRANCH  19  20
ATOM     20  C   UNL     1     -43.791 -46.513  39.841  1.00  0.00    -0.000 C 
BRANCH  20  21
ATOM     21  C   UNL     1     -43.377 -45.085  40.244  1.00  0.00    -0.000 C 
BRANCH  21  22
ATOM     22  C   UNL     1     -42.361 -45.073  41.407  1.00  0.00    -0.000 C 
BRANCH  22  23
ATOM     23  C   UNL     1     -41.198 -44.084  41.205  1.00  0.00    -0.000 C 
BRANCH  23  24
ATOM     24  C   UNL     1     -39.928 -44.398  42.017  1.00  0.00    -0.000 C 
BRANCH  24  25
ATOM     25  C   UNL     1     -39.319 -45.788  41.752  1.00  0.00    -0.003 C 
ATOM     26  C   UNL     1     -39.141 -46.087  40.264  1.00  0.00     0.004 C 
ENDBRANCH  24  25
ENDBRANCH  23  24
ENDBRANCH  22  23
ENDBRANCH  21  22
ENDBRANCH  20  21
ENDBRANCH  19  20
ENDBRANCH  18  19
ENDBRANCH  17  18
ENDBRANCH  16  17
ENDBRANCH  15  16
ENDBRANCH   1  15
TORSDOF 22
ENDMDL
MODEL 8
REMARK VINA RESULT:    -3.679      3.014      5.952
REMARK INTER + INTRA:         -12.518
REMARK INTER:                  -8.435
REMARK INTRA:                  -4.083
REMARK UNBOUND:                -4.107
REMARK SMILES CCCCCCCCCCCCCCCCCCCCCCCC(=O)[O-]
REMARK SMILES IDX 13 1 14 2 15 3 16 4 17 5 18 6 19 7 20 8 21 9 22 10 23 11
REMARK SMILES IDX 24 12 25 13 26 14 12 15 11 16 10 17 9 18 8 19 7 20 6 21 5 22
REMARK SMILES IDX 4 23 3 24 2 25 1 26
REMARK H PARENT
REMARK Flexibility Score: inf
ROOT
ATOM      1  C   UNL     1     -40.577 -50.105  37.085  1.00  0.00     0.000 C 
ENDROOT
BRANCH   1   2
ATOM      2  C   UNL     1     -39.642 -49.084  36.416  1.00  0.00     0.000 C 
BRANCH   2   3
ATOM      3  C   UNL     1     -40.429 -47.869  35.912  1.00  0.00     0.000 C 
BRANCH   3   4
ATOM      4  C   UNL     1     -40.822 -48.040  34.436  1.00  0.00     0.000 C 
BRANCH   4   5
ATOM      5  C   UNL     1     -42.343 -48.004  34.219  1.00  0.00     0.000 C 
BRANCH   5   6
ATOM      6  C   UNL     1     -42.973 -49.405  34.193  1.00  0.00     0.000 C 
BRANCH   6   7
ATOM      7  C   UNL     1     -43.925 -49.599  35.380  1.00  0.00     0.000 C 
BRANCH   7   8
ATOM      8  C   UNL     1     -44.035 -48.314  36.214  1.00  0.00     0.000 C 
BRANCH   8   9
ATOM      9  C   UNL     1     -44.194 -48.587  37.721  1.00  0.00     0.000 C 
BRANCH   9  10
ATOM     10  C   UNL     1     -43.096 -47.978  38.615  1.00  0.00     0.006 C 
BRANCH  10  11
ATOM     11  C   UNL     1     -43.625 -47.123  39.779  1.00  0.00     0.053 C 
BRANCH  11  12
ATOM     12  C   UNL     1     -42.681 -46.016  40.137  1.00  0.00     0.041 C 
ATOM     13  O   UNL     1     -43.105 -44.993  40.735  1.00  0.00    -0.550 OA
ATOM     14  O   UNL     1     -41.329 -46.129  39.837  1.00  0.00    -0.550 OA
ENDBRANCH  11  12
ENDBRANCH  10  11
ENDBRANCH   9  10
ENDBRANCH   8   9
ENDBRANCH   7   8
ENDBRANCH   6   7
ENDBRANCH   5   6
ENDBRANCH   4   5
ENDBRANCH   3   4
ENDBRANCH   2   3
ENDBRANCH   1   2
BRANCH   1  15
ATOM     15  C   UNL     1     -40.666 -51.426  36.305  1.00  0.00     0.000 C 
BRANCH  15  16
ATOM     16  C   UNL     1     -41.841 -52.305  36.762  1.00  0.00     0.000 C 
BRANCH  16  17
ATOM     17  C   UNL     1     -42.522 -51.707  38.003  1.00  0.00     0.000 C 
BRANCH  17  18
ATOM     18  C   UNL     1     -43.775 -52.491  38.430  1.00  0.00    -0.000 C 
BRANCH  18  19
ATOM     19  C   UNL     1     -44.742 -52.842  37.282  1.00  0.00    -0.000 C 
BRANCH  19  20
ATOM     20  C   UNL     1     -45.953 -51.891  37.174  1.00  0.00    -0.000 C 
BRANCH  20  21
ATOM     21  C   UNL     1     -46.570 -51.569  38.547  1.00  0.00    -0.000 C 
BRANCH  21  22
ATOM     22  C   UNL     1     -47.641 -52.599  38.968  1.00  0.00    -0.000 C 
BRANCH  22  23
ATOM     23  C   UNL     1     -47.275 -53.392  40.236  1.00  0.00    -0.000 C 
BRANCH  23  24
ATOM     24  C   UNL     1     -46.756 -54.820  39.982  1.00  0.00    -0.000 C 
BRANCH  24  25
ATOM     25  C   UNL     1     -47.216 -55.449  38.654  1.00  0.00    -0.003 C 
ATOM     26  C   UNL     1     -46.461 -56.732  38.309  1.00  0.00     0.004 C 
ENDBRANCH  24  25
ENDBRANCH  23  24
ENDBRANCH  22  23
ENDBRANCH  21  22
ENDBRANCH  20  21
ENDBRANCH  19  20
ENDBRANCH  18  19
ENDBRANCH  17  18
ENDBRANCH  16  17
ENDBRANCH  15  16
ENDBRANCH   1  15
TORSDOF 22
ENDMDL
MODEL 9
REMARK VINA RESULT:    -3.649      2.152      5.378
REMARK INTER + INTRA:         -12.450
REMARK INTER:                  -7.889
REMARK INTRA:                  -4.561
REMARK UNBOUND:                -4.107
REMARK SMILES CCCCCCCCCCCCCCCCCCCCCCCC(=O)[O-]
REMARK SMILES IDX 13 1 14 2 15 3 16 4 17 5 18 6 19 7 20 8 21 9 22 10 23 11
REMARK SMILES IDX 24 12 25 13 26 14 12 15 11 16 10 17 9 18 8 19 7 20 6 21 5 22
REMARK SMILES IDX 4 23 3 24 2 25 1 26
REMARK H PARENT
REMARK Flexibility Score: inf
ROOT
ATOM      1  C   UNL     1     -42.742 -53.494  38.801  1.00  0.00     0.000 C 
ENDROOT
BRANCH   1   2
ATOM      2  C   UNL     1     -43.923 -53.725  39.757  1.00  0.00     0.000 C 
BRANCH   2   3
ATOM      3  C   UNL     1     -44.729 -54.961  39.342  1.00  0.00     0.000 C 
BRANCH   3   4
ATOM      4  C   UNL     1     -45.560 -54.679  38.080  1.00  0.00     0.000 C 
BRANCH   4   5
ATOM      5  C   UNL     1     -47.055 -54.492  38.383  1.00  0.00     0.000 C 
BRANCH   5   6
ATOM      6  C   UNL     1     -47.638 -53.226  37.738  1.00  0.00     0.000 C 
BRANCH   6   7
ATOM      7  C   UNL     1     -46.520 -52.299  37.243  1.00  0.00     0.000 C 
BRANCH   7   8
ATOM      8  C   UNL     1     -46.686 -50.882  37.810  1.00  0.00     0.000 C 
BRANCH   8   9
ATOM      9  C   UNL     1     -46.056 -50.715  39.204  1.00  0.00     0.000 C 
BRANCH   9  10
ATOM     10  C   UNL     1     -47.030 -50.888  40.387  1.00  0.00     0.006 C 
BRANCH  10  11
ATOM     11  C   UNL     1     -46.654 -52.017  41.360  1.00  0.00     0.053 C 
BRANCH  11  12
ATOM     12  C   UNL     1     -47.805 -52.939  41.623  1.00  0.00     0.041 C 
ATOM     13  O   UNL     1     -48.908 -52.755  41.044  1.00  0.00    -0.550 OA
ATOM     14  O   UNL     1     -47.651 -54.017  42.486  1.00  0.00    -0.550 OA
ENDBRANCH  11  12
ENDBRANCH  10  11
ENDBRANCH   9  10
ENDBRANCH   8   9
ENDBRANCH   7   8
ENDBRANCH   6   7
ENDBRANCH   5   6
ENDBRANCH   4   5
ENDBRANCH   3   4
ENDBRANCH   2   3
ENDBRANCH   1   2
BRANCH   1  15
ATOM     15  C   UNL     1     -42.823 -52.141  38.076  1.00  0.00     0.000 C 
BRANCH  15  16
ATOM     16  C   UNL     1     -41.621 -51.891  37.153  1.00  0.00     0.000 C 
BRANCH  16  17
ATOM     17  C   UNL     1     -40.785 -50.702  37.651  1.00  0.00     0.000 C 
BRANCH  17  18
ATOM     18  C   UNL     1     -41.577 -49.765  38.580  1.00  0.00    -0.000 C 
BRANCH  18  19
ATOM     19  C   UNL     1     -42.124 -48.493  37.904  1.00  0.00    -0.000 C 
BRANCH  19  20
ATOM     20  C   UNL     1     -43.666 -48.419  37.869  1.00  0.00    -0.000 C 
BRANCH  20  21
ATOM     21  C   UNL     1     -44.218 -48.351  36.434  1.00  0.00    -0.000 C 
BRANCH  21  22
ATOM     22  C   UNL     1     -43.895 -49.622  35.617  1.00  0.00    -0.000 C 
BRANCH  22  23
ATOM     23  C   UNL     1     -43.268 -49.333  34.241  1.00  0.00    -0.000 C 
BRANCH  23  24
ATOM     24  C   UNL     1     -41.731 -49.419  34.196  1.00  0.00    -0.000 C 
BRANCH  24  25
ATOM     25  C   UNL     1     -41.001 -48.093  34.483  1.00  0.00    -0.003 C 
ATOM     26  C   UNL     1     -39.584 -48.296  35.018  1.00  0.00     0.004 C 
ENDBRANCH  24  25
ENDBRANCH  23  24
ENDBRANCH  22  23
ENDBRANCH  21  22
ENDBRANCH  20  21
ENDBRANCH  19  20
ENDBRANCH  18  19
ENDBRANCH  17  18
ENDBRANCH  16  17
ENDBRANCH  15  16
ENDBRANCH   1  15
TORSDOF 22
ENDMDL
