MODEL 1
REMARK VINA RESULT:    83.933      0.000      0.000
REMARK INTER + INTRA:         124.596
REMARK INTER:                 123.187
REMARK INTRA:                   1.409
REMARK UNBOUND:                 1.409
REMARK SMILES Cc1cc2c(C(C)C)c(O)c(O)c(C=O)c2c(O)c1-c1c(C)cc2c(C(C)C)c(O)c(O)c(C=O)c2c1O
REMARK SMILES IDX 1 1 2 2 3 3 4 4 16 5 13 6 11 7 9 8 5 9 17 10 19 11 20 12
REMARK SMILES IDX 37 13 21 14 36 15 23 16 22 17 24 18 33 19 25 20 31 21 29 22
REMARK SMILES IDX 38 23 34 25 35 26 26 27 27 28 28 29 32 30 30 32 18 34 6 36
REMARK SMILES IDX 7 37 8 38 14 39 15 40 10 41 12 43
REMARK H PARENT 38 24 32 31 30 33 18 35 10 42 12 44
REMARK Flexibility Score: inf
ROOT
ATOM      1  C   UNL     1       9.437  69.511   2.050  1.00  0.00     0.045 C 
ATOM      2  C   UNL     1       9.405  70.893   2.658  1.00  0.00    -0.039 A 
ATOM      3  C   UNL     1       9.384  72.010   1.822  1.00  0.00     0.013 A 
ATOM      4  C   UNL     1       9.307  73.325   2.333  1.00  0.00    -0.006 A 
ATOM      5  C   UNL     1       9.299  73.509   3.749  1.00  0.00     0.039 A 
ATOM      6  C   UNL     1       9.215  74.832   4.268  1.00  0.00     0.072 A 
ATOM      7  C   UNL     1       9.379  75.932   3.413  1.00  0.00     0.169 A 
ATOM      8  C   UNL     1       9.491  75.741   2.025  1.00  0.00     0.162 A 
ATOM      9  C   UNL     1       9.283  74.461   1.465  1.00  0.00     0.008 A 
ATOM     10  C   UNL     1       9.433  72.371   4.598  1.00  0.00     0.132 A 
ATOM     11  C   UNL     1       9.448  71.071   4.051  1.00  0.00     0.031 A 
ENDROOT
BRANCH  11  12
ATOM     12  C   UNL     1       9.550  69.887   4.945  1.00  0.00     0.031 A 
ATOM     13  C   UNL     1       8.529  68.915   4.952  1.00  0.00     0.132 A 
ATOM     14  C   UNL     1      10.657  69.748   5.795  1.00  0.00    -0.039 A 
ATOM     15  C   UNL     1       8.597  67.804   5.846  1.00  0.00     0.039 A 
ATOM     16  C   UNL     1      10.773  68.606   6.590  1.00  0.00     0.013 A 
ATOM     17  C   UNL     1      11.728  70.810   5.862  1.00  0.00     0.045 C 
ATOM     18  C   UNL     1       9.794  67.591   6.593  1.00  0.00    -0.006 A 
ATOM     19  C   UNL     1       7.518  66.885   5.994  1.00  0.00     0.072 A 
ATOM     20  C   UNL     1       9.973  66.383   7.338  1.00  0.00     0.008 A 
ATOM     21  C   UNL     1       7.665  65.745   6.804  1.00  0.00     0.169 A 
ATOM     22  C   UNL     1       8.875  65.501   7.481  1.00  0.00     0.162 A 
BRANCH  13  23
ATOM     23  O   UNL     1       7.469  69.029   4.044  1.00  0.00    -0.507 OA
ATOM     24  H   UNL     1       7.526  68.754   3.072  1.00  0.00     0.293 HD
ENDBRANCH  13  23
BRANCH  19  25
ATOM     25  C   UNL     1       6.178  67.144   5.414  1.00  0.00     0.264 C 
ATOM     26  O   UNL     1       5.909  66.811   4.229  1.00  0.00    -0.298 OA
ENDBRANCH  19  25
BRANCH  20  27
ATOM     27  C   UNL     1      11.306  65.970   7.996  1.00  0.00     0.017 C 
ATOM     28  C   UNL     1      11.978  64.800   7.263  1.00  0.00     0.012 C 
ATOM     29  C   UNL     1      11.226  65.763   9.524  1.00  0.00     0.012 C 
ENDBRANCH  20  27
BRANCH  21  30
ATOM     30  O   UNL     1       6.573  64.876   6.921  1.00  0.00    -0.504 OA
ATOM     31  H   UNL     1       6.289  64.201   6.226  1.00  0.00     0.293 HD
ENDBRANCH  21  30
BRANCH  22  32
ATOM     32  O   UNL     1       9.013  64.396   8.333  1.00  0.00    -0.504 OA
ATOM     33  H   UNL     1       9.446  64.414   9.244  1.00  0.00     0.293 HD
ENDBRANCH  22  32
ENDBRANCH  11  12
BRANCH  10  34
ATOM     34  O   UNL     1       9.608  72.540   5.976  1.00  0.00    -0.507 OA
ATOM     35  H   UNL     1      10.459  72.304   6.470  1.00  0.00     0.293 HD
ENDBRANCH  10  34
BRANCH   9  36
ATOM     36  C   UNL     1       9.102  74.315  -0.057  1.00  0.00     0.017 C 
ATOM     37  C   UNL     1      10.456  74.334  -0.774  1.00  0.00     0.012 C 
ATOM     38  C   UNL     1       8.130  75.341  -0.671  1.00  0.00     0.012 C 
ENDBRANCH   9  36
BRANCH   6  39
ATOM     39  C   UNL     1       8.886  75.127   5.681  1.00  0.00     0.264 C 
ATOM     40  O   UNL     1       9.685  75.781   6.404  1.00  0.00    -0.298 OA
ENDBRANCH   6  39
BRANCH   8  41
ATOM     41  O   UNL     1       9.818  76.808   1.183  1.00  0.00    -0.504 OA
ATOM     42  H   UNL     1      10.744  77.204   1.104  1.00  0.00     0.293 HD
ENDBRANCH   8  41
BRANCH   7  43
ATOM     43  O   UNL     1       9.375  77.217   3.971  1.00  0.00    -0.504 OA
ATOM     44  H   UNL     1       8.551  77.794   4.065  1.00  0.00     0.293 HD
ENDBRANCH   7  43
TORSDOF 11
ENDMDL
MODEL 2
REMARK VINA RESULT:    84.688      0.385      9.346
REMARK INTER + INTRA:         125.705
REMARK INTER:                 124.802
REMARK INTRA:                   0.902
REMARK UNBOUND:                 1.409
REMARK SMILES Cc1cc2c(C(C)C)c(O)c(O)c(C=O)c2c(O)c1-c1c(C)cc2c(C(C)C)c(O)c(O)c(C=O)c2c1O
REMARK SMILES IDX 1 1 2 2 3 3 4 4 16 5 13 6 11 7 9 8 5 9 17 10 19 11 20 12
REMARK SMILES IDX 37 13 21 14 36 15 23 16 22 17 24 18 33 19 25 20 31 21 29 22
REMARK SMILES IDX 38 23 34 25 35 26 26 27 27 28 28 29 32 30 30 32 18 34 6 36
REMARK SMILES IDX 7 37 8 38 14 39 15 40 10 41 12 43
REMARK H PARENT 38 24 32 31 30 33 18 35 10 42 12 44
REMARK Flexibility Score: inf
ROOT
ATOM      1  C   UNL     1      11.924  70.338   5.557  1.00  0.00     0.045 C 
ATOM      2  C   UNL     1      10.737  69.412   5.683  1.00  0.00    -0.039 A 
ATOM      3  C   UNL     1      10.845  68.262   6.466  1.00  0.00     0.013 A 
ATOM      4  C   UNL     1       9.754  67.384   6.659  1.00  0.00    -0.006 A 
ATOM      5  C   UNL     1       8.525  67.665   5.989  1.00  0.00     0.039 A 
ATOM      6  C   UNL     1       7.422  66.787   6.185  1.00  0.00     0.072 A 
ATOM      7  C   UNL     1       7.613  65.553   6.825  1.00  0.00     0.169 A 
ATOM      8  C   UNL     1       8.858  65.234   7.393  1.00  0.00     0.162 A 
ATOM      9  C   UNL     1       9.877  66.211   7.466  1.00  0.00     0.008 A 
ATOM     10  C   UNL     1       8.455  68.779   5.103  1.00  0.00     0.132 A 
ATOM     11  C   UNL     1       9.546  69.665   4.984  1.00  0.00     0.031 A 
ENDROOT
BRANCH  11  12
ATOM     12  C   UNL     1       9.453  70.847   4.086  1.00  0.00     0.031 A 
ATOM     13  C   UNL     1       9.499  72.150   4.622  1.00  0.00     0.132 A 
ATOM     14  C   UNL     1       9.301  70.663   2.703  1.00  0.00    -0.039 A 
ATOM     15  C   UNL     1       9.358  73.287   3.771  1.00  0.00     0.039 A 
ATOM     16  C   UNL     1       9.270  71.777   1.862  1.00  0.00     0.013 A 
ATOM     17  C   UNL     1       9.174  69.281   2.110  1.00  0.00     0.045 C 
ATOM     18  C   UNL     1       9.357  73.094   2.356  1.00  0.00    -0.006 A 
ATOM     19  C   UNL     1       9.245  74.610   4.287  1.00  0.00     0.072 A 
ATOM     20  C   UNL     1       9.423  74.220   1.477  1.00  0.00     0.008 A 
ATOM     21  C   UNL     1       9.214  75.711   3.413  1.00  0.00     0.169 A 
ATOM     22  C   UNL     1       9.289  75.520   2.020  1.00  0.00     0.162 A 
BRANCH  13  23
ATOM     23  O   UNL     1       9.727  72.317   5.994  1.00  0.00    -0.507 OA
ATOM     24  H   UNL     1      10.539  72.784   6.379  1.00  0.00     0.293 HD
ENDBRANCH  13  23
BRANCH  19  25
ATOM     25  C   UNL     1       9.034  74.876   5.731  1.00  0.00     0.264 C 
ATOM     26  O   UNL     1       9.669  75.792   6.321  1.00  0.00    -0.298 OA
ENDBRANCH  19  25
BRANCH  20  27
ATOM     27  C   UNL     1       9.642  74.107  -0.047  1.00  0.00     0.017 C 
ATOM     28  C   UNL     1      11.085  74.439  -0.452  1.00  0.00     0.012 C 
ATOM     29  C   UNL     1       8.587  74.844  -0.900  1.00  0.00     0.012 C 
ENDBRANCH  20  27
BRANCH  21  30
ATOM     30  O   UNL     1       9.097  76.991   3.971  1.00  0.00    -0.504 OA
ATOM     31  H   UNL     1       8.978  77.845   3.447  1.00  0.00     0.293 HD
ENDBRANCH  21  30
BRANCH  22  32
ATOM     32  O   UNL     1       9.205  76.608   1.139  1.00  0.00    -0.504 OA
ATOM     33  H   UNL     1       9.724  77.469   1.227  1.00  0.00     0.293 HD
ENDBRANCH  22  32
ENDBRANCH  11  12
BRANCH  10  34
ATOM     34  O   UNL     1       7.323  68.971   4.302  1.00  0.00    -0.507 OA
ATOM     35  H   UNL     1       7.351  69.368   3.372  1.00  0.00     0.293 HD
ENDBRANCH  10  34
BRANCH   9  36
ATOM     36  C   UNL     1      11.110  65.961   8.352  1.00  0.00     0.017 C 
ATOM     37  C   UNL     1      12.118  65.050   7.644  1.00  0.00     0.012 C 
ATOM     38  C   UNL     1      10.771  65.433   9.759  1.00  0.00     0.012 C 
ENDBRANCH   9  36
BRANCH   6  39
ATOM     39  C   UNL     1       6.033  67.136   5.809  1.00  0.00     0.264 C 
ATOM     40  O   UNL     1       5.610  66.924   4.640  1.00  0.00    -0.298 OA
ENDBRANCH   6  39
BRANCH   8  41
ATOM     41  O   UNL     1       9.109  63.950   7.885  1.00  0.00    -0.504 OA
ATOM     42  H   UNL     1       8.459  63.180   7.817  1.00  0.00     0.293 HD
ENDBRANCH   8  41
BRANCH   7  43
ATOM     43  O   UNL     1       6.524  64.677   6.924  1.00  0.00    -0.504 OA
ATOM     44  H   UNL     1       6.188  64.100   6.166  1.00  0.00     0.293 HD
ENDBRANCH   7  43
TORSDOF 11
ENDMDL
