MODEL 1
REMARK VINA RESULT:    -1.564      0.000      0.000
REMARK INTER + INTRA:          -4.002
REMARK INTER:                  -2.113
REMARK INTRA:                  -1.889
REMARK UNBOUND:                -1.889
REMARK SMILES CC[C@@H](CC[C@H](C)[C@H]1CC[C@@H]2[C@H]3CC(=O)C4=CC(=O)CC[C@@]4(C)[C@@H]3CC[C@@]21C)C(C)C
REMARK SMILES IDX 4 1 3 2 2 3 1 4 29 5 30 6 31 7 5 8 6 9 7 10 8 11 9 12 27 13
REMARK SMILES IDX 10 14 11 15 26 16 28 17 12 18 25 19 24 20 13 21 22 22 14 23
REMARK SMILES IDX 16 24 21 25 23 26 15 27 17 28 20 29 18 30 19 31
REMARK H PARENT
REMARK Flexibility Score: inf
ROOT
ATOM      1  C   UNL     1      92.222  28.959  16.342  1.00  0.00     0.004 C 
ENDROOT
BRANCH   1   2
ATOM      2  C   UNL     1      92.786  30.323  15.814  1.00  0.00    -0.009 C 
BRANCH   2   3
ATOM      3  C   UNL     1      94.339  30.383  16.016  1.00  0.00     0.000 C 
ATOM      4  C   UNL     1      95.095  30.684  14.718  1.00  0.00     0.004 C 
ENDBRANCH   2   3
BRANCH   2   5
ATOM      5  C   UNL     1      92.071  31.548  16.486  1.00  0.00    -0.014 C 
ATOM      6  C   UNL     1      93.003  32.322  17.439  1.00  0.00     0.007 C 
ATOM      7  C   UNL     1      91.508  32.542  15.453  1.00  0.00     0.007 C 
ENDBRANCH   2   5
ENDBRANCH   1   2
BRANCH   1   8
ATOM      8  C   UNL     1      90.676  28.895  16.312  1.00  0.00     0.004 C 
BRANCH   8   9
ATOM      9  C   UNL     1      90.134  28.099  15.088  1.00  0.00    -0.011 C 
ATOM     10  C   UNL     1      89.417  26.820  15.576  1.00  0.00     0.008 C 
BRANCH   9  11
ATOM     11  C   UNL     1      91.273  27.828  14.032  1.00  0.00    -0.002 C 
ATOM     12  C   UNL     1      91.308  26.370  13.567  1.00  0.00     0.005 C 
ATOM     13  C   UNL     1      91.257  28.669  12.701  1.00  0.00    -0.026 C 
ATOM     14  C   UNL     1      90.551  26.322  12.250  1.00  0.00     0.005 C 
ATOM     15  C   UNL     1      90.598  27.739  11.636  1.00  0.00    -0.001 C 
ATOM     16  C   UNL     1      92.723  28.972  12.285  1.00  0.00     0.007 C 
ATOM     17  C   UNL     1      90.506  30.024  12.842  1.00  0.00     0.012 C 
ATOM     18  C   UNL     1      91.289  27.714  10.225  1.00  0.00     0.004 C 
ATOM     19  C   UNL     1      92.841  29.662  10.915  1.00  0.00     0.005 C 
ATOM     20  C   UNL     1      91.874  29.101   9.825  1.00  0.00     0.003 C 
ATOM     21  C   UNL     1      90.265  27.213   9.183  1.00  0.00     0.085 C 
ATOM     22  C   UNL     1      92.508  29.133   8.373  1.00  0.00    -0.000 C 
ATOM     23  C   UNL     1      90.759  27.324   7.779  1.00  0.00     0.159 C 
ATOM     24  C   UNL     1      91.540  28.508   7.369  1.00  0.00     0.005 C 
ATOM     25  C   UNL     1      92.776  30.621   7.984  1.00  0.00     0.020 C 
ATOM     26  C   UNL     1      93.835  28.325   8.285  1.00  0.00     0.017 C 
ATOM     27  O   UNL     1      90.427  26.449   6.935  1.00  0.00    -0.295 OA
ATOM     28  C   UNL     1      91.480  28.925   6.090  1.00  0.00     0.055 C 
ATOM     29  C   UNL     1      93.207  30.790   6.522  1.00  0.00     0.081 C 
ATOM     30  C   UNL     1      92.269  30.068   5.606  1.00  0.00     0.156 C 
ATOM     31  O   UNL     1      92.187  30.414   4.397  1.00  0.00    -0.295 OA
ENDBRANCH   9  11
ENDBRANCH   8   9
ENDBRANCH   1   8
TORSDOF 6
ENDMDL
MODEL 2
REMARK VINA RESULT:    -1.540      3.574      7.881
REMARK INTER + INTRA:          -3.969
REMARK INTER:                  -1.679
REMARK INTRA:                  -2.291
REMARK UNBOUND:                -1.889
REMARK SMILES CC[C@@H](CC[C@H](C)[C@H]1CC[C@@H]2[C@H]3CC(=O)C4=CC(=O)CC[C@@]4(C)[C@@H]3CC[C@@]21C)C(C)C
REMARK SMILES IDX 4 1 3 2 2 3 1 4 29 5 30 6 31 7 5 8 6 9 7 10 8 11 9 12 27 13
REMARK SMILES IDX 10 14 11 15 26 16 28 17 12 18 25 19 24 20 13 21 22 22 14 23
REMARK SMILES IDX 16 24 21 25 23 26 15 27 17 28 20 29 18 30 19 31
REMARK H PARENT
REMARK Flexibility Score: inf
ROOT
ATOM      1  C   UNL     1      93.215  29.040   6.496  1.00  0.00     0.004 C 
ENDROOT
BRANCH   1   2
ATOM      2  C   UNL     1      92.600  30.459   6.244  1.00  0.00    -0.009 C 
BRANCH   2   3
ATOM      3  C   UNL     1      93.031  31.448   7.380  1.00  0.00     0.000 C 
ATOM      4  C   UNL     1      91.838  32.121   8.065  1.00  0.00     0.004 C 
ENDBRANCH   2   3
BRANCH   2   5
ATOM      5  C   UNL     1      91.039  30.398   6.096  1.00  0.00    -0.014 C 
ATOM      6  C   UNL     1      90.558  30.895   4.719  1.00  0.00     0.007 C 
ATOM      7  C   UNL     1      90.480  28.980   6.316  1.00  0.00     0.007 C 
ENDBRANCH   2   5
ENDBRANCH   1   2
BRANCH   1   8
ATOM      8  C   UNL     1      94.467  29.078   7.405  1.00  0.00     0.004 C 
BRANCH   8   9
ATOM      9  C   UNL     1      94.304  28.206   8.684  1.00  0.00    -0.011 C 
ATOM     10  C   UNL     1      95.100  26.891   8.522  1.00  0.00     0.008 C 
BRANCH   9  11
ATOM     11  C   UNL     1      92.784  27.992   9.042  1.00  0.00    -0.002 C 
ATOM     12  C   UNL     1      92.427  26.515   9.225  1.00  0.00     0.005 C 
ATOM     13  C   UNL     1      92.224  28.699  10.332  1.00  0.00    -0.026 C 
ATOM     14  C   UNL     1      92.459  26.249  10.721  1.00  0.00     0.005 C 
ATOM     15  C   UNL     1      92.227  27.598  11.438  1.00  0.00    -0.001 C 
ATOM     16  C   UNL     1      90.763  29.152  10.059  1.00  0.00     0.007 C 
ATOM     17  C   UNL     1      93.047  29.952  10.749  1.00  0.00     0.012 C 
ATOM     18  C   UNL     1      90.947  27.536  12.347  1.00  0.00     0.004 C 
ATOM     19  C   UNL     1      90.057  29.724  11.300  1.00  0.00     0.005 C 
ATOM     20  C   UNL     1      90.344  28.945  12.622  1.00  0.00     0.003 C 
ATOM     21  C   UNL     1      91.312  26.813  13.663  1.00  0.00     0.085 C 
ATOM     22  C   UNL     1      89.099  28.928  13.602  1.00  0.00    -0.000 C 
ATOM     23  C   UNL     1      90.218  26.860  14.676  1.00  0.00     0.159 C 
ATOM     24  C   UNL     1      89.424  28.093  14.841  1.00  0.00     0.005 C 
ATOM     25  C   UNL     1      88.785  30.397  14.029  1.00  0.00     0.020 C 
ATOM     26  C   UNL     1      87.836  28.295  12.949  1.00  0.00     0.017 C 
ATOM     27  O   UNL     1      90.044  25.876  15.445  1.00  0.00    -0.295 OA
ATOM     28  C   UNL     1      88.897  28.381  16.046  1.00  0.00     0.055 C 
ATOM     29  C   UNL     1      87.723  30.487  15.131  1.00  0.00     0.081 C 
ATOM     30  C   UNL     1      88.057  29.569  16.265  1.00  0.00     0.156 C 
ATOM     31  O   UNL     1      87.578  29.790  17.409  1.00  0.00    -0.295 OA
ENDBRANCH   9  11
ENDBRANCH   8   9
ENDBRANCH   1   8
TORSDOF 6
ENDMDL
MODEL 3
REMARK VINA RESULT:    -1.521      1.347      1.721
REMARK INTER + INTRA:          -3.943
REMARK INTER:                  -2.212
REMARK INTRA:                  -1.731
REMARK UNBOUND:                -1.889
REMARK SMILES CC[C@@H](CC[C@H](C)[C@H]1CC[C@@H]2[C@H]3CC(=O)C4=CC(=O)CC[C@@]4(C)[C@@H]3CC[C@@]21C)C(C)C
REMARK SMILES IDX 4 1 3 2 2 3 1 4 29 5 30 6 31 7 5 8 6 9 7 10 8 11 9 12 27 13
REMARK SMILES IDX 10 14 11 15 26 16 28 17 12 18 25 19 24 20 13 21 22 22 14 23
REMARK SMILES IDX 16 24 21 25 23 26 15 27 17 28 20 29 18 30 19 31
REMARK H PARENT
REMARK Flexibility Score: inf
ROOT
ATOM      1  C   UNL     1      92.348  29.091  16.871  1.00  0.00     0.004 C 
ENDROOT
BRANCH   1   2
ATOM      2  C   UNL     1      92.874  30.265  15.977  1.00  0.00    -0.009 C 
BRANCH   2   3
ATOM      3  C   UNL     1      94.428  30.404  16.122  1.00  0.00     0.000 C 
ATOM      4  C   UNL     1      95.125  30.697  14.789  1.00  0.00     0.004 C 
ENDBRANCH   2   3
BRANCH   2   5
ATOM      5  C   UNL     1      92.144  31.616  16.301  1.00  0.00    -0.014 C 
ATOM      6  C   UNL     1      91.528  32.268  15.048  1.00  0.00     0.007 C 
ATOM      7  C   UNL     1      91.029  31.446  17.351  1.00  0.00     0.007 C 
ENDBRANCH   2   5
ENDBRANCH   1   2
BRANCH   1   8
ATOM      8  C   UNL     1      91.754  27.924  16.046  1.00  0.00     0.004 C 
BRANCH   8   9
ATOM      9  C   UNL     1      90.823  28.416  14.900  1.00  0.00    -0.011 C 
ATOM     10  C   UNL     1      89.388  28.609  15.441  1.00  0.00     0.008 C 
BRANCH   9  11
ATOM     11  C   UNL     1      90.908  27.464  13.645  1.00  0.00    -0.002 C 
ATOM     12  C   UNL     1      89.537  26.935  13.216  1.00  0.00     0.005 C 
ATOM     13  C   UNL     1      91.542  28.040  12.325  1.00  0.00    -0.026 C 
ATOM     14  C   UNL     1      89.073  27.825  12.076  1.00  0.00     0.005 C 
ATOM     15  C   UNL     1      90.330  28.451  11.432  1.00  0.00    -0.001 C 
ATOM     16  C   UNL     1      92.343  26.910  11.621  1.00  0.00     0.007 C 
ATOM     17  C   UNL     1      92.512  29.231  12.581  1.00  0.00     0.012 C 
ATOM     18  C   UNL     1      90.435  28.061   9.913  1.00  0.00     0.004 C 
ATOM     19  C   UNL     1      92.887  27.314  10.240  1.00  0.00     0.005 C 
ATOM     20  C   UNL     1      91.893  28.152   9.375  1.00  0.00     0.003 C 
ATOM     21  C   UNL     1      89.478  28.966   9.106  1.00  0.00     0.085 C 
ATOM     22  C   UNL     1      92.024  27.843   7.826  1.00  0.00    -0.000 C 
ATOM     23  C   UNL     1      89.633  28.806   7.630  1.00  0.00     0.159 C 
ATOM     24  C   UNL     1      90.979  28.642   7.048  1.00  0.00     0.005 C 
ATOM     25  C   UNL     1      93.454  28.258   7.358  1.00  0.00     0.020 C 
ATOM     26  C   UNL     1      91.783  26.341   7.496  1.00  0.00     0.017 C 
ATOM     27  O   UNL     1      88.618  28.904   6.888  1.00  0.00    -0.295 OA
ATOM     28  C   UNL     1      91.212  29.082   5.797  1.00  0.00     0.055 C 
ATOM     29  C   UNL     1      93.631  28.188   5.837  1.00  0.00     0.081 C 
ATOM     30  C   UNL     1      92.517  28.906   5.141  1.00  0.00     0.156 C 
ATOM     31  O   UNL     1      92.685  29.326   3.964  1.00  0.00    -0.295 OA
ENDBRANCH   9  11
ENDBRANCH   8   9
ENDBRANCH   1   8
TORSDOF 6
ENDMDL
MODEL 4
REMARK VINA RESULT:    -1.480      3.143      7.992
REMARK INTER + INTRA:          -3.888
REMARK INTER:                  -2.042
REMARK INTRA:                  -1.846
REMARK UNBOUND:                -1.889
REMARK SMILES CC[C@@H](CC[C@H](C)[C@H]1CC[C@@H]2[C@H]3CC(=O)C4=CC(=O)CC[C@@]4(C)[C@@H]3CC[C@@]21C)C(C)C
REMARK SMILES IDX 4 1 3 2 2 3 1 4 29 5 30 6 31 7 5 8 6 9 7 10 8 11 9 12 27 13
REMARK SMILES IDX 10 14 11 15 26 16 28 17 12 18 25 19 24 20 13 21 22 22 14 23
REMARK SMILES IDX 16 24 21 25 23 26 15 27 17 28 20 29 18 30 19 31
REMARK H PARENT
REMARK Flexibility Score: inf
ROOT
ATOM      1  C   UNL     1      91.681  29.904   6.447  1.00  0.00     0.004 C 
ENDROOT
BRANCH   1   2
ATOM      2  C   UNL     1      93.064  30.224   5.781  1.00  0.00    -0.009 C 
BRANCH   2   3
ATOM      3  C   UNL     1      94.236  29.814   6.737  1.00  0.00     0.000 C 
ATOM      4  C   UNL     1      94.738  30.980   7.594  1.00  0.00     0.004 C 
ENDBRANCH   2   3
BRANCH   2   5
ATOM      5  C   UNL     1      93.169  31.731   5.356  1.00  0.00    -0.014 C 
ATOM      6  C   UNL     1      93.648  31.901   3.901  1.00  0.00     0.007 C 
ATOM      7  C   UNL     1      91.834  32.483   5.513  1.00  0.00     0.007 C 
ENDBRANCH   2   5
ENDBRANCH   1   2
BRANCH   1   8
ATOM      8  C   UNL     1      91.392  28.387   6.535  1.00  0.00     0.004 C 
BRANCH   8   9
ATOM      9  C   UNL     1      90.921  27.949   7.953  1.00  0.00    -0.011 C 
ATOM     10  C   UNL     1      89.562  27.219   7.847  1.00  0.00     0.008 C 
BRANCH   9  11
ATOM     11  C   UNL     1      90.915  29.165   8.956  1.00  0.00    -0.002 C 
ATOM     12  C   UNL     1      89.551  29.373   9.620  1.00  0.00     0.005 C 
ATOM     13  C   UNL     1      91.939  29.140  10.151  1.00  0.00    -0.026 C 
ATOM     14  C   UNL     1      89.631  28.699  10.979  1.00  0.00     0.005 C 
ATOM     15  C   UNL     1      91.121  28.637  11.381  1.00  0.00    -0.001 C 
ATOM     16  C   UNL     1      92.433  30.588  10.417  1.00  0.00     0.007 C 
ATOM     17  C   UNL     1      93.184  28.249   9.871  1.00  0.00     0.012 C 
ATOM     18  C   UNL     1      91.370  29.404  12.730  1.00  0.00     0.004 C 
ATOM     19  C   UNL     1      93.327  30.712  11.663  1.00  0.00     0.005 C 
ATOM     20  C   UNL     1      92.848  29.868  12.886  1.00  0.00     0.003 C 
ATOM     21  C   UNL     1      90.937  28.495  13.901  1.00  0.00     0.085 C 
ATOM     22  C   UNL     1      93.153  30.576  14.271  1.00  0.00    -0.000 C 
ATOM     23  C   UNL     1      91.301  29.053  15.236  1.00  0.00     0.159 C 
ATOM     24  C   UNL     1      92.598  29.732  15.418  1.00  0.00     0.005 C 
ATOM     25  C   UNL     1      94.701  30.714  14.425  1.00  0.00     0.020 C 
ATOM     26  C   UNL     1      92.492  31.980  14.381  1.00  0.00     0.017 C 
ATOM     27  O   UNL     1      90.534  28.858  16.218  1.00  0.00    -0.295 OA
ATOM     28  C   UNL     1      93.193  29.701  16.626  1.00  0.00     0.055 C 
ATOM     29  C   UNL     1      95.124  31.206  15.814  1.00  0.00     0.081 C 
ATOM     30  C   UNL     1      94.463  30.397  16.886  1.00  0.00     0.156 C 
ATOM     31  O   UNL     1      94.976  30.348  18.036  1.00  0.00    -0.295 OA
ENDBRANCH   9  11
ENDBRANCH   8   9
ENDBRANCH   1   8
TORSDOF 6
ENDMDL
MODEL 5
REMARK VINA RESULT:    -1.465      2.803      7.927
REMARK INTER + INTRA:          -3.868
REMARK INTER:                  -1.573
REMARK INTRA:                  -2.295
REMARK UNBOUND:                -1.889
REMARK SMILES CC[C@@H](CC[C@H](C)[C@H]1CC[C@@H]2[C@H]3CC(=O)C4=CC(=O)CC[C@@]4(C)[C@@H]3CC[C@@]21C)C(C)C
REMARK SMILES IDX 4 1 3 2 2 3 1 4 29 5 30 6 31 7 5 8 6 9 7 10 8 11 9 12 27 13
REMARK SMILES IDX 10 14 11 15 26 16 28 17 12 18 25 19 24 20 13 21 22 22 14 23
REMARK SMILES IDX 16 24 21 25 23 26 15 27 17 28 20 29 18 30 19 31
REMARK H PARENT
REMARK Flexibility Score: inf
ROOT
ATOM      1  C   UNL     1      92.302  29.795   5.091  1.00  0.00     0.004 C 
ENDROOT
BRANCH   1   2
ATOM      2  C   UNL     1      92.430  31.346   5.273  1.00  0.00    -0.009 C 
BRANCH   2   3
ATOM      3  C   UNL     1      93.637  31.686   6.212  1.00  0.00     0.000 C 
ATOM      4  C   UNL     1      93.239  32.576   7.393  1.00  0.00     0.004 C 
ENDBRANCH   2   3
BRANCH   2   5
ATOM      5  C   UNL     1      91.095  31.981   5.801  1.00  0.00    -0.014 C 
ATOM      6  C   UNL     1      90.518  33.030   4.831  1.00  0.00     0.007 C 
ATOM      7  C   UNL     1      90.006  30.926   6.070  1.00  0.00     0.007 C 
ENDBRANCH   2   5
ENDBRANCH   1   2
BRANCH   1   8
ATOM      8  C   UNL     1      93.608  29.038   5.434  1.00  0.00     0.004 C 
BRANCH   8   9
ATOM      9  C   UNL     1      93.411  27.988   6.566  1.00  0.00    -0.011 C 
ATOM     10  C   UNL     1      93.319  26.572   5.953  1.00  0.00     0.008 C 
BRANCH   9  11
ATOM     11  C   UNL     1      92.188  28.364   7.489  1.00  0.00    -0.002 C 
ATOM     12  C   UNL     1      91.196  27.209   7.648  1.00  0.00     0.005 C 
ATOM     13  C   UNL     1      92.493  28.831   8.961  1.00  0.00    -0.026 C 
ATOM     14  C   UNL     1      91.537  26.530   8.964  1.00  0.00     0.005 C 
ATOM     15  C   UNL     1      92.263  27.568   9.849  1.00  0.00    -0.001 C 
ATOM     16  C   UNL     1      91.472  29.933   9.357  1.00  0.00     0.007 C 
ATOM     17  C   UNL     1      93.925  29.416   9.134  1.00  0.00     0.012 C 
ATOM     18  C   UNL     1      91.479  27.807  11.190  1.00  0.00     0.004 C 
ATOM     19  C   UNL     1      91.575  30.364  10.830  1.00  0.00     0.005 C 
ATOM     20  C   UNL     1      91.804  29.188  11.831  1.00  0.00     0.003 C 
ATOM     21  C   UNL     1      91.796  26.646  12.159  1.00  0.00     0.085 C 
ATOM     22  C   UNL     1      91.092  29.428  13.226  1.00  0.00    -0.000 C 
ATOM     23  C   UNL     1      91.249  26.866  13.529  1.00  0.00     0.159 C 
ATOM     24  C   UNL     1      91.297  28.213  14.130  1.00  0.00     0.005 C 
ATOM     25  C   UNL     1      91.727  30.690  13.894  1.00  0.00     0.020 C 
ATOM     26  C   UNL     1      89.556  29.632  13.084  1.00  0.00     0.017 C 
ATOM     27  O   UNL     1      90.834  25.879  14.195  1.00  0.00    -0.295 OA
ATOM     28  C   UNL     1      91.387  28.334  15.468  1.00  0.00     0.055 C 
ATOM     29  C   UNL     1      91.254  30.906  15.336  1.00  0.00     0.081 C 
ATOM     30  C   UNL     1      91.391  29.646  16.133  1.00  0.00     0.156 C 
ATOM     31  O   UNL     1      91.467  29.708  17.390  1.00  0.00    -0.295 OA
ENDBRANCH   9  11
ENDBRANCH   8   9
ENDBRANCH   1   8
TORSDOF 6
ENDMDL
MODEL 6
REMARK VINA RESULT:    -1.437      1.542      2.085
REMARK INTER + INTRA:          -3.829
REMARK INTER:                  -1.753
REMARK INTRA:                  -2.076
REMARK UNBOUND:                -1.889
REMARK SMILES CC[C@@H](CC[C@H](C)[C@H]1CC[C@@H]2[C@H]3CC(=O)C4=CC(=O)CC[C@@]4(C)[C@@H]3CC[C@@]21C)C(C)C
REMARK SMILES IDX 4 1 3 2 2 3 1 4 29 5 30 6 31 7 5 8 6 9 7 10 8 11 9 12 27 13
REMARK SMILES IDX 10 14 11 15 26 16 28 17 12 18 25 19 24 20 13 21 22 22 14 23
REMARK SMILES IDX 16 24 21 25 23 26 15 27 17 28 20 29 18 30 19 31
REMARK H PARENT
REMARK Flexibility Score: inf
ROOT
ATOM      1  C   UNL     1      91.263  29.120  15.163  1.00  0.00     0.004 C 
ENDROOT
BRANCH   1   2
ATOM      2  C   UNL     1      91.162  30.679  15.290  1.00  0.00    -0.009 C 
BRANCH   2   3
ATOM      3  C   UNL     1      90.080  31.236  14.302  1.00  0.00     0.000 C 
ATOM      4  C   UNL     1      90.636  32.302  13.353  1.00  0.00     0.004 C 
ENDBRANCH   2   3
BRANCH   2   5
ATOM      5  C   UNL     1      92.553  31.372  15.069  1.00  0.00    -0.014 C 
ATOM      6  C   UNL     1      93.039  32.129  16.320  1.00  0.00     0.007 C 
ATOM      7  C   UNL     1      93.650  30.373  14.655  1.00  0.00     0.007 C 
ENDBRANCH   2   5
ENDBRANCH   1   2
BRANCH   1   8
ATOM      8  C   UNL     1      89.915  28.457  14.793  1.00  0.00     0.004 C 
BRANCH   8   9
ATOM      9  C   UNL     1      90.034  27.505  13.567  1.00  0.00    -0.011 C 
ATOM     10  C   UNL     1      89.697  26.059  13.997  1.00  0.00     0.008 C 
BRANCH   9  11
ATOM     11  C   UNL     1      91.437  27.651  12.862  1.00  0.00    -0.002 C 
ATOM     12  C   UNL     1      92.105  26.299  12.600  1.00  0.00     0.005 C 
ATOM     13  C   UNL     1      91.491  28.396  11.477  1.00  0.00    -0.026 C 
ATOM     14  C   UNL     1      91.803  25.945  11.153  1.00  0.00     0.005 C 
ATOM     15  C   UNL     1      91.516  27.264  10.403  1.00  0.00    -0.001 C 
ATOM     16  C   UNL     1      92.812  29.210  11.399  1.00  0.00     0.007 C 
ATOM     17  C   UNL     1      90.305  29.381  11.265  1.00  0.00     0.012 C 
ATOM     18  C   UNL     1      92.528  27.466   9.218  1.00  0.00     0.004 C 
ATOM     19  C   UNL     1      93.049  29.864  10.027  1.00  0.00     0.005 C 
ATOM     20  C   UNL     1      92.676  28.961   8.809  1.00  0.00     0.003 C 
ATOM     21  C   UNL     1      92.070  26.598   8.025  1.00  0.00     0.085 C 
ATOM     22  C   UNL     1      93.628  29.193   7.564  1.00  0.00    -0.000 C 
ATOM     23  C   UNL     1      92.856  26.853   6.783  1.00  0.00     0.159 C 
ATOM     24  C   UNL     1      93.253  28.232   6.437  1.00  0.00     0.005 C 
ATOM     25  C   UNL     1      93.454  30.666   7.076  1.00  0.00     0.020 C 
ATOM     26  C   UNL     1      95.125  28.931   7.903  1.00  0.00     0.017 C 
ATOM     27  O   UNL     1      93.095  25.898   5.995  1.00  0.00    -0.295 OA
ATOM     28  C   UNL     1      93.401  28.568   5.142  1.00  0.00     0.055 C 
ATOM     29  C   UNL     1      94.179  30.950   5.755  1.00  0.00     0.081 C 
ATOM     30  C   UNL     1      93.840  29.911   4.731  1.00  0.00     0.156 C 
ATOM     31  O   UNL     1      93.975  30.176   3.507  1.00  0.00    -0.295 OA
ENDBRANCH   9  11
ENDBRANCH   8   9
ENDBRANCH   1   8
TORSDOF 6
ENDMDL
MODEL 7
REMARK VINA RESULT:    -1.431      3.888      7.949
REMARK INTER + INTRA:          -3.822
REMARK INTER:                  -1.541
REMARK INTRA:                  -2.280
REMARK UNBOUND:                -1.889
REMARK SMILES CC[C@@H](CC[C@H](C)[C@H]1CC[C@@H]2[C@H]3CC(=O)C4=CC(=O)CC[C@@]4(C)[C@@H]3CC[C@@]21C)C(C)C
REMARK SMILES IDX 4 1 3 2 2 3 1 4 29 5 30 6 31 7 5 8 6 9 7 10 8 11 9 12 27 13
REMARK SMILES IDX 10 14 11 15 26 16 28 17 12 18 25 19 24 20 13 21 22 22 14 23
REMARK SMILES IDX 16 24 21 25 23 26 15 27 17 28 20 29 18 30 19 31
REMARK H PARENT
REMARK Flexibility Score: inf
ROOT
ATOM      1  C   UNL     1      91.839  27.753   9.174  1.00  0.00     0.004 C 
ENDROOT
BRANCH   1   2
ATOM      2  C   UNL     1      92.340  28.932   8.272  1.00  0.00    -0.009 C 
BRANCH   2   3
ATOM      3  C   UNL     1      93.567  29.643   8.939  1.00  0.00     0.000 C 
ATOM      4  C   UNL     1      93.345  31.146   9.140  1.00  0.00     0.004 C 
ENDBRANCH   2   3
BRANCH   2   5
ATOM      5  C   UNL     1      91.189  29.951   7.954  1.00  0.00    -0.014 C 
ATOM      6  C   UNL     1      90.887  30.046   6.445  1.00  0.00     0.007 C 
ATOM      7  C   UNL     1      89.877  29.606   8.684  1.00  0.00     0.007 C 
ENDBRANCH   2   5
ENDBRANCH   1   2
BRANCH   1   8
ATOM      8  C   UNL     1      92.926  27.230  10.142  1.00  0.00     0.004 C 
BRANCH   8   9
ATOM      9  C   UNL     1      92.484  27.301  11.633  1.00  0.00    -0.011 C 
ATOM     10  C   UNL     1      92.117  25.885  12.134  1.00  0.00     0.008 C 
BRANCH   9  11
ATOM     11  C   UNL     1      91.342  28.367  11.842  1.00  0.00    -0.002 C 
ATOM     12  C   UNL     1      90.123  27.788  12.565  1.00  0.00     0.005 C 
ATOM     13  C   UNL     1      91.694  29.676  12.644  1.00  0.00    -0.026 C 
ATOM     14  C   UNL     1      90.272  28.170  14.029  1.00  0.00     0.005 C 
ATOM     15  C   UNL     1      91.174  29.423  14.093  1.00  0.00    -0.001 C 
ATOM     16  C   UNL     1      90.919  30.868  12.017  1.00  0.00     0.007 C 
ATOM     17  C   UNL     1      93.212  30.020  12.616  1.00  0.00     0.012 C 
ATOM     18  C   UNL     1      90.419  30.623  14.769  1.00  0.00     0.004 C 
ATOM     19  C   UNL     1      91.066  32.178  12.810  1.00  0.00     0.005 C 
ATOM     20  C   UNL     1      91.010  32.004  14.360  1.00  0.00     0.003 C 
ATOM     21  C   UNL     1      90.453  30.426  16.301  1.00  0.00     0.085 C 
ATOM     22  C   UNL     1      90.324  33.234  15.087  1.00  0.00    -0.000 C 
ATOM     23  C   UNL     1      89.924  31.602  17.051  1.00  0.00     0.159 C 
ATOM     24  C   UNL     1      90.238  32.968  16.590  1.00  0.00     0.005 C 
ATOM     25  C   UNL     1      91.191  34.507  14.830  1.00  0.00     0.020 C 
ATOM     26  C   UNL     1      88.871  33.484  14.589  1.00  0.00     0.017 C 
ATOM     27  O   UNL     1      89.289  31.416  18.125  1.00  0.00    -0.295 OA
ATOM     28  C   UNL     1      90.311  33.966  17.490  1.00  0.00     0.055 C 
ATOM     29  C   UNL     1      90.732  35.721  15.647  1.00  0.00     0.081 C 
ATOM     30  C   UNL     1      90.574  35.358  17.090  1.00  0.00     0.156 C 
ATOM     31  O   UNL     1      90.622  36.260  17.969  1.00  0.00    -0.295 OA
ENDBRANCH   9  11
ENDBRANCH   8   9
ENDBRANCH   1   8
TORSDOF 6
ENDMDL
MODEL 8
REMARK VINA RESULT:    -1.398      3.520      5.570
REMARK INTER + INTRA:          -3.777
REMARK INTER:                  -1.573
REMARK INTRA:                  -2.204
REMARK UNBOUND:                -1.889
REMARK SMILES CC[C@@H](CC[C@H](C)[C@H]1CC[C@@H]2[C@H]3CC(=O)C4=CC(=O)CC[C@@]4(C)[C@@H]3CC[C@@]21C)C(C)C
REMARK SMILES IDX 4 1 3 2 2 3 1 4 29 5 30 6 31 7 5 8 6 9 7 10 8 11 9 12 27 13
REMARK SMILES IDX 10 14 11 15 26 16 28 17 12 18 25 19 24 20 13 21 22 22 14 23
REMARK SMILES IDX 16 24 21 25 23 26 15 27 17 28 20 29 18 30 19 31
REMARK H PARENT
REMARK Flexibility Score: inf
ROOT
ATOM      1  C   UNL     1      91.405  29.710  16.868  1.00  0.00     0.004 C 
ENDROOT
BRANCH   1   2
ATOM      2  C   UNL     1      90.492  28.556  16.328  1.00  0.00    -0.009 C 
BRANCH   2   3
ATOM      3  C   UNL     1      91.335  27.551  15.472  1.00  0.00     0.000 C 
ATOM      4  C   UNL     1      91.229  26.108  15.977  1.00  0.00     0.004 C 
ENDBRANCH   2   3
BRANCH   2   5
ATOM      5  C   UNL     1      89.268  29.114  15.519  1.00  0.00    -0.014 C 
ATOM      6  C   UNL     1      88.989  30.599  15.823  1.00  0.00     0.007 C 
ATOM      7  C   UNL     1      89.448  28.962  13.997  1.00  0.00     0.007 C 
ENDBRANCH   2   5
ENDBRANCH   1   2
BRANCH   1   8
ATOM      8  C   UNL     1      92.896  29.306  16.959  1.00  0.00     0.004 C 
BRANCH   8   9
ATOM      9  C   UNL     1      93.820  30.237  16.121  1.00  0.00    -0.011 C 
ATOM     10  C   UNL     1      95.019  30.693  16.984  1.00  0.00     0.008 C 
BRANCH   9  11
ATOM     11  C   UNL     1      93.006  31.426  15.481  1.00  0.00    -0.002 C 
ATOM     12  C   UNL     1      93.598  32.795  15.827  1.00  0.00     0.005 C 
ATOM     13  C   UNL     1      92.843  31.449  13.916  1.00  0.00    -0.026 C 
ATOM     14  C   UNL     1      94.457  33.202  14.642  1.00  0.00     0.005 C 
ATOM     15  C   UNL     1      93.930  32.444  13.403  1.00  0.00    -0.001 C 
ATOM     16  C   UNL     1      91.433  32.001  13.569  1.00  0.00     0.007 C 
ATOM     17  C   UNL     1      92.982  30.042  13.266  1.00  0.00     0.012 C 
ATOM     18  C   UNL     1      93.469  33.448  12.287  1.00  0.00     0.004 C 
ATOM     19  C   UNL     1      91.211  32.211  12.061  1.00  0.00     0.005 C 
ATOM     20  C   UNL     1      92.437  32.815  11.307  1.00  0.00     0.003 C 
ATOM     21  C   UNL     1      94.718  33.959  11.536  1.00  0.00     0.085 C 
ATOM     22  C   UNL     1      92.010  33.774  10.120  1.00  0.00    -0.000 C 
ATOM     23  C   UNL     1      94.382  34.779  10.335  1.00  0.00     0.159 C 
ATOM     24  C   UNL     1      93.253  34.383   9.471  1.00  0.00     0.005 C 
ATOM     25  C   UNL     1      91.227  32.934   9.062  1.00  0.00     0.020 C 
ATOM     26  C   UNL     1      91.125  34.960  10.602  1.00  0.00     0.017 C 
ATOM     27  O   UNL     1      95.124  35.748  10.021  1.00  0.00    -0.295 OA
ATOM     28  C   UNL     1      93.290  34.687   8.160  1.00  0.00     0.055 C 
ATOM     29  C   UNL     1      90.934  33.713   7.775  1.00  0.00     0.081 C 
ATOM     30  C   UNL     1      92.177  34.363   7.254  1.00  0.00     0.156 C 
ATOM     31  O   UNL     1      92.254  34.678   6.036  1.00  0.00    -0.295 OA
ENDBRANCH   9  11
ENDBRANCH   8   9
ENDBRANCH   1   8
TORSDOF 6
ENDMDL
