MODEL 1
REMARK VINA RESULT:    -4.981      0.000      0.000
REMARK INTER + INTRA:         -11.218
REMARK INTER:                  -9.349
REMARK INTRA:                  -1.869
REMARK UNBOUND:                -1.869
REMARK SMILES O=C([O-])CCCCCCCCCCCCCCC(=O)[O-]
REMARK SMILES IDX 10 1 9 2 8 3 7 4 6 5 5 6 4 7 2 8 1 9 3 10 11 11 12 12 13 13
REMARK SMILES IDX 14 14 15 15 16 16 17 17 18 18 19 19 20 20
REMARK H PARENT
REMARK Flexibility Score: inf
ROOT
ATOM      1  C   UNL     1     -23.945  59.992  28.457  1.00  0.00     0.000 C 
ENDROOT
BRANCH   1   2
ATOM      2  C   UNL     1     -23.385  61.420  28.477  1.00  0.00     0.000 C 
BRANCH   2   3
ATOM      3  C   UNL     1     -24.335  62.372  29.220  1.00  0.00     0.000 C 
BRANCH   3   4
ATOM      4  C   UNL     1     -24.027  62.464  30.722  1.00  0.00     0.000 C 
BRANCH   4   5
ATOM      5  C   UNL     1     -22.521  62.364  31.024  1.00  0.00     0.000 C 
BRANCH   5   6
ATOM      6  C   UNL     1     -22.229  61.568  32.314  1.00  0.00     0.006 C 
BRANCH   6   7
ATOM      7  C   UNL     1     -20.934  61.997  33.023  1.00  0.00     0.053 C 
BRANCH   7   8
ATOM      8  C   UNL     1     -21.081  62.036  34.511  1.00  0.00     0.041 C 
ATOM      9  O   UNL     1     -22.226  61.996  35.036  1.00  0.00    -0.550 OA
ATOM     10  O   UNL     1     -19.955  62.093  35.322  1.00  0.00    -0.550 OA
ENDBRANCH   7   8
ENDBRANCH   6   7
ENDBRANCH   5   6
ENDBRANCH   4   5
ENDBRANCH   3   4
ENDBRANCH   2   3
ENDBRANCH   1   2
BRANCH   1  11
ATOM     11  C   UNL     1     -23.184  59.091  29.438  1.00  0.00     0.000 C 
BRANCH  11  12
ATOM     12  C   UNL     1     -24.154  58.376  30.392  1.00  0.00     0.000 C 
BRANCH  12  13
ATOM     13  C   UNL     1     -25.544  59.035  30.435  1.00  0.00     0.000 C 
BRANCH  13  14
ATOM     14  C   UNL     1     -26.010  59.493  31.833  1.00  0.00     0.000 C 
BRANCH  14  15
ATOM     15  C   UNL     1     -26.948  60.713  31.841  1.00  0.00     0.000 C 
BRANCH  15  16
ATOM     16  C   UNL     1     -27.964  60.677  32.992  1.00  0.00     0.006 C 
BRANCH  16  17
ATOM     17  C   UNL     1     -28.057  62.040  33.682  1.00  0.00     0.053 C 
BRANCH  17  18
ATOM     18  C   UNL     1     -27.399  61.996  35.024  1.00  0.00     0.041 C 
ATOM     19  O   UNL     1     -26.441  61.207  35.234  1.00  0.00    -0.550 OA
ATOM     20  O   UNL     1     -27.813  62.859  36.031  1.00  0.00    -0.550 OA
ENDBRANCH  17  18
ENDBRANCH  16  17
ENDBRANCH  15  16
ENDBRANCH  14  15
ENDBRANCH  13  14
ENDBRANCH  12  13
ENDBRANCH  11  12
ENDBRANCH   1  11
TORSDOF 15
ENDMDL
MODEL 2
REMARK VINA RESULT:    -4.902      2.702      4.788
REMARK INTER + INTRA:         -11.070
REMARK INTER:                  -9.346
REMARK INTRA:                  -1.724
REMARK UNBOUND:                -1.869
REMARK SMILES O=C([O-])CCCCCCCCCCCCCCC(=O)[O-]
REMARK SMILES IDX 10 1 9 2 8 3 7 4 6 5 5 6 4 7 2 8 1 9 3 10 11 11 12 12 13 13
REMARK SMILES IDX 14 14 15 15 16 16 17 17 18 18 19 19 20 20
REMARK H PARENT
REMARK Flexibility Score: inf
ROOT
ATOM      1  C   UNL     1     -20.808  61.665  32.557  1.00  0.00     0.000 C 
ENDROOT
BRANCH   1   2
ATOM      2  C   UNL     1     -21.896  62.175  31.605  1.00  0.00     0.000 C 
BRANCH   2   3
ATOM      3  C   UNL     1     -23.171  61.324  31.723  1.00  0.00     0.000 C 
BRANCH   3   4
ATOM      4  C   UNL     1     -24.404  62.017  31.121  1.00  0.00     0.000 C 
BRANCH   4   5
ATOM      5  C   UNL     1     -24.121  62.631  29.738  1.00  0.00     0.000 C 
BRANCH   5   6
ATOM      6  C   UNL     1     -23.954  61.560  28.639  1.00  0.00     0.006 C 
BRANCH   6   7
ATOM      7  C   UNL     1     -22.757  61.814  27.708  1.00  0.00     0.053 C 
BRANCH   7   8
ATOM      8  C   UNL     1     -21.492  61.203  28.220  1.00  0.00     0.041 C 
ATOM      9  O   UNL     1     -20.432  61.881  28.261  1.00  0.00    -0.550 OA
ATOM     10  O   UNL     1     -21.487  59.889  28.672  1.00  0.00    -0.550 OA
ENDBRANCH   7   8
ENDBRANCH   6   7
ENDBRANCH   5   6
ENDBRANCH   4   5
ENDBRANCH   3   4
ENDBRANCH   2   3
ENDBRANCH   1   2
BRANCH   1  11
ATOM     11  C   UNL     1     -20.883  62.380  33.912  1.00  0.00     0.000 C 
BRANCH  11  12
ATOM     12  C   UNL     1     -20.461  61.442  35.053  1.00  0.00     0.000 C 
BRANCH  12  13
ATOM     13  C   UNL     1     -21.587  61.196  36.072  1.00  0.00     0.000 C 
BRANCH  13  14
ATOM     14  C   UNL     1     -22.977  61.715  35.652  1.00  0.00     0.000 C 
BRANCH  14  15
ATOM     15  C   UNL     1     -23.988  60.624  35.253  1.00  0.00     0.000 C 
BRANCH  15  16
ATOM     16  C   UNL     1     -25.432  61.140  35.195  1.00  0.00     0.006 C 
BRANCH  16  17
ATOM     17  C   UNL     1     -26.142  60.639  33.934  1.00  0.00     0.053 C 
BRANCH  17  18
ATOM     18  C   UNL     1     -27.281  61.540  33.578  1.00  0.00     0.041 C 
ATOM     19  O   UNL     1     -27.953  61.328  32.534  1.00  0.00    -0.550 OA
ATOM     20  O   UNL     1     -27.632  62.586  34.422  1.00  0.00    -0.550 OA
ENDBRANCH  17  18
ENDBRANCH  16  17
ENDBRANCH  15  16
ENDBRANCH  14  15
ENDBRANCH  13  14
ENDBRANCH  12  13
ENDBRANCH  11  12
ENDBRANCH   1  11
TORSDOF 15
ENDMDL
MODEL 3
REMARK VINA RESULT:    -4.884      1.096      5.343
REMARK INTER + INTRA:         -11.035
REMARK INTER:                  -9.076
REMARK INTRA:                  -1.959
REMARK UNBOUND:                -1.869
REMARK SMILES O=C([O-])CCCCCCCCCCCCCCC(=O)[O-]
REMARK SMILES IDX 10 1 9 2 8 3 7 4 6 5 5 6 4 7 2 8 1 9 3 10 11 11 12 12 13 13
REMARK SMILES IDX 14 14 15 15 16 16 17 17 18 18 19 19 20 20
REMARK H PARENT
REMARK Flexibility Score: inf
ROOT
ATOM      1  C   UNL     1     -23.300  60.988  28.643  1.00  0.00     0.000 C 
ENDROOT
BRANCH   1   2
ATOM      2  C   UNL     1     -24.132  59.708  28.503  1.00  0.00     0.000 C 
BRANCH   2   3
ATOM      3  C   UNL     1     -24.299  59.010  29.862  1.00  0.00     0.000 C 
BRANCH   3   4
ATOM      4  C   UNL     1     -25.756  59.000  30.349  1.00  0.00     0.000 C 
BRANCH   4   5
ATOM      5  C   UNL     1     -25.886  59.372  31.836  1.00  0.00     0.000 C 
BRANCH   5   6
ATOM      6  C   UNL     1     -26.991  60.419  32.089  1.00  0.00     0.006 C 
BRANCH   6   7
ATOM      7  C   UNL     1     -26.580  61.522  33.079  1.00  0.00     0.053 C 
BRANCH   7   8
ATOM      8  C   UNL     1     -26.655  61.070  34.503  1.00  0.00     0.041 C 
ATOM      9  O   UNL     1     -25.622  61.074  35.224  1.00  0.00    -0.550 OA
ATOM     10  O   UNL     1     -27.869  60.663  35.042  1.00  0.00    -0.550 OA
ENDBRANCH   7   8
ENDBRANCH   6   7
ENDBRANCH   5   6
ENDBRANCH   4   5
ENDBRANCH   3   4
ENDBRANCH   2   3
ENDBRANCH   1   2
BRANCH   1  11
ATOM     11  C   UNL     1     -24.200  62.204  28.895  1.00  0.00     0.000 C 
BRANCH  11  12
ATOM     12  C   UNL     1     -24.182  62.602  30.378  1.00  0.00     0.000 C 
BRANCH  12  13
ATOM     13  C   UNL     1     -22.834  62.305  31.061  1.00  0.00     0.000 C 
BRANCH  13  14
ATOM     14  C   UNL     1     -22.919  61.424  32.324  1.00  0.00     0.000 C 
BRANCH  14  15
ATOM     15  C   UNL     1     -21.565  60.944  32.877  1.00  0.00     0.000 C 
BRANCH  15  16
ATOM     16  C   UNL     1     -20.695  62.093  33.406  1.00  0.00     0.006 C 
BRANCH  16  17
ATOM     17  C   UNL     1     -21.133  62.509  34.813  1.00  0.00     0.053 C 
BRANCH  17  18
ATOM     18  C   UNL     1     -20.477  61.648  35.844  1.00  0.00     0.041 C 
ATOM     19  O   UNL     1     -21.039  61.450  36.954  1.00  0.00    -0.550 OA
ATOM     20  O   UNL     1     -19.267  61.025  35.565  1.00  0.00    -0.550 OA
ENDBRANCH  17  18
ENDBRANCH  16  17
ENDBRANCH  15  16
ENDBRANCH  14  15
ENDBRANCH  13  14
ENDBRANCH  12  13
ENDBRANCH  11  12
ENDBRANCH   1  11
TORSDOF 15
ENDMDL
MODEL 4
REMARK VINA RESULT:    -4.881      2.220      3.851
REMARK INTER + INTRA:         -11.029
REMARK INTER:                  -8.505
REMARK INTRA:                  -2.524
REMARK UNBOUND:                -1.869
REMARK SMILES O=C([O-])CCCCCCCCCCCCCCC(=O)[O-]
REMARK SMILES IDX 10 1 9 2 8 3 7 4 6 5 5 6 4 7 2 8 1 9 3 10 11 11 12 12 13 13
REMARK SMILES IDX 14 14 15 15 16 16 17 17 18 18 19 19 20 20
REMARK H PARENT
REMARK Flexibility Score: inf
ROOT
ATOM      1  C   UNL     1     -20.646  61.088  29.189  1.00  0.00     0.000 C 
ENDROOT
BRANCH   1   2
ATOM      2  C   UNL     1     -21.236  61.677  27.902  1.00  0.00     0.000 C 
BRANCH   2   3
ATOM      3  C   UNL     1     -22.720  61.307  27.757  1.00  0.00     0.000 C 
BRANCH   3   4
ATOM      4  C   UNL     1     -22.958  59.789  27.783  1.00  0.00     0.000 C 
BRANCH   4   5
ATOM      5  C   UNL     1     -24.050  59.378  28.787  1.00  0.00     0.000 C 
BRANCH   5   6
ATOM      6  C   UNL     1     -23.559  58.313  29.791  1.00  0.00     0.006 C 
BRANCH   6   7
ATOM      7  C   UNL     1     -24.439  58.198  31.046  1.00  0.00     0.053 C 
BRANCH   7   8
ATOM      8  C   UNL     1     -23.717  57.568  32.195  1.00  0.00     0.041 C 
ATOM      9  O   UNL     1     -23.466  56.334  32.186  1.00  0.00    -0.550 OA
ATOM     10  O   UNL     1     -23.303  58.347  33.268  1.00  0.00    -0.550 OA
ENDBRANCH   7   8
ENDBRANCH   6   7
ENDBRANCH   5   6
ENDBRANCH   4   5
ENDBRANCH   3   4
ENDBRANCH   2   3
ENDBRANCH   1   2
BRANCH   1  11
ATOM     11  C   UNL     1     -21.004  61.954  30.403  1.00  0.00     0.000 C 
BRANCH  11  12
ATOM     12  C   UNL     1     -21.679  61.113  31.497  1.00  0.00     0.000 C 
BRANCH  12  13
ATOM     13  C   UNL     1     -23.133  61.540  31.768  1.00  0.00     0.000 C 
BRANCH  13  14
ATOM     14  C   UNL     1     -23.713  62.561  30.768  1.00  0.00     0.000 C 
BRANCH  14  15
ATOM     15  C   UNL     1     -25.250  62.632  30.725  1.00  0.00     0.000 C 
BRANCH  15  16
ATOM     16  C   UNL     1     -25.922  61.445  31.429  1.00  0.00     0.006 C 
BRANCH  16  17
ATOM     17  C   UNL     1     -26.812  61.924  32.580  1.00  0.00     0.053 C 
BRANCH  17  18
ATOM     18  C   UNL     1     -26.590  61.088  33.800  1.00  0.00     0.041 C 
ATOM     19  O   UNL     1     -26.284  59.871  33.686  1.00  0.00    -0.550 OA
ATOM     20  O   UNL     1     -26.674  61.661  35.062  1.00  0.00    -0.550 OA
ENDBRANCH  17  18
ENDBRANCH  16  17
ENDBRANCH  15  16
ENDBRANCH  14  15
ENDBRANCH  13  14
ENDBRANCH  12  13
ENDBRANCH  11  12
ENDBRANCH   1  11
TORSDOF 15
ENDMDL
MODEL 5
REMARK VINA RESULT:    -4.875      2.830      5.592
REMARK INTER + INTRA:         -11.018
REMARK INTER:                  -8.532
REMARK INTRA:                  -2.486
REMARK UNBOUND:                -1.869
REMARK SMILES O=C([O-])CCCCCCCCCCCCCCC(=O)[O-]
REMARK SMILES IDX 10 1 9 2 8 3 7 4 6 5 5 6 4 7 2 8 1 9 3 10 11 11 12 12 13 13
REMARK SMILES IDX 14 14 15 15 16 16 17 17 18 18 19 19 20 20
REMARK H PARENT
REMARK Flexibility Score: inf
ROOT
ATOM      1  C   UNL     1     -27.345  61.911  32.814  1.00  0.00     0.000 C 
ENDROOT
BRANCH   1   2
ATOM      2  C   UNL     1     -26.966  60.658  32.017  1.00  0.00     0.000 C 
BRANCH   2   3
ATOM      3  C   UNL     1     -26.036  61.012  30.846  1.00  0.00     0.000 C 
BRANCH   3   4
ATOM      4  C   UNL     1     -25.340  62.369  31.032  1.00  0.00     0.000 C 
BRANCH   4   5
ATOM      5  C   UNL     1     -24.373  62.700  29.880  1.00  0.00     0.000 C 
BRANCH   5   6
ATOM      6  C   UNL     1     -23.911  61.442  29.116  1.00  0.00     0.006 C 
BRANCH   6   7
ATOM      7  C   UNL     1     -22.724  61.696  28.172  1.00  0.00     0.053 C 
BRANCH   7   8
ATOM      8  C   UNL     1     -21.466  61.039  28.643  1.00  0.00     0.041 C 
ATOM      9  O   UNL     1     -21.439  59.796  28.849  1.00  0.00    -0.550 OA
ATOM     10  O   UNL     1     -20.316  61.793  28.836  1.00  0.00    -0.550 OA
ENDBRANCH   7   8
ENDBRANCH   6   7
ENDBRANCH   5   6
ENDBRANCH   4   5
ENDBRANCH   3   4
ENDBRANCH   2   3
ENDBRANCH   1   2
BRANCH   1  11
ATOM     11  C   UNL     1     -27.045  61.725  34.307  1.00  0.00     0.000 C 
BRANCH  11  12
ATOM     12  C   UNL     1     -26.098  60.536  34.532  1.00  0.00     0.000 C 
BRANCH  12  13
ATOM     13  C   UNL     1     -24.806  60.932  35.269  1.00  0.00     0.000 C 
BRANCH  13  14
ATOM     14  C   UNL     1     -23.531  60.932  34.401  1.00  0.00     0.000 C 
BRANCH  14  15
ATOM     15  C   UNL     1     -23.525  59.913  33.248  1.00  0.00     0.000 C 
BRANCH  15  16
ATOM     16  C   UNL     1     -22.409  60.173  32.226  1.00  0.00     0.006 C 
BRANCH  16  17
ATOM     17  C   UNL     1     -21.827  61.579  32.398  1.00  0.00     0.053 C 
BRANCH  17  18
ATOM     18  C   UNL     1     -20.377  61.509  32.755  1.00  0.00     0.041 C 
ATOM     19  O   UNL     1     -19.950  62.089  33.788  1.00  0.00    -0.550 OA
ATOM     20  O   UNL     1     -19.503  60.763  31.975  1.00  0.00    -0.550 OA
ENDBRANCH  17  18
ENDBRANCH  16  17
ENDBRANCH  15  16
ENDBRANCH  14  15
ENDBRANCH  13  14
ENDBRANCH  12  13
ENDBRANCH  11  12
ENDBRANCH   1  11
TORSDOF 15
ENDMDL
MODEL 6
REMARK VINA RESULT:    -4.870      2.767      5.847
REMARK INTER + INTRA:         -11.009
REMARK INTER:                  -8.559
REMARK INTRA:                  -2.450
REMARK UNBOUND:                -1.869
REMARK SMILES O=C([O-])CCCCCCCCCCCCCCC(=O)[O-]
REMARK SMILES IDX 10 1 9 2 8 3 7 4 6 5 5 6 4 7 2 8 1 9 3 10 11 11 12 12 13 13
REMARK SMILES IDX 14 14 15 15 16 16 17 17 18 18 19 19 20 20
REMARK H PARENT
REMARK Flexibility Score: inf
ROOT
ATOM      1  C   UNL     1     -21.674  61.509  31.427  1.00  0.00     0.000 C 
ENDROOT
BRANCH   1   2
ATOM      2  C   UNL     1     -22.199  60.776  32.668  1.00  0.00     0.000 C 
BRANCH   2   3
ATOM      3  C   UNL     1     -21.770  61.498  33.955  1.00  0.00     0.000 C 
BRANCH   3   4
ATOM      4  C   UNL     1     -22.819  61.392  35.072  1.00  0.00     0.000 C 
BRANCH   4   5
ATOM      5  C   UNL     1     -23.947  60.401  34.733  1.00  0.00     0.000 C 
BRANCH   5   6
ATOM      6  C   UNL     1     -25.350  60.999  34.966  1.00  0.00     0.006 C 
BRANCH   6   7
ATOM      7  C   UNL     1     -26.444  60.365  34.092  1.00  0.00     0.053 C 
BRANCH   7   8
ATOM      8  C   UNL     1     -27.391  61.380  33.535  1.00  0.00     0.041 C 
ATOM      9  O   UNL     1     -27.741  62.370  34.231  1.00  0.00    -0.550 OA
ATOM     10  O   UNL     1     -27.872  61.246  32.238  1.00  0.00    -0.550 OA
ENDBRANCH   7   8
ENDBRANCH   6   7
ENDBRANCH   5   6
ENDBRANCH   4   5
ENDBRANCH   3   4
ENDBRANCH   2   3
ENDBRANCH   1   2
BRANCH   1  11
ATOM     11  C   UNL     1     -22.781  62.347  30.775  1.00  0.00     0.000 C 
BRANCH  11  12
ATOM     12  C   UNL     1     -24.168  61.889  31.251  1.00  0.00     0.000 C 
BRANCH  12  13
ATOM     13  C   UNL     1     -25.163  61.694  30.093  1.00  0.00     0.000 C 
BRANCH  13  14
ATOM     14  C   UNL     1     -25.571  60.232  29.818  1.00  0.00     0.000 C 
BRANCH  14  15
ATOM     15  C   UNL     1     -24.977  59.195  30.788  1.00  0.00     0.000 C 
BRANCH  15  16
ATOM     16  C   UNL     1     -23.892  58.324  30.140  1.00  0.00     0.006 C 
BRANCH  16  17
ATOM     17  C   UNL     1     -23.730  58.666  28.656  1.00  0.00     0.053 C 
BRANCH  17  18
ATOM     18  C   UNL     1     -22.459  59.418  28.424  1.00  0.00     0.041 C 
ATOM     19  O   UNL     1     -21.384  59.019  28.944  1.00  0.00    -0.550 OA
ATOM     20  O   UNL     1     -22.451  60.533  27.596  1.00  0.00    -0.550 OA
ENDBRANCH  17  18
ENDBRANCH  16  17
ENDBRANCH  15  16
ENDBRANCH  14  15
ENDBRANCH  13  14
ENDBRANCH  12  13
ENDBRANCH  11  12
ENDBRANCH   1  11
TORSDOF 15
ENDMDL
MODEL 7
REMARK VINA RESULT:    -4.787      1.820      5.072
REMARK INTER + INTRA:         -10.853
REMARK INTER:                  -8.866
REMARK INTRA:                  -1.986
REMARK UNBOUND:                -1.869
REMARK SMILES O=C([O-])CCCCCCCCCCCCCCC(=O)[O-]
REMARK SMILES IDX 10 1 9 2 8 3 7 4 6 5 5 6 4 7 2 8 1 9 3 10 11 11 12 12 13 13
REMARK SMILES IDX 14 14 15 15 16 16 17 17 18 18 19 19 20 20
REMARK H PARENT
REMARK Flexibility Score: inf
ROOT
ATOM      1  C   UNL     1     -21.867  60.771  28.266  1.00  0.00     0.000 C 
ENDROOT
BRANCH   1   2
ATOM      2  C   UNL     1     -23.084  61.634  27.916  1.00  0.00     0.000 C 
BRANCH   2   3
ATOM      3  C   UNL     1     -24.180  61.499  28.985  1.00  0.00     0.000 C 
BRANCH   3   4
ATOM      4  C   UNL     1     -24.212  62.690  29.955  1.00  0.00     0.000 C 
BRANCH   4   5
ATOM      5  C   UNL     1     -25.156  62.458  31.148  1.00  0.00     0.000 C 
BRANCH   5   6
ATOM      6  C   UNL     1     -25.000  61.050  31.759  1.00  0.00     0.006 C 
BRANCH   6   7
ATOM      7  C   UNL     1     -25.639  60.908  33.151  1.00  0.00     0.053 C 
BRANCH   7   8
ATOM      8  C   UNL     1     -27.084  61.292  33.159  1.00  0.00     0.041 C 
ATOM      9  O   UNL     1     -27.920  60.632  32.485  1.00  0.00    -0.550 OA
ATOM     10  O   UNL     1     -27.515  62.366  33.928  1.00  0.00    -0.550 OA
ENDBRANCH   7   8
ENDBRANCH   6   7
ENDBRANCH   5   6
ENDBRANCH   4   5
ENDBRANCH   3   4
ENDBRANCH   2   3
ENDBRANCH   1   2
BRANCH   1  11
ATOM     11  C   UNL     1     -20.612  61.636  28.439  1.00  0.00     0.000 C 
BRANCH  11  12
ATOM     12  C   UNL     1     -20.174  61.679  29.911  1.00  0.00     0.000 C 
BRANCH  12  13
ATOM     13  C   UNL     1     -20.728  60.503  30.734  1.00  0.00     0.000 C 
BRANCH  13  14
ATOM     14  C   UNL     1     -21.470  60.900  32.027  1.00  0.00     0.000 C 
BRANCH  14  15
ATOM     15  C   UNL     1     -21.124  62.296  32.576  1.00  0.00     0.000 C 
BRANCH  15  16
ATOM     16  C   UNL     1     -21.003  62.322  34.106  1.00  0.00     0.006 C 
BRANCH  16  17
ATOM     17  C   UNL     1     -22.172  61.580  34.760  1.00  0.00     0.053 C 
BRANCH  17  18
ATOM     18  C   UNL     1     -21.671  60.586  35.759  1.00  0.00     0.041 C 
ATOM     19  O   UNL     1     -22.473  59.796  36.323  1.00  0.00    -0.550 OA
ATOM     20  O   UNL     1     -20.313  60.501  36.035  1.00  0.00    -0.550 OA
ENDBRANCH  17  18
ENDBRANCH  16  17
ENDBRANCH  15  16
ENDBRANCH  14  15
ENDBRANCH  13  14
ENDBRANCH  12  13
ENDBRANCH  11  12
ENDBRANCH   1  11
TORSDOF 15
ENDMDL
MODEL 8
REMARK VINA RESULT:    -4.780      1.966      3.437
REMARK INTER + INTRA:         -10.840
REMARK INTER:                  -8.770
REMARK INTRA:                  -2.070
REMARK UNBOUND:                -1.869
REMARK SMILES O=C([O-])CCCCCCCCCCCCCCC(=O)[O-]
REMARK SMILES IDX 10 1 9 2 8 3 7 4 6 5 5 6 4 7 2 8 1 9 3 10 11 11 12 12 13 13
REMARK SMILES IDX 14 14 15 15 16 16 17 17 18 18 19 19 20 20
REMARK H PARENT
REMARK Flexibility Score: inf
ROOT
ATOM      1  C   UNL     1     -20.458  60.523  29.432  1.00  0.00     0.000 C 
ENDROOT
BRANCH   1   2
ATOM      2  C   UNL     1     -20.130  61.054  30.832  1.00  0.00     0.000 C 
BRANCH   2   3
ATOM      3  C   UNL     1     -20.920  62.338  31.132  1.00  0.00     0.000 C 
BRANCH   3   4
ATOM      4  C   UNL     1     -21.581  62.317  32.519  1.00  0.00     0.000 C 
BRANCH   4   5
ATOM      5  C   UNL     1     -22.186  60.944  32.865  1.00  0.00     0.000 C 
BRANCH   5   6
ATOM      6  C   UNL     1     -22.803  60.910  34.279  1.00  0.00     0.006 C 
BRANCH   6   7
ATOM      7  C   UNL     1     -22.223  61.970  35.230  1.00  0.00     0.053 C 
BRANCH   7   8
ATOM      8  C   UNL     1     -21.023  61.477  35.974  1.00  0.00     0.041 C 
ATOM      9  O   UNL     1     -19.871  61.876  35.654  1.00  0.00    -0.550 OA
ATOM     10  O   UNL     1     -21.174  60.592  37.034  1.00  0.00    -0.550 OA
ENDBRANCH   7   8
ENDBRANCH   6   7
ENDBRANCH   5   6
ENDBRANCH   4   5
ENDBRANCH   3   4
ENDBRANCH   2   3
ENDBRANCH   1   2
BRANCH   1  11
ATOM     11  C   UNL     1     -20.575  61.671  28.422  1.00  0.00     0.000 C 
BRANCH  11  12
ATOM     12  C   UNL     1     -21.905  61.595  27.656  1.00  0.00     0.000 C 
BRANCH  12  13
ATOM     13  C   UNL     1     -22.869  60.545  28.235  1.00  0.00     0.000 C 
BRANCH  13  14
ATOM     14  C   UNL     1     -24.245  61.088  28.672  1.00  0.00     0.000 C 
BRANCH  14  15
ATOM     15  C   UNL     1     -24.208  62.432  29.421  1.00  0.00     0.000 C 
BRANCH  15  16
ATOM     16  C   UNL     1     -24.857  62.360  30.811  1.00  0.00     0.006 C 
BRANCH  16  17
ATOM     17  C   UNL     1     -25.442  60.969  31.069  1.00  0.00     0.053 C 
BRANCH  17  18
ATOM     18  C   UNL     1     -26.619  61.056  31.987  1.00  0.00     0.041 C 
ATOM     19  O   UNL     1     -27.198  60.007  32.376  1.00  0.00    -0.550 OA
ATOM     20  O   UNL     1     -27.050  62.292  32.452  1.00  0.00    -0.550 OA
ENDBRANCH  17  18
ENDBRANCH  16  17
ENDBRANCH  15  16
ENDBRANCH  14  15
ENDBRANCH  13  14
ENDBRANCH  12  13
ENDBRANCH  11  12
ENDBRANCH   1  11
TORSDOF 15
ENDMDL
MODEL 9
REMARK VINA RESULT:    -4.757      1.607      2.453
REMARK INTER + INTRA:         -10.797
REMARK INTER:                  -8.731
REMARK INTRA:                  -2.066
REMARK UNBOUND:                -1.869
REMARK SMILES O=C([O-])CCCCCCCCCCCCCCC(=O)[O-]
REMARK SMILES IDX 10 1 9 2 8 3 7 4 6 5 5 6 4 7 2 8 1 9 3 10 11 11 12 12 13 13
REMARK SMILES IDX 14 14 15 15 16 16 17 17 18 18 19 19 20 20
REMARK H PARENT
REMARK Flexibility Score: inf
ROOT
ATOM      1  C   UNL     1     -23.002  60.151  28.012  1.00  0.00     0.000 C 
ENDROOT
BRANCH   1   2
ATOM      2  C   UNL     1     -21.787  61.087  28.029  1.00  0.00     0.000 C 
BRANCH   2   3
ATOM      3  C   UNL     1     -20.775  60.653  29.101  1.00  0.00     0.000 C 
BRANCH   3   4
ATOM      4  C   UNL     1     -20.207  61.840  29.895  1.00  0.00     0.000 C 
BRANCH   4   5
ATOM      5  C   UNL     1     -21.016  62.141  31.169  1.00  0.00     0.000 C 
BRANCH   5   6
ATOM      6  C   UNL     1     -21.577  60.864  31.828  1.00  0.00     0.006 C 
BRANCH   6   7
ATOM      7  C   UNL     1     -22.028  61.069  33.284  1.00  0.00     0.053 C 
BRANCH   7   8
ATOM      8  C   UNL     1     -20.918  61.548  34.165  1.00  0.00     0.041 C 
ATOM      9  O   UNL     1     -20.982  62.685  34.704  1.00  0.00    -0.550 OA
ATOM     10  O   UNL     1     -19.820  60.732  34.409  1.00  0.00    -0.550 OA
ENDBRANCH   7   8
ENDBRANCH   6   7
ENDBRANCH   5   6
ENDBRANCH   4   5
ENDBRANCH   3   4
ENDBRANCH   2   3
ENDBRANCH   1   2
BRANCH   1  11
ATOM     11  C   UNL     1     -24.231  60.834  28.622  1.00  0.00     0.000 C 
BRANCH  11  12
ATOM     12  C   UNL     1     -23.982  62.337  28.820  1.00  0.00     0.000 C 
BRANCH  12  13
ATOM     13  C   UNL     1     -24.812  62.935  29.970  1.00  0.00     0.000 C 
BRANCH  13  14
ATOM     14  C   UNL     1     -24.851  62.088  31.259  1.00  0.00     0.000 C 
BRANCH  14  15
ATOM     15  C   UNL     1     -26.261  61.753  31.778  1.00  0.00     0.000 C 
BRANCH  15  16
ATOM     16  C   UNL     1     -26.484  60.246  31.967  1.00  0.00     0.006 C 
BRANCH  16  17
ATOM     17  C   UNL     1     -25.861  59.760  33.278  1.00  0.00     0.053 C 
BRANCH  17  18
ATOM     18  C   UNL     1     -26.443  60.497  34.442  1.00  0.00     0.041 C 
ATOM     19  O   UNL     1     -25.706  61.207  35.176  1.00  0.00    -0.550 OA
ATOM     20  O   UNL     1     -27.808  60.438  34.691  1.00  0.00    -0.550 OA
ENDBRANCH  17  18
ENDBRANCH  16  17
ENDBRANCH  15  16
ENDBRANCH  14  15
ENDBRANCH  13  14
ENDBRANCH  12  13
ENDBRANCH  11  12
ENDBRANCH   1  11
TORSDOF 15
ENDMDL
