MODEL 1
REMARK VINA RESULT:    13.789      0.000      0.000
REMARK INTER + INTRA:          15.192
REMARK INTER:                  15.401
REMARK INTRA:                  -0.209
REMARK UNBOUND:                -0.209
REMARK SMILES CC(C)c1ccc(C(=O)[O-])cc1
REMARK SMILES IDX 7 1 6 2 11 3 5 4 12 5 4 6 8 7 9 8 10 9 2 10 1 11 3 12
REMARK H PARENT
REMARK Flexibility Score: inf
ROOT
ATOM      1  C   UNL     1       4.452   7.326  -2.804  1.00  0.00    -0.003 A 
ATOM      2  C   UNL     1       3.312   6.897  -2.104  1.00  0.00     0.010 A 
ATOM      3  C   UNL     1       4.287   7.973  -4.040  1.00  0.00     0.010 A 
ATOM      4  C   UNL     1       2.035   7.113  -2.628  1.00  0.00     0.004 A 
ATOM      5  C   UNL     1       3.010   8.188  -4.565  1.00  0.00     0.004 A 
ATOM      6  C   UNL     1       1.869   7.760  -3.866  1.00  0.00    -0.045 A 
ENDROOT
BRANCH   1   7
ATOM      7  C   UNL     1       5.802   7.096  -2.246  1.00  0.00     0.071 C 
ATOM      8  O   UNL     1       6.429   6.033  -2.500  1.00  0.00    -0.545 OA
ATOM      9  O   UNL     1       6.401   8.052  -1.433  1.00  0.00    -0.545 OA
ENDBRANCH   1   7
BRANCH   6  10
ATOM     10  C   UNL     1       0.488   8.000  -4.447  1.00  0.00     0.013 C 
ATOM     11  C   UNL     1      -0.386   8.806  -3.480  1.00  0.00     0.012 C 
ATOM     12  C   UNL     1       0.576   8.688  -5.815  1.00  0.00     0.012 C 
ENDBRANCH   6  10
TORSDOF 2
ENDMDL
MODEL 2
REMARK VINA RESULT:    14.876      3.674      5.927
REMARK INTER + INTRA:          16.406
REMARK INTER:                  16.622
REMARK INTRA:                  -0.216
REMARK UNBOUND:                -0.209
REMARK SMILES CC(C)c1ccc(C(=O)[O-])cc1
REMARK SMILES IDX 7 1 6 2 11 3 5 4 12 5 4 6 8 7 9 8 10 9 2 10 1 11 3 12
REMARK H PARENT
REMARK Flexibility Score: inf
ROOT
ATOM      1  C   UNL     1       5.640   6.142  -2.981  1.00  0.00    -0.003 A 
ATOM      2  C   UNL     1       5.250   5.497  -4.167  1.00  0.00     0.010 A 
ATOM      3  C   UNL     1       6.578   5.517  -2.143  1.00  0.00     0.010 A 
ATOM      4  C   UNL     1       5.788   4.253  -4.506  1.00  0.00     0.004 A 
ATOM      5  C   UNL     1       7.116   4.273  -2.483  1.00  0.00     0.004 A 
ATOM      6  C   UNL     1       6.727   3.626  -3.668  1.00  0.00    -0.045 A 
ENDROOT
BRANCH   1   7
ATOM      7  C   UNL     1       5.068   7.459  -2.624  1.00  0.00     0.071 C 
ATOM      8  O   UNL     1       3.887   7.754  -2.948  1.00  0.00    -0.545 OA
ATOM      9  O   UNL     1       5.828   8.391  -1.925  1.00  0.00    -0.545 OA
ENDBRANCH   1   7
BRANCH   6  10
ATOM     10  C   UNL     1       7.319   2.275  -4.025  1.00  0.00     0.013 C 
ATOM     11  C   UNL     1       7.141   1.273  -2.879  1.00  0.00     0.012 C 
ATOM     12  C   UNL     1       6.717   1.735  -5.328  1.00  0.00     0.012 C 
ENDBRANCH   6  10
TORSDOF 2
ENDMDL
MODEL 3
REMARK VINA RESULT:    15.269      3.291      5.100
REMARK INTER + INTRA:          16.845
REMARK INTER:                  17.055
REMARK INTRA:                  -0.210
REMARK UNBOUND:                -0.209
REMARK SMILES CC(C)c1ccc(C(=O)[O-])cc1
REMARK SMILES IDX 7 1 6 2 11 3 5 4 12 5 4 6 8 7 9 8 10 9 2 10 1 11 3 12
REMARK H PARENT
REMARK Flexibility Score: inf
ROOT
ATOM      1  C   UNL     1       1.460   7.975  -4.353  1.00  0.00    -0.003 A 
ATOM      2  C   UNL     1       1.361   7.241  -3.159  1.00  0.00     0.010 A 
ATOM      3  C   UNL     1       2.731   8.357  -4.813  1.00  0.00     0.010 A 
ATOM      4  C   UNL     1       2.509   6.898  -2.441  1.00  0.00     0.004 A 
ATOM      5  C   UNL     1       3.880   8.013  -4.095  1.00  0.00     0.004 A 
ATOM      6  C   UNL     1       3.782   7.280  -2.900  1.00  0.00    -0.045 A 
ENDROOT
BRANCH   1   7
ATOM      7  C   UNL     1       0.243   8.337  -5.111  1.00  0.00     0.071 C 
ATOM      8  O   UNL     1      -0.888   8.317  -4.556  1.00  0.00    -0.545 OA
ATOM      9  O   UNL     1       0.329   8.706  -6.449  1.00  0.00    -0.545 OA
ENDBRANCH   1   7
BRANCH   6  10
ATOM     10  C   UNL     1       5.037   6.914  -2.130  1.00  0.00     0.013 C 
ATOM     11  C   UNL     1       5.898   5.920  -2.917  1.00  0.00     0.012 C 
ATOM     12  C   UNL     1       5.842   8.165  -1.756  1.00  0.00     0.012 C 
ENDBRANCH   6  10
TORSDOF 2
ENDMDL
