MODEL 1
REMARK VINA RESULT:    -6.068      0.000      0.000
REMARK INTER + INTRA:          -7.406
REMARK INTER:                  -7.133
REMARK INTRA:                  -0.274
REMARK UNBOUND:                -0.274
REMARK SMILES COc1cc2ccc(=O)oc2c(OC)c1OC
REMARK SMILES IDX 3 1 15 2 12 3 11 4 5 5 4 6 6 7 7 8 8 9 9 10 10 11 2 12 1 13
REMARK SMILES IDX 16 14 17 15 13 16 14 17
REMARK H PARENT
REMARK Flexibility Score: inf
ROOT
ATOM      1  C   UNL     1     -35.989  -4.989 -13.848  1.00  0.00     0.165 A 
ATOM      2  C   UNL     1     -37.180  -4.270 -13.545  1.00  0.00     0.207 A 
ATOM      3  C   UNL     1     -38.399  -4.983 -13.371  1.00  0.00     0.208 A 
ATOM      4  C   UNL     1     -38.415  -6.378 -13.500  1.00  0.00     0.184 A 
ATOM      5  C   UNL     1     -37.235  -7.081 -13.800  1.00  0.00     0.025 A 
ATOM      6  C   UNL     1     -36.036  -6.391 -13.971  1.00  0.00     0.062 A 
ATOM      7  C   UNL     1     -37.295  -8.474 -13.920  1.00  0.00     0.020 A 
ATOM      8  C   UNL     1     -38.513  -9.125 -13.740  1.00  0.00     0.094 A 
ATOM      9  C   UNL     1     -39.648  -8.364 -13.444  1.00  0.00     0.336 A 
ATOM     10  O   UNL     1     -40.759  -8.931 -13.278  1.00  0.00    -0.246 OA
ATOM     11  O   UNL     1     -39.560  -7.042 -13.336  1.00  0.00    -0.419 OA
ENDROOT
BRANCH   1  12
ATOM     12  O   UNL     1     -34.778  -4.300 -14.023  1.00  0.00    -0.493 OA
ATOM     13  C   UNL     1     -34.029  -4.249 -15.234  1.00  0.00     0.278 C 
ENDBRANCH   1  12
BRANCH   2  14
ATOM     14  O   UNL     1     -37.202  -2.869 -13.408  1.00  0.00    -0.490 OA
ATOM     15  C   UNL     1     -36.959  -2.111 -12.228  1.00  0.00     0.278 C 
ENDBRANCH   2  14
BRANCH   3  16
ATOM     16  O   UNL     1     -39.633  -4.370 -13.069  1.00  0.00    -0.490 OA
ATOM     17  C   UNL     1     -40.118  -4.007 -11.781  1.00  0.00     0.278 C 
ENDBRANCH   3  16
TORSDOF 3
ENDMDL
MODEL 2
REMARK VINA RESULT:    -5.762      2.515      2.713
REMARK INTER + INTRA:          -7.046
REMARK INTER:                  -6.779
REMARK INTRA:                  -0.267
REMARK UNBOUND:                -0.274
REMARK SMILES COc1cc2ccc(=O)oc2c(OC)c1OC
REMARK SMILES IDX 3 1 15 2 12 3 11 4 5 5 4 6 6 7 7 8 8 9 9 10 10 11 2 12 1 13
REMARK SMILES IDX 16 14 17 15 13 16 14 17
REMARK H PARENT
REMARK Flexibility Score: inf
ROOT
ATOM      1  C   UNL     1     -35.847  -5.724 -16.800  1.00  0.00     0.165 A 
ATOM      2  C   UNL     1     -37.029  -4.930 -16.827  1.00  0.00     0.207 A 
ATOM      3  C   UNL     1     -38.157  -5.333 -16.058  1.00  0.00     0.208 A 
ATOM      4  C   UNL     1     -38.093  -6.501 -15.287  1.00  0.00     0.184 A 
ATOM      5  C   UNL     1     -36.922  -7.279 -15.265  1.00  0.00     0.025 A 
ATOM      6  C   UNL     1     -35.812  -6.892 -16.015  1.00  0.00     0.062 A 
ATOM      7  C   UNL     1     -36.900  -8.438 -14.480  1.00  0.00     0.020 A 
ATOM      8  C   UNL     1     -38.031  -8.789 -13.746  1.00  0.00     0.094 A 
ATOM      9  C   UNL     1     -39.161  -7.969 -13.814  1.00  0.00     0.336 A 
ATOM     10  O   UNL     1     -40.193  -8.267 -13.158  1.00  0.00    -0.246 OA
ATOM     11  O   UNL     1     -39.152  -6.874 -14.567  1.00  0.00    -0.419 OA
ENDROOT
BRANCH   1  12
ATOM     12  O   UNL     1     -34.726  -5.340 -17.553  1.00  0.00    -0.493 OA
ATOM     13  C   UNL     1     -33.376  -5.385 -17.100  1.00  0.00     0.278 C 
ENDBRANCH   1  12
BRANCH   2  14
ATOM     14  O   UNL     1     -37.130  -3.751 -17.591  1.00  0.00    -0.490 OA
ATOM     15  C   UNL     1     -36.663  -2.452 -17.243  1.00  0.00     0.278 C 
ENDBRANCH   2  14
BRANCH   3  16
ATOM     16  O   UNL     1     -39.374  -4.621 -16.014  1.00  0.00    -0.490 OA
ATOM     17  C   UNL     1     -39.679  -3.494 -15.201  1.00  0.00     0.278 C 
ENDBRANCH   3  16
TORSDOF 3
ENDMDL
MODEL 3
REMARK VINA RESULT:    -5.682      1.799      3.840
REMARK INTER + INTRA:          -6.952
REMARK INTER:                  -6.648
REMARK INTRA:                  -0.304
REMARK UNBOUND:                -0.274
REMARK SMILES COc1cc2ccc(=O)oc2c(OC)c1OC
REMARK SMILES IDX 3 1 15 2 12 3 11 4 5 5 4 6 6 7 7 8 8 9 9 10 10 11 2 12 1 13
REMARK SMILES IDX 16 14 17 15 13 16 14 17
REMARK H PARENT
REMARK Flexibility Score: inf
ROOT
ATOM      1  C   UNL     1     -39.912  -4.430 -11.876  1.00  0.00     0.165 A 
ATOM      2  C   UNL     1     -38.643  -3.928 -12.285  1.00  0.00     0.207 A 
ATOM      3  C   UNL     1     -37.791  -4.749 -13.075  1.00  0.00     0.208 A 
ATOM      4  C   UNL     1     -38.207  -6.037 -13.441  1.00  0.00     0.184 A 
ATOM      5  C   UNL     1     -39.462  -6.524 -13.034  1.00  0.00     0.025 A 
ATOM      6  C   UNL     1     -40.303  -5.726 -12.260  1.00  0.00     0.062 A 
ATOM      7  C   UNL     1     -39.838  -7.815 -13.422  1.00  0.00     0.020 A 
ATOM      8  C   UNL     1     -38.968  -8.579 -14.196  1.00  0.00     0.094 A 
ATOM      9  C   UNL     1     -37.736  -8.032 -14.565  1.00  0.00     0.336 A 
ATOM     10  O   UNL     1     -36.934  -8.704 -15.264  1.00  0.00    -0.246 OA
ATOM     11  O   UNL     1     -37.406  -6.803 -14.182  1.00  0.00    -0.419 OA
ENDROOT
BRANCH   1  12
ATOM     12  O   UNL     1     -40.764  -3.631 -11.096  1.00  0.00    -0.493 OA
ATOM     13  C   UNL     1     -40.882  -3.699  -9.678  1.00  0.00     0.278 C 
ENDBRANCH   1  12
BRANCH   2  14
ATOM     14  O   UNL     1     -38.191  -2.641 -11.936  1.00  0.00    -0.490 OA
ATOM     15  C   UNL     1     -37.465  -2.266 -10.770  1.00  0.00     0.278 C 
ENDBRANCH   2  14
BRANCH   3  16
ATOM     16  O   UNL     1     -36.517  -4.352 -13.532  1.00  0.00    -0.490 OA
ATOM     17  C   UNL     1     -36.228  -3.534 -14.661  1.00  0.00     0.278 C 
ENDBRANCH   3  16
TORSDOF 3
ENDMDL
MODEL 4
REMARK VINA RESULT:    -5.643      3.927      7.176
REMARK INTER + INTRA:          -6.907
REMARK INTER:                  -6.614
REMARK INTRA:                  -0.293
REMARK UNBOUND:                -0.274
REMARK SMILES COc1cc2ccc(=O)oc2c(OC)c1OC
REMARK SMILES IDX 3 1 15 2 12 3 11 4 5 5 4 6 6 7 7 8 8 9 9 10 10 11 2 12 1 13
REMARK SMILES IDX 16 14 17 15 13 16 14 17
REMARK H PARENT
REMARK Flexibility Score: inf
ROOT
ATOM      1  C   UNL     1     -34.953  -5.390 -15.959  1.00  0.00     0.165 A 
ATOM      2  C   UNL     1     -35.848  -5.303 -17.064  1.00  0.00     0.207 A 
ATOM      3  C   UNL     1     -35.441  -4.608 -18.237  1.00  0.00     0.208 A 
ATOM      4  C   UNL     1     -34.171  -4.018 -18.292  1.00  0.00     0.184 A 
ATOM      5  C   UNL     1     -33.293  -4.108 -17.197  1.00  0.00     0.025 A 
ATOM      6  C   UNL     1     -33.683  -4.788 -16.044  1.00  0.00     0.062 A 
ATOM      7  C   UNL     1     -32.035  -3.505 -17.295  1.00  0.00     0.020 A 
ATOM      8  C   UNL     1     -31.684  -2.836 -18.466  1.00  0.00     0.094 A 
ATOM      9  C   UNL     1     -32.605  -2.785 -19.515  1.00  0.00     0.336 A 
ATOM     10  O   UNL     1     -32.311  -2.186 -20.582  1.00  0.00    -0.246 OA
ATOM     11  O   UNL     1     -33.794  -3.367 -19.394  1.00  0.00    -0.419 OA
ENDROOT
BRANCH   1  12
ATOM     12  O   UNL     1     -35.340  -6.072 -14.795  1.00  0.00    -0.493 OA
ATOM     13  C   UNL     1     -35.664  -5.457 -13.551  1.00  0.00     0.278 C 
ENDBRANCH   1  12
BRANCH   2  14
ATOM     14  O   UNL     1     -37.131  -5.883 -17.044  1.00  0.00    -0.490 OA
ATOM     15  C   UNL     1     -38.304  -5.366 -16.425  1.00  0.00     0.278 C 
ENDBRANCH   2  14
BRANCH   3  16
ATOM     16  O   UNL     1     -36.248  -4.463 -19.385  1.00  0.00    -0.490 OA
ATOM     17  C   UNL     1     -37.316  -3.541 -19.571  1.00  0.00     0.278 C 
ENDBRANCH   3  16
TORSDOF 3
ENDMDL
MODEL 5
REMARK VINA RESULT:    -5.574      1.450      5.478
REMARK INTER + INTRA:          -6.825
REMARK INTER:                  -6.570
REMARK INTRA:                  -0.255
REMARK UNBOUND:                -0.274
REMARK SMILES COc1cc2ccc(=O)oc2c(OC)c1OC
REMARK SMILES IDX 3 1 15 2 12 3 11 4 5 5 4 6 6 7 7 8 8 9 9 10 10 11 2 12 1 13
REMARK SMILES IDX 16 14 17 15 13 16 14 17
REMARK H PARENT
REMARK Flexibility Score: inf
ROOT
ATOM      1  C   UNL     1     -38.988  -7.035 -13.374  1.00  0.00     0.165 A 
ATOM      2  C   UNL     1     -37.598  -6.904 -13.657  1.00  0.00     0.207 A 
ATOM      3  C   UNL     1     -36.953  -5.659 -13.417  1.00  0.00     0.208 A 
ATOM      4  C   UNL     1     -37.687  -4.580 -12.907  1.00  0.00     0.184 A 
ATOM      5  C   UNL     1     -39.059  -4.717 -12.631  1.00  0.00     0.025 A 
ATOM      6  C   UNL     1     -39.700  -5.933 -12.863  1.00  0.00     0.062 A 
ATOM      7  C   UNL     1     -39.755  -3.615 -12.123  1.00  0.00     0.020 A 
ATOM      8  C   UNL     1     -39.077  -2.417 -11.905  1.00  0.00     0.094 A 
ATOM      9  C   UNL     1     -37.713  -2.350 -12.202  1.00  0.00     0.336 A 
ATOM     10  O   UNL     1     -37.080  -1.279 -12.013  1.00  0.00    -0.246 OA
ATOM     11  O   UNL     1     -37.078  -3.415 -12.683  1.00  0.00    -0.419 OA
ENDROOT
BRANCH   1  12
ATOM     12  O   UNL     1     -39.639  -8.257 -13.607  1.00  0.00    -0.493 OA
ATOM     13  C   UNL     1     -41.046  -8.466 -13.529  1.00  0.00     0.278 C 
ENDBRANCH   1  12
BRANCH   2  14
ATOM     14  O   UNL     1     -36.829  -7.966 -14.170  1.00  0.00    -0.490 OA
ATOM     15  C   UNL     1     -36.732  -8.388 -15.526  1.00  0.00     0.278 C 
ENDBRANCH   2  14
BRANCH   3  16
ATOM     16  O   UNL     1     -35.584  -5.422 -13.662  1.00  0.00    -0.490 OA
ATOM     17  C   UNL     1     -34.986  -5.049 -14.898  1.00  0.00     0.278 C 
ENDBRANCH   3  16
TORSDOF 3
ENDMDL
MODEL 6
REMARK VINA RESULT:    -5.500      2.036      4.804
REMARK INTER + INTRA:          -6.738
REMARK INTER:                  -6.492
REMARK INTRA:                  -0.246
REMARK UNBOUND:                -0.274
REMARK SMILES COc1cc2ccc(=O)oc2c(OC)c1OC
REMARK SMILES IDX 3 1 15 2 12 3 11 4 5 5 4 6 6 7 7 8 8 9 9 10 10 11 2 12 1 13
REMARK SMILES IDX 16 14 17 15 13 16 14 17
REMARK H PARENT
REMARK Flexibility Score: inf
ROOT
ATOM      1  C   UNL     1     -37.596  -7.169 -14.029  1.00  0.00     0.165 A 
ATOM      2  C   UNL     1     -38.138  -5.907 -13.655  1.00  0.00     0.207 A 
ATOM      3  C   UNL     1     -37.706  -4.734 -14.334  1.00  0.00     0.208 A 
ATOM      4  C   UNL     1     -36.756  -4.833 -15.360  1.00  0.00     0.184 A 
ATOM      5  C   UNL     1     -36.225  -6.083 -15.724  1.00  0.00     0.025 A 
ATOM      6  C   UNL     1     -36.644  -7.238 -15.064  1.00  0.00     0.062 A 
ATOM      7  C   UNL     1     -35.280  -6.137 -16.754  1.00  0.00     0.020 A 
ATOM      8  C   UNL     1     -34.890  -4.959 -17.388  1.00  0.00     0.094 A 
ATOM      9  C   UNL     1     -35.457  -3.751 -16.975  1.00  0.00     0.336 A 
ATOM     10  O   UNL     1     -35.119  -2.675 -17.534  1.00  0.00    -0.246 OA
ATOM     11  O   UNL     1     -36.354  -3.731 -15.994  1.00  0.00    -0.419 OA
ENDROOT
BRANCH   1  12
ATOM     12  O   UNL     1     -38.012  -8.336 -13.368  1.00  0.00    -0.493 OA
ATOM     13  C   UNL     1     -39.143  -9.124 -13.726  1.00  0.00     0.278 C 
ENDBRANCH   1  12
BRANCH   2  14
ATOM     14  O   UNL     1     -39.093  -5.769 -12.629  1.00  0.00    -0.490 OA
ATOM     15  C   UNL     1     -40.496  -5.994 -12.718  1.00  0.00     0.278 C 
ENDBRANCH   2  14
BRANCH   3  16
ATOM     16  O   UNL     1     -38.177  -3.436 -14.042  1.00  0.00    -0.490 OA
ATOM     17  C   UNL     1     -39.367  -2.827 -14.530  1.00  0.00     0.278 C 
ENDBRANCH   3  16
TORSDOF 3
ENDMDL
MODEL 7
REMARK VINA RESULT:    -5.489      1.780      5.447
REMARK INTER + INTRA:          -6.725
REMARK INTER:                  -6.476
REMARK INTRA:                  -0.249
REMARK UNBOUND:                -0.274
REMARK SMILES COc1cc2ccc(=O)oc2c(OC)c1OC
REMARK SMILES IDX 3 1 15 2 12 3 11 4 5 5 4 6 6 7 7 8 8 9 9 10 10 11 2 12 1 13
REMARK SMILES IDX 16 14 17 15 13 16 14 17
REMARK H PARENT
REMARK Flexibility Score: inf
ROOT
ATOM      1  C   UNL     1     -39.436  -5.470 -12.650  1.00  0.00     0.165 A 
ATOM      2  C   UNL     1     -39.079  -6.651 -13.361  1.00  0.00     0.207 A 
ATOM      3  C   UNL     1     -38.094  -6.578 -14.384  1.00  0.00     0.208 A 
ATOM      4  C   UNL     1     -37.489  -5.349 -14.682  1.00  0.00     0.184 A 
ATOM      5  C   UNL     1     -37.847  -4.187 -13.976  1.00  0.00     0.025 A 
ATOM      6  C   UNL     1     -38.811  -4.250 -12.971  1.00  0.00     0.062 A 
ATOM      7  C   UNL     1     -37.218  -2.981 -14.304  1.00  0.00     0.020 A 
ATOM      8  C   UNL     1     -36.259  -2.962 -15.315  1.00  0.00     0.094 A 
ATOM      9  C   UNL     1     -35.952  -4.154 -15.977  1.00  0.00     0.336 A 
ATOM     10  O   UNL     1     -35.089  -4.160 -16.893  1.00  0.00    -0.246 OA
ATOM     11  O   UNL     1     -36.566  -5.285 -15.642  1.00  0.00    -0.419 OA
ENDROOT
BRANCH   1  12
ATOM     12  O   UNL     1     -40.407  -5.527 -11.637  1.00  0.00    -0.493 OA
ATOM     13  C   UNL     1     -40.508  -4.620 -10.543  1.00  0.00     0.278 C 
ENDBRANCH   1  12
BRANCH   2  14
ATOM     14  O   UNL     1     -39.666  -7.902 -13.090  1.00  0.00    -0.490 OA
ATOM     15  C   UNL     1     -40.816  -8.471 -13.708  1.00  0.00     0.278 C 
ENDBRANCH   2  14
BRANCH   3  16
ATOM     16  O   UNL     1     -37.668  -7.685 -15.148  1.00  0.00    -0.490 OA
ATOM     17  C   UNL     1     -36.701  -8.661 -14.776  1.00  0.00     0.278 C 
ENDBRANCH   3  16
TORSDOF 3
ENDMDL
MODEL 8
REMARK VINA RESULT:    -5.342      1.884      3.580
REMARK INTER + INTRA:          -6.552
REMARK INTER:                  -6.275
REMARK INTRA:                  -0.277
REMARK UNBOUND:                -0.274
REMARK SMILES COc1cc2ccc(=O)oc2c(OC)c1OC
REMARK SMILES IDX 3 1 15 2 12 3 11 4 5 5 4 6 6 7 7 8 8 9 9 10 10 11 2 12 1 13
REMARK SMILES IDX 16 14 17 15 13 16 14 17
REMARK H PARENT
REMARK Flexibility Score: inf
ROOT
ATOM      1  C   UNL     1     -38.226  -2.960 -14.163  1.00  0.00     0.165 A 
ATOM      2  C   UNL     1     -37.102  -3.608 -14.750  1.00  0.00     0.207 A 
ATOM      3  C   UNL     1     -37.039  -5.029 -14.752  1.00  0.00     0.208 A 
ATOM      4  C   UNL     1     -38.080  -5.773 -14.179  1.00  0.00     0.184 A 
ATOM      5  C   UNL     1     -39.187  -5.126 -13.602  1.00  0.00     0.025 A 
ATOM      6  C   UNL     1     -39.256  -3.734 -13.596  1.00  0.00     0.062 A 
ATOM      7  C   UNL     1     -40.204  -5.907 -13.042  1.00  0.00     0.020 A 
ATOM      8  C   UNL     1     -40.095  -7.296 -13.069  1.00  0.00     0.094 A 
ATOM      9  C   UNL     1     -38.967  -7.873 -13.658  1.00  0.00     0.336 A 
ATOM     10  O   UNL     1     -38.848  -9.125 -13.694  1.00  0.00    -0.246 OA
ATOM     11  O   UNL     1     -38.017  -7.105 -14.183  1.00  0.00    -0.419 OA
ENDROOT
BRANCH   1  12
ATOM     12  O   UNL     1     -38.302  -1.558 -14.153  1.00  0.00    -0.493 OA
ATOM     13  C   UNL     1     -38.112  -0.733 -13.008  1.00  0.00     0.278 C 
ENDBRANCH   1  12
BRANCH   2  14
ATOM     14  O   UNL     1     -36.038  -2.893 -15.333  1.00  0.00    -0.490 OA
ATOM     15  C   UNL     1     -35.989  -2.327 -16.639  1.00  0.00     0.278 C 
ENDBRANCH   2  14
BRANCH   3  16
ATOM     16  O   UNL     1     -35.973  -5.770 -15.304  1.00  0.00    -0.490 OA
ATOM     17  C   UNL     1     -35.788  -6.115 -16.672  1.00  0.00     0.278 C 
ENDBRANCH   3  16
TORSDOF 3
ENDMDL
