MODEL 1
REMARK VINA RESULT:    -3.553      0.000      0.000
REMARK INTER + INTRA:          -6.523
REMARK INTER:                  -5.214
REMARK INTRA:                  -1.309
REMARK UNBOUND:                -1.309
REMARK SMILES CCCCCC(=O)CCCCC
REMARK SMILES IDX 6 1 7 2 5 3 4 4 3 5 2 6 1 7 8 8 9 9 10 10 11 11 12 12
REMARK H PARENT
REMARK Flexibility Score: inf
ROOT
ATOM      1  C   UNL     1     105.768 107.900 104.232  1.00  0.00     0.132 C 
ATOM      2  O   UNL     1     104.977 108.667 104.761  1.00  0.00    -0.300 OA
ENDROOT
BRANCH   1   3
ATOM      3  C   UNL     1     106.834 107.238 105.065  1.00  0.00     0.075 C 
BRANCH   3   4
ATOM      4  C   UNL     1     107.485 106.057 104.330  1.00  0.00     0.008 C 
BRANCH   4   5
ATOM      5  C   UNL     1     107.171 104.712 105.007  1.00  0.00     0.000 C 
BRANCH   5   6
ATOM      6  C   UNL     1     107.036 103.562 103.998  1.00  0.00    -0.003 C 
ATOM      7  C   UNL     1     107.541 103.937 102.605  1.00  0.00     0.004 C 
ENDBRANCH   5   6
ENDBRANCH   4   5
ENDBRANCH   3   4
ENDBRANCH   1   3
BRANCH   1   8
ATOM      8  C   UNL     1     105.690 107.661 102.747  1.00  0.00     0.075 C 
BRANCH   8   9
ATOM      9  C   UNL     1     104.341 107.056 102.324  1.00  0.00     0.008 C 
BRANCH   9  10
ATOM     10  C   UNL     1     104.375 105.534 102.093  1.00  0.00     0.000 C 
BRANCH  10  11
ATOM     11  C   UNL     1     103.329 104.783 102.929  1.00  0.00    -0.003 C 
ATOM     12  C   UNL     1     103.590 104.958 104.422  1.00  0.00     0.004 C 
ENDBRANCH  10  11
ENDBRANCH   9  10
ENDBRANCH   8   9
ENDBRANCH   1   8
TORSDOF 8
ENDMDL
MODEL 2
REMARK VINA RESULT:    -3.530      1.460      2.021
REMARK INTER + INTRA:          -6.489
REMARK INTER:                  -5.287
REMARK INTRA:                  -1.203
REMARK UNBOUND:                -1.309
REMARK SMILES CCCCCC(=O)CCCCC
REMARK SMILES IDX 6 1 7 2 5 3 4 4 3 5 2 6 1 7 8 8 9 9 10 10 11 11 12 12
REMARK H PARENT
REMARK Flexibility Score: inf
ROOT
ATOM      1  C   UNL     1     107.041 107.363 103.993  1.00  0.00     0.132 C 
ATOM      2  O   UNL     1     107.758 106.995 104.912  1.00  0.00    -0.300 OA
ENDROOT
BRANCH   1   3
ATOM      3  C   UNL     1     107.617 107.493 102.606  1.00  0.00     0.075 C 
BRANCH   3   4
ATOM      4  C   UNL     1     108.305 106.199 102.150  1.00  0.00     0.008 C 
BRANCH   4   5
ATOM      5  C   UNL     1     107.293 105.073 101.875  1.00  0.00     0.000 C 
BRANCH   5   6
ATOM      6  C   UNL     1     107.658 103.765 102.592  1.00  0.00    -0.003 C 
ATOM      7  C   UNL     1     106.983 103.633 103.957  1.00  0.00     0.004 C 
ENDBRANCH   5   6
ENDBRANCH   4   5
ENDBRANCH   3   4
ENDBRANCH   1   3
BRANCH   1   8
ATOM      8  C   UNL     1     105.605 107.722 104.268  1.00  0.00     0.075 C 
BRANCH   8   9
ATOM      9  C   UNL     1     104.810 107.972 102.977  1.00  0.00     0.008 C 
BRANCH   9  10
ATOM     10  C   UNL     1     104.166 106.709 102.375  1.00  0.00     0.000 C 
BRANCH  10  11
ATOM     11  C   UNL     1     103.880 105.629 103.427  1.00  0.00    -0.003 C 
ATOM     12  C   UNL     1     103.448 104.322 102.770  1.00  0.00     0.004 C 
ENDBRANCH  10  11
ENDBRANCH   9  10
ENDBRANCH   8   9
ENDBRANCH   1   8
TORSDOF 8
ENDMDL
MODEL 3
REMARK VINA RESULT:    -3.490      1.900      4.033
REMARK INTER + INTRA:          -6.432
REMARK INTER:                  -5.148
REMARK INTRA:                  -1.284
REMARK UNBOUND:                -1.309
REMARK SMILES CCCCCC(=O)CCCCC
REMARK SMILES IDX 6 1 7 2 5 3 4 4 3 5 2 6 1 7 8 8 9 9 10 10 11 11 12 12
REMARK H PARENT
REMARK Flexibility Score: inf
ROOT
ATOM      1  C   UNL     1     107.104 104.306 104.125  1.00  0.00     0.132 C 
ATOM      2  O   UNL     1     107.072 103.206 104.656  1.00  0.00    -0.300 OA
ENDROOT
BRANCH   1   3
ATOM      3  C   UNL     1     107.256 104.407 102.630  1.00  0.00     0.075 C 
BRANCH   3   4
ATOM      4  C   UNL     1     106.024 103.864 101.892  1.00  0.00     0.008 C 
BRANCH   4   5
ATOM      5  C   UNL     1     104.854 104.863 101.911  1.00  0.00     0.000 C 
BRANCH   5   6
ATOM      6  C   UNL     1     103.616 104.306 102.631  1.00  0.00    -0.003 C 
ATOM      7  C   UNL     1     103.468 104.847 104.053  1.00  0.00     0.004 C 
ENDBRANCH   5   6
ENDBRANCH   4   5
ENDBRANCH   3   4
ENDBRANCH   1   3
BRANCH   1   8
ATOM      8  C   UNL     1     107.034 105.545 104.979  1.00  0.00     0.075 C 
BRANCH   8   9
ATOM      9  C   UNL     1     106.934 106.827 104.136  1.00  0.00     0.008 C 
BRANCH   9  10
ATOM     10  C   UNL     1     105.887 107.836 104.642  1.00  0.00     0.000 C 
BRANCH  10  11
ATOM     11  C   UNL     1     104.855 108.210 103.568  1.00  0.00    -0.003 C 
ATOM     12  C   UNL     1     105.526 108.442 102.218  1.00  0.00     0.004 C 
ENDBRANCH  10  11
ENDBRANCH   9  10
ENDBRANCH   8   9
ENDBRANCH   1   8
TORSDOF 8
ENDMDL
MODEL 4
REMARK VINA RESULT:    -3.442      1.310      3.372
REMARK INTER + INTRA:          -6.360
REMARK INTER:                  -5.207
REMARK INTRA:                  -1.153
REMARK UNBOUND:                -1.309
REMARK SMILES CCCCCC(=O)CCCCC
REMARK SMILES IDX 6 1 7 2 5 3 4 4 3 5 2 6 1 7 8 8 9 9 10 10 11 11 12 12
REMARK H PARENT
REMARK Flexibility Score: inf
ROOT
ATOM      1  C   UNL     1     104.700 107.272 104.121  1.00  0.00     0.132 C 
ATOM      2  O   UNL     1     105.302 107.884 104.991  1.00  0.00    -0.300 OA
ENDROOT
BRANCH   1   3
ATOM      3  C   UNL     1     104.497 107.906 102.770  1.00  0.00     0.075 C 
BRANCH   3   4
ATOM      4  C   UNL     1     105.816 108.419 102.174  1.00  0.00     0.008 C 
BRANCH   4   5
ATOM      5  C   UNL     1     106.845 107.290 101.994  1.00  0.00     0.000 C 
BRANCH   5   6
ATOM      6  C   UNL     1     108.230 107.662 102.542  1.00  0.00    -0.003 C 
ATOM      7  C   UNL     1     108.505 107.049 103.915  1.00  0.00     0.004 C 
ENDBRANCH   5   6
ENDBRANCH   4   5
ENDBRANCH   3   4
ENDBRANCH   1   3
BRANCH   1   8
ATOM      8  C   UNL     1     104.135 105.910 104.426  1.00  0.00     0.075 C 
BRANCH   8   9
ATOM      9  C   UNL     1     104.947 104.782 103.769  1.00  0.00     0.008 C 
BRANCH   9  10
ATOM     10  C   UNL     1     106.198 104.358 104.560  1.00  0.00     0.000 C 
BRANCH  10  11
ATOM     11  C   UNL     1     107.153 103.483 103.736  1.00  0.00    -0.003 C 
ATOM     12  C   UNL     1     106.989 103.745 102.243  1.00  0.00     0.004 C 
ENDBRANCH  10  11
ENDBRANCH   9  10
ENDBRANCH   8   9
ENDBRANCH   1   8
TORSDOF 8
ENDMDL
MODEL 5
REMARK VINA RESULT:    -3.434      2.146      3.651
REMARK INTER + INTRA:          -6.349
REMARK INTER:                  -5.218
REMARK INTRA:                  -1.131
REMARK UNBOUND:                -1.309
REMARK SMILES CCCCCC(=O)CCCCC
REMARK SMILES IDX 6 1 7 2 5 3 4 4 3 5 2 6 1 7 8 8 9 9 10 10 11 11 12 12
REMARK H PARENT
REMARK Flexibility Score: inf
ROOT
ATOM      1  C   UNL     1     107.588 105.250 102.625  1.00  0.00     0.132 C 
ATOM      2  O   UNL     1     107.688 104.216 101.980  1.00  0.00    -0.300 OA
ENDROOT
BRANCH   1   3
ATOM      3  C   UNL     1     107.165 105.189 104.070  1.00  0.00     0.075 C 
BRANCH   3   4
ATOM      4  C   UNL     1     105.956 104.263 104.273  1.00  0.00     0.008 C 
BRANCH   4   5
ATOM      5  C   UNL     1     104.707 104.776 103.535  1.00  0.00     0.000 C 
BRANCH   5   6
ATOM      6  C   UNL     1     103.505 104.963 104.473  1.00  0.00    -0.003 C 
ATOM      7  C   UNL     1     103.919 105.353 105.892  1.00  0.00     0.004 C 
ENDBRANCH   5   6
ENDBRANCH   4   5
ENDBRANCH   3   4
ENDBRANCH   1   3
BRANCH   1   8
ATOM      8  C   UNL     1     107.849 106.572 101.953  1.00  0.00     0.075 C 
BRANCH   8   9
ATOM      9  C   UNL     1     107.026 107.712 102.573  1.00  0.00     0.008 C 
BRANCH   9  10
ATOM     10  C   UNL     1     105.617 107.875 101.971  1.00  0.00     0.000 C 
BRANCH  10  11
ATOM     11  C   UNL     1     104.672 108.672 102.882  1.00  0.00    -0.003 C 
ATOM     12  C   UNL     1     105.021 108.466 104.352  1.00  0.00     0.004 C 
ENDBRANCH  10  11
ENDBRANCH   9  10
ENDBRANCH   8   9
ENDBRANCH   1   8
TORSDOF 8
ENDMDL
MODEL 6
REMARK VINA RESULT:    -3.426      1.654      3.017
REMARK INTER + INTRA:          -6.337
REMARK INTER:                  -5.284
REMARK INTRA:                  -1.053
REMARK UNBOUND:                -1.309
REMARK SMILES CCCCCC(=O)CCCCC
REMARK SMILES IDX 6 1 7 2 5 3 4 4 3 5 2 6 1 7 8 8 9 9 10 10 11 11 12 12
REMARK H PARENT
REMARK Flexibility Score: inf
ROOT
ATOM      1  C   UNL     1     104.639 107.082 105.571  1.00  0.00     0.132 C 
ATOM      2  O   UNL     1     104.475 107.202 106.777  1.00  0.00    -0.300 OA
ENDROOT
BRANCH   1   3
ATOM      3  C   UNL     1     104.180 105.826 104.878  1.00  0.00     0.075 C 
BRANCH   3   4
ATOM      4  C   UNL     1     105.227 104.707 104.969  1.00  0.00     0.008 C 
BRANCH   4   5
ATOM      5  C   UNL     1     105.707 104.252 103.580  1.00  0.00     0.000 C 
BRANCH   5   6
ATOM      6  C   UNL     1     107.168 103.779 103.588  1.00  0.00    -0.003 C 
ATOM      7  C   UNL     1     107.576 103.102 102.280  1.00  0.00     0.004 C 
ENDBRANCH   5   6
ENDBRANCH   4   5
ENDBRANCH   3   4
ENDBRANCH   1   3
BRANCH   1   8
ATOM      8  C   UNL     1     105.338 108.174 104.806  1.00  0.00     0.075 C 
BRANCH   8   9
ATOM      9  C   UNL     1     105.027 108.121 103.301  1.00  0.00     0.008 C 
BRANCH   9  10
ATOM     10  C   UNL     1     106.231 107.744 102.418  1.00  0.00     0.000 C 
BRANCH  10  11
ATOM     11  C   UNL     1     107.500 107.459 103.235  1.00  0.00    -0.003 C 
ATOM     12  C   UNL     1     108.735 107.436 102.341  1.00  0.00     0.004 C 
ENDBRANCH  10  11
ENDBRANCH   9  10
ENDBRANCH   8   9
ENDBRANCH   1   8
TORSDOF 8
ENDMDL
MODEL 7
REMARK VINA RESULT:    -3.406      1.490      3.233
REMARK INTER + INTRA:          -6.308
REMARK INTER:                  -5.250
REMARK INTRA:                  -1.058
REMARK UNBOUND:                -1.309
REMARK SMILES CCCCCC(=O)CCCCC
REMARK SMILES IDX 6 1 7 2 5 3 4 4 3 5 2 6 1 7 8 8 9 9 10 10 11 11 12 12
REMARK H PARENT
REMARK Flexibility Score: inf
ROOT
ATOM      1  C   UNL     1     106.339 107.488 104.168  1.00  0.00     0.132 C 
ATOM      2  O   UNL     1     107.201 107.362 105.024  1.00  0.00    -0.300 OA
ENDROOT
BRANCH   1   3
ATOM      3  C   UNL     1     104.889 107.545 104.573  1.00  0.00     0.075 C 
BRANCH   3   4
ATOM      4  C   UNL     1     104.528 106.429 105.564  1.00  0.00     0.008 C 
BRANCH   4   5
ATOM      5  C   UNL     1     104.538 105.042 104.899  1.00  0.00     0.000 C 
BRANCH   5   6
ATOM      6  C   UNL     1     103.372 104.851 103.918  1.00  0.00    -0.003 C 
ATOM      7  C   UNL     1     103.840 104.643 102.478  1.00  0.00     0.004 C 
ENDBRANCH   5   6
ENDBRANCH   4   5
ENDBRANCH   3   4
ENDBRANCH   1   3
BRANCH   1   8
ATOM      8  C   UNL     1     106.736 107.542 102.716  1.00  0.00     0.075 C 
BRANCH   8   9
ATOM      9  C   UNL     1     107.913 106.604 102.400  1.00  0.00     0.008 C 
BRANCH   9  10
ATOM     10  C   UNL     1     107.494 105.214 101.886  1.00  0.00     0.000 C 
BRANCH  10  11
ATOM     11  C   UNL     1     107.475 104.153 102.995  1.00  0.00    -0.003 C 
ATOM     12  C   UNL     1     107.705 102.757 102.424  1.00  0.00     0.004 C 
ENDBRANCH  10  11
ENDBRANCH   9  10
ENDBRANCH   8   9
ENDBRANCH   1   8
TORSDOF 8
ENDMDL
MODEL 8
REMARK VINA RESULT:    -3.386      2.123      4.461
REMARK INTER + INTRA:          -6.279
REMARK INTER:                  -5.040
REMARK INTRA:                  -1.238
REMARK UNBOUND:                -1.309
REMARK SMILES CCCCCC(=O)CCCCC
REMARK SMILES IDX 6 1 7 2 5 3 4 4 3 5 2 6 1 7 8 8 9 9 10 10 11 11 12 12
REMARK H PARENT
REMARK Flexibility Score: inf
ROOT
ATOM      1  C   UNL     1     106.521 104.241 102.710  1.00  0.00     0.132 C 
ATOM      2  O   UNL     1     106.792 103.540 103.674  1.00  0.00    -0.300 OA
ENDROOT
BRANCH   1   3
ATOM      3  C   UNL     1     105.080 104.468 102.336  1.00  0.00     0.075 C 
BRANCH   3   4
ATOM      4  C   UNL     1     104.234 104.888 103.547  1.00  0.00     0.008 C 
BRANCH   4   5
ATOM      5  C   UNL     1     104.330 106.398 103.822  1.00  0.00     0.000 C 
BRANCH   5   6
ATOM      6  C   UNL     1     104.260 107.237 102.537  1.00  0.00    -0.003 C 
ATOM      7  C   UNL     1     104.496 108.726 102.791  1.00  0.00     0.004 C 
ENDBRANCH   5   6
ENDBRANCH   4   5
ENDBRANCH   3   4
ENDBRANCH   1   3
BRANCH   1   8
ATOM      8  C   UNL     1     107.634 104.833 101.886  1.00  0.00     0.075 C 
BRANCH   8   9
ATOM      9  C   UNL     1     107.598 106.370 101.877  1.00  0.00     0.008 C 
BRANCH   9  10
ATOM     10  C   UNL     1     108.461 107.029 102.968  1.00  0.00     0.000 C 
BRANCH  10  11
ATOM     11  C   UNL     1     107.666 107.347 104.243  1.00  0.00    -0.003 C 
ATOM     12  C   UNL     1     108.022 106.381 105.368  1.00  0.00     0.004 C 
ENDBRANCH  10  11
ENDBRANCH   9  10
ENDBRANCH   8   9
ENDBRANCH   1   8
TORSDOF 8
ENDMDL
