MODEL 1
REMARK VINA RESULT:    -5.244      0.000      0.000
REMARK INTER + INTRA:          -5.645
REMARK INTER:                  -5.551
REMARK INTRA:                  -0.094
REMARK UNBOUND:                -0.094
REMARK SMILES C=C(C)[C@@H]1CC=C(C)C(=O)C1
REMARK SMILES IDX 8 1 7 2 6 3 5 4 4 5 11 6 9 7 10 8 2 9 1 10 3 11
REMARK H PARENT
REMARK Flexibility Score: inf
ROOT
ATOM      1  C   UNL     1      23.222  53.598   9.443  1.00  0.00     0.048 C 
ATOM      2  C   UNL     1      24.038  54.338   8.419  1.00  0.00    -0.012 C 
ATOM      3  C   UNL     1      24.164  55.674   8.505  1.00  0.00    -0.019 C 
ATOM      4  C   UNL     1      24.985  56.463   7.518  1.00  0.00     0.036 C 
ATOM      5  C   UNL     1      24.940  55.818   6.120  1.00  0.00     0.025 C 
ATOM      6  C   UNL     1      25.380  54.344   6.196  1.00  0.00     0.089 C 
ATOM      7  C   UNL     1      24.595  53.613   7.251  1.00  0.00     0.158 C 
ATOM      8  O   UNL     1      24.446  52.365   7.150  1.00  0.00    -0.295 OA
ENDROOT
BRANCH   5   9
ATOM      9  C   UNL     1      25.781  56.597   5.120  1.00  0.00    -0.077 C 
ATOM     10  C   UNL     1      25.632  57.927   5.005  1.00  0.00     0.008 C 
ATOM     11  C   UNL     1      26.794  55.909   4.237  1.00  0.00     0.039 C 
ENDBRANCH   5   9
TORSDOF 1
ENDMDL
MODEL 2
REMARK VINA RESULT:    -5.191      5.377      6.060
REMARK INTER + INTRA:          -5.589
REMARK INTER:                  -5.493
REMARK INTRA:                  -0.096
REMARK UNBOUND:                -0.094
REMARK SMILES C=C(C)[C@@H]1CC=C(C)C(=O)C1
REMARK SMILES IDX 8 1 7 2 6 3 5 4 4 5 11 6 9 7 10 8 2 9 1 10 3 11
REMARK H PARENT
REMARK Flexibility Score: inf
ROOT
ATOM      1  C   UNL     1      25.825  54.463   9.897  1.00  0.00     0.048 C 
ATOM      2  C   UNL     1      26.952  55.323  10.398  1.00  0.00    -0.012 C 
ATOM      3  C   UNL     1      26.781  56.652  10.507  1.00  0.00    -0.019 C 
ATOM      4  C   UNL     1      27.870  57.557  11.020  1.00  0.00     0.036 C 
ATOM      5  C   UNL     1      29.262  57.026  10.630  1.00  0.00     0.025 C 
ATOM      6  C   UNL     1      29.436  55.575  11.113  1.00  0.00     0.089 C 
ATOM      7  C   UNL     1      28.286  54.722  10.650  1.00  0.00     0.158 C 
ATOM      8  O   UNL     1      28.458  53.481  10.513  1.00  0.00    -0.295 OA
ENDROOT
BRANCH   5   9
ATOM      9  C   UNL     1      30.370  57.924  11.161  1.00  0.00    -0.077 C 
ATOM     10  C   UNL     1      31.657  57.590  10.971  1.00  0.00     0.008 C 
ATOM     11  C   UNL     1      30.060  59.200  11.907  1.00  0.00     0.039 C 
ENDBRANCH   5   9
TORSDOF 1
ENDMDL
MODEL 3
REMARK VINA RESULT:    -5.182      2.043      4.179
REMARK INTER + INTRA:          -5.580
REMARK INTER:                  -5.482
REMARK INTRA:                  -0.098
REMARK UNBOUND:                -0.094
REMARK SMILES C=C(C)[C@@H]1CC=C(C)C(=O)C1
REMARK SMILES IDX 8 1 7 2 6 3 5 4 4 5 11 6 9 7 10 8 2 9 1 10 3 11
REMARK H PARENT
REMARK Flexibility Score: inf
ROOT
ATOM      1  C   UNL     1      25.262  58.174   5.762  1.00  0.00     0.048 C 
ATOM      2  C   UNL     1      25.234  56.730   6.182  1.00  0.00    -0.012 C 
ATOM      3  C   UNL     1      24.742  56.394   7.387  1.00  0.00    -0.019 C 
ATOM      4  C   UNL     1      24.672  54.962   7.850  1.00  0.00     0.036 C 
ATOM      5  C   UNL     1      25.842  54.139   7.280  1.00  0.00     0.025 C 
ATOM      6  C   UNL     1      25.879  54.253   5.745  1.00  0.00     0.089 C 
ATOM      7  C   UNL     1      25.862  55.697   5.322  1.00  0.00     0.158 C 
ATOM      8  O   UNL     1      26.358  56.015   4.207  1.00  0.00    -0.295 OA
ENDROOT
BRANCH   5   9
ATOM      9  C   UNL     1      25.770  52.686   7.727  1.00  0.00    -0.077 C 
ATOM     10  C   UNL     1      24.578  52.091   7.897  1.00  0.00     0.008 C 
ATOM     11  C   UNL     1      27.019  51.881   7.991  1.00  0.00     0.039 C 
ENDBRANCH   5   9
TORSDOF 1
ENDMDL
MODEL 4
REMARK VINA RESULT:    -5.169      2.020      4.412
REMARK INTER + INTRA:          -5.566
REMARK INTER:                  -5.478
REMARK INTRA:                  -0.088
REMARK UNBOUND:                -0.094
REMARK SMILES C=C(C)[C@@H]1CC=C(C)C(=O)C1
REMARK SMILES IDX 8 1 7 2 6 3 5 4 4 5 11 6 9 7 10 8 2 9 1 10 3 11
REMARK H PARENT
REMARK Flexibility Score: inf
ROOT
ATOM      1  C   UNL     1      24.954  57.886   5.655  1.00  0.00     0.048 C 
ATOM      2  C   UNL     1      25.226  56.521   6.224  1.00  0.00    -0.012 C 
ATOM      3  C   UNL     1      25.548  55.506   5.404  1.00  0.00    -0.019 C 
ATOM      4  C   UNL     1      25.850  54.124   5.923  1.00  0.00     0.036 C 
ATOM      5  C   UNL     1      25.022  53.813   7.183  1.00  0.00     0.025 C 
ATOM      6  C   UNL     1      25.246  54.899   8.252  1.00  0.00     0.089 C 
ATOM      7  C   UNL     1      25.017  56.268   7.672  1.00  0.00     0.158 C 
ATOM      8  O   UNL     1      24.679  57.210   8.438  1.00  0.00    -0.295 OA
ENDROOT
BRANCH   5   9
ATOM      9  C   UNL     1      25.333  52.426   7.726  1.00  0.00    -0.077 C 
ATOM     10  C   UNL     1      24.333  51.585   8.037  1.00  0.00     0.008 C 
ATOM     11  C   UNL     1      26.754  51.961   7.931  1.00  0.00     0.039 C 
ENDBRANCH   5   9
TORSDOF 1
ENDMDL
MODEL 5
REMARK VINA RESULT:    -5.157      1.497      2.115
REMARK INTER + INTRA:          -5.552
REMARK INTER:                  -5.454
REMARK INTRA:                  -0.098
REMARK UNBOUND:                -0.094
REMARK SMILES C=C(C)[C@@H]1CC=C(C)C(=O)C1
REMARK SMILES IDX 8 1 7 2 6 3 5 4 4 5 11 6 9 7 10 8 2 9 1 10 3 11
REMARK H PARENT
REMARK Flexibility Score: inf
ROOT
ATOM      1  C   UNL     1      24.824  52.895   9.230  1.00  0.00     0.048 C 
ATOM      2  C   UNL     1      24.885  53.895   8.109  1.00  0.00    -0.012 C 
ATOM      3  C   UNL     1      25.174  53.486   6.862  1.00  0.00    -0.019 C 
ATOM      4  C   UNL     1      25.230  54.442   5.700  1.00  0.00     0.036 C 
ATOM      5  C   UNL     1      25.723  55.830   6.148  1.00  0.00     0.025 C 
ATOM      6  C   UNL     1      24.850  56.362   7.300  1.00  0.00     0.089 C 
ATOM      7  C   UNL     1      24.751  55.344   8.403  1.00  0.00     0.158 C 
ATOM      8  O   UNL     1      24.517  55.734   9.578  1.00  0.00    -0.295 OA
ENDROOT
BRANCH   5   9
ATOM      9  C   UNL     1      25.765  56.810   4.985  1.00  0.00    -0.077 C 
ATOM     10  C   UNL     1      24.888  57.825   4.926  1.00  0.00     0.008 C 
ATOM     11  C   UNL     1      26.780  56.671   3.875  1.00  0.00     0.039 C 
ENDBRANCH   5   9
TORSDOF 1
ENDMDL
MODEL 6
REMARK VINA RESULT:    -5.105      5.821      7.320
REMARK INTER + INTRA:          -5.498
REMARK INTER:                  -5.410
REMARK INTRA:                  -0.087
REMARK UNBOUND:                -0.094
REMARK SMILES C=C(C)[C@@H]1CC=C(C)C(=O)C1
REMARK SMILES IDX 8 1 7 2 6 3 5 4 4 5 11 6 9 7 10 8 2 9 1 10 3 11
REMARK H PARENT
REMARK Flexibility Score: inf
ROOT
ATOM      1  C   UNL     1      30.474  59.426  12.124  1.00  0.00     0.048 C 
ATOM      2  C   UNL     1      29.284  58.529  11.922  1.00  0.00    -0.012 C 
ATOM      3  C   UNL     1      29.226  57.727  10.845  1.00  0.00    -0.019 C 
ATOM      4  C   UNL     1      28.068  56.796  10.604  1.00  0.00     0.036 C 
ATOM      5  C   UNL     1      26.755  57.392  11.145  1.00  0.00     0.025 C 
ATOM      6  C   UNL     1      26.908  57.760  12.632  1.00  0.00     0.089 C 
ATOM      7  C   UNL     1      28.123  58.621  12.842  1.00  0.00     0.158 C 
ATOM      8  O   UNL     1      28.160  59.399  13.833  1.00  0.00    -0.295 OA
ENDROOT
BRANCH   5   9
ATOM      9  C   UNL     1      25.581  56.450  10.923  1.00  0.00    -0.077 C 
ATOM     10  C   UNL     1      24.773  56.618   9.863  1.00  0.00     0.008 C 
ATOM     11  C   UNL     1      25.293  55.314  11.874  1.00  0.00     0.039 C 
ENDBRANCH   5   9
TORSDOF 1
ENDMDL
MODEL 7
REMARK VINA RESULT:    -5.088     11.270     12.075
REMARK INTER + INTRA:          -5.479
REMARK INTER:                  -5.383
REMARK INTRA:                  -0.097
REMARK UNBOUND:                -0.094
REMARK SMILES C=C(C)[C@@H]1CC=C(C)C(=O)C1
REMARK SMILES IDX 8 1 7 2 6 3 5 4 4 5 11 6 9 7 10 8 2 9 1 10 3 11
REMARK H PARENT
REMARK Flexibility Score: inf
ROOT
ATOM      1  C   UNL     1      25.727  52.640  17.568  1.00  0.00     0.048 C 
ATOM      2  C   UNL     1      26.900  51.801  17.142  1.00  0.00    -0.012 C 
ATOM      3  C   UNL     1      26.742  50.482  16.944  1.00  0.00    -0.019 C 
ATOM      4  C   UNL     1      27.878  49.599  16.499  1.00  0.00     0.036 C 
ATOM      5  C   UNL     1      29.222  50.100  17.060  1.00  0.00     0.025 C 
ATOM      6  C   UNL     1      29.445  51.574  16.677  1.00  0.00     0.089 C 
ATOM      7  C   UNL     1      28.253  52.407  17.063  1.00  0.00     0.158 C 
ATOM      8  O   UNL     1      28.410  53.638  17.284  1.00  0.00    -0.295 OA
ENDROOT
BRANCH   5   9
ATOM      9  C   UNL     1      30.379  49.225  16.600  1.00  0.00    -0.077 C 
ATOM     10  C   UNL     1      31.645  49.596  16.852  1.00  0.00     0.008 C 
ATOM     11  C   UNL     1      30.142  47.933  15.858  1.00  0.00     0.039 C 
ENDBRANCH   5   9
TORSDOF 1
ENDMDL
MODEL 8
REMARK VINA RESULT:    -5.062      6.235      7.612
REMARK INTER + INTRA:          -5.453
REMARK INTER:                  -5.354
REMARK INTRA:                  -0.098
REMARK UNBOUND:                -0.094
REMARK SMILES C=C(C)[C@@H]1CC=C(C)C(=O)C1
REMARK SMILES IDX 8 1 7 2 6 3 5 4 4 5 11 6 9 7 10 8 2 9 1 10 3 11
REMARK H PARENT
REMARK Flexibility Score: inf
ROOT
ATOM      1  C   UNL     1      32.007  57.490  10.839  1.00  0.00     0.048 C 
ATOM      2  C   UNL     1      30.539  57.401  11.149  1.00  0.00    -0.012 C 
ATOM      3  C   UNL     1      29.824  56.351  10.709  1.00  0.00    -0.019 C 
ATOM      4  C   UNL     1      28.355  56.203  11.007  1.00  0.00     0.036 C 
ATOM      5  C   UNL     1      27.665  57.578  11.088  1.00  0.00     0.025 C 
ATOM      6  C   UNL     1      28.380  58.476  12.114  1.00  0.00     0.089 C 
ATOM      7  C   UNL     1      29.857  58.530  11.831  1.00  0.00     0.158 C 
ATOM      8  O   UNL     1      30.519  59.532  12.213  1.00  0.00    -0.295 OA
ENDROOT
BRANCH   5   9
ATOM      9  C   UNL     1      26.184  57.440  11.408  1.00  0.00    -0.077 C 
ATOM     10  C   UNL     1      25.726  57.755  12.631  1.00  0.00     0.008 C 
ATOM     11  C   UNL     1      25.198  56.950  10.375  1.00  0.00     0.039 C 
ENDBRANCH   5   9
TORSDOF 1
ENDMDL
MODEL 9
REMARK VINA RESULT:    -5.023      3.477      4.511
REMARK INTER + INTRA:          -5.411
REMARK INTER:                  -5.314
REMARK INTRA:                  -0.096
REMARK UNBOUND:                -0.094
REMARK SMILES C=C(C)[C@@H]1CC=C(C)C(=O)C1
REMARK SMILES IDX 8 1 7 2 6 3 5 4 4 5 11 6 9 7 10 8 2 9 1 10 3 11
REMARK H PARENT
REMARK Flexibility Score: inf
ROOT
ATOM      1  C   UNL     1      29.054  52.788  11.285  1.00  0.00     0.048 C 
ATOM      2  C   UNL     1      27.981  52.870  10.234  1.00  0.00    -0.012 C 
ATOM      3  C   UNL     1      28.112  52.177   9.090  1.00  0.00    -0.019 C 
ATOM      4  C   UNL     1      27.059  52.208   8.013  1.00  0.00     0.036 C 
ATOM      5  C   UNL     1      26.355  53.577   7.965  1.00  0.00     0.025 C 
ATOM      6  C   UNL     1      25.783  53.932   9.349  1.00  0.00     0.089 C 
ATOM      7  C   UNL     1      26.844  53.808  10.408  1.00  0.00     0.158 C 
ATOM      8  O   UNL     1      26.739  54.486  11.466  1.00  0.00    -0.295 OA
ENDROOT
BRANCH   5   9
ATOM      9  C   UNL     1      25.276  53.612   6.892  1.00  0.00    -0.077 C 
ATOM     10  C   UNL     1      24.142  52.910   7.054  1.00  0.00     0.008 C 
ATOM     11  C   UNL     1      25.446  54.424   5.631  1.00  0.00     0.039 C 
ENDBRANCH   5   9
TORSDOF 1
ENDMDL
