MODEL 1
REMARK VINA RESULT:    -3.416      0.000      0.000
REMARK INTER + INTRA:          -5.102
REMARK INTER:                  -4.614
REMARK INTRA:                  -0.488
REMARK UNBOUND:                -0.488
REMARK SMILES CCCCCCC=CC(=O)[O-]
REMARK SMILES IDX 5 1 6 2 7 3 8 4 9 5 10 6 11 7 4 8 3 9 2 10 1 11
REMARK H PARENT
REMARK Flexibility Score: inf
ROOT
ATOM      1  C   UNL     1      57.903  17.128  49.213  1.00  0.00     0.004 C 
ENDROOT
BRANCH   1   2
ATOM      2  C   UNL     1      59.232  17.286  48.461  1.00  0.00     0.027 C 
BRANCH   2   3
ATOM      3  C   UNL     1      59.983  18.504  48.919  1.00  0.00    -0.025 C 
ATOM      4  C   UNL     1      59.601  19.737  48.571  1.00  0.00     0.020 C 
BRANCH   4   5
ATOM      5  C   UNL     1      60.349  20.932  48.983  1.00  0.00     0.064 C 
ATOM      6  O   UNL     1      61.089  21.521  48.151  1.00  0.00    -0.545 OA
ATOM      7  O   UNL     1      60.255  21.425  50.280  1.00  0.00    -0.545 OA
ENDBRANCH   4   5
ENDBRANCH   2   3
ENDBRANCH   1   2
BRANCH   1   8
ATOM      8  C   UNL     1      58.111  16.875  50.713  1.00  0.00     0.000 C 
BRANCH   8   9
ATOM      9  C   UNL     1      57.527  18.022  51.550  1.00  0.00    -0.000 C 
BRANCH   9  10
ATOM     10  C   UNL     1      56.358  18.729  50.846  1.00  0.00    -0.003 C 
ATOM     11  C   UNL     1      55.393  19.396  51.826  1.00  0.00     0.004 C 
ENDBRANCH   9  10
ENDBRANCH   8   9
ENDBRANCH   1   8
TORSDOF 6
ENDMDL
MODEL 2
REMARK VINA RESULT:    -3.371      7.676      9.251
REMARK INTER + INTRA:          -5.042
REMARK INTER:                  -4.657
REMARK INTRA:                  -0.385
REMARK UNBOUND:                -0.488
REMARK SMILES CCCCCCC=CC(=O)[O-]
REMARK SMILES IDX 5 1 6 2 7 3 8 4 9 5 10 6 11 7 4 8 3 9 2 10 1 11
REMARK H PARENT
REMARK Flexibility Score: inf
ROOT
ATOM      1  C   UNL     1      55.622  28.179  50.632  1.00  0.00     0.004 C 
ENDROOT
BRANCH   1   2
ATOM      2  C   UNL     1      56.636  29.330  50.577  1.00  0.00     0.027 C 
BRANCH   2   3
ATOM      3  C   UNL     1      57.955  28.878  50.018  1.00  0.00    -0.025 C 
ATOM      4  C   UNL     1      58.344  27.601  50.082  1.00  0.00     0.020 C 
BRANCH   4   5
ATOM      5  C   UNL     1      59.647  27.155  49.571  1.00  0.00     0.064 C 
ATOM      6  O   UNL     1      59.921  25.926  49.552  1.00  0.00    -0.545 OA
ATOM      7  O   UNL     1      60.586  28.070  49.107  1.00  0.00    -0.545 OA
ENDBRANCH   4   5
ENDBRANCH   2   3
ENDBRANCH   1   2
BRANCH   1   8
ATOM      8  C   UNL     1      54.197  28.644  50.294  1.00  0.00     0.000 C 
BRANCH   8   9
ATOM      9  C   UNL     1      53.433  27.559  49.524  1.00  0.00    -0.000 C 
BRANCH   9  10
ATOM     10  C   UNL     1      54.248  26.266  49.362  1.00  0.00    -0.003 C 
ATOM     11  C   UNL     1      53.441  25.012  49.700  1.00  0.00     0.004 C 
ENDBRANCH   9  10
ENDBRANCH   8   9
ENDBRANCH   1   8
TORSDOF 6
ENDMDL
MODEL 3
REMARK VINA RESULT:    -3.354      8.495     10.032
REMARK INTER + INTRA:          -5.019
REMARK INTER:                  -4.407
REMARK INTRA:                  -0.612
REMARK UNBOUND:                -0.488
REMARK SMILES CCCCCCC=CC(=O)[O-]
REMARK SMILES IDX 5 1 6 2 7 3 8 4 9 5 10 6 11 7 4 8 3 9 2 10 1 11
REMARK H PARENT
REMARK Flexibility Score: inf
ROOT
ATOM      1  C   UNL     1      54.285  29.924  50.576  1.00  0.00     0.004 C 
ENDROOT
BRANCH   1   2
ATOM      2  C   UNL     1      55.398  29.048  51.168  1.00  0.00     0.027 C 
BRANCH   2   3
ATOM      3  C   UNL     1      56.653  29.120  50.345  1.00  0.00    -0.025 C 
ATOM      4  C   UNL     1      57.525  28.108  50.306  1.00  0.00     0.020 C 
BRANCH   4   5
ATOM      5  C   UNL     1      58.773  28.182  49.534  1.00  0.00     0.064 C 
ATOM      6  O   UNL     1      59.180  29.296  49.115  1.00  0.00    -0.545 OA
ATOM      7  O   UNL     1      59.513  27.036  49.257  1.00  0.00    -0.545 OA
ENDBRANCH   4   5
ENDBRANCH   2   3
ENDBRANCH   1   2
BRANCH   1   8
ATOM      8  C   UNL     1      53.097  29.091  50.071  1.00  0.00     0.000 C 
BRANCH   8   9
ATOM      9  C   UNL     1      53.223  27.628  50.517  1.00  0.00    -0.000 C 
BRANCH   9  10
ATOM     10  C   UNL     1      53.226  26.649  49.332  1.00  0.00    -0.003 C 
ATOM     11  C   UNL     1      54.546  25.891  49.194  1.00  0.00     0.004 C 
ENDBRANCH   9  10
ENDBRANCH   8   9
ENDBRANCH   1   8
TORSDOF 6
ENDMDL
MODEL 4
REMARK VINA RESULT:    -3.304      7.208      8.963
REMARK INTER + INTRA:          -4.950
REMARK INTER:                  -4.622
REMARK INTRA:                  -0.328
REMARK UNBOUND:                -0.488
REMARK SMILES CCCCCCC=CC(=O)[O-]
REMARK SMILES IDX 5 1 6 2 7 3 8 4 9 5 10 6 11 7 4 8 3 9 2 10 1 11
REMARK H PARENT
REMARK Flexibility Score: inf
ROOT
ATOM      1  C   UNL     1      58.100  29.402  49.918  1.00  0.00     0.004 C 
ENDROOT
BRANCH   1   2
ATOM      2  C   UNL     1      59.143  28.691  49.045  1.00  0.00     0.027 C 
BRANCH   2   3
ATOM      3  C   UNL     1      59.306  27.252  49.442  1.00  0.00    -0.025 C 
ATOM      4  C   UNL     1      60.492  26.754  49.805  1.00  0.00     0.020 C 
BRANCH   4   5
ATOM      5  C   UNL     1      60.670  25.339  50.160  1.00  0.00     0.064 C 
ATOM      6  O   UNL     1      61.831  24.864  50.262  1.00  0.00    -0.545 OA
ATOM      7  O   UNL     1      59.573  24.513  50.384  1.00  0.00    -0.545 OA
ENDBRANCH   4   5
ENDBRANCH   2   3
ENDBRANCH   1   2
BRANCH   1   8
ATOM      8  C   UNL     1      56.978  28.454  50.369  1.00  0.00     0.000 C 
BRANCH   8   9
ATOM      9  C   UNL     1      55.682  29.229  50.645  1.00  0.00    -0.000 C 
BRANCH   9  10
ATOM     10  C   UNL     1      54.427  28.454  50.212  1.00  0.00    -0.003 C 
ATOM     11  C   UNL     1      54.728  27.002  49.839  1.00  0.00     0.004 C 
ENDBRANCH   9  10
ENDBRANCH   8   9
ENDBRANCH   1   8
TORSDOF 6
ENDMDL
MODEL 5
REMARK VINA RESULT:    -3.300      8.396     10.550
REMARK INTER + INTRA:          -4.946
REMARK INTER:                  -4.228
REMARK INTRA:                  -0.718
REMARK UNBOUND:                -0.488
REMARK SMILES CCCCCCC=CC(=O)[O-]
REMARK SMILES IDX 5 1 6 2 7 3 8 4 9 5 10 6 11 7 4 8 3 9 2 10 1 11
REMARK H PARENT
REMARK Flexibility Score: inf
ROOT
ATOM      1  C   UNL     1      58.525  29.753  51.088  1.00  0.00     0.004 C 
ENDROOT
BRANCH   1   2
ATOM      2  C   UNL     1      57.101  29.677  51.654  1.00  0.00     0.027 C 
BRANCH   2   3
ATOM      3  C   UNL     1      56.132  29.139  50.640  1.00  0.00    -0.025 C 
ATOM      4  C   UNL     1      55.376  28.066  50.892  1.00  0.00     0.020 C 
BRANCH   4   5
ATOM      5  C   UNL     1      54.451  27.510  49.894  1.00  0.00     0.064 C 
ATOM      6  O   UNL     1      53.411  28.147  49.588  1.00  0.00    -0.545 OA
ATOM      7  O   UNL     1      54.709  26.287  49.283  1.00  0.00    -0.545 OA
ENDBRANCH   4   5
ENDBRANCH   2   3
ENDBRANCH   1   2
BRANCH   1   8
ATOM      8  C   UNL     1      58.549  29.628  49.557  1.00  0.00     0.000 C 
BRANCH   8   9
ATOM      9  C   UNL     1      59.519  28.525  49.111  1.00  0.00    -0.000 C 
BRANCH   9  10
ATOM     10  C   UNL     1      59.514  27.316  50.060  1.00  0.00    -0.003 C 
ATOM     11  C   UNL     1      58.407  26.313  49.734  1.00  0.00     0.004 C 
ENDBRANCH   9  10
ENDBRANCH   8   9
ENDBRANCH   1   8
TORSDOF 6
ENDMDL
MODEL 6
REMARK VINA RESULT:    -3.292      8.107      9.901
REMARK INTER + INTRA:          -4.935
REMARK INTER:                  -4.276
REMARK INTRA:                  -0.659
REMARK UNBOUND:                -0.488
REMARK SMILES CCCCCCC=CC(=O)[O-]
REMARK SMILES IDX 5 1 6 2 7 3 8 4 9 5 10 6 11 7 4 8 3 9 2 10 1 11
REMARK H PARENT
REMARK Flexibility Score: inf
ROOT
ATOM      1  C   UNL     1      58.586  26.336  49.601  1.00  0.00     0.004 C 
ENDROOT
BRANCH   1   2
ATOM      2  C   UNL     1      57.567  26.035  50.707  1.00  0.00     0.027 C 
BRANCH   2   3
ATOM      3  C   UNL     1      56.159  26.272  50.240  1.00  0.00    -0.025 C 
ATOM      4  C   UNL     1      55.596  27.483  50.293  1.00  0.00     0.020 C 
BRANCH   4   5
ATOM      5  C   UNL     1      54.208  27.718  49.873  1.00  0.00     0.064 C 
ATOM      6  O   UNL     1      53.693  28.856  50.034  1.00  0.00    -0.545 OA
ATOM      7  O   UNL     1      53.451  26.702  49.299  1.00  0.00    -0.545 OA
ENDBRANCH   4   5
ENDBRANCH   2   3
ENDBRANCH   1   2
BRANCH   1   8
ATOM      8  C   UNL     1      59.637  27.365  50.044  1.00  0.00     0.000 C 
BRANCH   8   9
ATOM      9  C   UNL     1      59.627  28.594  49.124  1.00  0.00    -0.000 C 
BRANCH   9  10
ATOM     10  C   UNL     1      58.545  29.613  49.514  1.00  0.00    -0.003 C 
ATOM     11  C   UNL     1      58.531  29.917  51.012  1.00  0.00     0.004 C 
ENDBRANCH   9  10
ENDBRANCH   8   9
ENDBRANCH   1   8
TORSDOF 6
ENDMDL
MODEL 7
REMARK VINA RESULT:    -3.232      8.029      9.349
REMARK INTER + INTRA:          -4.853
REMARK INTER:                  -4.526
REMARK INTRA:                  -0.327
REMARK UNBOUND:                -0.488
REMARK SMILES CCCCCCC=CC(=O)[O-]
REMARK SMILES IDX 5 1 6 2 7 3 8 4 9 5 10 6 11 7 4 8 3 9 2 10 1 11
REMARK H PARENT
REMARK Flexibility Score: inf
ROOT
ATOM      1  C   UNL     1      57.310  28.538  50.410  1.00  0.00     0.004 C 
ENDROOT
BRANCH   1   2
ATOM      2  C   UNL     1      58.221  29.510  49.648  1.00  0.00     0.027 C 
BRANCH   2   3
ATOM      3  C   UNL     1      59.626  28.986  49.548  1.00  0.00    -0.025 C 
ATOM      4  C   UNL     1      59.938  27.739  49.912  1.00  0.00     0.020 C 
BRANCH   4   5
ATOM      5  C   UNL     1      61.315  27.229  49.852  1.00  0.00     0.064 C 
ATOM      6  O   UNL     1      61.590  26.118  50.376  1.00  0.00    -0.545 OA
ATOM      7  O   UNL     1      62.321  27.956  49.224  1.00  0.00    -0.545 OA
ENDBRANCH   4   5
ENDBRANCH   2   3
ENDBRANCH   1   2
BRANCH   1   8
ATOM      8  C   UNL     1      55.934  29.149  50.713  1.00  0.00     0.000 C 
BRANCH   8   9
ATOM      9  C   UNL     1      54.805  28.197  50.294  1.00  0.00    -0.000 C 
BRANCH   9  10
ATOM     10  C   UNL     1      55.317  26.788  49.958  1.00  0.00    -0.003 C 
ATOM     11  C   UNL     1      54.276  25.938  49.230  1.00  0.00     0.004 C 
ENDBRANCH   9  10
ENDBRANCH   8   9
ENDBRANCH   1   8
TORSDOF 6
ENDMDL
MODEL 8
REMARK VINA RESULT:    -3.225      7.669      9.029
REMARK INTER + INTRA:          -4.845
REMARK INTER:                  -4.370
REMARK INTRA:                  -0.474
REMARK UNBOUND:                -0.488
REMARK SMILES CCCCCCC=CC(=O)[O-]
REMARK SMILES IDX 5 1 6 2 7 3 8 4 9 5 10 6 11 7 4 8 3 9 2 10 1 11
REMARK H PARENT
REMARK Flexibility Score: inf
ROOT
ATOM      1  C   UNL     1      54.377  25.889  49.247  1.00  0.00     0.004 C 
ENDROOT
BRANCH   1   2
ATOM      2  C   UNL     1      55.266  26.256  50.442  1.00  0.00     0.027 C 
BRANCH   2   3
ATOM      3  C   UNL     1      56.570  26.854  49.998  1.00  0.00    -0.025 C 
ATOM      4  C   UNL     1      57.713  26.163  50.048  1.00  0.00     0.020 C 
BRANCH   4   5
ATOM      5  C   UNL     1      59.000  26.751  49.650  1.00  0.00     0.064 C 
ATOM      6  O   UNL     1      60.036  26.037  49.651  1.00  0.00    -0.545 OA
ATOM      7  O   UNL     1      59.090  28.087  49.272  1.00  0.00    -0.545 OA
ENDBRANCH   4   5
ENDBRANCH   2   3
ENDBRANCH   1   2
BRANCH   1   8
ATOM      8  C   UNL     1      53.036  26.639  49.269  1.00  0.00     0.000 C 
BRANCH   8   9
ATOM      9  C   UNL     1      52.983  27.638  50.433  1.00  0.00    -0.000 C 
BRANCH   9  10
ATOM     10  C   UNL     1      52.993  29.099  49.957  1.00  0.00    -0.003 C 
ATOM     11  C   UNL     1      54.108  29.924  50.600  1.00  0.00     0.004 C 
ENDBRANCH   9  10
ENDBRANCH   8   9
ENDBRANCH   1   8
TORSDOF 6
ENDMDL
MODEL 9
REMARK VINA RESULT:    -0.546      2.485      4.408
REMARK INTER + INTRA:          -1.226
REMARK INTER:                  -0.688
REMARK INTRA:                  -0.538
REMARK UNBOUND:                -0.488
REMARK SMILES CCCCCCC=CC(=O)[O-]
REMARK SMILES IDX 5 1 6 2 7 3 8 4 9 5 10 6 11 7 4 8 3 9 2 10 1 11
REMARK H PARENT
REMARK Flexibility Score: inf
ROOT
ATOM      1  C   UNL     1      59.304  17.723  48.419  1.00  0.00     0.004 C 
ENDROOT
BRANCH   1   2
ATOM      2  C   UNL     1      58.150  16.875  48.970  1.00  0.00     0.027 C 
BRANCH   2   3
ATOM      3  C   UNL     1      57.632  17.425  50.268  1.00  0.00    -0.025 C 
ATOM      4  C   UNL     1      56.857  18.513  50.311  1.00  0.00     0.020 C 
BRANCH   4   5
ATOM      5  C   UNL     1      56.375  19.080  51.578  1.00  0.00     0.064 C 
ATOM      6  O   UNL     1      57.147  19.131  52.571  1.00  0.00    -0.545 OA
ATOM      7  O   UNL     1      55.075  19.561  51.698  1.00  0.00    -0.545 OA
ENDBRANCH   4   5
ENDBRANCH   2   3
ENDBRANCH   1   2
BRANCH   1   8
ATOM      8  C   UNL     1      60.493  17.787  49.390  1.00  0.00     0.000 C 
BRANCH   8   9
ATOM      9  C   UNL     1      60.798  19.237  49.791  1.00  0.00    -0.000 C 
BRANCH   9  10
ATOM     10  C   UNL     1      60.053  20.260  48.917  1.00  0.00    -0.003 C 
ATOM     11  C   UNL     1      60.950  21.407  48.453  1.00  0.00     0.004 C 
ENDBRANCH   9  10
ENDBRANCH   8   9
ENDBRANCH   1   8
TORSDOF 6
ENDMDL
