MODEL 1
REMARK VINA RESULT:    -3.723      0.000      0.000
REMARK INTER + INTRA:          -4.758
REMARK INTER:                  -5.790
REMARK INTRA:                   1.032
REMARK UNBOUND:                 1.032
REMARK SMILES COc1cc(CNC(=O)CCCCC=CC(C)C)ccc1O
REMARK SMILES IDX 11 1 12 2 13 3 14 4 15 5 16 6 17 7 18 8 10 9 8 10 9 11 7 12
REMARK SMILES IDX 6 14 5 15 4 16 19 17 3 18 20 19 21 20 2 21 1 22 22 23
REMARK H PARENT 7 13 22 24
REMARK Flexibility Score: inf
ROOT
ATOM      1  C   UNL     1     -25.287 -18.089 -15.577  1.00  0.00     0.010 C 
ENDROOT
BRANCH   1   2
ATOM      2  C   UNL     1     -24.351 -18.657 -14.488  1.00  0.00     0.005 C 
BRANCH   2   3
ATOM      3  C   UNL     1     -23.672 -17.589 -13.614  1.00  0.00     0.027 C 
BRANCH   3   4
ATOM      4  C   UNL     1     -23.571 -18.001 -12.170  1.00  0.00    -0.031 C 
ATOM      5  C   UNL     1     -24.567 -18.658 -11.554  1.00  0.00    -0.028 C 
BRANCH   5   6
ATOM      6  C   UNL     1     -24.453 -19.075 -10.107  1.00  0.00     0.005 C 
ATOM      7  C   UNL     1     -22.983 -19.258  -9.718  1.00  0.00     0.012 C 
ATOM      8  C   UNL     1     -25.122 -18.041  -9.194  1.00  0.00     0.012 C 
ENDBRANCH   5   6
ENDBRANCH   3   4
ENDBRANCH   2   3
ENDBRANCH   1   2
BRANCH   1   9
ATOM      9  C   UNL     1     -26.029 -16.803 -15.177  1.00  0.00     0.100 C 
BRANCH   9  10
ATOM     10  C   UNL     1     -25.331 -15.570 -15.674  1.00  0.00     0.220 C 
ATOM     11  O   UNL     1     -25.720 -14.435 -15.287  1.00  0.00    -0.275 OA
ATOM     12  N   UNL     1     -24.211 -15.685 -16.563  1.00  0.00    -0.352 N 
ATOM     13  H   UNL     1     -24.014 -16.604 -17.020  1.00  0.00     0.163 HD
BRANCH  12  14
ATOM     14  C   UNL     1     -23.222 -14.621 -16.700  1.00  0.00     0.151 C 
BRANCH  14  15
ATOM     15  C   UNL     1     -22.498 -14.432 -15.396  1.00  0.00    -0.025 A 
ATOM     16  C   UNL     1     -21.113 -14.203 -15.394  1.00  0.00     0.056 A 
ATOM     17  C   UNL     1     -23.177 -14.560 -14.177  1.00  0.00     0.009 A 
ATOM     18  C   UNL     1     -20.406 -14.094 -14.180  1.00  0.00     0.160 A 
ATOM     19  C   UNL     1     -22.484 -14.446 -12.971  1.00  0.00     0.050 A 
ATOM     20  C   UNL     1     -21.106 -14.214 -12.965  1.00  0.00     0.157 A 
BRANCH  18  21
ATOM     21  O   UNL     1     -19.019 -13.876 -14.145  1.00  0.00    -0.493 OA
ATOM     22  C   UNL     1     -18.108 -14.595 -13.320  1.00  0.00     0.278 C 
ENDBRANCH  18  21
BRANCH  20  23
ATOM     23  O   UNL     1     -20.445 -14.110 -11.740  1.00  0.00    -0.504 OA
ATOM     24  H   UNL     1     -20.927 -13.854 -10.886  1.00  0.00     0.293 HD
ENDBRANCH  20  23
ENDBRANCH  14  15
ENDBRANCH  12  14
ENDBRANCH   9  10
ENDBRANCH   1   9
TORSDOF 10
ENDMDL
MODEL 2
REMARK VINA RESULT:    -3.655      2.099      5.606
REMARK INTER + INTRA:          -4.654
REMARK INTER:                  -4.458
REMARK INTRA:                  -0.196
REMARK UNBOUND:                 1.032
REMARK SMILES COc1cc(CNC(=O)CCCCC=CC(C)C)ccc1O
REMARK SMILES IDX 11 1 12 2 13 3 14 4 15 5 16 6 17 7 18 8 10 9 8 10 9 11 7 12
REMARK SMILES IDX 6 14 5 15 4 16 19 17 3 18 20 19 21 20 2 21 1 22 22 23
REMARK H PARENT 7 13 22 24
REMARK Flexibility Score: inf
ROOT
ATOM      1  C   UNL     1     -24.411 -13.883 -15.663  1.00  0.00     0.010 C 
ENDROOT
BRANCH   1   2
ATOM      2  C   UNL     1     -23.278 -13.875 -14.614  1.00  0.00     0.005 C 
BRANCH   2   3
ATOM      3  C   UNL     1     -21.937 -14.431 -15.121  1.00  0.00     0.027 C 
BRANCH   3   4
ATOM      4  C   UNL     1     -20.774 -14.012 -14.263  1.00  0.00    -0.031 C 
ATOM      5  C   UNL     1     -19.601 -14.663 -14.300  1.00  0.00    -0.028 C 
BRANCH   5   6
ATOM      6  C   UNL     1     -18.436 -14.229 -13.441  1.00  0.00     0.005 C 
ATOM      7  C   UNL     1     -18.916 -13.875 -12.030  1.00  0.00     0.012 C 
ATOM      8  C   UNL     1     -17.371 -15.331 -13.383  1.00  0.00     0.012 C 
ENDBRANCH   5   6
ENDBRANCH   3   4
ENDBRANCH   2   3
ENDBRANCH   1   2
BRANCH   1   9
ATOM      9  C   UNL     1     -24.165 -14.813 -16.864  1.00  0.00     0.100 C 
BRANCH   9  10
ATOM     10  C   UNL     1     -24.440 -16.251 -16.530  1.00  0.00     0.220 C 
ATOM     11  O   UNL     1     -23.693 -17.152 -16.999  1.00  0.00    -0.275 OA
ATOM     12  N   UNL     1     -25.528 -16.594 -15.662  1.00  0.00    -0.352 N 
ATOM     13  H   UNL     1     -26.245 -15.870 -15.431  1.00  0.00     0.163 HD
BRANCH  12  14
ATOM     14  C   UNL     1     -25.566 -17.858 -14.934  1.00  0.00     0.151 C 
BRANCH  14  15
ATOM     15  C   UNL     1     -24.686 -17.769 -13.718  1.00  0.00    -0.025 A 
ATOM     16  C   UNL     1     -25.034 -18.466 -12.551  1.00  0.00     0.056 A 
ATOM     17  C   UNL     1     -23.562 -16.932 -13.712  1.00  0.00     0.009 A 
ATOM     18  C   UNL     1     -24.259 -18.339 -11.381  1.00  0.00     0.160 A 
ATOM     19  C   UNL     1     -22.786 -16.806 -12.558  1.00  0.00     0.050 A 
ATOM     20  C   UNL     1     -23.127 -17.503 -11.396  1.00  0.00     0.157 A 
BRANCH  18  21
ATOM     21  O   UNL     1     -24.587 -19.016 -10.196  1.00  0.00    -0.493 OA
ATOM     22  C   UNL     1     -25.122 -18.394  -9.032  1.00  0.00     0.278 C 
ENDBRANCH  18  21
BRANCH  20  23
ATOM     23  O   UNL     1     -22.332 -17.349 -10.260  1.00  0.00    -0.504 OA
ATOM     24  H   UNL     1     -21.814 -16.498 -10.073  1.00  0.00     0.293 HD
ENDBRANCH  20  23
ENDBRANCH  14  15
ENDBRANCH  12  14
ENDBRANCH   9  10
ENDBRANCH   1   9
TORSDOF 10
ENDMDL
MODEL 3
REMARK VINA RESULT:    -3.601      1.809      4.607
REMARK INTER + INTRA:          -4.569
REMARK INTER:                  -3.732
REMARK INTRA:                  -0.837
REMARK UNBOUND:                 1.032
REMARK SMILES COc1cc(CNC(=O)CCCCC=CC(C)C)ccc1O
REMARK SMILES IDX 11 1 12 2 13 3 14 4 15 5 16 6 17 7 18 8 10 9 8 10 9 11 7 12
REMARK SMILES IDX 6 14 5 15 4 16 19 17 3 18 20 19 21 20 2 21 1 22 22 23
REMARK H PARENT 7 13 22 24
REMARK Flexibility Score: inf
ROOT
ATOM      1  C   UNL     1     -21.264 -14.622 -12.727  1.00  0.00     0.010 C 
ENDROOT
BRANCH   1   2
ATOM      2  C   UNL     1     -22.754 -15.025 -12.723  1.00  0.00     0.005 C 
BRANCH   2   3
ATOM      3  C   UNL     1     -23.007 -16.529 -12.923  1.00  0.00     0.027 C 
BRANCH   3   4
ATOM      4  C   UNL     1     -23.251 -17.253 -11.627  1.00  0.00    -0.031 C 
ATOM      5  C   UNL     1     -23.991 -18.371 -11.573  1.00  0.00    -0.028 C 
BRANCH   5   6
ATOM      6  C   UNL     1     -24.223 -19.097 -10.269  1.00  0.00     0.005 C 
ATOM      7  C   UNL     1     -22.886 -19.445  -9.606  1.00  0.00     0.012 C 
ATOM      8  C   UNL     1     -25.081 -18.246  -9.325  1.00  0.00     0.012 C 
ENDBRANCH   5   6
ENDBRANCH   3   4
ENDBRANCH   2   3
ENDBRANCH   1   2
BRANCH   1   9
ATOM      9  C   UNL     1     -20.805 -13.875 -13.991  1.00  0.00     0.100 C 
BRANCH   9  10
ATOM     10  C   UNL     1     -21.303 -14.531 -15.246  1.00  0.00     0.220 C 
ATOM     11  O   UNL     1     -20.838 -15.652 -15.589  1.00  0.00    -0.275 OA
ATOM     12  N   UNL     1     -22.321 -13.899 -16.035  1.00  0.00    -0.352 N 
ATOM     13  H   UNL     1     -22.564 -12.900 -15.850  1.00  0.00     0.163 HD
BRANCH  12  14
ATOM     14  C   UNL     1     -23.164 -14.654 -16.955  1.00  0.00     0.151 C 
BRANCH  14  15
ATOM     15  C   UNL     1     -24.093 -15.544 -16.177  1.00  0.00    -0.025 A 
ATOM     16  C   UNL     1     -23.796 -16.908 -16.032  1.00  0.00     0.056 A 
ATOM     17  C   UNL     1     -25.294 -15.041 -15.659  1.00  0.00     0.009 A 
ATOM     18  C   UNL     1     -24.690 -17.771 -15.366  1.00  0.00     0.160 A 
ATOM     19  C   UNL     1     -26.181 -15.889 -14.992  1.00  0.00     0.050 A 
ATOM     20  C   UNL     1     -25.887 -17.247 -14.843  1.00  0.00     0.157 A 
BRANCH  18  21
ATOM     21  O   UNL     1     -24.425 -19.141 -15.215  1.00  0.00    -0.493 OA
ATOM     22  C   UNL     1     -25.000 -20.168 -16.017  1.00  0.00     0.278 C 
ENDBRANCH  18  21
BRANCH  20  23
ATOM     23  O   UNL     1     -26.798 -18.065 -14.175  1.00  0.00    -0.504 OA
ATOM     24  H   UNL     1     -27.118 -17.862 -13.235  1.00  0.00     0.293 HD
ENDBRANCH  20  23
ENDBRANCH  14  15
ENDBRANCH  12  14
ENDBRANCH   9  10
ENDBRANCH   1   9
TORSDOF 10
ENDMDL
MODEL 4
REMARK VINA RESULT:    -0.959      1.468      2.140
REMARK INTER + INTRA:          -0.460
REMARK INTER:                  -0.929
REMARK INTRA:                   0.469
REMARK UNBOUND:                 1.032
REMARK SMILES COc1cc(CNC(=O)CCCCC=CC(C)C)ccc1O
REMARK SMILES IDX 11 1 12 2 13 3 14 4 15 5 16 6 17 7 18 8 10 9 8 10 9 11 7 12
REMARK SMILES IDX 6 14 5 15 4 16 19 17 3 18 20 19 21 20 2 21 1 22 22 23
REMARK H PARENT 7 13 22 24
REMARK Flexibility Score: inf
ROOT
ATOM      1  C   UNL     1     -24.399 -18.010 -15.893  1.00  0.00     0.010 C 
ENDROOT
BRANCH   1   2
ATOM      2  C   UNL     1     -24.387 -18.633 -14.480  1.00  0.00     0.005 C 
BRANCH   2   3
ATOM      3  C   UNL     1     -25.624 -18.303 -13.628  1.00  0.00     0.027 C 
BRANCH   3   4
ATOM      4  C   UNL     1     -25.486 -18.765 -12.203  1.00  0.00    -0.031 C 
ATOM      5  C   UNL     1     -24.381 -18.510 -11.485  1.00  0.00    -0.028 C 
BRANCH   5   6
ATOM      6  C   UNL     1     -24.254 -18.970 -10.051  1.00  0.00     0.005 C 
ATOM      7  C   UNL     1     -22.779 -19.048  -9.645  1.00  0.00     0.012 C 
ATOM      8  C   UNL     1     -25.017 -18.026  -9.114  1.00  0.00     0.012 C 
ENDBRANCH   5   6
ENDBRANCH   3   4
ENDBRANCH   2   3
ENDBRANCH   1   2
BRANCH   1   9
ATOM      9  C   UNL     1     -25.212 -16.710 -16.012  1.00  0.00     0.100 C 
BRANCH   9  10
ATOM     10  C   UNL     1     -24.588 -15.581 -15.243  1.00  0.00     0.220 C 
ATOM     11  O   UNL     1     -25.230 -14.507 -15.083  1.00  0.00    -0.275 OA
ATOM     12  N   UNL     1     -23.282 -15.733 -14.671  1.00  0.00    -0.352 N 
ATOM     13  H   UNL     1     -22.689 -16.543 -14.962  1.00  0.00     0.163 HD
BRANCH  12  14
ATOM     14  C   UNL     1     -22.826 -14.910 -13.556  1.00  0.00     0.151 C 
BRANCH  14  15
ATOM     15  C   UNL     1     -21.323 -14.873 -13.536  1.00  0.00    -0.025 A 
ATOM     16  C   UNL     1     -20.590 -15.886 -14.173  1.00  0.00     0.056 A 
ATOM     17  C   UNL     1     -20.644 -13.878 -12.819  1.00  0.00     0.009 A 
ATOM     18  C   UNL     1     -19.183 -15.906 -14.104  1.00  0.00     0.160 A 
ATOM     19  C   UNL     1     -19.250 -13.887 -12.752  1.00  0.00     0.050 A 
ATOM     20  C   UNL     1     -18.517 -14.893 -13.389  1.00  0.00     0.157 A 
BRANCH  18  21
ATOM     21  O   UNL     1     -18.423 -16.912 -14.721  1.00  0.00    -0.493 OA
ATOM     22  C   UNL     1     -17.009 -17.040 -14.610  1.00  0.00     0.278 C 
ENDBRANCH  18  21
BRANCH  20  23
ATOM     23  O   UNL     1     -17.125 -14.873 -13.297  1.00  0.00    -0.504 OA
ATOM     24  H   UNL     1     -16.534 -14.654 -14.091  1.00  0.00     0.293 HD
ENDBRANCH  20  23
ENDBRANCH  14  15
ENDBRANCH  12  14
ENDBRANCH   9  10
ENDBRANCH   1   9
TORSDOF 10
ENDMDL
