MODEL 1
REMARK VINA RESULT:    -4.821      0.000      0.000
REMARK INTER + INTRA:          -6.530
REMARK INTER:                  -6.230
REMARK INTRA:                  -0.301
REMARK UNBOUND:                -0.301
REMARK SMILES CCCCCCC(=O)[O-]
REMARK SMILES IDX 5 1 6 2 7 3 8 4 9 5 4 6 3 7 2 8 1 9
REMARK H PARENT
REMARK Flexibility Score: inf
ROOT
ATOM      1  C   UNL     1     -15.638  -9.052  -6.460  1.00  0.00     0.006 C 
ENDROOT
BRANCH   1   2
ATOM      2  C   UNL     1     -14.357  -9.155  -7.296  1.00  0.00     0.053 C 
BRANCH   2   3
ATOM      3  C   UNL     1     -13.995 -10.589  -7.522  1.00  0.00     0.041 C 
ATOM      4  O   UNL     1     -13.414 -11.246  -6.619  1.00  0.00    -0.550 OA
ATOM      5  O   UNL     1     -14.343 -11.214  -8.713  1.00  0.00    -0.550 OA
ENDBRANCH   2   3
ENDBRANCH   1   2
BRANCH   1   6
ATOM      6  C   UNL     1     -16.885  -8.744  -7.309  1.00  0.00     0.000 C 
BRANCH   6   7
ATOM      7  C   UNL     1     -16.593  -8.215  -8.725  1.00  0.00    -0.000 C 
BRANCH   7   8
ATOM      8  C   UNL     1     -17.187  -9.102  -9.829  1.00  0.00    -0.003 C 
ATOM      9  C   UNL     1     -18.671  -9.365  -9.582  1.00  0.00     0.004 C 
ENDBRANCH   7   8
ENDBRANCH   6   7
ENDBRANCH   1   6
TORSDOF 5
ENDMDL
MODEL 2
REMARK VINA RESULT:    -4.743      1.531      2.757
REMARK INTER + INTRA:          -6.430
REMARK INTER:                  -6.078
REMARK INTRA:                  -0.352
REMARK UNBOUND:                -0.301
REMARK SMILES CCCCCCC(=O)[O-]
REMARK SMILES IDX 5 1 6 2 7 3 8 4 9 5 4 6 3 7 2 8 1 9
REMARK H PARENT
REMARK Flexibility Score: inf
ROOT
ATOM      1  C   UNL     1     -16.605 -10.565  -9.818  1.00  0.00     0.006 C 
ENDROOT
BRANCH   1   2
ATOM      2  C   UNL     1     -15.185 -11.082 -10.078  1.00  0.00     0.053 C 
BRANCH   2   3
ATOM      3  C   UNL     1     -14.682 -11.845  -8.894  1.00  0.00     0.041 C 
ATOM      4  O   UNL     1     -14.011 -11.262  -8.002  1.00  0.00    -0.550 OA
ATOM      5  O   UNL     1     -14.996 -13.191  -8.750  1.00  0.00    -0.550 OA
ENDBRANCH   2   3
ENDBRANCH   1   2
BRANCH   1   6
ATOM      6  C   UNL     1     -16.689  -9.028  -9.793  1.00  0.00     0.000 C 
BRANCH   6   7
ATOM      7  C   UNL     1     -17.472  -8.439  -8.605  1.00  0.00    -0.000 C 
BRANCH   7   8
ATOM      8  C   UNL     1     -17.030  -9.016  -7.253  1.00  0.00    -0.003 C 
ATOM      9  C   UNL     1     -15.702  -8.411  -6.805  1.00  0.00     0.004 C 
ENDBRANCH   7   8
ENDBRANCH   6   7
ENDBRANCH   1   6
TORSDOF 5
ENDMDL
MODEL 3
REMARK VINA RESULT:    -4.736      2.346      3.439
REMARK INTER + INTRA:          -6.420
REMARK INTER:                  -6.229
REMARK INTRA:                  -0.191
REMARK UNBOUND:                -0.301
REMARK SMILES CCCCCCC(=O)[O-]
REMARK SMILES IDX 5 1 6 2 7 3 8 4 9 5 4 6 3 7 2 8 1 9
REMARK H PARENT
REMARK Flexibility Score: inf
ROOT
ATOM      1  C   UNL     1     -16.612  -8.774  -9.499  1.00  0.00     0.006 C 
ENDROOT
BRANCH   1   2
ATOM      2  C   UNL     1     -17.352  -8.194  -8.288  1.00  0.00     0.053 C 
BRANCH   2   3
ATOM      3  C   UNL     1     -16.861  -8.827  -7.025  1.00  0.00     0.041 C 
ATOM      4  O   UNL     1     -17.550  -9.708  -6.448  1.00  0.00    -0.550 OA
ATOM      5  O   UNL     1     -15.618  -8.478  -6.510  1.00  0.00    -0.550 OA
ENDBRANCH   2   3
ENDBRANCH   1   2
BRANCH   1   6
ATOM      6  C   UNL     1     -17.360  -9.951 -10.152  1.00  0.00     0.000 C 
BRANCH   6   7
ATOM      7  C   UNL     1     -18.885  -9.770 -10.263  1.00  0.00    -0.000 C 
BRANCH   7   8
ATOM      8  C   UNL     1     -19.444 -10.226 -11.619  1.00  0.00    -0.003 C 
ATOM      9  C   UNL     1     -19.330 -11.740 -11.779  1.00  0.00     0.004 C 
ENDBRANCH   7   8
ENDBRANCH   6   7
ENDBRANCH   1   6
TORSDOF 5
ENDMDL
MODEL 4
REMARK VINA RESULT:    -4.733      1.888      2.837
REMARK INTER + INTRA:          -6.417
REMARK INTER:                  -6.040
REMARK INTRA:                  -0.378
REMARK UNBOUND:                -0.301
REMARK SMILES CCCCCCC(=O)[O-]
REMARK SMILES IDX 5 1 6 2 7 3 8 4 9 5 4 6 3 7 2 8 1 9
REMARK H PARENT
REMARK Flexibility Score: inf
ROOT
ATOM      1  C   UNL     1     -15.142 -11.406 -10.205  1.00  0.00     0.006 C 
ENDROOT
BRANCH   1   2
ATOM      2  C   UNL     1     -14.806 -12.411  -9.096  1.00  0.00     0.053 C 
BRANCH   2   3
ATOM      3  C   UNL     1     -14.711 -11.716  -7.774  1.00  0.00     0.041 C 
ATOM      4  O   UNL     1     -13.690 -11.039  -7.486  1.00  0.00    -0.550 OA
ATOM      5  O   UNL     1     -15.772 -11.778  -6.880  1.00  0.00    -0.550 OA
ENDBRANCH   2   3
ENDBRANCH   1   2
BRANCH   1   6
ATOM      6  C   UNL     1     -16.637 -11.396 -10.573  1.00  0.00     0.000 C 
BRANCH   6   7
ATOM      7  C   UNL     1     -17.441 -10.218  -9.994  1.00  0.00    -0.000 C 
BRANCH   7   8
ATOM      8  C   UNL     1     -16.593  -8.951  -9.804  1.00  0.00    -0.003 C 
ATOM      9  C   UNL     1     -16.856  -8.314  -8.442  1.00  0.00     0.004 C 
ENDBRANCH   7   8
ENDBRANCH   6   7
ENDBRANCH   1   6
TORSDOF 5
ENDMDL
MODEL 5
REMARK VINA RESULT:    -4.683      3.262      4.982
REMARK INTER + INTRA:          -6.352
REMARK INTER:                  -6.152
REMARK INTRA:                  -0.200
REMARK UNBOUND:                -0.301
REMARK SMILES CCCCCCC(=O)[O-]
REMARK SMILES IDX 5 1 6 2 7 3 8 4 9 5 4 6 3 7 2 8 1 9
REMARK H PARENT
REMARK Flexibility Score: inf
ROOT
ATOM      1  C   UNL     1     -17.365 -10.030  -9.975  1.00  0.00     0.006 C 
ENDROOT
BRANCH   1   2
ATOM      2  C   UNL     1     -18.853  -9.794 -10.261  1.00  0.00     0.053 C 
BRANCH   2   3
ATOM      3  C   UNL     1     -19.315 -10.673 -11.380  1.00  0.00     0.041 C 
ATOM      4  O   UNL     1     -20.226 -10.284 -12.157  1.00  0.00    -0.550 OA
ATOM      5  O   UNL     1     -18.706 -11.903 -11.594  1.00  0.00    -0.550 OA
ENDBRANCH   2   3
ENDBRANCH   1   2
BRANCH   1   6
ATOM      6  C   UNL     1     -16.615  -8.741  -9.594  1.00  0.00     0.000 C 
BRANCH   6   7
ATOM      7  C   UNL     1     -16.995  -8.149  -8.225  1.00  0.00    -0.000 C 
BRANCH   7   8
ATOM      8  C   UNL     1     -16.147  -8.711  -7.074  1.00  0.00    -0.003 C 
ATOM      9  C   UNL     1     -16.920  -9.766  -6.287  1.00  0.00     0.004 C 
ENDBRANCH   7   8
ENDBRANCH   6   7
ENDBRANCH   1   6
TORSDOF 5
ENDMDL
MODEL 6
REMARK VINA RESULT:    -4.673      2.537      4.269
REMARK INTER + INTRA:          -6.340
REMARK INTER:                  -6.137
REMARK INTRA:                  -0.203
REMARK UNBOUND:                -0.301
REMARK SMILES CCCCCCC(=O)[O-]
REMARK SMILES IDX 5 1 6 2 7 3 8 4 9 5 4 6 3 7 2 8 1 9
REMARK H PARENT
REMARK Flexibility Score: inf
ROOT
ATOM      1  C   UNL     1     -17.014  -9.091  -9.946  1.00  0.00     0.006 C 
ENDROOT
BRANCH   1   2
ATOM      2  C   UNL     1     -18.353  -9.810 -10.153  1.00  0.00     0.053 C 
BRANCH   2   3
ATOM      3  C   UNL     1     -18.155 -11.061 -10.950  1.00  0.00     0.041 C 
ATOM      4  O   UNL     1     -17.024 -11.612 -10.994  1.00  0.00    -0.550 OA
ATOM      5  O   UNL     1     -19.232 -11.644 -11.606  1.00  0.00    -0.550 OA
ENDBRANCH   2   3
ENDBRANCH   1   2
BRANCH   1   6
ATOM      6  C   UNL     1     -16.966  -8.278  -8.640  1.00  0.00     0.000 C 
BRANCH   6   7
ATOM      7  C   UNL     1     -15.630  -8.351  -7.878  1.00  0.00    -0.000 C 
BRANCH   7   8
ATOM      8  C   UNL     1     -15.795  -8.819  -6.425  1.00  0.00    -0.003 C 
ATOM      9  C   UNL     1     -16.919  -9.845  -6.302  1.00  0.00     0.004 C 
ENDBRANCH   7   8
ENDBRANCH   6   7
ENDBRANCH   1   6
TORSDOF 5
ENDMDL
MODEL 7
REMARK VINA RESULT:    -4.647      2.278      3.703
REMARK INTER + INTRA:          -6.305
REMARK INTER:                  -5.928
REMARK INTRA:                  -0.377
REMARK UNBOUND:                -0.301
REMARK SMILES CCCCCCC(=O)[O-]
REMARK SMILES IDX 5 1 6 2 7 3 8 4 9 5 4 6 3 7 2 8 1 9
REMARK H PARENT
REMARK Flexibility Score: inf
ROOT
ATOM      1  C   UNL     1     -16.588  -8.743  -9.586  1.00  0.00     0.006 C 
ENDROOT
BRANCH   1   2
ATOM      2  C   UNL     1     -17.406  -8.318  -8.361  1.00  0.00     0.053 C 
BRANCH   2   3
ATOM      3  C   UNL     1     -16.781  -8.845  -7.108  1.00  0.00     0.041 C 
ATOM      4  O   UNL     1     -15.770  -8.278  -6.617  1.00  0.00    -0.550 OA
ATOM      5  O   UNL     1     -17.345  -9.934  -6.455  1.00  0.00    -0.550 OA
ENDBRANCH   2   3
ENDBRANCH   1   2
BRANCH   1   6
ATOM      6  C   UNL     1     -16.693 -10.250  -9.884  1.00  0.00     0.000 C 
BRANCH   6   7
ATOM      7  C   UNL     1     -15.346 -10.965 -10.100  1.00  0.00    -0.000 C 
BRANCH   7   8
ATOM      8  C   UNL     1     -15.073 -12.054  -9.052  1.00  0.00    -0.003 C 
ATOM      9  C   UNL     1     -14.281 -11.495  -7.872  1.00  0.00     0.004 C 
ENDBRANCH   7   8
ENDBRANCH   6   7
ENDBRANCH   1   6
TORSDOF 5
ENDMDL
MODEL 8
REMARK VINA RESULT:    -4.565      2.563      4.199
REMARK INTER + INTRA:          -6.200
REMARK INTER:                  -5.963
REMARK INTRA:                  -0.238
REMARK UNBOUND:                -0.301
REMARK SMILES CCCCCCC(=O)[O-]
REMARK SMILES IDX 5 1 6 2 7 3 8 4 9 5 4 6 3 7 2 8 1 9
REMARK H PARENT
REMARK Flexibility Score: inf
ROOT
ATOM      1  C   UNL     1     -16.733  -8.224  -8.309  1.00  0.00     0.006 C 
ENDROOT
BRANCH   1   2
ATOM      2  C   UNL     1     -16.759  -8.849  -9.709  1.00  0.00     0.053 C 
BRANCH   2   3
ATOM      3  C   UNL     1     -18.023  -9.622  -9.911  1.00  0.00     0.041 C 
ATOM      4  O   UNL     1     -19.117  -9.176  -9.475  1.00  0.00    -0.550 OA
ATOM      5  O   UNL     1     -18.002 -10.814 -10.624  1.00  0.00    -0.550 OA
ENDBRANCH   2   3
ENDBRANCH   1   2
BRANCH   1   6
ATOM      6  C   UNL     1     -15.363  -8.357  -7.618  1.00  0.00     0.000 C 
BRANCH   6   7
ATOM      7  C   UNL     1     -15.263  -9.496  -6.587  1.00  0.00    -0.000 C 
BRANCH   7   8
ATOM      8  C   UNL     1     -14.057 -10.416  -6.827  1.00  0.00    -0.003 C 
ATOM      9  C   UNL     1     -14.337 -11.405  -7.955  1.00  0.00     0.004 C 
ENDBRANCH   7   8
ENDBRANCH   6   7
ENDBRANCH   1   6
TORSDOF 5
ENDMDL
MODEL 9
REMARK VINA RESULT:    -4.560      1.504      2.091
REMARK INTER + INTRA:          -6.194
REMARK INTER:                  -5.828
REMARK INTRA:                  -0.366
REMARK UNBOUND:                -0.301
REMARK SMILES CCCCCCC(=O)[O-]
REMARK SMILES IDX 5 1 6 2 7 3 8 4 9 5 4 6 3 7 2 8 1 9
REMARK H PARENT
REMARK Flexibility Score: inf
ROOT
ATOM      1  C   UNL     1     -16.632  -8.359  -8.133  1.00  0.00     0.006 C 
ENDROOT
BRANCH   1   2
ATOM      2  C   UNL     1     -15.231  -8.708  -7.615  1.00  0.00     0.053 C 
BRANCH   2   3
ATOM      3  C   UNL     1     -15.070 -10.192  -7.506  1.00  0.00     0.041 C 
ATOM      4  O   UNL     1     -14.027 -10.749  -7.939  1.00  0.00    -0.550 OA
ATOM      5  O   UNL     1     -16.051 -10.954  -6.884  1.00  0.00    -0.550 OA
ENDBRANCH   2   3
ENDBRANCH   1   2
BRANCH   1   6
ATOM      6  C   UNL     1     -16.849  -8.773  -9.600  1.00  0.00     0.000 C 
BRANCH   6   7
ATOM      7  C   UNL     1     -18.184  -9.485  -9.884  1.00  0.00    -0.000 C 
BRANCH   7   8
ATOM      8  C   UNL     1     -18.028 -10.702 -10.807  1.00  0.00    -0.003 C 
ATOM      9  C   UNL     1     -16.677 -11.381 -10.597  1.00  0.00     0.004 C 
ENDBRANCH   7   8
ENDBRANCH   6   7
ENDBRANCH   1   6
TORSDOF 5
ENDMDL
