MODEL 1
REMARK VINA RESULT:    -3.739      0.000      0.000
REMARK INTER + INTRA:         -13.675
REMARK INTER:                  -9.423
REMARK INTRA:                  -4.253
REMARK UNBOUND:                -4.253
REMARK SMILES CCCCCCCCCCCCCCCCCCCCCCCCCCCC(=O)[O-]
REMARK SMILES IDX 15 1 16 2 17 3 18 4 19 5 20 6 21 7 22 8 23 9 24 10 25 11
REMARK SMILES IDX 26 12 27 13 28 14 29 15 30 16 14 17 13 18 12 19 11 20 10 21
REMARK SMILES IDX 9 22 8 23 7 24 6 25 5 26 4 27 3 28 2 29 1 30
REMARK H PARENT
REMARK Flexibility Score: inf
ROOT
ATOM      1  C   UNL     1      -3.670  -7.052 -19.181  1.00  0.00     0.000 C 
ENDROOT
BRANCH   1   2
ATOM      2  C   UNL     1      -2.974  -8.199 -19.940  1.00  0.00     0.000 C 
BRANCH   2   3
ATOM      3  C   UNL     1      -1.481  -7.968 -20.251  1.00  0.00     0.000 C 
BRANCH   3   4
ATOM      4  C   UNL     1      -0.536  -9.098 -19.804  1.00  0.00     0.000 C 
BRANCH   4   5
ATOM      5  C   UNL     1      -1.190 -10.488 -19.878  1.00  0.00     0.000 C 
BRANCH   5   6
ATOM      6  C   UNL     1      -0.289 -11.534 -20.560  1.00  0.00     0.000 C 
BRANCH   6   7
ATOM      7  C   UNL     1      -0.692 -11.913 -22.001  1.00  0.00     0.000 C 
BRANCH   7   8
ATOM      8  C   UNL     1      -0.634 -10.763 -23.022  1.00  0.00     0.000 C 
BRANCH   8   9
ATOM      9  C   UNL     1      -2.024 -10.201 -23.367  1.00  0.00     0.000 C 
BRANCH   9  10
ATOM     10  C   UNL     1      -1.972  -8.731 -23.813  1.00  0.00     0.000 C 
BRANCH  10  11
ATOM     11  C   UNL     1      -0.706  -8.400 -24.624  1.00  0.00     0.000 C 
BRANCH  11  12
ATOM     12  C   UNL     1      -0.984  -8.265 -26.133  1.00  0.00     0.006 C 
BRANCH  12  13
ATOM     13  C   UNL     1      -0.461  -9.437 -26.978  1.00  0.00     0.053 C 
BRANCH  13  14
ATOM     14  C   UNL     1      -1.432 -10.579 -27.014  1.00  0.00     0.041 C 
ATOM     15  O   UNL     1      -1.022 -11.756 -27.193  1.00  0.00    -0.550 OA
ATOM     16  O   UNL     1      -2.788 -10.344 -26.819  1.00  0.00    -0.550 OA
ENDBRANCH  13  14
ENDBRANCH  12  13
ENDBRANCH  11  12
ENDBRANCH  10  11
ENDBRANCH   9  10
ENDBRANCH   8   9
ENDBRANCH   7   8
ENDBRANCH   6   7
ENDBRANCH   5   6
ENDBRANCH   4   5
ENDBRANCH   3   4
ENDBRANCH   2   3
ENDBRANCH   1   2
BRANCH   1  17
ATOM     17  C   UNL     1      -4.271  -7.444 -17.816  1.00  0.00     0.000 C 
BRANCH  17  18
ATOM     18  C   UNL     1      -3.257  -7.531 -16.662  1.00  0.00     0.000 C 
BRANCH  18  19
ATOM     19  C   UNL     1      -2.022  -6.647 -16.884  1.00  0.00     0.000 C 
BRANCH  19  20
ATOM     20  C   UNL     1      -0.916  -6.994 -15.876  1.00  0.00     0.000 C 
BRANCH  20  21
ATOM     21  C   UNL     1       0.062  -8.062 -16.399  1.00  0.00     0.000 C 
BRANCH  21  22
ATOM     22  C   UNL     1      -0.012  -9.418 -15.673  1.00  0.00    -0.000 C 
BRANCH  22  23
ATOM     23  C   UNL     1      -0.238  -9.273 -14.157  1.00  0.00    -0.000 C 
BRANCH  23  24
ATOM     24  C   UNL     1      -1.510  -9.987 -13.677  1.00  0.00    -0.000 C 
BRANCH  24  25
ATOM     25  C   UNL     1      -2.062 -10.980 -14.715  1.00  0.00    -0.000 C 
BRANCH  25  26
ATOM     26  C   UNL     1      -3.508 -11.414 -14.397  1.00  0.00    -0.000 C 
BRANCH  26  27
ATOM     27  C   UNL     1      -4.575 -10.432 -14.910  1.00  0.00    -0.000 C 
BRANCH  27  28
ATOM     28  C   UNL     1      -5.644 -11.113 -15.779  1.00  0.00    -0.000 C 
BRANCH  28  29
ATOM     29  C   UNL     1      -5.533 -10.724 -17.261  1.00  0.00    -0.003 C 
ATOM     30  C   UNL     1      -4.223 -11.191 -17.895  1.00  0.00     0.004 C 
ENDBRANCH  28  29
ENDBRANCH  27  28
ENDBRANCH  26  27
ENDBRANCH  25  26
ENDBRANCH  24  25
ENDBRANCH  23  24
ENDBRANCH  22  23
ENDBRANCH  21  22
ENDBRANCH  20  21
ENDBRANCH  19  20
ENDBRANCH  18  19
ENDBRANCH  17  18
ENDBRANCH   1  17
TORSDOF 26
ENDMDL
MODEL 2
REMARK VINA RESULT:    -3.382     15.205     19.413
REMARK INTER + INTRA:         -12.774
REMARK INTER:                 -11.125
REMARK INTRA:                  -1.649
REMARK UNBOUND:                -4.253
REMARK SMILES CCCCCCCCCCCCCCCCCCCCCCCCCCCC(=O)[O-]
REMARK SMILES IDX 15 1 16 2 17 3 18 4 19 5 20 6 21 7 22 8 23 9 24 10 25 11
REMARK SMILES IDX 26 12 27 13 28 14 29 15 30 16 14 17 13 18 12 19 11 20 10 21
REMARK SMILES IDX 9 22 8 23 7 24 6 25 5 26 4 27 3 28 2 29 1 30
REMARK H PARENT
REMARK Flexibility Score: inf
ROOT
ATOM      1  C   UNL     1     -15.458  -1.594 -18.435  1.00  0.00     0.000 C 
ENDROOT
BRANCH   1   2
ATOM      2  C   UNL     1     -14.902  -1.939 -17.039  1.00  0.00     0.000 C 
BRANCH   2   3
ATOM      3  C   UNL     1     -15.871  -1.686 -15.866  1.00  0.00     0.000 C 
BRANCH   3   4
ATOM      4  C   UNL     1     -16.003  -2.846 -14.863  1.00  0.00     0.000 C 
BRANCH   4   5
ATOM      5  C   UNL     1     -16.502  -4.146 -15.516  1.00  0.00     0.000 C 
BRANCH   5   6
ATOM      6  C   UNL     1     -16.120  -5.402 -14.711  1.00  0.00     0.000 C 
BRANCH   6   7
ATOM      7  C   UNL     1     -16.806  -6.709 -15.161  1.00  0.00     0.000 C 
BRANCH   7   8
ATOM      8  C   UNL     1     -17.193  -7.672 -14.025  1.00  0.00     0.000 C 
BRANCH   8   9
ATOM      9  C   UNL     1     -17.202  -9.145 -14.467  1.00  0.00     0.000 C 
BRANCH   9  10
ATOM     10  C   UNL     1     -16.960 -10.114 -13.299  1.00  0.00     0.000 C 
BRANCH  10  11
ATOM     11  C   UNL     1     -16.497 -11.506 -13.766  1.00  0.00     0.000 C 
BRANCH  11  12
ATOM     12  C   UNL     1     -15.044 -11.815 -13.362  1.00  0.00     0.006 C 
BRANCH  12  13
ATOM     13  C   UNL     1     -14.006 -10.848 -13.952  1.00  0.00     0.053 C 
BRANCH  13  14
ATOM     14  C   UNL     1     -13.253 -10.114 -12.884  1.00  0.00     0.041 C 
ATOM     15  O   UNL     1     -13.732  -9.064 -12.378  1.00  0.00    -0.550 OA
ATOM     16  O   UNL     1     -12.037 -10.606 -12.427  1.00  0.00    -0.550 OA
ENDBRANCH  13  14
ENDBRANCH  12  13
ENDBRANCH  11  12
ENDBRANCH  10  11
ENDBRANCH   9  10
ENDBRANCH   8   9
ENDBRANCH   7   8
ENDBRANCH   6   7
ENDBRANCH   5   6
ENDBRANCH   4   5
ENDBRANCH   3   4
ENDBRANCH   2   3
ENDBRANCH   1   2
BRANCH   1  17
ATOM     17  C   UNL     1     -16.991  -1.459 -18.510  1.00  0.00     0.000 C 
BRANCH  17  18
ATOM     18  C   UNL     1     -17.498  -0.308 -19.397  1.00  0.00     0.000 C 
BRANCH  18  19
ATOM     19  C   UNL     1     -18.972  -0.467 -19.799  1.00  0.00     0.000 C 
BRANCH  19  20
ATOM     20  C   UNL     1     -19.192  -1.791 -20.547  1.00  0.00     0.000 C 
BRANCH  20  21
ATOM     21  C   UNL     1     -19.324  -1.607 -22.069  1.00  0.00     0.000 C 
BRANCH  21  22
ATOM     22  C   UNL     1     -18.110  -0.947 -22.749  1.00  0.00    -0.000 C 
BRANCH  22  23
ATOM     23  C   UNL     1     -18.510   0.084 -23.820  1.00  0.00    -0.000 C 
BRANCH  23  24
ATOM     24  C   UNL     1     -19.842   0.779 -23.504  1.00  0.00    -0.000 C 
BRANCH  24  25
ATOM     25  C   UNL     1     -19.825   2.279 -23.850  1.00  0.00    -0.000 C 
BRANCH  25  26
ATOM     26  C   UNL     1     -18.431   2.909 -23.650  1.00  0.00    -0.000 C 
BRANCH  26  27
ATOM     27  C   UNL     1     -17.896   3.634 -24.897  1.00  0.00    -0.000 C 
BRANCH  27  28
ATOM     28  C   UNL     1     -17.469   5.082 -24.609  1.00  0.00    -0.000 C 
BRANCH  28  29
ATOM     29  C   UNL     1     -18.357   6.111 -25.325  1.00  0.00    -0.003 C 
ATOM     30  C   UNL     1     -18.613   7.357 -24.479  1.00  0.00     0.004 C 
ENDBRANCH  28  29
ENDBRANCH  27  28
ENDBRANCH  26  27
ENDBRANCH  25  26
ENDBRANCH  24  25
ENDBRANCH  23  24
ENDBRANCH  22  23
ENDBRANCH  21  22
ENDBRANCH  20  21
ENDBRANCH  19  20
ENDBRANCH  18  19
ENDBRANCH  17  18
ENDBRANCH   1  17
TORSDOF 26
ENDMDL
MODEL 3
REMARK VINA RESULT:    -3.311      1.603      4.532
REMARK INTER + INTRA:         -12.597
REMARK INTER:                  -8.637
REMARK INTRA:                  -3.960
REMARK UNBOUND:                -4.253
REMARK SMILES CCCCCCCCCCCCCCCCCCCCCCCCCCCC(=O)[O-]
REMARK SMILES IDX 15 1 16 2 17 3 18 4 19 5 20 6 21 7 22 8 23 9 24 10 25 11
REMARK SMILES IDX 26 12 27 13 28 14 29 15 30 16 14 17 13 18 12 19 11 20 10 21
REMARK SMILES IDX 9 22 8 23 7 24 6 25 5 26 4 27 3 28 2 29 1 30
REMARK H PARENT
REMARK Flexibility Score: inf
ROOT
ATOM      1  C   UNL     1      -5.645  -8.365 -14.298  1.00  0.00     0.000 C 
ENDROOT
BRANCH   1   2
ATOM      2  C   UNL     1      -4.833  -8.209 -15.598  1.00  0.00     0.000 C 
BRANCH   2   3
ATOM      3  C   UNL     1      -5.559  -8.657 -16.883  1.00  0.00     0.000 C 
BRANCH   3   4
ATOM      4  C   UNL     1      -5.303 -10.115 -17.307  1.00  0.00     0.000 C 
BRANCH   4   5
ATOM      5  C   UNL     1      -4.160 -10.249 -18.327  1.00  0.00     0.000 C 
BRANCH   5   6
ATOM      6  C   UNL     1      -2.881 -10.850 -17.714  1.00  0.00     0.000 C 
BRANCH   6   7
ATOM      7  C   UNL     1      -2.352 -12.123 -18.406  1.00  0.00     0.000 C 
BRANCH   7   8
ATOM      8  C   UNL     1      -0.853 -12.108 -18.750  1.00  0.00     0.000 C 
BRANCH   8   9
ATOM      9  C   UNL     1      -0.206 -10.727 -18.547  1.00  0.00     0.000 C 
BRANCH   9  10
ATOM     10  C   UNL     1       0.080 -10.010 -19.875  1.00  0.00     0.000 C 
BRANCH  10  11
ATOM     11  C   UNL     1      -0.460 -10.777 -21.096  1.00  0.00     0.000 C 
BRANCH  11  12
ATOM     12  C   UNL     1      -1.106  -9.852 -22.143  1.00  0.00     0.006 C 
BRANCH  12  13
ATOM     13  C   UNL     1      -0.882 -10.292 -23.598  1.00  0.00     0.053 C 
BRANCH  13  14
ATOM     14  C   UNL     1      -1.948  -9.769 -24.512  1.00  0.00     0.041 C 
ATOM     15  O   UNL     1      -3.162  -9.988 -24.262  1.00  0.00    -0.550 OA
ATOM     16  O   UNL     1      -1.600  -9.015 -25.627  1.00  0.00    -0.550 OA
ENDBRANCH  13  14
ENDBRANCH  12  13
ENDBRANCH  11  12
ENDBRANCH  10  11
ENDBRANCH   9  10
ENDBRANCH   8   9
ENDBRANCH   7   8
ENDBRANCH   6   7
ENDBRANCH   5   6
ENDBRANCH   4   5
ENDBRANCH   3   4
ENDBRANCH   2   3
ENDBRANCH   1   2
BRANCH   1  17
ATOM     17  C   UNL     1      -6.739  -9.451 -14.339  1.00  0.00     0.000 C 
BRANCH  17  18
ATOM     18  C   UNL     1      -6.353 -10.786 -13.679  1.00  0.00     0.000 C 
BRANCH  18  19
ATOM     19  C   UNL     1      -5.644 -11.747 -14.645  1.00  0.00     0.000 C 
BRANCH  19  20
ATOM     20  C   UNL     1      -4.254 -12.125 -14.114  1.00  0.00     0.000 C 
BRANCH  20  21
ATOM     21  C   UNL     1      -3.267 -10.944 -14.117  1.00  0.00     0.000 C 
BRANCH  21  22
ATOM     22  C   UNL     1      -1.895 -11.245 -13.484  1.00  0.00    -0.000 C 
BRANCH  22  23
ATOM     23  C   UNL     1      -0.742 -11.189 -14.502  1.00  0.00    -0.000 C 
BRANCH  23  24
ATOM     24  C   UNL     1      -0.421  -9.757 -14.956  1.00  0.00    -0.000 C 
BRANCH  24  25
ATOM     25  C   UNL     1      -0.642  -8.718 -13.842  1.00  0.00    -0.000 C 
BRANCH  25  26
ATOM     26  C   UNL     1      -1.299  -7.426 -14.371  1.00  0.00    -0.000 C 
BRANCH  26  27
ATOM     27  C   UNL     1      -0.640  -6.874 -15.646  1.00  0.00    -0.000 C 
BRANCH  27  28
ATOM     28  C   UNL     1      -1.662  -6.483 -16.726  1.00  0.00    -0.000 C 
BRANCH  28  29
ATOM     29  C   UNL     1      -1.690  -7.478 -17.897  1.00  0.00    -0.003 C 
ATOM     30  C   UNL     1      -2.897  -7.275 -18.811  1.00  0.00     0.004 C 
ENDBRANCH  28  29
ENDBRANCH  27  28
ENDBRANCH  26  27
ENDBRANCH  25  26
ENDBRANCH  24  25
ENDBRANCH  23  24
ENDBRANCH  22  23
ENDBRANCH  21  22
ENDBRANCH  20  21
ENDBRANCH  19  20
ENDBRANCH  18  19
ENDBRANCH  17  18
ENDBRANCH   1  17
TORSDOF 26
ENDMDL
MODEL 4
REMARK VINA RESULT:    -3.296      2.913      8.275
REMARK INTER + INTRA:         -12.558
REMARK INTER:                  -8.883
REMARK INTRA:                  -3.675
REMARK UNBOUND:                -4.253
REMARK SMILES CCCCCCCCCCCCCCCCCCCCCCCCCCCC(=O)[O-]
REMARK SMILES IDX 15 1 16 2 17 3 18 4 19 5 20 6 21 7 22 8 23 9 24 10 25 11
REMARK SMILES IDX 26 12 27 13 28 14 29 15 30 16 14 17 13 18 12 19 11 20 10 21
REMARK SMILES IDX 9 22 8 23 7 24 6 25 5 26 4 27 3 28 2 29 1 30
REMARK H PARENT
REMARK Flexibility Score: inf
ROOT
ATOM      1  C   UNL     1      -4.055  -7.093 -19.208  1.00  0.00     0.000 C 
ENDROOT
BRANCH   1   2
ATOM      2  C   UNL     1      -4.634  -7.954 -18.068  1.00  0.00     0.000 C 
BRANCH   2   3
ATOM      3  C   UNL     1      -4.747  -7.245 -16.702  1.00  0.00     0.000 C 
BRANCH   3   4
ATOM      4  C   UNL     1      -5.097  -8.161 -15.516  1.00  0.00     0.000 C 
BRANCH   4   5
ATOM      5  C   UNL     1      -3.857  -8.635 -14.741  1.00  0.00     0.000 C 
BRANCH   5   6
ATOM      6  C   UNL     1      -2.575  -7.888 -15.153  1.00  0.00     0.000 C 
BRANCH   6   7
ATOM      7  C   UNL     1      -1.254  -8.619 -14.836  1.00  0.00     0.000 C 
BRANCH   7   8
ATOM      8  C   UNL     1      -1.099  -9.096 -13.381  1.00  0.00     0.000 C 
BRANCH   8   9
ATOM      9  C   UNL     1      -0.790 -10.599 -13.275  1.00  0.00     0.000 C 
BRANCH   9  10
ATOM     10  C   UNL     1      -1.689 -11.451 -14.183  1.00  0.00     0.000 C 
BRANCH  10  11
ATOM     11  C   UNL     1      -2.942 -11.974 -13.458  1.00  0.00     0.000 C 
BRANCH  11  12
ATOM     12  C   UNL     1      -4.158 -12.108 -14.393  1.00  0.00     0.006 C 
BRANCH  12  13
ATOM     13  C   UNL     1      -3.806 -12.119 -15.889  1.00  0.00     0.053 C 
BRANCH  13  14
ATOM     14  C   UNL     1      -4.949 -11.652 -16.738  1.00  0.00     0.041 C 
ATOM     15  O   UNL     1      -6.089 -11.484 -16.231  1.00  0.00    -0.550 OA
ATOM     16  O   UNL     1      -4.746 -11.375 -18.085  1.00  0.00    -0.550 OA
ENDBRANCH  13  14
ENDBRANCH  12  13
ENDBRANCH  11  12
ENDBRANCH  10  11
ENDBRANCH   9  10
ENDBRANCH   8   9
ENDBRANCH   7   8
ENDBRANCH   6   7
ENDBRANCH   5   6
ENDBRANCH   4   5
ENDBRANCH   3   4
ENDBRANCH   2   3
ENDBRANCH   1   2
BRANCH   1  17
ATOM     17  C   UNL     1      -2.596  -7.412 -19.589  1.00  0.00     0.000 C 
BRANCH  17  18
ATOM     18  C   UNL     1      -1.725  -7.943 -18.437  1.00  0.00     0.000 C 
BRANCH  18  19
ATOM     19  C   UNL     1      -0.476  -8.689 -18.927  1.00  0.00     0.000 C 
BRANCH  19  20
ATOM     20  C   UNL     1      -0.130  -9.851 -17.983  1.00  0.00     0.000 C 
BRANCH  20  21
ATOM     21  C   UNL     1      -0.910 -11.139 -18.304  1.00  0.00     0.000 C 
BRANCH  21  22
ATOM     22  C   UNL     1      -1.676 -11.115 -19.640  1.00  0.00    -0.000 C 
BRANCH  22  23
ATOM     23  C   UNL     1      -1.016 -11.988 -20.723  1.00  0.00    -0.000 C 
BRANCH  23  24
ATOM     24  C   UNL     1      -0.443 -11.160 -21.883  1.00  0.00    -0.000 C 
BRANCH  24  25
ATOM     25  C   UNL     1      -1.259  -9.885 -22.163  1.00  0.00    -0.000 C 
BRANCH  25  26
ATOM     26  C   UNL     1      -2.197 -10.047 -23.377  1.00  0.00    -0.000 C 
BRANCH  26  27
ATOM     27  C   UNL     1      -1.904 -11.298 -24.223  1.00  0.00    -0.000 C 
BRANCH  27  28
ATOM     28  C   UNL     1      -0.814 -11.063 -25.280  1.00  0.00    -0.000 C 
BRANCH  28  29
ATOM     29  C   UNL     1      -0.949  -9.696 -25.970  1.00  0.00    -0.003 C 
ATOM     30  C   UNL     1      -0.947  -9.805 -27.494  1.00  0.00     0.004 C 
ENDBRANCH  28  29
ENDBRANCH  27  28
ENDBRANCH  26  27
ENDBRANCH  25  26
ENDBRANCH  24  25
ENDBRANCH  23  24
ENDBRANCH  22  23
ENDBRANCH  21  22
ENDBRANCH  20  21
ENDBRANCH  19  20
ENDBRANCH  18  19
ENDBRANCH  17  18
ENDBRANCH   1  17
TORSDOF 26
ENDMDL
MODEL 5
REMARK VINA RESULT:    -3.270     16.004     18.516
REMARK INTER + INTRA:         -12.494
REMARK INTER:                 -10.335
REMARK INTRA:                  -2.159
REMARK UNBOUND:                -4.253
REMARK SMILES CCCCCCCCCCCCCCCCCCCCCCCCCCCC(=O)[O-]
REMARK SMILES IDX 15 1 16 2 17 3 18 4 19 5 20 6 21 7 22 8 23 9 24 10 25 11
REMARK SMILES IDX 26 12 27 13 28 14 29 15 30 16 14 17 13 18 12 19 11 20 10 21
REMARK SMILES IDX 9 22 8 23 7 24 6 25 5 26 4 27 3 28 2 29 1 30
REMARK H PARENT
REMARK Flexibility Score: inf
ROOT
ATOM      1  C   UNL     1     -15.887  -2.723 -18.144  1.00  0.00     0.000 C 
ENDROOT
BRANCH   1   2
ATOM      2  C   UNL     1     -16.397  -1.705 -19.183  1.00  0.00     0.000 C 
BRANCH   2   3
ATOM      3  C   UNL     1     -17.774  -2.030 -19.798  1.00  0.00     0.000 C 
BRANCH   3   4
ATOM      4  C   UNL     1     -18.161  -1.181 -21.023  1.00  0.00     0.000 C 
BRANCH   4   5
ATOM      5  C   UNL     1     -17.125  -1.261 -22.157  1.00  0.00     0.000 C 
BRANCH   5   6
ATOM      6  C   UNL     1     -17.621  -0.615 -23.464  1.00  0.00     0.000 C 
BRANCH   6   7
ATOM      7  C   UNL     1     -19.143  -0.378 -23.547  1.00  0.00     0.000 C 
BRANCH   7   8
ATOM      8  C   UNL     1     -19.569   1.088 -23.739  1.00  0.00     0.000 C 
BRANCH   8   9
ATOM      9  C   UNL     1     -18.373   2.044 -23.888  1.00  0.00     0.000 C 
BRANCH   9  10
ATOM     10  C   UNL     1     -18.751   3.356 -24.593  1.00  0.00     0.000 C 
BRANCH  10  11
ATOM     11  C   UNL     1     -19.720   4.219 -23.765  1.00  0.00     0.000 C 
BRANCH  11  12
ATOM     12  C   UNL     1     -19.637   5.715 -24.121  1.00  0.00     0.006 C 
BRANCH  12  13
ATOM     13  C   UNL     1     -18.478   6.076 -25.063  1.00  0.00     0.053 C 
BRANCH  13  14
ATOM     14  C   UNL     1     -18.844   7.186 -26.001  1.00  0.00     0.041 C 
ATOM     15  O   UNL     1     -18.229   7.324 -27.092  1.00  0.00    -0.550 OA
ATOM     16  O   UNL     1     -19.883   8.051 -25.683  1.00  0.00    -0.550 OA
ENDBRANCH  13  14
ENDBRANCH  12  13
ENDBRANCH  11  12
ENDBRANCH  10  11
ENDBRANCH   9  10
ENDBRANCH   8   9
ENDBRANCH   7   8
ENDBRANCH   6   7
ENDBRANCH   5   6
ENDBRANCH   4   5
ENDBRANCH   3   4
ENDBRANCH   2   3
ENDBRANCH   1   2
BRANCH   1  17
ATOM     17  C   UNL     1     -15.689  -2.159 -16.723  1.00  0.00     0.000 C 
BRANCH  17  18
ATOM     18  C   UNL     1     -16.874  -1.343 -16.177  1.00  0.00     0.000 C 
BRANCH  18  19
ATOM     19  C   UNL     1     -17.862  -2.194 -15.365  1.00  0.00     0.000 C 
BRANCH  19  20
ATOM     20  C   UNL     1     -18.921  -2.823 -16.283  1.00  0.00     0.000 C 
BRANCH  20  21
ATOM     21  C   UNL     1     -18.822  -4.357 -16.353  1.00  0.00     0.000 C 
BRANCH  21  22
ATOM     22  C   UNL     1     -18.132  -5.017 -15.145  1.00  0.00    -0.000 C 
BRANCH  22  23
ATOM     23  C   UNL     1     -16.804  -5.702 -15.515  1.00  0.00    -0.000 C 
BRANCH  23  24
ATOM     24  C   UNL     1     -16.851  -7.225 -15.324  1.00  0.00    -0.000 C 
BRANCH  24  25
ATOM     25  C   UNL     1     -16.066  -7.693 -14.086  1.00  0.00    -0.000 C 
BRANCH  25  26
ATOM     26  C   UNL     1     -16.861  -8.708 -13.239  1.00  0.00    -0.000 C 
BRANCH  26  27
ATOM     27  C   UNL     1     -16.000  -9.851 -12.674  1.00  0.00    -0.000 C 
BRANCH  27  28
ATOM     28  C   UNL     1     -14.493  -9.567 -12.772  1.00  0.00    -0.000 C 
BRANCH  28  29
ATOM     29  C   UNL     1     -13.779 -10.512 -13.752  1.00  0.00    -0.003 C 
ATOM     30  C   UNL     1     -14.631 -11.725 -14.125  1.00  0.00     0.004 C 
ENDBRANCH  28  29
ENDBRANCH  27  28
ENDBRANCH  26  27
ENDBRANCH  25  26
ENDBRANCH  24  25
ENDBRANCH  23  24
ENDBRANCH  22  23
ENDBRANCH  21  22
ENDBRANCH  20  21
ENDBRANCH  19  20
ENDBRANCH  18  19
ENDBRANCH  17  18
ENDBRANCH   1  17
TORSDOF 26
ENDMDL
MODEL 6
REMARK VINA RESULT:    -3.257     16.474     20.065
REMARK INTER + INTRA:         -12.460
REMARK INTER:                  -8.775
REMARK INTRA:                  -3.685
REMARK UNBOUND:                -4.253
REMARK SMILES CCCCCCCCCCCCCCCCCCCCCCCCCCCC(=O)[O-]
REMARK SMILES IDX 15 1 16 2 17 3 18 4 19 5 20 6 21 7 22 8 23 9 24 10 25 11
REMARK SMILES IDX 26 12 27 13 28 14 29 15 30 16 14 17 13 18 12 19 11 20 10 21
REMARK SMILES IDX 9 22 8 23 7 24 6 25 5 26 4 27 3 28 2 29 1 30
REMARK H PARENT
REMARK Flexibility Score: inf
ROOT
ATOM      1  C   UNL     1     -19.418   2.697 -19.345  1.00  0.00     0.000 C 
ENDROOT
BRANCH   1   2
ATOM      2  C   UNL     1     -20.123   2.425 -18.002  1.00  0.00     0.000 C 
BRANCH   2   3
ATOM      3  C   UNL     1     -19.305   2.789 -16.746  1.00  0.00     0.000 C 
BRANCH   3   4
ATOM      4  C   UNL     1     -18.661   1.598 -16.015  1.00  0.00     0.000 C 
BRANCH   4   5
ATOM      5  C   UNL     1     -19.338   0.257 -16.345  1.00  0.00     0.000 C 
BRANCH   5   6
ATOM      6  C   UNL     1     -18.970  -0.858 -15.349  1.00  0.00     0.000 C 
BRANCH   6   7
ATOM      7  C   UNL     1     -17.458  -1.111 -15.170  1.00  0.00     0.000 C 
BRANCH   7   8
ATOM      8  C   UNL     1     -16.912  -2.358 -15.889  1.00  0.00     0.000 C 
BRANCH   8   9
ATOM      9  C   UNL     1     -18.022  -3.318 -16.347  1.00  0.00     0.000 C 
BRANCH   9  10
ATOM     10  C   UNL     1     -18.111  -4.578 -15.472  1.00  0.00     0.000 C 
BRANCH  10  11
ATOM     11  C   UNL     1     -16.729  -5.092 -15.028  1.00  0.00     0.000 C 
BRANCH  11  12
ATOM     12  C   UNL     1     -16.617  -6.627 -15.092  1.00  0.00     0.006 C 
BRANCH  12  13
ATOM     13  C   UNL     1     -17.487  -7.278 -16.179  1.00  0.00     0.053 C 
BRANCH  13  14
ATOM     14  C   UNL     1     -18.116  -8.552 -15.704  1.00  0.00     0.041 C 
ATOM     15  O   UNL     1     -17.738  -9.084 -14.628  1.00  0.00    -0.550 OA
ATOM     16  O   UNL     1     -19.141  -9.137 -16.438  1.00  0.00    -0.550 OA
ENDBRANCH  13  14
ENDBRANCH  12  13
ENDBRANCH  11  12
ENDBRANCH  10  11
ENDBRANCH   9  10
ENDBRANCH   8   9
ENDBRANCH   7   8
ENDBRANCH   6   7
ENDBRANCH   5   6
ENDBRANCH   4   5
ENDBRANCH   3   4
ENDBRANCH   2   3
ENDBRANCH   1   2
BRANCH   1  17
ATOM     17  C   UNL     1     -19.473   4.161 -19.826  1.00  0.00     0.000 C 
BRANCH  17  18
ATOM     18  C   UNL     1     -20.125   4.366 -21.205  1.00  0.00     0.000 C 
BRANCH  18  19
ATOM     19  C   UNL     1     -19.276   3.807 -22.356  1.00  0.00     0.000 C 
BRANCH  19  20
ATOM     20  C   UNL     1     -19.910   2.531 -22.931  1.00  0.00     0.000 C 
BRANCH  20  21
ATOM     21  C   UNL     1     -18.961   1.752 -23.858  1.00  0.00     0.000 C 
BRANCH  21  22
ATOM     22  C   UNL     1     -19.221   0.236 -23.924  1.00  0.00    -0.000 C 
BRANCH  22  23
ATOM     23  C   UNL     1     -18.123  -0.590 -23.229  1.00  0.00    -0.000 C 
BRANCH  23  24
ATOM     24  C   UNL     1     -18.691  -1.616 -22.238  1.00  0.00    -0.000 C 
BRANCH  24  25
ATOM     25  C   UNL     1     -19.990  -1.137 -21.567  1.00  0.00    -0.000 C 
BRANCH  25  26
ATOM     26  C   UNL     1     -19.871  -1.089 -20.029  1.00  0.00    -0.000 C 
BRANCH  26  27
ATOM     27  C   UNL     1     -18.528  -1.616 -19.497  1.00  0.00    -0.000 C 
BRANCH  27  28
ATOM     28  C   UNL     1     -17.497  -0.500 -19.265  1.00  0.00    -0.000 C 
BRANCH  28  29
ATOM     29  C   UNL     1     -16.051  -0.989 -19.438  1.00  0.00    -0.003 C 
ATOM     30  C   UNL     1     -15.969  -2.483 -19.749  1.00  0.00     0.004 C 
ENDBRANCH  28  29
ENDBRANCH  27  28
ENDBRANCH  26  27
ENDBRANCH  25  26
ENDBRANCH  24  25
ENDBRANCH  23  24
ENDBRANCH  22  23
ENDBRANCH  21  22
ENDBRANCH  20  21
ENDBRANCH  19  20
ENDBRANCH  18  19
ENDBRANCH  17  18
ENDBRANCH   1  17
TORSDOF 26
ENDMDL
MODEL 7
REMARK VINA RESULT:    -3.254     14.669     18.609
REMARK INTER + INTRA:         -12.454
REMARK INTER:                  -8.608
REMARK INTRA:                  -3.846
REMARK UNBOUND:                -4.253
REMARK SMILES CCCCCCCCCCCCCCCCCCCCCCCCCCCC(=O)[O-]
REMARK SMILES IDX 15 1 16 2 17 3 18 4 19 5 20 6 21 7 22 8 23 9 24 10 25 11
REMARK SMILES IDX 26 12 27 13 28 14 29 15 30 16 14 17 13 18 12 19 11 20 10 21
REMARK SMILES IDX 9 22 8 23 7 24 6 25 5 26 4 27 3 28 2 29 1 30
REMARK H PARENT
REMARK Flexibility Score: inf
ROOT
ATOM      1  C   UNL     1     -15.987  -1.918 -18.114  1.00  0.00     0.000 C 
ENDROOT
BRANCH   1   2
ATOM      2  C   UNL     1     -14.974  -2.008 -16.956  1.00  0.00     0.000 C 
BRANCH   2   3
ATOM      3  C   UNL     1     -15.470  -1.450 -15.606  1.00  0.00     0.000 C 
BRANCH   3   4
ATOM      4  C   UNL     1     -16.382  -2.394 -14.802  1.00  0.00     0.000 C 
BRANCH   4   5
ATOM      5  C   UNL     1     -15.646  -3.643 -14.290  1.00  0.00     0.000 C 
BRANCH   5   6
ATOM      6  C   UNL     1     -16.107  -4.935 -14.989  1.00  0.00     0.000 C 
BRANCH   6   7
ATOM      7  C   UNL     1     -17.635  -5.147 -15.046  1.00  0.00     0.000 C 
BRANCH   7   8
ATOM      8  C   UNL     1     -18.090  -6.610 -15.188  1.00  0.00     0.000 C 
BRANCH   8   9
ATOM      9  C   UNL     1     -18.826  -7.130 -13.942  1.00  0.00     0.000 C 
BRANCH   9  10
ATOM     10  C   UNL     1     -18.098  -8.308 -13.276  1.00  0.00     0.000 C 
BRANCH  10  11
ATOM     11  C   UNL     1     -16.610  -8.384 -13.664  1.00  0.00     0.000 C 
BRANCH  11  12
ATOM     12  C   UNL     1     -15.859  -9.507 -12.925  1.00  0.00     0.006 C 
BRANCH  12  13
ATOM     13  C   UNL     1     -14.534  -9.920 -13.586  1.00  0.00     0.053 C 
BRANCH  13  14
ATOM     14  C   UNL     1     -13.629 -10.633 -12.628  1.00  0.00     0.041 C 
ATOM     15  O   UNL     1     -14.083 -11.536 -11.877  1.00  0.00    -0.550 OA
ATOM     16  O   UNL     1     -12.276 -10.317 -12.585  1.00  0.00    -0.550 OA
ENDBRANCH  13  14
ENDBRANCH  12  13
ENDBRANCH  11  12
ENDBRANCH  10  11
ENDBRANCH   9  10
ENDBRANCH   8   9
ENDBRANCH   7   8
ENDBRANCH   6   7
ENDBRANCH   5   6
ENDBRANCH   4   5
ENDBRANCH   3   4
ENDBRANCH   2   3
ENDBRANCH   1   2
BRANCH   1  17
ATOM     17  C   UNL     1     -16.937  -3.126 -18.245  1.00  0.00     0.000 C 
BRANCH  17  18
ATOM     18  C   UNL     1     -18.379  -2.776 -18.651  1.00  0.00     0.000 C 
BRANCH  18  19
ATOM     19  C   UNL     1     -19.416  -3.208 -17.604  1.00  0.00     0.000 C 
BRANCH  19  20
ATOM     20  C   UNL     1     -20.124  -1.984 -17.002  1.00  0.00     0.000 C 
BRANCH  20  21
ATOM     21  C   UNL     1     -19.230  -1.185 -16.038  1.00  0.00     0.000 C 
BRANCH  21  22
ATOM     22  C   UNL     1     -19.202   0.334 -16.291  1.00  0.00    -0.000 C 
BRANCH  22  23
ATOM     23  C   UNL     1     -18.611   0.702 -17.663  1.00  0.00    -0.000 C 
BRANCH  23  24
ATOM     24  C   UNL     1     -19.688   1.086 -18.688  1.00  0.00    -0.000 C 
BRANCH  24  25
ATOM     25  C   UNL     1     -19.417   0.496 -20.084  1.00  0.00    -0.000 C 
BRANCH  25  26
ATOM     26  C   UNL     1     -17.909   0.406 -20.397  1.00  0.00    -0.000 C 
BRANCH  26  27
ATOM     27  C   UNL     1     -17.555  -0.684 -21.423  1.00  0.00    -0.000 C 
BRANCH  27  28
ATOM     28  C   UNL     1     -18.785  -1.220 -22.173  1.00  0.00    -0.000 C 
BRANCH  28  29
ATOM     29  C   UNL     1     -18.955  -0.578 -23.559  1.00  0.00    -0.003 C 
ATOM     30  C   UNL     1     -19.382  -1.585 -24.625  1.00  0.00     0.004 C 
ENDBRANCH  28  29
ENDBRANCH  27  28
ENDBRANCH  26  27
ENDBRANCH  25  26
ENDBRANCH  24  25
ENDBRANCH  23  24
ENDBRANCH  22  23
ENDBRANCH  21  22
ENDBRANCH  20  21
ENDBRANCH  19  20
ENDBRANCH  18  19
ENDBRANCH  17  18
ENDBRANCH   1  17
TORSDOF 26
ENDMDL
MODEL 8
REMARK VINA RESULT:    -3.247     14.778     17.773
REMARK INTER + INTRA:         -12.435
REMARK INTER:                  -8.959
REMARK INTRA:                  -3.476
REMARK UNBOUND:                -4.253
REMARK SMILES CCCCCCCCCCCCCCCCCCCCCCCCCCCC(=O)[O-]
REMARK SMILES IDX 15 1 16 2 17 3 18 4 19 5 20 6 21 7 22 8 23 9 24 10 25 11
REMARK SMILES IDX 26 12 27 13 28 14 29 15 30 16 14 17 13 18 12 19 11 20 10 21
REMARK SMILES IDX 9 22 8 23 7 24 6 25 5 26 4 27 3 28 2 29 1 30
REMARK H PARENT
REMARK Flexibility Score: inf
ROOT
ATOM      1  C   UNL     1     -15.177  -1.470 -18.451  1.00  0.00     0.000 C 
ENDROOT
BRANCH   1   2
ATOM      2  C   UNL     1     -16.157  -1.081 -19.575  1.00  0.00     0.000 C 
BRANCH   2   3
ATOM      3  C   UNL     1     -16.977  -2.248 -20.163  1.00  0.00     0.000 C 
BRANCH   3   4
ATOM      4  C   UNL     1     -18.262  -1.838 -20.905  1.00  0.00     0.000 C 
BRANCH   4   5
ATOM      5  C   UNL     1     -19.541  -2.233 -20.147  1.00  0.00     0.000 C 
BRANCH   5   6
ATOM      6  C   UNL     1     -19.247  -2.900 -18.791  1.00  0.00     0.000 C 
BRANCH   6   7
ATOM      7  C   UNL     1     -19.499  -2.017 -17.551  1.00  0.00     0.000 C 
BRANCH   7   8
ATOM      8  C   UNL     1     -19.995  -0.591 -17.851  1.00  0.00     0.000 C 
BRANCH   8   9
ATOM      9  C   UNL     1     -18.894   0.471 -17.690  1.00  0.00     0.000 C 
BRANCH   9  10
ATOM     10  C   UNL     1     -19.180   1.744 -18.500  1.00  0.00     0.000 C 
BRANCH  10  11
ATOM     11  C   UNL     1     -20.017   1.471 -19.763  1.00  0.00     0.000 C 
BRANCH  11  12
ATOM     12  C   UNL     1     -19.159   1.378 -21.038  1.00  0.00     0.006 C 
BRANCH  12  13
ATOM     13  C   UNL     1     -19.966   1.168 -22.328  1.00  0.00     0.053 C 
BRANCH  13  14
ATOM     14  C   UNL     1     -19.079   1.042 -23.530  1.00  0.00     0.041 C 
ATOM     15  O   UNL     1     -19.157   0.029 -24.273  1.00  0.00    -0.550 OA
ATOM     16  O   UNL     1     -18.187   2.060 -23.845  1.00  0.00    -0.550 OA
ENDBRANCH  13  14
ENDBRANCH  12  13
ENDBRANCH  11  12
ENDBRANCH  10  11
ENDBRANCH   9  10
ENDBRANCH   8   9
ENDBRANCH   7   8
ENDBRANCH   6   7
ENDBRANCH   5   6
ENDBRANCH   4   5
ENDBRANCH   3   4
ENDBRANCH   2   3
ENDBRANCH   1   2
BRANCH   1  17
ATOM     17  C   UNL     1     -15.755  -2.417 -17.381  1.00  0.00     0.000 C 
BRANCH  17  18
ATOM     18  C   UNL     1     -16.113  -1.744 -16.044  1.00  0.00     0.000 C 
BRANCH  18  19
ATOM     19  C   UNL     1     -16.528  -2.750 -14.961  1.00  0.00     0.000 C 
BRANCH  19  20
ATOM     20  C   UNL     1     -16.397  -4.191 -15.477  1.00  0.00     0.000 C 
BRANCH  20  21
ATOM     21  C   UNL     1     -17.750  -4.824 -15.847  1.00  0.00     0.000 C 
BRANCH  21  22
ATOM     22  C   UNL     1     -17.935  -6.279 -15.377  1.00  0.00    -0.000 C 
BRANCH  22  23
ATOM     23  C   UNL     1     -18.805  -6.393 -14.113  1.00  0.00    -0.000 C 
BRANCH  23  24
ATOM     24  C   UNL     1     -18.641  -7.743 -13.400  1.00  0.00    -0.000 C 
BRANCH  24  25
ATOM     25  C   UNL     1     -17.192  -8.260 -13.433  1.00  0.00    -0.000 C 
BRANCH  25  26
ATOM     26  C   UNL     1     -16.996  -9.510 -12.551  1.00  0.00    -0.000 C 
BRANCH  26  27
ATOM     27  C   UNL     1     -15.543 -10.012 -12.502  1.00  0.00    -0.000 C 
BRANCH  27  28
ATOM     28  C   UNL     1     -15.186 -10.922 -13.687  1.00  0.00    -0.000 C 
BRANCH  28  29
ATOM     29  C   UNL     1     -13.669 -11.037 -13.904  1.00  0.00    -0.003 C 
ATOM     30  C   UNL     1     -12.869 -10.164 -12.939  1.00  0.00     0.004 C 
ENDBRANCH  28  29
ENDBRANCH  27  28
ENDBRANCH  26  27
ENDBRANCH  25  26
ENDBRANCH  24  25
ENDBRANCH  23  24
ENDBRANCH  22  23
ENDBRANCH  21  22
ENDBRANCH  20  21
ENDBRANCH  19  20
ENDBRANCH  18  19
ENDBRANCH  17  18
ENDBRANCH   1  17
TORSDOF 26
ENDMDL
MODEL 9
REMARK VINA RESULT:    -3.233      3.572      8.770
REMARK INTER + INTRA:         -12.400
REMARK INTER:                  -9.068
REMARK INTRA:                  -3.332
REMARK UNBOUND:                -4.253
REMARK SMILES CCCCCCCCCCCCCCCCCCCCCCCCCCCC(=O)[O-]
REMARK SMILES IDX 15 1 16 2 17 3 18 4 19 5 20 6 21 7 22 8 23 9 24 10 25 11
REMARK SMILES IDX 26 12 27 13 28 14 29 15 30 16 14 17 13 18 12 19 11 20 10 21
REMARK SMILES IDX 9 22 8 23 7 24 6 25 5 26 4 27 3 28 2 29 1 30
REMARK H PARENT
REMARK Flexibility Score: inf
ROOT
ATOM      1  C   UNL     1      -3.996  -6.889 -18.657  1.00  0.00     0.000 C 
ENDROOT
BRANCH   1   2
ATOM      2  C   UNL     1      -4.381  -7.654 -17.376  1.00  0.00     0.000 C 
BRANCH   2   3
ATOM      3  C   UNL     1      -3.244  -7.825 -16.347  1.00  0.00     0.000 C 
BRANCH   3   4
ATOM      4  C   UNL     1      -2.117  -6.781 -16.436  1.00  0.00     0.000 C 
BRANCH   4   5
ATOM      5  C   UNL     1      -0.864  -7.185 -15.642  1.00  0.00     0.000 C 
BRANCH   5   6
ATOM      6  C   UNL     1      -1.199  -7.952 -14.350  1.00  0.00     0.000 C 
BRANCH   6   7
ATOM      7  C   UNL     1      -0.258  -9.128 -14.017  1.00  0.00     0.000 C 
BRANCH   7   8
ATOM      8  C   UNL     1      -0.603  -9.902 -12.731  1.00  0.00     0.000 C 
BRANCH   8   9
ATOM      9  C   UNL     1      -0.684 -11.422 -12.952  1.00  0.00     0.000 C 
BRANCH   9  10
ATOM     10  C   UNL     1      -2.130 -11.941 -12.954  1.00  0.00     0.000 C 
BRANCH  10  11
ATOM     11  C   UNL     1      -2.761 -11.940 -14.358  1.00  0.00     0.000 C 
BRANCH  11  12
ATOM     12  C   UNL     1      -3.737 -10.768 -14.571  1.00  0.00     0.006 C 
BRANCH  12  13
ATOM     13  C   UNL     1      -5.183 -11.067 -14.145  1.00  0.00     0.053 C 
BRANCH  13  14
ATOM     14  C   UNL     1      -6.123  -9.970 -14.545  1.00  0.00     0.041 C 
ATOM     15  O   UNL     1      -7.156 -10.233 -15.215  1.00  0.00    -0.550 OA
ATOM     16  O   UNL     1      -5.871  -8.661 -14.152  1.00  0.00    -0.550 OA
ENDBRANCH  13  14
ENDBRANCH  12  13
ENDBRANCH  11  12
ENDBRANCH  10  11
ENDBRANCH   9  10
ENDBRANCH   8   9
ENDBRANCH   7   8
ENDBRANCH   6   7
ENDBRANCH   5   6
ENDBRANCH   4   5
ENDBRANCH   3   4
ENDBRANCH   2   3
ENDBRANCH   1   2
BRANCH   1  17
ATOM     17  C   UNL     1      -3.221  -7.715 -19.702  1.00  0.00     0.000 C 
BRANCH  17  18
ATOM     18  C   UNL     1      -1.773  -7.255 -19.947  1.00  0.00     0.000 C 
BRANCH  18  19
ATOM     19  C   UNL     1      -0.787  -8.427 -20.069  1.00  0.00     0.000 C 
BRANCH  19  20
ATOM     20  C   UNL     1      -0.590  -9.116 -18.710  1.00  0.00     0.000 C 
BRANCH  20  21
ATOM     21  C   UNL     1      -1.446 -10.385 -18.550  1.00  0.00     0.000 C 
BRANCH  21  22
ATOM     22  C   UNL     1      -1.609 -11.222 -19.832  1.00  0.00    -0.000 C 
BRANCH  22  23
ATOM     23  C   UNL     1      -0.288 -11.853 -20.307  1.00  0.00    -0.000 C 
BRANCH  23  24
ATOM     24  C   UNL     1      -0.270 -12.124 -21.818  1.00  0.00    -0.000 C 
BRANCH  24  25
ATOM     25  C   UNL     1      -0.362 -10.835 -22.653  1.00  0.00    -0.000 C 
BRANCH  25  26
ATOM     26  C   UNL     1      -1.718 -10.704 -23.378  1.00  0.00    -0.000 C 
BRANCH  26  27
ATOM     27  C   UNL     1      -1.746 -11.373 -24.762  1.00  0.00    -0.000 C 
BRANCH  27  28
ATOM     28  C   UNL     1      -0.987 -10.569 -25.830  1.00  0.00    -0.000 C 
BRANCH  28  29
ATOM     29  C   UNL     1      -1.647  -9.213 -26.125  1.00  0.00    -0.003 C 
ATOM     30  C   UNL     1      -0.627  -8.114 -26.415  1.00  0.00     0.004 C 
ENDBRANCH  28  29
ENDBRANCH  27  28
ENDBRANCH  26  27
ENDBRANCH  25  26
ENDBRANCH  24  25
ENDBRANCH  23  24
ENDBRANCH  22  23
ENDBRANCH  21  22
ENDBRANCH  20  21
ENDBRANCH  19  20
ENDBRANCH  18  19
ENDBRANCH  17  18
ENDBRANCH   1  17
TORSDOF 26
ENDMDL
