MODEL 1
REMARK VINA RESULT:    -6.102      0.000      0.000
REMARK INTER + INTRA:          -9.980
REMARK INTER:                  -8.421
REMARK INTRA:                  -1.559
REMARK UNBOUND:                -1.559
REMARK SMILES C=C(CC[C@H](C(=O)[O-])[C@H]1CC[C@]2(C)C3=C(CC[C@]12C)[C@]1(C)CC[C@H](O)C(C)(C)[C@@H]1CC3)C(C)C
REMARK SMILES IDX 4 1 5 2 6 3 7 4 8 5 9 6 10 7 18 8 11 9 12 10 17 11 19 12
REMARK SMILES IDX 13 13 14 14 16 15 15 16 31 17 20 18 30 19 29 20 22 21 21 22
REMARK SMILES IDX 26 23 23 24 24 25 27 26 28 27 25 28 3 30 2 31 1 32 32 33
REMARK SMILES IDX 33 34 34 35
REMARK H PARENT 25 29
REMARK Flexibility Score: inf
ROOT
ATOM      1  C   UNL     1       3.394  28.376  15.798  1.00  0.00     0.014 C 
ENDROOT
BRANCH   1   2
ATOM      2  C   UNL     1       4.873  28.865  15.832  1.00  0.00     0.039 C 
BRANCH   2   3
ATOM      3  C   UNL     1       4.903  30.309  15.364  1.00  0.00     0.045 C 
ATOM      4  O   UNL     1       5.699  31.123  15.902  1.00  0.00    -0.550 OA
ATOM      5  O   UNL     1       4.047  30.760  14.366  1.00  0.00    -0.550 OA
ENDBRANCH   2   3
BRANCH   2   6
ATOM      6  C   UNL     1       5.982  27.986  15.120  1.00  0.00     0.004 C 
ATOM      7  C   UNL     1       6.416  28.674  13.802  1.00  0.00     0.006 C 
ATOM      8  C   UNL     1       7.332  27.641  15.893  1.00  0.00    -0.020 C 
ATOM      9  C   UNL     1       7.906  28.493  13.632  1.00  0.00     0.012 C 
ATOM     10  C   UNL     1       8.486  28.342  15.048  1.00  0.00    -0.006 C 
ATOM     11  C   UNL     1       7.529  26.080  15.951  1.00  0.00     0.012 C 
ATOM     12  C   UNL     1       7.359  28.097  17.380  1.00  0.00     0.012 C 
ATOM     13  C   UNL     1       8.771  29.788  15.567  1.00  0.00     0.017 C 
ATOM     14  C   UNL     1       9.773  27.475  14.962  1.00  0.00    -0.064 C 
ATOM     15  C   UNL     1       8.292  25.509  14.766  1.00  0.00     0.032 C 
ATOM     16  C   UNL     1       9.677  26.136  14.707  1.00  0.00    -0.064 C 
ATOM     17  C   UNL     1      11.152  28.071  15.125  1.00  0.00     0.032 C 
ATOM     18  C   UNL     1      10.931  25.223  14.574  1.00  0.00    -0.008 C 
ATOM     19  C   UNL     1      12.058  27.539  14.031  1.00  0.00     0.009 C 
ATOM     20  C   UNL     1      12.256  26.008  14.145  1.00  0.00     0.007 C 
ATOM     21  C   UNL     1      11.112  24.527  15.948  1.00  0.00     0.014 C 
ATOM     22  C   UNL     1      10.628  24.145  13.487  1.00  0.00     0.016 C 
ATOM     23  C   UNL     1      13.596  25.584  14.895  1.00  0.00    -0.006 C 
ATOM     24  C   UNL     1      12.355  23.630  16.063  1.00  0.00     0.033 C 
ATOM     25  C   UNL     1      13.557  24.056  15.199  1.00  0.00     0.120 C 
ATOM     26  C   UNL     1      14.806  25.846  13.955  1.00  0.00     0.014 C 
ATOM     27  C   UNL     1      13.863  26.378  16.206  1.00  0.00     0.014 C 
BRANCH  25  28
ATOM     28  O   UNL     1      14.737  23.639  15.846  1.00  0.00    -0.393 OA
ATOM     29  H   UNL     1      15.091  22.853  15.353  1.00  0.00     0.210 HD
ENDBRANCH  25  28
ENDBRANCH   2   6
ENDBRANCH   1   2
BRANCH   1  30
ATOM     30  C   UNL     1       3.012  27.136  16.631  1.00  0.00     0.031 C 
BRANCH  30  31
ATOM     31  C   UNL     1       3.257  25.809  15.929  1.00  0.00    -0.075 C 
ATOM     32  C   UNL     1       2.891  25.672  14.644  1.00  0.00     0.008 C 
BRANCH  31  33
ATOM     33  C   UNL     1       4.129  24.727  16.563  1.00  0.00     0.008 C 
ATOM     34  C   UNL     1       3.372  24.010  17.688  1.00  0.00     0.012 C 
ATOM     35  C   UNL     1       4.653  23.720  15.534  1.00  0.00     0.012 C 
ENDBRANCH  31  33
ENDBRANCH  30  31
ENDBRANCH   1  30
TORSDOF 7
ENDMDL
MODEL 2
REMARK VINA RESULT:    -5.910      2.090      9.418
REMARK INTER + INTRA:          -9.715
REMARK INTER:                  -8.094
REMARK INTRA:                  -1.622
REMARK UNBOUND:                -1.559
REMARK SMILES C=C(CC[C@H](C(=O)[O-])[C@H]1CC[C@]2(C)C3=C(CC[C@]12C)[C@]1(C)CC[C@H](O)C(C)(C)[C@@H]1CC3)C(C)C
REMARK SMILES IDX 4 1 5 2 6 3 7 4 8 5 9 6 10 7 18 8 11 9 12 10 17 11 19 12
REMARK SMILES IDX 13 13 14 14 16 15 15 16 31 17 20 18 30 19 29 20 22 21 21 22
REMARK SMILES IDX 26 23 23 24 24 25 27 26 28 27 25 28 3 30 2 31 1 32 32 33
REMARK SMILES IDX 33 34 34 35
REMARK H PARENT 25 29
REMARK Flexibility Score: inf
ROOT
ATOM      1  C   UNL     1      16.592  24.688  13.606  1.00  0.00     0.014 C 
ENDROOT
BRANCH   1   2
ATOM      2  C   UNL     1      15.221  24.471  14.316  1.00  0.00     0.039 C 
BRANCH   2   3
ATOM      3  C   UNL     1      14.869  22.998  14.219  1.00  0.00     0.045 C 
ATOM      4  O   UNL     1      14.359  22.413  15.210  1.00  0.00    -0.550 OA
ATOM      5  O   UNL     1      15.122  22.272  13.061  1.00  0.00    -0.550 OA
ENDBRANCH   2   3
BRANCH   2   6
ATOM      6  C   UNL     1      14.003  25.402  13.917  1.00  0.00     0.004 C 
ATOM      7  C   UNL     1      13.102  24.662  12.898  1.00  0.00     0.006 C 
ATOM      8  C   UNL     1      13.021  25.943  15.050  1.00  0.00    -0.020 C 
ATOM      9  C   UNL     1      11.658  24.981  13.210  1.00  0.00     0.012 C 
ATOM     10  C   UNL     1      11.603  25.302  14.713  1.00  0.00    -0.006 C 
ATOM     11  C   UNL     1      12.967  27.517  15.001  1.00  0.00     0.012 C 
ATOM     12  C   UNL     1      13.465  25.610  16.503  1.00  0.00     0.012 C 
ATOM     13  C   UNL     1      11.408  23.938  15.450  1.00  0.00     0.017 C 
ATOM     14  C   UNL     1      10.428  26.287  14.962  1.00  0.00    -0.064 C 
ATOM     15  C   UNL     1      11.891  28.068  14.079  1.00  0.00     0.032 C 
ATOM     16  C   UNL     1      10.527  27.585  14.547  1.00  0.00    -0.064 C 
ATOM     17  C   UNL     1       9.146  25.851  15.634  1.00  0.00     0.032 C 
ATOM     18  C   UNL     1       9.369  28.609  14.737  1.00  0.00    -0.008 C 
ATOM     19  C   UNL     1       7.963  26.387  14.848  1.00  0.00     0.009 C 
ATOM     20  C   UNL     1       7.925  27.934  14.855  1.00  0.00     0.007 C 
ATOM     21  C   UNL     1       9.713  29.425  16.009  1.00  0.00     0.014 C 
ATOM     22  C   UNL     1       9.364  29.563  13.501  1.00  0.00     0.016 C 
ATOM     23  C   UNL     1       6.951  28.551  15.954  1.00  0.00    -0.006 C 
ATOM     24  C   UNL     1       8.649  30.452  16.430  1.00  0.00     0.033 C 
ATOM     25  C   UNL     1       7.199  30.086  16.061  1.00  0.00     0.120 C 
ATOM     26  C   UNL     1       5.479  28.343  15.498  1.00  0.00     0.014 C 
ATOM     27  C   UNL     1       7.087  27.893  17.357  1.00  0.00     0.014 C 
BRANCH  25  28
ATOM     28  O   UNL     1       6.339  30.672  17.012  1.00  0.00    -0.393 OA
ATOM     29  H   UNL     1       6.351  30.100  17.823  1.00  0.00     0.210 HD
ENDBRANCH  25  28
ENDBRANCH   2   6
ENDBRANCH   1   2
BRANCH   1  30
ATOM     30  C   UNL     1      17.719  25.394  14.387  1.00  0.00     0.031 C 
BRANCH  30  31
ATOM     31  C   UNL     1      18.042  26.796  13.893  1.00  0.00    -0.075 C 
ATOM     32  C   UNL     1      18.997  26.956  12.961  1.00  0.00     0.008 C 
BRANCH  31  33
ATOM     33  C   UNL     1      17.145  27.983  14.236  1.00  0.00     0.008 C 
ATOM     34  C   UNL     1      16.100  28.209  13.136  1.00  0.00     0.012 C 
ATOM     35  C   UNL     1      16.470  27.832  15.602  1.00  0.00     0.012 C 
ENDBRANCH  31  33
ENDBRANCH  30  31
ENDBRANCH   1  30
TORSDOF 7
ENDMDL
MODEL 3
REMARK VINA RESULT:    -5.754      2.204      8.875
REMARK INTER + INTRA:          -9.499
REMARK INTER:                  -8.555
REMARK INTRA:                  -0.944
REMARK UNBOUND:                -1.559
REMARK SMILES C=C(CC[C@H](C(=O)[O-])[C@H]1CC[C@]2(C)C3=C(CC[C@]12C)[C@]1(C)CC[C@H](O)C(C)(C)[C@@H]1CC3)C(C)C
REMARK SMILES IDX 4 1 5 2 6 3 7 4 8 5 9 6 10 7 18 8 11 9 12 10 17 11 19 12
REMARK SMILES IDX 13 13 14 14 16 15 15 16 31 17 20 18 30 19 29 20 22 21 21 22
REMARK SMILES IDX 26 23 23 24 24 25 27 26 28 27 25 28 3 30 2 31 1 32 32 33
REMARK SMILES IDX 33 34 34 35
REMARK H PARENT 25 29
REMARK Flexibility Score: inf
ROOT
ATOM      1  C   UNL     1      15.436  24.059  15.073  1.00  0.00     0.014 C 
ENDROOT
BRANCH   1   2
ATOM      2  C   UNL     1      15.587  25.479  14.448  1.00  0.00     0.039 C 
BRANCH   2   3
ATOM      3  C   UNL     1      16.513  26.288  15.338  1.00  0.00     0.045 C 
ATOM      4  O   UNL     1      17.130  25.718  16.277  1.00  0.00    -0.550 OA
ATOM      5  O   UNL     1      16.677  27.655  15.153  1.00  0.00    -0.550 OA
ENDBRANCH   2   3
BRANCH   2   6
ATOM      6  C   UNL     1      14.278  26.284  14.062  1.00  0.00     0.004 C 
ATOM      7  C   UNL     1      13.529  25.535  12.933  1.00  0.00     0.006 C 
ATOM      8  C   UNL     1      13.183  26.590  15.178  1.00  0.00    -0.020 C 
ATOM      9  C   UNL     1      12.043  25.641  13.187  1.00  0.00     0.012 C 
ATOM     10  C   UNL     1      11.877  25.810  14.706  1.00  0.00    -0.006 C 
ATOM     11  C   UNL     1      12.928  28.142  15.262  1.00  0.00     0.012 C 
ATOM     12  C   UNL     1      13.599  26.181  16.621  1.00  0.00     0.012 C 
ATOM     13  C   UNL     1      11.827  24.370  15.309  1.00  0.00     0.017 C 
ATOM     14  C   UNL     1      10.574  26.614  14.971  1.00  0.00    -0.064 C 
ATOM     15  C   UNL     1      11.833  28.638  14.331  1.00  0.00     0.032 C 
ATOM     16  C   UNL     1      10.523  27.947  14.676  1.00  0.00    -0.064 C 
ATOM     17  C   UNL     1       9.330  25.960  15.527  1.00  0.00     0.032 C 
ATOM     18  C   UNL     1       9.235  28.796  14.886  1.00  0.00    -0.008 C 
ATOM     19  C   UNL     1       8.126  26.415  14.724  1.00  0.00     0.009 C 
ATOM     20  C   UNL     1       7.886  27.938  14.862  1.00  0.00     0.007 C 
ATOM     21  C   UNL     1       9.411  29.527  16.243  1.00  0.00     0.014 C 
ATOM     22  C   UNL     1       9.163  29.852  13.740  1.00  0.00     0.016 C 
ATOM     23  C   UNL     1       6.791  28.323  15.952  1.00  0.00    -0.006 C 
ATOM     24  C   UNL     1       8.204  30.369  16.688  1.00  0.00     0.033 C 
ATOM     25  C   UNL     1       6.832  29.860  16.206  1.00  0.00     0.120 C 
ATOM     26  C   UNL     1       5.381  27.976  15.396  1.00  0.00     0.014 C 
ATOM     27  C   UNL     1       6.946  27.559  17.299  1.00  0.00     0.014 C 
BRANCH  25  28
ATOM     28  O   UNL     1       5.861  30.243  17.152  1.00  0.00    -0.393 OA
ATOM     29  H   UNL     1       4.997  30.350  16.673  1.00  0.00     0.210 HD
ENDBRANCH  25  28
ENDBRANCH   2   6
ENDBRANCH   1   2
BRANCH   1  30
ATOM     30  C   UNL     1      15.910  22.842  14.252  1.00  0.00     0.031 C 
BRANCH  30  31
ATOM     31  C   UNL     1      14.922  21.686  14.216  1.00  0.00    -0.075 C 
ATOM     32  C   UNL     1      13.788  21.817  13.507  1.00  0.00     0.008 C 
BRANCH  31  33
ATOM     33  C   UNL     1      15.300  20.305  14.748  1.00  0.00     0.008 C 
ATOM     34  C   UNL     1      14.571  19.205  13.965  1.00  0.00     0.012 C 
ATOM     35  C   UNL     1      16.813  20.067  14.737  1.00  0.00     0.012 C 
ENDBRANCH  31  33
ENDBRANCH  30  31
ENDBRANCH   1  30
TORSDOF 7
ENDMDL
MODEL 4
REMARK VINA RESULT:    -5.616      1.634      3.025
REMARK INTER + INTRA:          -9.310
REMARK INTER:                  -8.580
REMARK INTRA:                  -0.730
REMARK UNBOUND:                -1.559
REMARK SMILES C=C(CC[C@H](C(=O)[O-])[C@H]1CC[C@]2(C)C3=C(CC[C@]12C)[C@]1(C)CC[C@H](O)C(C)(C)[C@@H]1CC3)C(C)C
REMARK SMILES IDX 4 1 5 2 6 3 7 4 8 5 9 6 10 7 18 8 11 9 12 10 17 11 19 12
REMARK SMILES IDX 13 13 14 14 16 15 15 16 31 17 20 18 30 19 29 20 22 21 21 22
REMARK SMILES IDX 26 23 23 24 24 25 27 26 28 27 25 28 3 30 2 31 1 32 32 33
REMARK SMILES IDX 33 34 34 35
REMARK H PARENT 25 29
REMARK Flexibility Score: inf
ROOT
ATOM      1  C   UNL     1       5.079  29.076  17.086  1.00  0.00     0.014 C 
ENDROOT
BRANCH   1   2
ATOM      2  C   UNL     1       4.780  28.075  15.929  1.00  0.00     0.039 C 
BRANCH   2   3
ATOM      3  C   UNL     1       3.790  27.046  16.441  1.00  0.00     0.045 C 
ATOM      4  O   UNL     1       2.582  27.368  16.601  1.00  0.00    -0.550 OA
ATOM      5  O   UNL     1       4.193  25.756  16.763  1.00  0.00    -0.550 OA
ENDBRANCH   2   3
BRANCH   2   6
ATOM      6  C   UNL     1       5.998  27.403  15.170  1.00  0.00     0.004 C 
ATOM      7  C   UNL     1       6.308  28.207  13.884  1.00  0.00     0.006 C 
ATOM      8  C   UNL     1       7.394  27.229  15.919  1.00  0.00    -0.020 C 
ATOM      9  C   UNL     1       7.807  28.259  13.697  1.00  0.00     0.012 C 
ATOM     10  C   UNL     1       8.420  28.131  15.102  1.00  0.00    -0.006 C 
ATOM     11  C   UNL     1       7.821  25.714  15.903  1.00  0.00     0.012 C 
ATOM     12  C   UNL     1       7.372  27.616  17.426  1.00  0.00     0.012 C 
ATOM     13  C   UNL     1       8.494  29.579  15.686  1.00  0.00     0.017 C 
ATOM     14  C   UNL     1       9.821  27.471  14.968  1.00  0.00    -0.064 C 
ATOM     15  C   UNL     1       8.646  25.318  14.689  1.00  0.00     0.032 C 
ATOM     16  C   UNL     1       9.922  26.146  14.652  1.00  0.00    -0.064 C 
ATOM     17  C   UNL     1      11.097  28.258  15.152  1.00  0.00     0.032 C 
ATOM     18  C   UNL     1      11.296  25.437  14.469  1.00  0.00    -0.008 C 
ATOM     19  C   UNL     1      12.060  27.917  14.029  1.00  0.00     0.009 C 
ATOM     20  C   UNL     1      12.484  26.429  14.070  1.00  0.00     0.007 C 
ATOM     21  C   UNL     1      11.595  24.714  15.808  1.00  0.00     0.014 C 
ATOM     22  C   UNL     1      11.143  24.376  13.335  1.00  0.00     0.016 C 
ATOM     23  C   UNL     1      13.881  26.176  14.792  1.00  0.00    -0.006 C 
ATOM     24  C   UNL     1      12.958  24.008  15.875  1.00  0.00     0.033 C 
ATOM     25  C   UNL     1      14.073  24.647  15.025  1.00  0.00     0.120 C 
ATOM     26  C   UNL     1      15.027  26.658  13.858  1.00  0.00     0.014 C 
ATOM     27  C   UNL     1      14.043  26.941  16.137  1.00  0.00     0.014 C 
BRANCH  25  28
ATOM     28  O   UNL     1      15.311  24.381  15.645  1.00  0.00    -0.393 OA
ATOM     29  H   UNL     1      15.673  23.545  15.251  1.00  0.00     0.210 HD
ENDBRANCH  25  28
ENDBRANCH   2   6
ENDBRANCH   1   2
BRANCH   1  30
ATOM     30  C   UNL     1       4.513  30.507  16.983  1.00  0.00     0.031 C 
BRANCH  30  31
ATOM     31  C   UNL     1       4.241  30.973  15.561  1.00  0.00    -0.075 C 
ATOM     32  C   UNL     1       5.274  31.124  14.714  1.00  0.00     0.008 C 
BRANCH  31  33
ATOM     33  C   UNL     1       2.821  31.026  15.003  1.00  0.00     0.008 C 
ATOM     34  C   UNL     1       2.716  30.212  13.707  1.00  0.00     0.012 C 
ATOM     35  C   UNL     1       1.774  30.562  16.020  1.00  0.00     0.012 C 
ENDBRANCH  31  33
ENDBRANCH  30  31
ENDBRANCH   1  30
TORSDOF 7
ENDMDL
MODEL 5
REMARK VINA RESULT:    -5.293      2.465      9.898
REMARK INTER + INTRA:          -8.863
REMARK INTER:                  -8.108
REMARK INTRA:                  -0.755
REMARK UNBOUND:                -1.559
REMARK SMILES C=C(CC[C@H](C(=O)[O-])[C@H]1CC[C@]2(C)C3=C(CC[C@]12C)[C@]1(C)CC[C@H](O)C(C)(C)[C@@H]1CC3)C(C)C
REMARK SMILES IDX 4 1 5 2 6 3 7 4 8 5 9 6 10 7 18 8 11 9 12 10 17 11 19 12
REMARK SMILES IDX 13 13 14 14 16 15 15 16 31 17 20 18 30 19 29 20 22 21 21 22
REMARK SMILES IDX 26 23 23 24 24 25 27 26 28 27 25 28 3 30 2 31 1 32 32 33
REMARK SMILES IDX 33 34 34 35
REMARK H PARENT 25 29
REMARK Flexibility Score: inf
ROOT
ATOM      1  C   UNL     1      16.845  25.150  13.821  1.00  0.00     0.014 C 
ENDROOT
BRANCH   1   2
ATOM      2  C   UNL     1      15.456  24.790  14.428  1.00  0.00     0.039 C 
BRANCH   2   3
ATOM      3  C   UNL     1      15.235  23.300  14.248  1.00  0.00     0.045 C 
ATOM      4  O   UNL     1      14.660  22.640  15.154  1.00  0.00    -0.550 OA
ATOM      5  O   UNL     1      15.678  22.639  13.108  1.00  0.00    -0.550 OA
ENDBRANCH   2   3
BRANCH   2   6
ATOM      6  C   UNL     1      14.191  25.637  13.989  1.00  0.00     0.004 C 
ATOM      7  C   UNL     1      13.361  24.827  12.963  1.00  0.00     0.006 C 
ATOM      8  C   UNL     1      13.152  26.133  15.091  1.00  0.00    -0.020 C 
ATOM      9  C   UNL     1      11.894  25.060  13.238  1.00  0.00     0.012 C 
ATOM     10  C   UNL     1      11.785  25.399  14.735  1.00  0.00    -0.006 C 
ATOM     11  C   UNL     1      13.001  27.698  15.015  1.00  0.00     0.012 C 
ATOM     12  C   UNL     1      13.583  25.850  16.559  1.00  0.00     0.012 C 
ATOM     13  C   UNL     1      11.658  24.036  15.489  1.00  0.00     0.017 C 
ATOM     14  C   UNL     1      10.545  26.312  14.942  1.00  0.00    -0.064 C 
ATOM     15  C   UNL     1      11.914  28.168  14.062  1.00  0.00     0.032 C 
ATOM     16  C   UNL     1      10.573  27.608  14.508  1.00  0.00    -0.064 C 
ATOM     17  C   UNL     1       9.279  25.807  15.593  1.00  0.00     0.032 C 
ATOM     18  C   UNL     1       9.350  28.560  14.656  1.00  0.00    -0.008 C 
ATOM     19  C   UNL     1       8.083  26.256  14.774  1.00  0.00     0.009 C 
ATOM     20  C   UNL     1       7.948  27.798  14.754  1.00  0.00     0.007 C 
ATOM     21  C   UNL     1       9.614  29.415  15.922  1.00  0.00     0.014 C 
ATOM     22  C   UNL     1       9.313  29.493  13.405  1.00  0.00     0.016 C 
ATOM     23  C   UNL     1       6.913  28.369  15.822  1.00  0.00    -0.006 C 
ATOM     24  C   UNL     1       8.479  30.379  16.303  1.00  0.00     0.033 C 
ATOM     25  C   UNL     1       7.063  29.918  15.909  1.00  0.00     0.120 C 
ATOM     26  C   UNL     1       5.467  28.063  15.338  1.00  0.00     0.014 C 
ATOM     27  C   UNL     1       7.058  27.742  17.238  1.00  0.00     0.014 C 
BRANCH  25  28
ATOM     28  O   UNL     1       6.147  30.463  16.831  1.00  0.00    -0.393 OA
ATOM     29  H   UNL     1       6.233  31.451  16.796  1.00  0.00     0.210 HD
ENDBRANCH  25  28
ENDBRANCH   2   6
ENDBRANCH   1   2
BRANCH   1  30
ATOM     30  C   UNL     1      17.924  25.736  14.754  1.00  0.00     0.031 C 
BRANCH  30  31
ATOM     31  C   UNL     1      19.353  25.473  14.304  1.00  0.00    -0.075 C 
ATOM     32  C   UNL     1      20.022  26.440  13.654  1.00  0.00     0.008 C 
BRANCH  31  33
ATOM     33  C   UNL     1      20.123  24.248  14.792  1.00  0.00     0.008 C 
ATOM     34  C   UNL     1      19.851  23.992  16.280  1.00  0.00     0.012 C 
ATOM     35  C   UNL     1      19.821  22.997  13.962  1.00  0.00     0.012 C 
ENDBRANCH  31  33
ENDBRANCH  30  31
ENDBRANCH   1  30
TORSDOF 7
ENDMDL
MODEL 6
REMARK VINA RESULT:    -5.160      1.393      2.166
REMARK INTER + INTRA:          -8.680
REMARK INTER:                  -7.940
REMARK INTRA:                  -0.741
REMARK UNBOUND:                -1.559
REMARK SMILES C=C(CC[C@H](C(=O)[O-])[C@H]1CC[C@]2(C)C3=C(CC[C@]12C)[C@]1(C)CC[C@H](O)C(C)(C)[C@@H]1CC3)C(C)C
REMARK SMILES IDX 4 1 5 2 6 3 7 4 8 5 9 6 10 7 18 8 11 9 12 10 17 11 19 12
REMARK SMILES IDX 13 13 14 14 16 15 15 16 31 17 20 18 30 19 29 20 22 21 21 22
REMARK SMILES IDX 26 23 23 24 24 25 27 26 28 27 25 28 3 30 2 31 1 32 32 33
REMARK SMILES IDX 33 34 34 35
REMARK H PARENT 25 29
REMARK Flexibility Score: inf
ROOT
ATOM      1  C   UNL     1       3.444  28.322  15.721  1.00  0.00     0.014 C 
ENDROOT
BRANCH   1   2
ATOM      2  C   UNL     1       4.928  28.776  15.864  1.00  0.00     0.039 C 
BRANCH   2   3
ATOM      3  C   UNL     1       5.003  30.254  15.528  1.00  0.00     0.045 C 
ATOM      4  O   UNL     1       4.262  30.727  14.625  1.00  0.00    -0.550 OA
ATOM      5  O   UNL     1       5.893  31.098  16.182  1.00  0.00    -0.550 OA
ENDBRANCH   2   3
BRANCH   2   6
ATOM      6  C   UNL     1       6.054  27.940  15.127  1.00  0.00     0.004 C 
ATOM      7  C   UNL     1       6.472  28.674  13.829  1.00  0.00     0.006 C 
ATOM      8  C   UNL     1       7.412  27.603  15.888  1.00  0.00    -0.020 C 
ATOM      9  C   UNL     1       7.966  28.530  13.652  1.00  0.00     0.012 C 
ATOM     10  C   UNL     1       8.550  28.351  15.064  1.00  0.00    -0.006 C 
ATOM     11  C   UNL     1       7.642  26.045  15.903  1.00  0.00     0.012 C 
ATOM     12  C   UNL     1       7.432  28.017  17.389  1.00  0.00     0.012 C 
ATOM     13  C   UNL     1       8.806  29.787  15.622  1.00  0.00     0.017 C 
ATOM     14  C   UNL     1       9.855  27.514  14.952  1.00  0.00    -0.064 C 
ATOM     15  C   UNL     1       8.415  25.524  14.702  1.00  0.00     0.032 C 
ATOM     16  C   UNL     1       9.786  26.181  14.660  1.00  0.00    -0.064 C 
ATOM     17  C   UNL     1      11.221  28.133  15.131  1.00  0.00     0.032 C 
ATOM     18  C   UNL     1      11.059  25.298  14.500  1.00  0.00    -0.008 C 
ATOM     19  C   UNL     1      12.137  27.652  14.022  1.00  0.00     0.009 C 
ATOM     20  C   UNL     1      12.367  26.123  14.092  1.00  0.00     0.007 C 
ATOM     21  C   UNL     1      11.256  24.568  15.853  1.00  0.00     0.014 C 
ATOM     22  C   UNL     1      10.777  24.245  13.384  1.00  0.00     0.016 C 
ATOM     23  C   UNL     1      13.716  25.706  14.829  1.00  0.00    -0.006 C 
ATOM     24  C   UNL     1      12.518  23.694  15.943  1.00  0.00     0.033 C 
ATOM     25  C   UNL     1      13.710  24.169  15.090  1.00  0.00     0.120 C 
ATOM     26  C   UNL     1      14.920  26.019  13.896  1.00  0.00     0.014 C 
ATOM     27  C   UNL     1      13.968  26.469  16.162  1.00  0.00     0.014 C 
BRANCH  25  28
ATOM     28  O   UNL     1      14.899  23.759  15.724  1.00  0.00    -0.393 OA
ATOM     29  H   UNL     1      15.019  22.790  15.545  1.00  0.00     0.210 HD
ENDBRANCH  25  28
ENDBRANCH   2   6
ENDBRANCH   1   2
BRANCH   1  30
ATOM     30  C   UNL     1       2.526  28.414  16.957  1.00  0.00     0.031 C 
BRANCH  30  31
ATOM     31  C   UNL     1       1.168  29.040  16.684  1.00  0.00    -0.075 C 
ATOM     32  C   UNL     1       1.027  30.372  16.795  1.00  0.00     0.008 C 
BRANCH  31  33
ATOM     33  C   UNL     1       0.038  28.235  16.047  1.00  0.00     0.008 C 
ATOM     34  C   UNL     1       0.011  28.446  14.528  1.00  0.00     0.012 C 
ATOM     35  C   UNL     1       0.118  26.743  16.386  1.00  0.00     0.012 C 
ENDBRANCH  31  33
ENDBRANCH  30  31
ENDBRANCH   1  30
TORSDOF 7
ENDMDL
MODEL 7
REMARK VINA RESULT:    -4.600      4.118      7.612
REMARK INTER + INTRA:          -7.908
REMARK INTER:                  -7.146
REMARK INTRA:                  -0.762
REMARK UNBOUND:                -1.559
REMARK SMILES C=C(CC[C@H](C(=O)[O-])[C@H]1CC[C@]2(C)C3=C(CC[C@]12C)[C@]1(C)CC[C@H](O)C(C)(C)[C@@H]1CC3)C(C)C
REMARK SMILES IDX 4 1 5 2 6 3 7 4 8 5 9 6 10 7 18 8 11 9 12 10 17 11 19 12
REMARK SMILES IDX 13 13 14 14 16 15 15 16 31 17 20 18 30 19 29 20 22 21 21 22
REMARK SMILES IDX 26 23 23 24 24 25 27 26 28 27 25 28 3 30 2 31 1 32 32 33
REMARK SMILES IDX 33 34 34 35
REMARK H PARENT 25 29
REMARK Flexibility Score: inf
ROOT
ATOM      1  C   UNL     1       3.404  20.394  13.473  1.00  0.00     0.014 C 
ENDROOT
BRANCH   1   2
ATOM      2  C   UNL     1       2.594  21.385  14.363  1.00  0.00     0.039 C 
BRANCH   2   3
ATOM      3  C   UNL     1       1.134  20.973  14.316  1.00  0.00     0.045 C 
ATOM      4  O   UNL     1       0.565  20.573  15.367  1.00  0.00    -0.550 OA
ATOM      5  O   UNL     1       0.414  21.004  13.128  1.00  0.00    -0.550 OA
ENDBRANCH   2   3
BRANCH   2   6
ATOM      6  C   UNL     1       2.782  22.941  14.133  1.00  0.00     0.004 C 
ATOM      7  C   UNL     1       1.609  23.703  14.797  1.00  0.00     0.006 C 
ATOM      8  C   UNL     1       4.109  23.659  14.645  1.00  0.00    -0.020 C 
ATOM      9  C   UNL     1       2.147  24.971  15.418  1.00  0.00     0.012 C 
ATOM     10  C   UNL     1       3.623  24.693  15.753  1.00  0.00    -0.006 C 
ATOM     11  C   UNL     1       4.814  24.393  13.443  1.00  0.00     0.012 C 
ATOM     12  C   UNL     1       5.192  22.692  15.206  1.00  0.00     0.012 C 
ATOM     13  C   UNL     1       3.639  24.050  17.177  1.00  0.00     0.017 C 
ATOM     14  C   UNL     1       4.400  26.037  15.698  1.00  0.00    -0.064 C 
ATOM     15  C   UNL     1       4.352  25.827  13.239  1.00  0.00     0.032 C 
ATOM     16  C   UNL     1       4.642  26.636  14.494  1.00  0.00    -0.064 C 
ATOM     17  C   UNL     1       4.885  26.734  16.948  1.00  0.00     0.032 C 
ATOM     18  C   UNL     1       5.385  27.999  14.377  1.00  0.00    -0.008 C 
ATOM     19  C   UNL     1       4.543  28.210  16.863  1.00  0.00     0.009 C 
ATOM     20  C   UNL     1       5.283  28.902  15.693  1.00  0.00     0.007 C 
ATOM     21  C   UNL     1       6.860  27.665  14.039  1.00  0.00     0.014 C 
ATOM     22  C   UNL     1       4.752  28.792  13.191  1.00  0.00     0.016 C 
ATOM     23  C   UNL     1       6.617  29.656  16.130  1.00  0.00    -0.006 C 
ATOM     24  C   UNL     1       7.800  28.879  13.957  1.00  0.00     0.033 C 
ATOM     25  C   UNL     1       7.418  30.069  14.858  1.00  0.00     0.120 C 
ATOM     26  C   UNL     1       6.235  30.959  16.889  1.00  0.00     0.014 C 
ATOM     27  C   UNL     1       7.526  28.828  17.083  1.00  0.00     0.014 C 
BRANCH  25  28
ATOM     28  O   UNL     1       8.597  30.759  15.205  1.00  0.00    -0.393 OA
ATOM     29  H   UNL     1       9.284  30.545  14.521  1.00  0.00     0.210 HD
ENDBRANCH  25  28
ENDBRANCH   2   6
ENDBRANCH   1   2
BRANCH   1  30
ATOM     30  C   UNL     1       3.433  18.904  13.872  1.00  0.00     0.031 C 
BRANCH  30  31
ATOM     31  C   UNL     1       4.746  18.444  14.485  1.00  0.00    -0.075 C 
ATOM     32  C   UNL     1       5.832  19.227  14.367  1.00  0.00     0.008 C 
BRANCH  31  33
ATOM     33  C   UNL     1       4.800  17.253  15.438  1.00  0.00     0.008 C 
ATOM     34  C   UNL     1       4.099  16.034  14.825  1.00  0.00     0.012 C 
ATOM     35  C   UNL     1       6.231  16.901  15.856  1.00  0.00     0.012 C 
ENDBRANCH  31  33
ENDBRANCH  30  31
ENDBRANCH   1  30
TORSDOF 7
ENDMDL
MODEL 8
REMARK VINA RESULT:    -4.536      2.913      5.596
REMARK INTER + INTRA:          -7.819
REMARK INTER:                  -6.016
REMARK INTRA:                  -1.804
REMARK UNBOUND:                -1.559
REMARK SMILES C=C(CC[C@H](C(=O)[O-])[C@H]1CC[C@]2(C)C3=C(CC[C@]12C)[C@]1(C)CC[C@H](O)C(C)(C)[C@@H]1CC3)C(C)C
REMARK SMILES IDX 4 1 5 2 6 3 7 4 8 5 9 6 10 7 18 8 11 9 12 10 17 11 19 12
REMARK SMILES IDX 13 13 14 14 16 15 15 16 31 17 20 18 30 19 29 20 22 21 21 22
REMARK SMILES IDX 26 23 23 24 24 25 27 26 28 27 25 28 3 30 2 31 1 32 32 33
REMARK SMILES IDX 33 34 34 35
REMARK H PARENT 25 29
REMARK Flexibility Score: inf
ROOT
ATOM      1  C   UNL     1       0.067  25.940  16.260  1.00  0.00     0.014 C 
ENDROOT
BRANCH   1   2
ATOM      2  C   UNL     1       1.421  25.246  15.921  1.00  0.00     0.039 C 
BRANCH   2   3
ATOM      3  C   UNL     1       1.343  23.807  16.394  1.00  0.00     0.045 C 
ATOM      4  O   UNL     1       1.794  22.884  15.664  1.00  0.00    -0.550 OA
ATOM      5  O   UNL     1       0.759  23.479  17.613  1.00  0.00    -0.550 OA
ENDBRANCH   2   3
BRANCH   2   6
ATOM      6  C   UNL     1       2.769  25.948  16.369  1.00  0.00     0.004 C 
ATOM      7  C   UNL     1       3.564  24.993  17.292  1.00  0.00     0.006 C 
ATOM      8  C   UNL     1       3.804  26.444  15.264  1.00  0.00    -0.020 C 
ATOM      9  C   UNL     1       5.035  25.125  16.971  1.00  0.00     0.012 C 
ATOM     10  C   UNL     1       5.116  25.574  15.502  1.00  0.00    -0.006 C 
ATOM     11  C   UNL     1       4.091  27.981  15.453  1.00  0.00     0.012 C 
ATOM     12  C   UNL     1       3.296  26.316  13.798  1.00  0.00     0.012 C 
ATOM     13  C   UNL     1       5.098  24.270  14.640  1.00  0.00     0.017 C 
ATOM     14  C   UNL     1       6.421  26.396  15.311  1.00  0.00    -0.064 C 
ATOM     15  C   UNL     1       5.249  28.281  16.392  1.00  0.00     0.032 C 
ATOM     16  C   UNL     1       6.520  27.650  15.845  1.00  0.00    -0.064 C 
ATOM     17  C   UNL     1       7.615  25.842  14.569  1.00  0.00     0.032 C 
ATOM     18  C   UNL     1       7.814  28.507  15.717  1.00  0.00    -0.008 C 
ATOM     19  C   UNL     1       8.874  26.124  15.366  1.00  0.00     0.009 C 
ATOM     20  C   UNL     1       9.141  27.643  15.499  1.00  0.00     0.007 C 
ATOM     21  C   UNL     1       7.577  29.480  14.533  1.00  0.00     0.014 C 
ATOM     22  C   UNL     1       7.977  29.330  17.033  1.00  0.00     0.016 C 
ATOM     23  C   UNL     1      10.180  28.211  14.434  1.00  0.00    -0.006 C 
ATOM     24  C   UNL     1       8.775  30.375  14.178  1.00  0.00     0.033 C 
ATOM     25  C   UNL     1      10.161  29.769  14.473  1.00  0.00     0.120 C 
ATOM     26  C   UNL     1      11.611  27.749  14.829  1.00  0.00     0.014 C 
ATOM     27  C   UNL     1       9.930  27.714  12.982  1.00  0.00     0.014 C 
BRANCH  25  28
ATOM     28  O   UNL     1      11.085  30.309  13.557  1.00  0.00    -0.393 OA
ATOM     29  H   UNL     1      11.997  30.099  13.888  1.00  0.00     0.210 HD
ENDBRANCH  25  28
ENDBRANCH   2   6
ENDBRANCH   1   2
BRANCH   1  30
ATOM     30  C   UNL     1       0.061  27.466  16.484  1.00  0.00     0.031 C 
BRANCH  30  31
ATOM     31  C   UNL     1       0.271  28.286  15.221  1.00  0.00    -0.075 C 
ATOM     32  C   UNL     1      -0.125  27.781  14.040  1.00  0.00     0.008 C 
BRANCH  31  33
ATOM     33  C   UNL     1       0.680  29.756  15.289  1.00  0.00     0.008 C 
ATOM     34  C   UNL     1       1.373  30.065  16.623  1.00  0.00     0.012 C 
ATOM     35  C   UNL     1       1.563  30.174  14.110  1.00  0.00     0.012 C 
ENDBRANCH  31  33
ENDBRANCH  30  31
ENDBRANCH   1  30
TORSDOF 7
ENDMDL
MODEL 9
REMARK VINA RESULT:    -4.179      2.117      8.462
REMARK INTER + INTRA:          -7.326
REMARK INTER:                  -6.523
REMARK INTRA:                  -0.803
REMARK UNBOUND:                -1.559
REMARK SMILES C=C(CC[C@H](C(=O)[O-])[C@H]1CC[C@]2(C)C3=C(CC[C@]12C)[C@]1(C)CC[C@H](O)C(C)(C)[C@@H]1CC3)C(C)C
REMARK SMILES IDX 4 1 5 2 6 3 7 4 8 5 9 6 10 7 18 8 11 9 12 10 17 11 19 12
REMARK SMILES IDX 13 13 14 14 16 15 15 16 31 17 20 18 30 19 29 20 22 21 21 22
REMARK SMILES IDX 26 23 23 24 24 25 27 26 28 27 25 28 3 30 2 31 1 32 32 33
REMARK SMILES IDX 33 34 34 35
REMARK H PARENT 25 29
REMARK Flexibility Score: inf
ROOT
ATOM      1  C   UNL     1      11.669  26.153  13.182  1.00  0.00     0.014 C 
ENDROOT
BRANCH   1   2
ATOM      2  C   UNL     1      10.743  27.247  13.795  1.00  0.00     0.039 C 
BRANCH   2   3
ATOM      3  C   UNL     1      11.464  27.864  14.979  1.00  0.00     0.045 C 
ATOM      4  O   UNL     1      11.257  29.071  15.277  1.00  0.00    -0.550 OA
ATOM      5  O   UNL     1      12.372  27.129  15.733  1.00  0.00    -0.550 OA
ENDBRANCH   2   3
BRANCH   2   6
ATOM      6  C   UNL     1       9.244  26.869  14.141  1.00  0.00     0.004 C 
ATOM      7  C   UNL     1       9.179  26.287  15.575  1.00  0.00     0.006 C 
ATOM      8  C   UNL     1       8.113  27.989  14.077  1.00  0.00    -0.020 C 
ATOM      9  C   UNL     1       7.918  26.786  16.241  1.00  0.00     0.012 C 
ATOM     10  C   UNL     1       7.580  28.129  15.570  1.00  0.00    -0.006 C 
ATOM     11  C   UNL     1       6.968  27.534  13.097  1.00  0.00     0.012 C 
ATOM     12  C   UNL     1       8.592  29.359  13.514  1.00  0.00     0.012 C 
ATOM     13  C   UNL     1       8.368  29.226  16.355  1.00  0.00     0.017 C 
ATOM     14  C   UNL     1       6.041  28.337  15.638  1.00  0.00    -0.064 C 
ATOM     15  C   UNL     1       5.862  26.735  13.769  1.00  0.00     0.032 C 
ATOM     16  C   UNL     1       5.216  27.579  14.856  1.00  0.00    -0.064 C 
ATOM     17  C   UNL     1       5.410  29.344  16.570  1.00  0.00     0.032 C 
ATOM     18  C   UNL     1       3.666  27.718  14.905  1.00  0.00    -0.008 C 
ATOM     19  C   UNL     1       4.234  28.699  17.280  1.00  0.00     0.009 C 
ATOM     20  C   UNL     1       3.115  28.300  16.288  1.00  0.00     0.007 C 
ATOM     21  C   UNL     1       3.271  28.630  13.715  1.00  0.00     0.014 C 
ATOM     22  C   UNL     1       3.050  26.300  14.692  1.00  0.00     0.016 C 
ATOM     23  C   UNL     1       1.937  29.367  16.180  1.00  0.00    -0.006 C 
ATOM     24  C   UNL     1       1.774  28.967  13.623  1.00  0.00     0.033 C 
ATOM     25  C   UNL     1       1.025  29.009  14.969  1.00  0.00     0.120 C 
ATOM     26  C   UNL     1       1.066  29.290  17.465  1.00  0.00     0.014 C 
ATOM     27  C   UNL     1       2.429  30.838  16.056  1.00  0.00     0.014 C 
BRANCH  25  28
ATOM     28  O   UNL     1      -0.043  29.921  14.853  1.00  0.00    -0.393 OA
ATOM     29  H   UNL     1      -0.674  29.564  14.175  1.00  0.00     0.210 HD
ENDBRANCH  25  28
ENDBRANCH   2   6
ENDBRANCH   1   2
BRANCH   1  30
ATOM     30  C   UNL     1      11.159  24.698  13.143  1.00  0.00     0.031 C 
BRANCH  30  31
ATOM     31  C   UNL     1      12.066  23.696  13.839  1.00  0.00    -0.075 C 
ATOM     32  C   UNL     1      12.459  22.597  13.173  1.00  0.00     0.008 C 
BRANCH  31  33
ATOM     33  C   UNL     1      12.741  24.029  15.168  1.00  0.00     0.008 C 
ATOM     34  C   UNL     1      11.807  23.715  16.344  1.00  0.00     0.012 C 
ATOM     35  C   UNL     1      14.085  23.315  15.338  1.00  0.00     0.012 C 
ENDBRANCH  31  33
ENDBRANCH  30  31
ENDBRANCH   1  30
TORSDOF 7
ENDMDL
