MODEL 1
REMARK VINA RESULT:    -6.406      0.000      0.000
REMARK INTER + INTRA:          -7.952
REMARK INTER:                  -7.717
REMARK INTRA:                  -0.235
REMARK UNBOUND:                -0.235
REMARK SMILES O=c1c(O)c(-c2ccc(O)c(O)c2)oc2cc(O)cc(O)c12
REMARK SMILES IDX 5 1 3 2 2 3 1 4 22 5 20 6 19 7 17 8 16 9 15 10 14 11 6 12
REMARK SMILES IDX 7 13 8 14 9 15 13 16 11 17 10 18 12 20 4 22 21 24 18 26
REMARK H PARENT 10 19 12 21 4 23 21 25 18 27
REMARK Flexibility Score: inf
ROOT
ATOM      1  C   UNL     1       1.769  -3.881  21.737  1.00  0.00     0.180 A 
ATOM      2  C   UNL     1       2.855  -3.472  22.530  1.00  0.00     0.208 A 
ATOM      3  C   UNL     1       2.635  -3.173  23.884  1.00  0.00     0.238 A 
ATOM      4  O   UNL     1       3.600  -2.755  24.575  1.00  0.00    -0.285 OA
ATOM      5  C   UNL     1       1.336  -3.301  24.431  1.00  0.00     0.111 A 
ATOM      6  C   UNL     1       1.005  -3.064  25.800  1.00  0.00     0.134 A 
ATOM      7  C   UNL     1      -0.336  -3.095  26.202  1.00  0.00     0.093 A 
ATOM      8  C   UNL     1      -1.351  -3.420  25.300  1.00  0.00     0.123 A 
ATOM      9  C   UNL     1      -1.033  -3.713  23.976  1.00  0.00     0.094 A 
ATOM     10  C   UNL     1       0.293  -3.654  23.535  1.00  0.00     0.146 A 
ATOM     11  O   UNL     1       0.551  -3.929  22.263  1.00  0.00    -0.452 OA
ENDROOT
BRANCH   1  12
ATOM     12  C   UNL     1       1.928  -4.238  20.309  1.00  0.00     0.025 A 
ATOM     13  C   UNL     1       2.590  -5.427  19.963  1.00  0.00     0.016 A 
ATOM     14  C   UNL     1       2.770  -5.773  18.621  1.00  0.00     0.051 A 
ATOM     15  C   UNL     1       2.303  -4.928  17.606  1.00  0.00     0.157 A 
ATOM     16  C   UNL     1       1.480  -3.382  19.285  1.00  0.00     0.062 A 
ATOM     17  C   UNL     1       1.661  -3.728  17.938  1.00  0.00     0.158 A 
BRANCH  15  18
ATOM     18  O   UNL     1       2.479  -5.270  16.266  1.00  0.00    -0.504 OA
ATOM     19  H   UNL     1       1.712  -5.238  15.605  1.00  0.00     0.293 HD
ENDBRANCH  15  18
BRANCH  17  20
ATOM     20  O   UNL     1       1.212  -2.883  16.926  1.00  0.00    -0.504 OA
ATOM     21  H   UNL     1       1.838  -2.241  16.455  1.00  0.00     0.293 HD
ENDBRANCH  17  20
ENDBRANCH   1  12
BRANCH   2  22
ATOM     22  O   UNL     1       4.125  -3.330  21.964  1.00  0.00    -0.502 OA
ATOM     23  H   UNL     1       4.705  -4.124  21.722  1.00  0.00     0.293 HD
ENDBRANCH   2  22
BRANCH   6  24
ATOM     24  O   UNL     1       1.952  -2.822  26.800  1.00  0.00    -0.507 OA
ATOM     25  H   UNL     1       2.244  -3.496  27.490  1.00  0.00     0.293 HD
ENDBRANCH   6  24
BRANCH   8  26
ATOM     26  O   UNL     1      -2.681  -3.465  25.712  1.00  0.00    -0.508 OA
ATOM     27  H   UNL     1      -3.444  -3.387  25.049  1.00  0.00     0.293 HD
ENDBRANCH   8  26
TORSDOF 6
ENDMDL
MODEL 2
REMARK VINA RESULT:    -6.385      2.419      6.684
REMARK INTER + INTRA:          -7.927
REMARK INTER:                  -7.732
REMARK INTRA:                  -0.194
REMARK UNBOUND:                -0.235
REMARK SMILES O=c1c(O)c(-c2ccc(O)c(O)c2)oc2cc(O)cc(O)c12
REMARK SMILES IDX 5 1 3 2 2 3 1 4 22 5 20 6 19 7 17 8 16 9 15 10 14 11 6 12
REMARK SMILES IDX 7 13 8 14 9 15 13 16 11 17 10 18 12 20 4 22 21 24 18 26
REMARK H PARENT 10 19 12 21 4 23 21 25 18 27
REMARK Flexibility Score: inf
ROOT
ATOM      1  C   UNL     1       2.508  -4.043  21.976  1.00  0.00     0.180 A 
ATOM      2  C   UNL     1       2.979  -5.057  21.124  1.00  0.00     0.208 A 
ATOM      3  C   UNL     1       2.622  -5.025  19.766  1.00  0.00     0.238 A 
ATOM      4  O   UNL     1       3.002  -5.966  19.020  1.00  0.00    -0.285 OA
ATOM      5  C   UNL     1       1.815  -3.972  19.275  1.00  0.00     0.111 A 
ATOM      6  C   UNL     1       1.427  -3.817  17.910  1.00  0.00     0.134 A 
ATOM      7  C   UNL     1       0.518  -2.811  17.559  1.00  0.00     0.093 A 
ATOM      8  C   UNL     1       0.036  -1.912  18.514  1.00  0.00     0.123 A 
ATOM      9  C   UNL     1       0.456  -2.017  19.838  1.00  0.00     0.094 A 
ATOM     10  C   UNL     1       1.333  -3.034  20.225  1.00  0.00     0.146 A 
ATOM     11  O   UNL     1       1.698  -3.105  21.498  1.00  0.00    -0.452 OA
ENDROOT
BRANCH   1  12
ATOM     12  C   UNL     1       2.861  -3.996  23.413  1.00  0.00     0.025 A 
ATOM     13  C   UNL     1       3.735  -3.000  23.877  1.00  0.00     0.016 A 
ATOM     14  C   UNL     1       4.099  -2.948  25.225  1.00  0.00     0.051 A 
ATOM     15  C   UNL     1       3.606  -3.902  26.126  1.00  0.00     0.157 A 
ATOM     16  C   UNL     1       2.386  -4.964  24.318  1.00  0.00     0.062 A 
ATOM     17  C   UNL     1       2.752  -4.914  25.671  1.00  0.00     0.158 A 
BRANCH  15  18
ATOM     18  O   UNL     1       3.966  -3.853  27.472  1.00  0.00    -0.504 OA
ATOM     19  H   UNL     1       4.121  -4.697  28.010  1.00  0.00     0.293 HD
ENDBRANCH  15  18
BRANCH  17  20
ATOM     20  O   UNL     1       2.276  -5.869  26.566  1.00  0.00    -0.504 OA
ATOM     21  H   UNL     1       1.317  -6.196  26.532  1.00  0.00     0.293 HD
ENDBRANCH  17  20
ENDBRANCH   1  12
BRANCH   2  22
ATOM     22  O   UNL     1       3.756  -6.100  21.635  1.00  0.00    -0.502 OA
ATOM     23  H   UNL     1       3.642  -7.062  21.336  1.00  0.00     0.293 HD
ENDBRANCH   2  22
BRANCH   6  24
ATOM     24  O   UNL     1       1.921  -4.603  16.864  1.00  0.00    -0.507 OA
ATOM     25  H   UNL     1       2.886  -4.878  16.759  1.00  0.00     0.293 HD
ENDBRANCH   6  24
BRANCH   8  26
ATOM     26  O   UNL     1      -0.855  -0.903  18.155  1.00  0.00    -0.508 OA
ATOM     27  H   UNL     1      -1.046  -0.687  17.183  1.00  0.00     0.293 HD
ENDBRANCH   8  26
TORSDOF 6
ENDMDL
MODEL 3
REMARK VINA RESULT:    -5.879      6.111      7.970
REMARK INTER + INTRA:          -7.317
REMARK INTER:                  -7.686
REMARK INTRA:                   0.369
REMARK UNBOUND:                -0.235
REMARK SMILES O=c1c(O)c(-c2ccc(O)c(O)c2)oc2cc(O)cc(O)c12
REMARK SMILES IDX 5 1 3 2 2 3 1 4 22 5 20 6 19 7 17 8 16 9 15 10 14 11 6 12
REMARK SMILES IDX 7 13 8 14 9 15 13 16 11 17 10 18 12 20 4 22 21 24 18 26
REMARK H PARENT 10 19 12 21 4 23 21 25 18 27
REMARK Flexibility Score: inf
ROOT
ATOM      1  C   UNL     1      -2.649  -0.923  18.728  1.00  0.00     0.180 A 
ATOM      2  C   UNL     1      -3.238  -0.600  19.962  1.00  0.00     0.208 A 
ATOM      3  C   UNL     1      -4.456   0.099  19.973  1.00  0.00     0.238 A 
ATOM      4  O   UNL     1      -4.950   0.433  21.081  1.00  0.00    -0.285 OA
ATOM      5  C   UNL     1      -5.077   0.451  18.751  1.00  0.00     0.111 A 
ATOM      6  C   UNL     1      -6.332   1.122  18.643  1.00  0.00     0.134 A 
ATOM      7  C   UNL     1      -6.788   1.537  17.386  1.00  0.00     0.093 A 
ATOM      8  C   UNL     1      -6.067   1.244  16.226  1.00  0.00     0.123 A 
ATOM      9  C   UNL     1      -4.871   0.536  16.314  1.00  0.00     0.094 A 
ATOM     10  C   UNL     1      -4.371   0.141  17.559  1.00  0.00     0.146 A 
ATOM     11  O   UNL     1      -3.223  -0.522  17.599  1.00  0.00    -0.452 OA
ENDROOT
BRANCH   1  12
ATOM     12  C   UNL     1      -1.379  -1.679  18.635  1.00  0.00     0.025 A 
ATOM     13  C   UNL     1      -0.447  -1.596  19.682  1.00  0.00     0.016 A 
ATOM     14  C   UNL     1       0.766  -2.284  19.607  1.00  0.00     0.051 A 
ATOM     15  C   UNL     1       1.072  -3.053  18.476  1.00  0.00     0.157 A 
ATOM     16  C   UNL     1      -1.057  -2.436  17.492  1.00  0.00     0.062 A 
ATOM     17  C   UNL     1       0.161  -3.125  17.415  1.00  0.00     0.158 A 
BRANCH  15  18
ATOM     18  O   UNL     1       2.281  -3.743  18.398  1.00  0.00    -0.504 OA
ATOM     19  H   UNL     1       2.465  -4.410  17.659  1.00  0.00     0.293 HD
ENDBRANCH  15  18
BRANCH  17  20
ATOM     20  O   UNL     1       0.475  -3.879  16.287  1.00  0.00    -0.504 OA
ATOM     21  H   UNL     1      -0.218  -4.082  15.576  1.00  0.00     0.293 HD
ENDBRANCH  17  20
ENDBRANCH   1  12
BRANCH   2  22
ATOM     22  O   UNL     1      -2.596  -0.937  21.157  1.00  0.00    -0.502 OA
ATOM     23  H   UNL     1      -2.005  -1.755  21.246  1.00  0.00     0.293 HD
ENDBRANCH   2  22
BRANCH   6  24
ATOM     24  O   UNL     1      -7.173   1.381  19.729  1.00  0.00    -0.507 OA
ATOM     25  H   UNL     1      -8.036   1.901  19.677  1.00  0.00     0.293 HD
ENDBRANCH   6  24
BRANCH   8  26
ATOM     26  O   UNL     1      -6.536   1.645  14.977  1.00  0.00    -0.508 OA
ATOM     27  H   UNL     1      -6.927   2.569  14.829  1.00  0.00     0.293 HD
ENDBRANCH   8  26
TORSDOF 6
ENDMDL
MODEL 4
REMARK VINA RESULT:    -5.717      3.400      5.694
REMARK INTER + INTRA:          -7.121
REMARK INTER:                  -6.791
REMARK INTRA:                  -0.330
REMARK UNBOUND:                -0.235
REMARK SMILES O=c1c(O)c(-c2ccc(O)c(O)c2)oc2cc(O)cc(O)c12
REMARK SMILES IDX 5 1 3 2 2 3 1 4 22 5 20 6 19 7 17 8 16 9 15 10 14 11 6 12
REMARK SMILES IDX 7 13 8 14 9 15 13 16 11 17 10 18 12 20 4 22 21 24 18 26
REMARK H PARENT 10 19 12 21 4 23 21 25 18 27
REMARK Flexibility Score: inf
ROOT
ATOM      1  C   UNL     1      -0.403  -3.206  24.267  1.00  0.00     0.180 A 
ATOM      2  C   UNL     1       0.053  -2.791  25.530  1.00  0.00     0.208 A 
ATOM      3  C   UNL     1       1.310  -3.229  25.978  1.00  0.00     0.238 A 
ATOM      4  O   UNL     1       1.687  -2.898  27.132  1.00  0.00    -0.285 OA
ATOM      5  C   UNL     1       2.101  -4.062  25.152  1.00  0.00     0.111 A 
ATOM      6  C   UNL     1       3.406  -4.532  25.487  1.00  0.00     0.134 A 
ATOM      7  C   UNL     1       4.043  -5.458  24.652  1.00  0.00     0.093 A 
ATOM      8  C   UNL     1       3.450  -5.878  23.459  1.00  0.00     0.123 A 
ATOM      9  C   UNL     1       2.203  -5.380  23.093  1.00  0.00     0.094 A 
ATOM     10  C   UNL     1       1.525  -4.483  23.924  1.00  0.00     0.146 A 
ATOM     11  O   UNL     1       0.334  -4.041  23.543  1.00  0.00    -0.452 OA
ENDROOT
BRANCH   1  12
ATOM     12  C   UNL     1      -1.705  -2.766  23.715  1.00  0.00     0.025 A 
ATOM     13  C   UNL     1      -2.850  -3.548  23.939  1.00  0.00     0.016 A 
ATOM     14  C   UNL     1      -4.085  -3.163  23.411  1.00  0.00     0.051 A 
ATOM     15  C   UNL     1      -4.189  -1.998  22.638  1.00  0.00     0.157 A 
ATOM     16  C   UNL     1      -1.811  -1.609  22.921  1.00  0.00     0.062 A 
ATOM     17  C   UNL     1      -3.050  -1.223  22.389  1.00  0.00     0.158 A 
BRANCH  15  18
ATOM     18  O   UNL     1      -5.420  -1.610  22.111  1.00  0.00    -0.504 OA
ATOM     19  H   UNL     1      -5.704  -1.877  21.176  1.00  0.00     0.293 HD
ENDBRANCH  15  18
BRANCH  17  20
ATOM     20  O   UNL     1      -3.155  -0.074  21.608  1.00  0.00    -0.504 OA
ATOM     21  H   UNL     1      -3.756   0.696  21.876  1.00  0.00     0.293 HD
ENDBRANCH  17  20
ENDBRANCH   1  12
BRANCH   2  22
ATOM     22  O   UNL     1      -0.754  -1.986  26.339  1.00  0.00    -0.502 OA
ATOM     23  H   UNL     1      -1.551  -1.476  25.977  1.00  0.00     0.293 HD
ENDBRANCH   2  22
BRANCH   6  24
ATOM     24  O   UNL     1       4.125  -4.104  26.607  1.00  0.00    -0.507 OA
ATOM     25  H   UNL     1       4.492  -3.173  26.734  1.00  0.00     0.293 HD
ENDBRANCH   6  24
BRANCH   8  26
ATOM     26  O   UNL     1       4.098  -6.787  22.625  1.00  0.00    -0.508 OA
ATOM     27  H   UNL     1       4.428  -6.519  21.704  1.00  0.00     0.293 HD
ENDBRANCH   8  26
TORSDOF 6
ENDMDL
MODEL 5
REMARK VINA RESULT:    -5.700      1.520      2.720
REMARK INTER + INTRA:          -7.101
REMARK INTER:                  -7.396
REMARK INTRA:                   0.295
REMARK UNBOUND:                -0.235
REMARK SMILES O=c1c(O)c(-c2ccc(O)c(O)c2)oc2cc(O)cc(O)c12
REMARK SMILES IDX 5 1 3 2 2 3 1 4 22 5 20 6 19 7 17 8 16 9 15 10 14 11 6 12
REMARK SMILES IDX 7 13 8 14 9 15 13 16 11 17 10 18 12 20 4 22 21 24 18 26
REMARK H PARENT 10 19 12 21 4 23 21 25 18 27
REMARK Flexibility Score: inf
ROOT
ATOM      1  C   UNL     1       1.720  -3.914  21.780  1.00  0.00     0.180 A 
ATOM      2  C   UNL     1       0.730  -3.022  22.228  1.00  0.00     0.208 A 
ATOM      3  C   UNL     1       0.629  -2.750  23.602  1.00  0.00     0.238 A 
ATOM      4  O   UNL     1      -0.294  -1.994  24.001  1.00  0.00    -0.285 OA
ATOM      5  C   UNL     1       1.529  -3.361  24.508  1.00  0.00     0.111 A 
ATOM      6  C   UNL     1       1.544  -3.127  25.916  1.00  0.00     0.134 A 
ATOM      7  C   UNL     1       2.392  -3.885  26.733  1.00  0.00     0.093 A 
ATOM      8  C   UNL     1       3.273  -4.820  26.185  1.00  0.00     0.123 A 
ATOM      9  C   UNL     1       3.308  -5.013  24.806  1.00  0.00     0.094 A 
ATOM     10  C   UNL     1       2.448  -4.299  23.968  1.00  0.00     0.146 A 
ATOM     11  O   UNL     1       2.506  -4.521  22.662  1.00  0.00    -0.452 OA
ENDROOT
BRANCH   1  12
ATOM     12  C   UNL     1       1.905  -4.230  20.345  1.00  0.00     0.025 A 
ATOM     13  C   UNL     1       2.528  -5.433  19.977  1.00  0.00     0.016 A 
ATOM     14  C   UNL     1       2.731  -5.743  18.630  1.00  0.00     0.051 A 
ATOM     15  C   UNL     1       2.328  -4.846  17.632  1.00  0.00     0.157 A 
ATOM     16  C   UNL     1       1.521  -3.323  19.339  1.00  0.00     0.062 A 
ATOM     17  C   UNL     1       1.727  -3.632  17.987  1.00  0.00     0.158 A 
BRANCH  15  18
ATOM     18  O   UNL     1       2.528  -5.152  16.287  1.00  0.00    -0.504 OA
ATOM     19  H   UNL     1       2.033  -4.662  15.552  1.00  0.00     0.293 HD
ENDBRANCH  15  18
BRANCH  17  20
ATOM     20  O   UNL     1       1.341  -2.737  16.992  1.00  0.00    -0.504 OA
ATOM     21  H   UNL     1       0.577  -2.086  17.132  1.00  0.00     0.293 HD
ENDBRANCH  17  20
ENDBRANCH   1  12
BRANCH   2  22
ATOM     22  O   UNL     1      -0.162  -2.448  21.318  1.00  0.00    -0.502 OA
ATOM     23  H   UNL     1      -1.108  -2.188  21.573  1.00  0.00     0.293 HD
ENDBRANCH   2  22
BRANCH   6  24
ATOM     24  O   UNL     1       0.771  -2.152  26.553  1.00  0.00    -0.507 OA
ATOM     25  H   UNL     1      -0.203  -2.255  26.792  1.00  0.00     0.293 HD
ENDBRANCH   6  24
BRANCH   8  26
ATOM     26  O   UNL     1       4.125  -5.559  27.003  1.00  0.00    -0.508 OA
ATOM     27  H   UNL     1       5.053  -5.828  26.697  1.00  0.00     0.293 HD
ENDBRANCH   8  26
TORSDOF 6
ENDMDL
MODEL 6
REMARK VINA RESULT:    -5.695      4.523      6.265
REMARK INTER + INTRA:          -7.095
REMARK INTER:                  -6.770
REMARK INTRA:                  -0.325
REMARK UNBOUND:                -0.235
REMARK SMILES O=c1c(O)c(-c2ccc(O)c(O)c2)oc2cc(O)cc(O)c12
REMARK SMILES IDX 5 1 3 2 2 3 1 4 22 5 20 6 19 7 17 8 16 9 15 10 14 11 6 12
REMARK SMILES IDX 7 13 8 14 9 15 13 16 11 17 10 18 12 20 4 22 21 24 18 26
REMARK H PARENT 10 19 12 21 4 23 21 25 18 27
REMARK Flexibility Score: inf
ROOT
ATOM      1  C   UNL     1      -2.931  -0.886  22.717  1.00  0.00     0.180 A 
ATOM      2  C   UNL     1      -2.976  -0.150  23.914  1.00  0.00     0.208 A 
ATOM      3  C   UNL     1      -2.119  -0.509  24.967  1.00  0.00     0.238 A 
ATOM      4  O   UNL     1      -2.204   0.118  26.055  1.00  0.00    -0.285 OA
ATOM      5  C   UNL     1      -1.217  -1.587  24.804  1.00  0.00     0.111 A 
ATOM      6  C   UNL     1      -0.275  -2.012  25.789  1.00  0.00     0.134 A 
ATOM      7  C   UNL     1       0.478  -3.172  25.571  1.00  0.00     0.093 A 
ATOM      8  C   UNL     1       0.371  -3.885  24.374  1.00  0.00     0.123 A 
ATOM      9  C   UNL     1      -0.502  -3.445  23.382  1.00  0.00     0.094 A 
ATOM     10  C   UNL     1      -1.294  -2.311  23.586  1.00  0.00     0.146 A 
ATOM     11  O   UNL     1      -2.119  -1.933  22.619  1.00  0.00    -0.452 OA
ENDROOT
BRANCH   1  12
ATOM     12  C   UNL     1      -3.785  -0.552  21.555  1.00  0.00     0.025 A 
ATOM     13  C   UNL     1      -5.059  -1.131  21.445  1.00  0.00     0.016 A 
ATOM     14  C   UNL     1      -5.874  -0.847  20.346  1.00  0.00     0.051 A 
ATOM     15  C   UNL     1      -5.420   0.009  19.334  1.00  0.00     0.157 A 
ATOM     16  C   UNL     1      -3.325   0.289  20.524  1.00  0.00     0.062 A 
ATOM     17  C   UNL     1      -4.142   0.574  19.421  1.00  0.00     0.158 A 
BRANCH  15  18
ATOM     18  O   UNL     1      -6.231   0.295  18.236  1.00  0.00    -0.504 OA
ATOM     19  H   UNL     1      -6.062   1.103  17.649  1.00  0.00     0.293 HD
ENDBRANCH  15  18
BRANCH  17  20
ATOM     20  O   UNL     1      -3.688   1.412  18.405  1.00  0.00    -0.504 OA
ATOM     21  H   UNL     1      -2.921   1.144  17.799  1.00  0.00     0.293 HD
ENDBRANCH  17  20
ENDBRANCH   1  12
BRANCH   2  22
ATOM     22  O   UNL     1      -3.891   0.896  24.062  1.00  0.00    -0.502 OA
ATOM     23  H   UNL     1      -3.636   1.866  23.919  1.00  0.00     0.293 HD
ENDBRANCH   2  22
BRANCH   6  24
ATOM     24  O   UNL     1      -0.024  -1.320  26.978  1.00  0.00    -0.507 OA
ATOM     25  H   UNL     1       0.871  -1.277  27.441  1.00  0.00     0.293 HD
ENDBRANCH   6  24
BRANCH   8  26
ATOM     26  O   UNL     1       1.135  -5.029  24.158  1.00  0.00    -0.508 OA
ATOM     27  H   UNL     1       1.836  -5.332  24.824  1.00  0.00     0.293 HD
ENDBRANCH   8  26
TORSDOF 6
ENDMDL
MODEL 7
REMARK VINA RESULT:    -5.634      3.087      5.150
REMARK INTER + INTRA:          -7.021
REMARK INTER:                  -6.796
REMARK INTRA:                  -0.226
REMARK UNBOUND:                -0.235
REMARK SMILES O=c1c(O)c(-c2ccc(O)c(O)c2)oc2cc(O)cc(O)c12
REMARK SMILES IDX 5 1 3 2 2 3 1 4 22 5 20 6 19 7 17 8 16 9 15 10 14 11 6 12
REMARK SMILES IDX 7 13 8 14 9 15 13 16 11 17 10 18 12 20 4 22 21 24 18 26
REMARK H PARENT 10 19 12 21 4 23 21 25 18 27
REMARK Flexibility Score: inf
ROOT
ATOM      1  C   UNL     1      -0.633  -2.895  23.732  1.00  0.00     0.180 A 
ATOM      2  C   UNL     1      -1.111  -2.879  25.054  1.00  0.00     0.208 A 
ATOM      3  C   UNL     1      -2.302  -2.189  25.339  1.00  0.00     0.238 A 
ATOM      4  O   UNL     1      -2.695  -2.132  26.533  1.00  0.00    -0.285 OA
ATOM      5  C   UNL     1      -3.006  -1.540  24.297  1.00  0.00     0.111 A 
ATOM      6  C   UNL     1      -4.243  -0.847  24.464  1.00  0.00     0.134 A 
ATOM      7  C   UNL     1      -4.784  -0.131  23.389  1.00  0.00     0.093 A 
ATOM      8  C   UNL     1      -4.167  -0.138  22.136  1.00  0.00     0.123 A 
ATOM      9  C   UNL     1      -2.992  -0.860  21.947  1.00  0.00     0.094 A 
ATOM     10  C   UNL     1      -2.408  -1.555  23.010  1.00  0.00     0.146 A 
ATOM     11  O   UNL     1      -1.282  -2.221  22.789  1.00  0.00    -0.452 OA
ENDROOT
BRANCH   1  12
ATOM     12  C   UNL     1       0.600  -3.620  23.350  1.00  0.00     0.025 A 
ATOM     13  C   UNL     1       0.605  -5.024  23.355  1.00  0.00     0.016 A 
ATOM     14  C   UNL     1       1.763  -5.730  23.018  1.00  0.00     0.051 A 
ATOM     15  C   UNL     1       2.937  -5.041  22.687  1.00  0.00     0.157 A 
ATOM     16  C   UNL     1       1.788  -2.933  23.038  1.00  0.00     0.062 A 
ATOM     17  C   UNL     1       2.951  -3.641  22.701  1.00  0.00     0.158 A 
BRANCH  15  18
ATOM     18  O   UNL     1       4.094  -5.741  22.349  1.00  0.00    -0.504 OA
ATOM     19  H   UNL     1       4.110  -6.401  21.581  1.00  0.00     0.293 HD
ENDBRANCH  15  18
BRANCH  17  20
ATOM     20  O   UNL     1       4.125  -2.959  22.386  1.00  0.00    -0.504 OA
ATOM     21  H   UNL     1       4.246  -1.980  22.615  1.00  0.00     0.293 HD
ENDBRANCH  17  20
ENDBRANCH   1  12
BRANCH   2  22
ATOM     22  O   UNL     1      -0.388  -3.507  26.071  1.00  0.00    -0.502 OA
ATOM     23  H   UNL     1      -0.820  -4.138  26.736  1.00  0.00     0.293 HD
ENDBRANCH   2  22
BRANCH   6  24
ATOM     24  O   UNL     1      -4.986  -0.854  25.648  1.00  0.00    -0.507 OA
ATOM     25  H   UNL     1      -4.597  -0.747  26.572  1.00  0.00     0.293 HD
ENDBRANCH   6  24
BRANCH   8  26
ATOM     26  O   UNL     1      -4.721   0.564  21.068  1.00  0.00    -0.508 OA
ATOM     27  H   UNL     1      -4.520   1.547  20.918  1.00  0.00     0.293 HD
ENDBRANCH   8  26
TORSDOF 6
ENDMDL
MODEL 8
REMARK VINA RESULT:    -5.567      3.264      6.214
REMARK INTER + INTRA:          -6.941
REMARK INTER:                  -6.696
REMARK INTRA:                  -0.245
REMARK UNBOUND:                -0.235
REMARK SMILES O=c1c(O)c(-c2ccc(O)c(O)c2)oc2cc(O)cc(O)c12
REMARK SMILES IDX 5 1 3 2 2 3 1 4 22 5 20 6 19 7 17 8 16 9 15 10 14 11 6 12
REMARK SMILES IDX 7 13 8 14 9 15 13 16 11 17 10 18 12 20 4 22 21 24 18 26
REMARK H PARENT 10 19 12 21 4 23 21 25 18 27
REMARK Flexibility Score: inf
ROOT
ATOM      1  C   UNL     1      -0.108  -2.654  24.300  1.00  0.00     0.180 A 
ATOM      2  C   UNL     1       0.533  -3.086  23.126  1.00  0.00     0.208 A 
ATOM      3  C   UNL     1       1.725  -3.822  23.233  1.00  0.00     0.238 A 
ATOM      4  O   UNL     1       2.323  -4.158  22.177  1.00  0.00    -0.285 OA
ATOM      5  C   UNL     1       2.251  -4.129  24.510  1.00  0.00     0.111 A 
ATOM      6  C   UNL     1       3.429  -4.903  24.737  1.00  0.00     0.134 A 
ATOM      7  C   UNL     1       3.929  -5.034  26.039  1.00  0.00     0.093 A 
ATOM      8  C   UNL     1       3.257  -4.476  27.128  1.00  0.00     0.123 A 
ATOM      9  C   UNL     1       2.073  -3.770  26.924  1.00  0.00     0.094 A 
ATOM     10  C   UNL     1       1.569  -3.591  25.633  1.00  0.00     0.146 A 
ATOM     11  O   UNL     1       0.445  -2.903  25.481  1.00  0.00    -0.452 OA
ENDROOT
BRANCH   1  12
ATOM     12  C   UNL     1      -1.380  -1.897  24.269  1.00  0.00     0.025 A 
ATOM     13  C   UNL     1      -1.396  -0.556  24.683  1.00  0.00     0.016 A 
ATOM     14  C   UNL     1      -2.589   0.172  24.683  1.00  0.00     0.051 A 
ATOM     15  C   UNL     1      -3.786  -0.436  24.281  1.00  0.00     0.157 A 
ATOM     16  C   UNL     1      -2.589  -2.509  23.887  1.00  0.00     0.062 A 
ATOM     17  C   UNL     1      -3.787  -1.780  23.887  1.00  0.00     0.158 A 
BRANCH  15  18
ATOM     18  O   UNL     1      -4.978   0.287  24.277  1.00  0.00    -0.504 OA
ATOM     19  H   UNL     1      -5.201   0.945  25.014  1.00  0.00     0.293 HD
ENDBRANCH  15  18
BRANCH  17  20
ATOM     20  O   UNL     1      -4.981  -2.385  23.503  1.00  0.00    -0.504 OA
ATOM     21  H   UNL     1      -5.438  -3.075  24.088  1.00  0.00     0.293 HD
ENDBRANCH  17  20
ENDBRANCH   1  12
BRANCH   2  22
ATOM     22  O   UNL     1       0.009  -2.752  21.874  1.00  0.00    -0.502 OA
ATOM     23  H   UNL     1       0.597  -2.564  21.071  1.00  0.00     0.293 HD
ENDBRANCH   2  22
BRANCH   6  24
ATOM     24  O   UNL     1       4.124  -5.578  23.730  1.00  0.00    -0.507 OA
ATOM     25  H   UNL     1       3.800  -6.413  23.268  1.00  0.00     0.293 HD
ENDBRANCH   6  24
BRANCH   8  26
ATOM     26  O   UNL     1       3.752  -4.625  28.421  1.00  0.00    -0.508 OA
ATOM     27  H   UNL     1       3.134  -4.757  29.214  1.00  0.00     0.293 HD
ENDBRANCH   8  26
TORSDOF 6
ENDMDL
MODEL 9
REMARK VINA RESULT:    -5.497      2.418      7.060
REMARK INTER + INTRA:          -6.856
REMARK INTER:                  -6.597
REMARK INTRA:                  -0.260
REMARK UNBOUND:                -0.235
REMARK SMILES O=c1c(O)c(-c2ccc(O)c(O)c2)oc2cc(O)cc(O)c12
REMARK SMILES IDX 5 1 3 2 2 3 1 4 22 5 20 6 19 7 17 8 16 9 15 10 14 11 6 12
REMARK SMILES IDX 7 13 8 14 9 15 13 16 11 17 10 18 12 20 4 22 21 24 18 26
REMARK H PARENT 10 19 12 21 4 23 21 25 18 27
REMARK Flexibility Score: inf
ROOT
ATOM      1  C   UNL     1      -0.070  -2.388  24.802  1.00  0.00     0.180 A 
ATOM      2  C   UNL     1       0.718  -3.139  25.692  1.00  0.00     0.208 A 
ATOM      3  C   UNL     1       1.777  -3.908  25.181  1.00  0.00     0.238 A 
ATOM      4  O   UNL     1       2.443  -4.621  25.976  1.00  0.00    -0.285 OA
ATOM      5  C   UNL     1       2.044  -3.903  23.791  1.00  0.00     0.111 A 
ATOM      6  C   UNL     1       3.116  -4.612  23.170  1.00  0.00     0.134 A 
ATOM      7  C   UNL     1       3.207  -4.640  21.772  1.00  0.00     0.093 A 
ATOM      8  C   UNL     1       2.304  -3.930  20.978  1.00  0.00     0.123 A 
ATOM      9  C   UNL     1       1.290  -3.186  21.577  1.00  0.00     0.094 A 
ATOM     10  C   UNL     1       1.151  -3.169  22.967  1.00  0.00     0.146 A 
ATOM     11  O   UNL     1       0.165  -2.456  23.497  1.00  0.00    -0.452 OA
ENDROOT
BRANCH   1  12
ATOM     12  C   UNL     1      -1.187  -1.534  25.268  1.00  0.00     0.025 A 
ATOM     13  C   UNL     1      -1.005  -0.145  25.352  1.00  0.00     0.016 A 
ATOM     14  C   UNL     1      -2.038   0.678  25.808  1.00  0.00     0.051 A 
ATOM     15  C   UNL     1      -3.262   0.121  26.202  1.00  0.00     0.157 A 
ATOM     16  C   UNL     1      -2.410  -2.091  25.685  1.00  0.00     0.062 A 
ATOM     17  C   UNL     1      -3.447  -1.266  26.145  1.00  0.00     0.158 A 
BRANCH  15  18
ATOM     18  O   UNL     1      -4.295   0.939  26.657  1.00  0.00    -0.504 OA
ATOM     19  H   UNL     1      -5.061   0.570  27.207  1.00  0.00     0.293 HD
ENDBRANCH  15  18
BRANCH  17  20
ATOM     20  O   UNL     1      -4.660  -1.817  26.551  1.00  0.00    -0.504 OA
ATOM     21  H   UNL     1      -5.443  -1.904  25.913  1.00  0.00     0.293 HD
ENDBRANCH  17  20
ENDBRANCH   1  12
BRANCH   2  22
ATOM     22  O   UNL     1       0.422  -3.147  27.058  1.00  0.00    -0.502 OA
ATOM     23  H   UNL     1       1.098  -2.878  27.763  1.00  0.00     0.293 HD
ENDBRANCH   2  22
BRANCH   6  24
ATOM     24  O   UNL     1       4.123  -5.276  23.875  1.00  0.00    -0.507 OA
ATOM     25  H   UNL     1       4.676  -4.866  24.612  1.00  0.00     0.293 HD
ENDBRANCH   6  24
BRANCH   8  26
ATOM     26  O   UNL     1       2.411  -3.950  19.589  1.00  0.00    -0.508 OA
ATOM     27  H   UNL     1       1.593  -4.022  18.995  1.00  0.00     0.293 HD
ENDBRANCH   8  26
TORSDOF 6
ENDMDL
