MODEL 1
REMARK VINA RESULT:    -3.689      0.000      0.000
REMARK INTER + INTRA:          -1.972
REMARK INTER:                  -4.551
REMARK INTRA:                   2.579
REMARK UNBOUND:                 2.579
REMARK SMILES C=C1CC[C@@H]2[C@@H]([C@@H]3[C@@H](C)CC[C@@H]13)C2(C)C
REMARK SMILES IDX 3 1 2 2 1 3 12 4 9 5 8 6 10 7 7 8 11 9 4 11 5 12 6 13 13 14
REMARK SMILES IDX 14 16 15 17
REMARK H PARENT
REMARK Flexibility Score: 80.00
ROOT
ATOM      1  C   UNL     1      12.285  19.521  23.078  1.00  0.00     0.031 C 
ENDROOT
BRANCH   1   2
ATOM      2  C   UNL     1      10.987  20.049  22.460  1.00  0.00    -0.074 C 
ATOM      3  C   UNL     1      10.999  21.191  21.752  1.00  0.00     0.008 C 
BRANCH   2   4
ATOM      4  C   UNL     1       9.684  19.374  22.876  1.00  0.00     0.018 C 
ATOM      5  C   UNL     1       6.674  20.170  24.989  1.00  0.00     0.008 C 
ATOM      6  C   UNL     1       7.726  19.332  24.256  1.00  0.00    -0.010 C 
ATOM      7  C   UNL     1       7.302  18.991  22.802  1.00  0.00     0.004 C 
ATOM      8  C   UNL     1       9.047  20.073  24.077  1.00  0.00     0.003 CG0
ATOM      9  C   UNL     1       8.525  19.250  21.894  1.00  0.00     0.008 C 
ATOM     10  G   UNL     1      10.013  20.349  25.266  1.00  0.00     0.000 G0
ENDBRANCH   2   4
ENDBRANCH   1   2
BRANCH   1  11
ATOM     11  C   UNL     1      12.391  19.762  24.611  1.00  0.00     0.009 C 
BRANCH  11  12
ATOM     12  C   UNL     1      11.128  19.235  25.322  1.00  0.00    -0.001 C 
ATOM     13  C   UNL     1      10.047  20.358  25.275  1.00  0.00     0.002 CG0
ATOM     14  C   UNL     1      10.469  19.712  26.602  1.00  0.00    -0.029 C 
ATOM     15  G   UNL     1       9.064  20.056  24.106  1.00  0.00     0.000 G0
ATOM     16  C   UNL     1       9.472  18.759  27.272  1.00  0.00     0.011 C 
ATOM     17  C   UNL     1      11.334  20.570  27.534  1.00  0.00     0.011 C 
ENDBRANCH  11  12
ENDBRANCH   1  11
TORSDOF 0
ENDMDL
MODEL 2
REMARK VINA RESULT:    -3.549      1.182      3.588
REMARK INTER + INTRA:          -1.799
REMARK INTER:                  -4.544
REMARK INTRA:                   2.745
REMARK UNBOUND:                 2.579
REMARK SMILES C=C1CC[C@@H]2[C@@H]([C@@H]3[C@@H](C)CC[C@@H]13)C2(C)C
REMARK SMILES IDX 3 1 2 2 1 3 12 4 9 5 8 6 10 7 7 8 11 9 4 11 5 12 6 13 13 14
REMARK SMILES IDX 14 16 15 17
REMARK H PARENT
REMARK Flexibility Score: 80.00
ROOT
ATOM      1  C   UNL     1      11.935  20.566  26.929  1.00  0.00     0.031 C 
ENDROOT
BRANCH   1   2
ATOM      2  C   UNL     1      10.730  19.622  26.862  1.00  0.00    -0.074 C 
ATOM      3  C   UNL     1      10.798  18.408  27.431  1.00  0.00     0.008 C 
BRANCH   2   4
ATOM      4  C   UNL     1       9.579  20.015  25.941  1.00  0.00     0.018 C 
ATOM      5  C   UNL     1       8.131  18.909  22.648  1.00  0.00     0.008 C 
ATOM      6  C   UNL     1       8.466  19.828  23.828  1.00  0.00    -0.010 C 
ATOM      7  C   UNL     1       7.394  19.765  24.949  1.00  0.00     0.004 C 
ATOM      8  C   UNL     1       9.751  19.423  24.542  1.00  0.00     0.003 CG0
ATOM      9  C   UNL     1       8.142  19.653  26.295  1.00  0.00     0.008 C 
ATOM     10  G   UNL     1      11.157  19.632  23.907  1.00  0.00     0.000 G0
ENDBRANCH   2   4
ENDBRANCH   1   2
BRANCH   1  11
ATOM     11  C   UNL     1      12.723  20.670  25.592  1.00  0.00     0.009 C 
BRANCH  11  12
ATOM     12  C   UNL     1      11.761  20.984  24.429  1.00  0.00    -0.001 C 
ATOM     13  C   UNL     1      11.161  19.635  23.925  1.00  0.00     0.002 CG0
ATOM     14  C   UNL     1      11.860  20.606  22.963  1.00  0.00    -0.029 C 
ATOM     15  G   UNL     1       9.749  19.452  24.554  1.00  0.00     0.000 G0
ATOM     16  C   UNL     1      10.978  21.384  21.980  1.00  0.00     0.011 C 
ATOM     17  C   UNL     1      13.248  20.188  22.461  1.00  0.00     0.011 C 
ENDBRANCH  11  12
ENDBRANCH   1  11
TORSDOF 0
ENDMDL
MODEL 3
REMARK VINA RESULT:    -3.452      1.117      4.478
REMARK INTER + INTRA:          -1.680
REMARK INTER:                  -4.378
REMARK INTRA:                   2.698
REMARK UNBOUND:                 2.579
REMARK SMILES C=C1CC[C@@H]2[C@@H]([C@@H]3[C@@H](C)CC[C@@H]13)C2(C)C
REMARK SMILES IDX 3 1 2 2 1 3 12 4 9 5 8 6 10 7 7 8 11 9 4 11 5 12 6 13 13 14
REMARK SMILES IDX 14 16 15 17
REMARK H PARENT
REMARK Flexibility Score: 80.00
ROOT
ATOM      1  C   UNL     1       7.342  19.338  24.374  1.00  0.00     0.031 C 
ENDROOT
BRANCH   1   2
ATOM      2  C   UNL     1       7.932  19.615  25.761  1.00  0.00    -0.074 C 
ATOM      3  C   UNL     1       7.292  20.436  26.609  1.00  0.00     0.008 C 
BRANCH   2   4
ATOM      4  C   UNL     1       9.352  19.125  26.031  1.00  0.00     0.018 C 
ATOM      5  C   UNL     1      12.785  20.607  26.458  1.00  0.00     0.008 C 
ATOM      6  C   UNL     1      11.703  19.567  26.146  1.00  0.00    -0.010 C 
ATOM      7  C   UNL     1      11.304  18.735  27.394  1.00  0.00     0.004 C 
ATOM      8  C   UNL     1      10.389  20.201  25.705  1.00  0.00     0.003 CG0
ATOM      9  C   UNL     1       9.762  18.661  27.423  1.00  0.00     0.008 C 
ATOM     10  G   UNL     1      10.217  20.881  24.315  1.00  0.00     0.000 G0
ENDBRANCH   2   4
ENDBRANCH   1   2
BRANCH   1  11
ATOM     11  C   UNL     1       8.077  20.081  23.223  1.00  0.00     0.009 C 
BRANCH  11  12
ATOM     12  C   UNL     1       9.596  19.833  23.312  1.00  0.00    -0.001 C 
ATOM     13  C   UNL     1      10.199  20.887  24.291  1.00  0.00     0.002 CG0
ATOM     14  C   UNL     1      10.748  20.714  22.868  1.00  0.00    -0.029 C 
ATOM     15  G   UNL     1      10.383  20.222  25.687  1.00  0.00     0.000 G0
ATOM     16  C   UNL     1      12.120  20.047  22.717  1.00  0.00     0.011 C 
ATOM     17  C   UNL     1      10.408  21.825  21.866  1.00  0.00     0.011 C 
ENDBRANCH  11  12
ENDBRANCH   1  11
TORSDOF 0
ENDMDL
MODEL 4
REMARK VINA RESULT:    -3.374      2.021      4.647
REMARK INTER + INTRA:          -1.583
REMARK INTER:                  -4.301
REMARK INTRA:                   2.718
REMARK UNBOUND:                 2.579
REMARK SMILES C=C1CC[C@@H]2[C@@H]([C@@H]3[C@@H](C)CC[C@@H]13)C2(C)C
REMARK SMILES IDX 3 1 2 2 1 3 12 4 9 5 8 6 10 7 7 8 11 9 4 11 5 12 6 13 13 14
REMARK SMILES IDX 14 16 15 17
REMARK H PARENT
REMARK Flexibility Score: 80.00
ROOT
ATOM      1  C   UNL     1      11.421  18.854  23.191  1.00  0.00     0.031 C 
ENDROOT
BRANCH   1   2
ATOM      2  C   UNL     1      10.731  19.305  24.482  1.00  0.00    -0.074 C 
ATOM      3  C   UNL     1       9.559  19.959  24.421  1.00  0.00     0.008 C 
BRANCH   2   4
ATOM      4  C   UNL     1      11.526  19.198  25.779  1.00  0.00     0.018 C 
ATOM      5  C   UNL     1      13.227  21.509  28.214  1.00  0.00     0.008 C 
ATOM      6  C   UNL     1      12.908  20.221  27.447  1.00  0.00    -0.010 C 
ATOM      7  C   UNL     1      11.840  19.354  28.167  1.00  0.00     0.004 C 
ATOM      8  C   UNL     1      12.286  20.490  26.082  1.00  0.00     0.003 CG0
ATOM      9  C   UNL     1      10.825  18.894  27.098  1.00  0.00     0.008 C 
ATOM     10  G   UNL     1      13.110  21.062  24.890  1.00  0.00     0.000 G0
ENDBRANCH   2   4
ENDBRANCH   1   2
BRANCH   1  11
ATOM     11  C   UNL     1      12.649  19.725  22.801  1.00  0.00     0.009 C 
BRANCH  11  12
ATOM     12  C   UNL     1      13.610  19.859  24.000  1.00  0.00    -0.001 C 
ATOM     13  C   UNL     1      13.120  21.051  24.877  1.00  0.00     0.002 CG0
ATOM     14  C   UNL     1      14.561  20.985  24.355  1.00  0.00    -0.029 C 
ATOM     15  G   UNL     1      12.300  20.484  26.074  1.00  0.00     0.000 G0
ATOM     16  C   UNL     1      15.667  20.672  25.370  1.00  0.00     0.011 C 
ATOM     17  C   UNL     1      14.921  21.955  23.222  1.00  0.00     0.011 C 
ENDBRANCH  11  12
ENDBRANCH   1  11
TORSDOF 0
ENDMDL
MODEL 5
REMARK VINA RESULT:    -3.271      1.274      3.705
REMARK INTER + INTRA:          -1.456
REMARK INTER:                  -4.230
REMARK INTRA:                   2.773
REMARK UNBOUND:                 2.579
REMARK SMILES C=C1CC[C@@H]2[C@@H]([C@@H]3[C@@H](C)CC[C@@H]13)C2(C)C
REMARK SMILES IDX 3 1 2 2 1 3 12 4 9 5 8 6 10 7 7 8 11 9 4 11 5 12 6 13 13 14
REMARK SMILES IDX 14 16 15 17
REMARK H PARENT
REMARK Flexibility Score: 80.00
ROOT
ATOM      1  C   UNL     1      10.609  18.674  27.047  1.00  0.00     0.031 C 
ENDROOT
BRANCH   1   2
ATOM      2  C   UNL     1      11.585  19.536  26.240  1.00  0.00    -0.074 C 
ATOM      3  C   UNL     1      12.454  20.338  26.877  1.00  0.00     0.008 C 
BRANCH   2   4
ATOM      4  C   UNL     1      11.365  19.623  24.733  1.00  0.00     0.018 C 
ATOM      5  C   UNL     1      10.137  22.150  22.229  1.00  0.00     0.008 C 
ATOM      6  C   UNL     1      10.470  20.784  22.838  1.00  0.00    -0.010 C 
ATOM      7  C   UNL     1      11.905  20.312  22.484  1.00  0.00     0.004 C 
ATOM      8  C   UNL     1      10.468  20.805  24.363  1.00  0.00     0.003 CG0
ATOM      9  C   UNL     1      12.547  19.777  23.783  1.00  0.00     0.008 C 
ATOM     10  G   UNL     1       9.155  20.919  25.192  1.00  0.00     0.000 G0
ENDBRANCH   2   4
ENDBRANCH   1   2
BRANCH   1  11
ATOM     11  C   UNL     1       9.148  19.207  27.037  1.00  0.00     0.009 C 
BRANCH  11  12
ATOM     12  C   UNL     1       8.689  19.477  25.590  1.00  0.00    -0.001 C 
ATOM     13  C   UNL     1       9.149  20.916  25.201  1.00  0.00     0.002 CG0
ATOM     14  C   UNL     1       7.683  20.484  25.067  1.00  0.00    -0.029 C 
ATOM     15  G   UNL     1      10.463  20.812  24.371  1.00  0.00     0.000 G0
ATOM     16  C   UNL     1       7.140  20.257  23.651  1.00  0.00     0.011 C 
ATOM     17  C   UNL     1       6.703  21.064  26.095  1.00  0.00     0.011 C 
ENDBRANCH  11  12
ENDBRANCH   1  11
TORSDOF 0
ENDMDL
MODEL 6
REMARK VINA RESULT:    -3.184      2.872      5.546
REMARK INTER + INTRA:          -1.349
REMARK INTER:                  -4.076
REMARK INTRA:                   2.727
REMARK UNBOUND:                 2.579
REMARK SMILES C=C1CC[C@@H]2[C@@H]([C@@H]3[C@@H](C)CC[C@@H]13)C2(C)C
REMARK SMILES IDX 3 1 2 2 1 3 12 4 9 5 8 6 10 7 7 8 11 9 4 11 5 12 6 13 13 14
REMARK SMILES IDX 14 16 15 17
REMARK H PARENT
REMARK Flexibility Score: 80.00
ROOT
ATOM      1  C   UNL     1       7.448  18.342  23.050  1.00  0.00     0.031 C 
ENDROOT
BRANCH   1   2
ATOM      2  C   UNL     1       7.878  19.480  23.980  1.00  0.00    -0.074 C 
ATOM      3  C   UNL     1       8.056  19.244  25.290  1.00  0.00     0.008 C 
BRANCH   2   4
ATOM      4  C   UNL     1       7.860  20.897  23.413  1.00  0.00     0.018 C 
ATOM      5  C   UNL     1       5.788  24.019  23.761  1.00  0.00     0.008 C 
ATOM      6  C   UNL     1       6.741  22.996  23.134  1.00  0.00    -0.010 C 
ATOM      7  C   UNL     1       8.227  23.281  23.483  1.00  0.00     0.004 C 
ATOM      8  C   UNL     1       6.516  21.584  23.660  1.00  0.00     0.003 CG0
ATOM      9  C   UNL     1       8.870  21.936  23.885  1.00  0.00     0.008 C 
ATOM     10  G   UNL     1       5.266  20.740  23.272  1.00  0.00     0.000 G0
ENDBRANCH   2   4
ENDBRANCH   1   2
BRANCH   1  11
ATOM     11  C   UNL     1       5.956  18.419  22.618  1.00  0.00     0.009 C 
BRANCH  11  12
ATOM     12  C   UNL     1       5.633  19.821  22.063  1.00  0.00    -0.001 C 
ATOM     13  C   UNL     1       5.254  20.738  23.266  1.00  0.00     0.002 CG0
ATOM     14  C   UNL     1       4.320  20.580  22.059  1.00  0.00    -0.029 C 
ATOM     15  G   UNL     1       6.500  21.586  23.657  1.00  0.00     0.000 G0
ATOM     16  C   UNL     1       4.202  21.767  21.096  1.00  0.00     0.011 C 
ATOM     17  C   UNL     1       3.051  19.747  22.282  1.00  0.00     0.011 C 
ENDBRANCH  11  12
ENDBRANCH   1  11
TORSDOF 0
ENDMDL
MODEL 7
REMARK VINA RESULT:    -3.183      2.834      4.632
REMARK INTER + INTRA:          -1.348
REMARK INTER:                  -4.088
REMARK INTRA:                   2.740
REMARK UNBOUND:                 2.579
REMARK SMILES C=C1CC[C@@H]2[C@@H]([C@@H]3[C@@H](C)CC[C@@H]13)C2(C)C
REMARK SMILES IDX 3 1 2 2 1 3 12 4 9 5 8 6 10 7 7 8 11 9 4 11 5 12 6 13 13 14
REMARK SMILES IDX 14 16 15 17
REMARK H PARENT
REMARK Flexibility Score: 80.00
ROOT
ATOM      1  C   UNL     1       8.008  19.581  25.109  1.00  0.00     0.031 C 
ENDROOT
BRANCH   1   2
ATOM      2  C   UNL     1       7.618  19.277  23.659  1.00  0.00    -0.074 C 
ATOM      3  C   UNL     1       8.569  19.178  22.717  1.00  0.00     0.008 C 
BRANCH   2   4
ATOM      4  C   UNL     1       6.135  19.333  23.304  1.00  0.00     0.018 C 
ATOM      5  C   UNL     1       3.801  21.590  21.400  1.00  0.00     0.008 C 
ATOM      6  C   UNL     1       4.267  20.542  22.417  1.00  0.00    -0.010 C 
ATOM      7  C   UNL     1       4.231  19.101  21.839  1.00  0.00     0.004 C 
ATOM      8  C   UNL     1       5.724  20.726  22.824  1.00  0.00     0.003 CG0
ATOM      9  C   UNL     1       5.558  18.415  22.233  1.00  0.00     0.008 C 
ATOM     10  G   UNL     1       6.192  21.899  23.735  1.00  0.00     0.000 G0
ENDBRANCH   2   4
ENDBRANCH   1   2
BRANCH   1  11
ATOM     11  C   UNL     1       7.707  21.043  25.544  1.00  0.00     0.009 C 
BRANCH  11  12
ATOM     12  C   UNL     1       6.246  21.409  25.212  1.00  0.00    -0.001 C 
ATOM     13  C   UNL     1       6.200  21.909  23.736  1.00  0.00     0.002 CG0
ATOM     14  C   UNL     1       5.638  22.759  24.883  1.00  0.00    -0.029 C 
ATOM     15  G   UNL     1       5.723  20.736  22.828  1.00  0.00     0.000 G0
ATOM     16  C   UNL     1       4.114  22.883  24.990  1.00  0.00     0.011 C 
ATOM     17  C   UNL     1       6.459  23.991  25.285  1.00  0.00     0.011 C 
ENDBRANCH  11  12
ENDBRANCH   1  11
TORSDOF 0
ENDMDL
MODEL 8
REMARK VINA RESULT:    -3.158      1.700      3.785
REMARK INTER + INTRA:          -1.317
REMARK INTER:                  -4.025
REMARK INTRA:                   2.708
REMARK UNBOUND:                 2.579
REMARK SMILES C=C1CC[C@@H]2[C@@H]([C@@H]3[C@@H](C)CC[C@@H]13)C2(C)C
REMARK SMILES IDX 3 1 2 2 1 3 12 4 9 5 8 6 10 7 7 8 11 9 4 11 5 12 6 13 13 14
REMARK SMILES IDX 14 16 15 17
REMARK H PARENT
REMARK Flexibility Score: 80.00
ROOT
ATOM      1  C   UNL     1       6.392  20.862  23.232  1.00  0.00     0.031 C 
ENDROOT
BRANCH   1   2
ATOM      2  C   UNL     1       7.292  19.624  23.180  1.00  0.00    -0.074 C 
ATOM      3  C   UNL     1       6.747  18.404  23.048  1.00  0.00     0.008 C 
BRANCH   2   4
ATOM      4  C   UNL     1       8.768  19.814  23.519  1.00  0.00     0.018 C 
ATOM      5  C   UNL     1      11.110  19.012  26.353  1.00  0.00     0.008 C 
ATOM      6  C   UNL     1      10.550  19.724  25.117  1.00  0.00    -0.010 C 
ATOM      7  C   UNL     1      11.055  19.094  23.792  1.00  0.00     0.004 C 
ATOM      8  C   UNL     1       9.033  19.609  25.010  1.00  0.00     0.003 CG0
ATOM      9  C   UNL     1       9.834  18.949  22.857  1.00  0.00     0.008 C 
ATOM     10  G   UNL     1       8.071  20.381  25.961  1.00  0.00     0.000 G0
ENDBRANCH   2   4
ENDBRANCH   1   2
BRANCH   1  11
ATOM     11  C   UNL     1       6.237  21.463  24.658  1.00  0.00     0.009 C 
BRANCH  11  12
ATOM     12  C   UNL     1       7.624  21.702  25.289  1.00  0.00    -0.001 C 
ATOM     13  C   UNL     1       8.073  20.375  25.975  1.00  0.00     0.002 CG0
ATOM     14  C   UNL     1       8.035  21.699  26.749  1.00  0.00    -0.029 C 
ATOM     15  G   UNL     1       9.049  19.627  25.019  1.00  0.00     0.000 G0
ATOM     16  C   UNL     1       9.376  22.353  27.098  1.00  0.00     0.011 C 
ATOM     17  C   UNL     1       6.904  21.857  27.775  1.00  0.00     0.011 C 
ENDBRANCH  11  12
ENDBRANCH   1  11
TORSDOF 0
ENDMDL
MODEL 9
REMARK VINA RESULT:    -3.062      2.692      5.296
REMARK INTER + INTRA:          -1.199
REMARK INTER:                  -4.005
REMARK INTRA:                   2.806
REMARK UNBOUND:                 2.579
REMARK SMILES C=C1CC[C@@H]2[C@@H]([C@@H]3[C@@H](C)CC[C@@H]13)C2(C)C
REMARK SMILES IDX 3 1 2 2 1 3 12 4 9 5 8 6 10 7 7 8 11 9 4 11 5 12 6 13 13 14
REMARK SMILES IDX 14 16 15 17
REMARK H PARENT
REMARK Flexibility Score: 80.00
ROOT
ATOM      1  C   UNL     1       4.227  18.889  22.507  1.00  0.00     0.031 C 
ENDROOT
BRANCH   1   2
ATOM      2  C   UNL     1       4.018  20.406  22.548  1.00  0.00    -0.074 C 
ATOM      3  C   UNL     1       3.538  21.045  21.469  1.00  0.00     0.008 C 
BRANCH   2   4
ATOM      4  C   UNL     1       4.589  21.163  23.743  1.00  0.00     0.018 C 
ATOM      5  C   UNL     1       7.459  23.487  24.469  1.00  0.00     0.008 C 
ATOM      6  C   UNL     1       6.353  22.456  24.720  1.00  0.00    -0.010 C 
ATOM      7  C   UNL     1       5.000  23.120  25.095  1.00  0.00     0.004 C 
ATOM      8  C   UNL     1       6.017  21.640  23.477  1.00  0.00     0.003 CG0
ATOM      9  C   UNL     1       3.899  22.415  24.271  1.00  0.00     0.008 C 
ATOM     10  G   UNL     1       6.978  20.554  22.909  1.00  0.00     0.000 G0
ENDBRANCH   2   4
ENDBRANCH   1   2
BRANCH   1  11
ATOM     11  C   UNL     1       5.719  18.467  22.391  1.00  0.00     0.009 C 
BRANCH  11  12
ATOM     12  C   UNL     1       6.560  19.175  23.472  1.00  0.00    -0.001 C 
ATOM     13  C   UNL     1       6.990  20.565  22.912  1.00  0.00     0.002 CG0
ATOM     14  C   UNL     1       8.024  19.569  23.454  1.00  0.00    -0.029 C 
ATOM     15  G   UNL     1       6.027  21.650  23.478  1.00  0.00     0.000 G0
ATOM     16  C   UNL     1       8.677  19.892  24.802  1.00  0.00     0.011 C 
ATOM     17  C   UNL     1       8.905  18.866  22.412  1.00  0.00     0.011 C 
ENDBRANCH  11  12
ENDBRANCH   1  11
TORSDOF 0
ENDMDL
