MODEL 1
REMARK VINA RESULT:     0.000      0.000      0.000
REMARK INTER + INTRA:          -0.354
REMARK INTER:                   0.000
REMARK INTRA:                  -0.354
REMARK UNBOUND:                -0.354
REMARK SMILES Oc1cc(O)c2cc(O)c(-c3ccc(O)c(O)c3)[o+]c2c1
REMARK SMILES IDX 10 1 19 2 20 3 21 4 2 5 3 6 4 7 6 8 7 9 8 10 11 11 12 12
REMARK SMILES IDX 13 13 14 14 18 15 16 16 15 17 17 19 9 21 1 23 5 25
REMARK H PARENT 15 18 17 20 9 22 1 24 5 26
REMARK Flexibility Score: inf
ROOT
ATOM      1  C   UNL     1      11.489  21.082  57.179  1.00  0.00     0.402 A 
ATOM      2  O   UNL     1      10.509  20.312  56.714  1.00  0.00    -0.202 OA
ATOM      3  C   UNL     1       9.510  20.775  55.970  1.00  0.00     0.368 A 
ATOM      4  C   UNL     1       8.524  19.887  55.529  1.00  0.00     0.162 A 
ATOM      5  C   UNL     1       7.460  20.348  54.747  1.00  0.00     0.128 A 
ATOM      6  C   UNL     1       7.382  21.699  54.405  1.00  0.00     0.093 A 
ATOM      7  C   UNL     1       8.358  22.608  54.833  1.00  0.00     0.136 A 
ATOM      8  C   UNL     1       9.441  22.145  55.625  1.00  0.00     0.125 A 
ATOM      9  C   UNL     1      10.470  22.981  56.088  1.00  0.00     0.078 A 
ATOM     10  C   UNL     1      11.509  22.453  56.861  1.00  0.00     0.223 A 
ENDROOT
BRANCH   1  11
ATOM     11  C   UNL     1      12.542  20.450  58.008  1.00  0.00     0.087 A 
ATOM     12  C   UNL     1      13.610  19.790  57.381  1.00  0.00     0.022 A 
ATOM     13  C   UNL     1      14.605  19.170  58.143  1.00  0.00     0.051 A 
ATOM     14  C   UNL     1      14.536  19.187  59.542  1.00  0.00     0.157 A 
ATOM     15  C   UNL     1      12.466  20.448  59.413  1.00  0.00     0.068 A 
ATOM     16  C   UNL     1      13.463  19.824  60.178  1.00  0.00     0.158 A 
BRANCH  14  17
ATOM     17  O   UNL     1      15.526  18.572  60.305  1.00  0.00    -0.504 OA
ATOM     18  H   UNL     1      15.478  17.588  60.541  1.00  0.00     0.293 HD
ENDBRANCH  14  17
BRANCH  16  19
ATOM     19  O   UNL     1      13.390  19.828  61.570  1.00  0.00    -0.504 OA
ATOM     20  H   UNL     1      12.506  19.935  62.054  1.00  0.00     0.293 HD
ENDBRANCH  16  19
ENDBRANCH   1  11
BRANCH  10  21
ATOM     21  O   UNL     1      12.557  23.272  57.279  1.00  0.00    -0.500 OA
ATOM     22  H   UNL     1      12.926  23.225  58.222  1.00  0.00     0.294 HD
ENDBRANCH  10  21
BRANCH   5  23
ATOM     23  O   UNL     1       6.473  19.469  54.305  1.00  0.00    -0.507 OA
ATOM     24  H   UNL     1       5.570  19.412  54.761  1.00  0.00     0.293 HD
ENDBRANCH   5  23
BRANCH   7  25
ATOM     25  O   UNL     1       8.205  23.944  54.451  1.00  0.00    -0.507 OA
ATOM     26  H   UNL     1       7.571  24.594  54.891  1.00  0.00     0.293 HD
ENDBRANCH   7  25
TORSDOF 6
ENDMDL
MODEL 2
REMARK VINA RESULT:     0.000      7.082     10.920
REMARK INTER + INTRA:          -0.354
REMARK INTER:                   0.000
REMARK INTRA:                  -0.354
REMARK UNBOUND:                -0.354
REMARK SMILES Oc1cc(O)c2cc(O)c(-c3ccc(O)c(O)c3)[o+]c2c1
REMARK SMILES IDX 10 1 19 2 20 3 21 4 2 5 3 6 4 7 6 8 7 9 8 10 11 11 12 12
REMARK SMILES IDX 13 13 14 14 18 15 16 16 15 17 17 19 9 21 1 23 5 25
REMARK H PARENT 15 18 17 20 9 22 1 24 5 26
REMARK Flexibility Score: inf
ROOT
ATOM      1  C   UNL     1       7.747  14.442  52.429  1.00  0.00     0.402 A 
ATOM      2  O   UNL     1       7.808  14.851  53.694  1.00  0.00    -0.202 OA
ATOM      3  C   UNL     1       8.698  14.391  54.567  1.00  0.00     0.368 A 
ATOM      4  C   UNL     1       8.680  14.881  55.875  1.00  0.00     0.162 A 
ATOM      5  C   UNL     1       9.604  14.412  56.816  1.00  0.00     0.128 A 
ATOM      6  C   UNL     1      10.546  13.451  56.445  1.00  0.00     0.093 A 
ATOM      7  C   UNL     1      10.584  12.945  55.140  1.00  0.00     0.136 A 
ATOM      8  C   UNL     1       9.651  13.419  54.182  1.00  0.00     0.125 A 
ATOM      9  C   UNL     1       9.624  12.979  52.848  1.00  0.00     0.078 A 
ATOM     10  C   UNL     1       8.677  13.496  51.958  1.00  0.00     0.223 A 
ENDROOT
BRANCH   1  11
ATOM     11  C   UNL     1       6.702  15.022  51.554  1.00  0.00     0.087 A 
ATOM     12  C   UNL     1       6.925  16.267  50.945  1.00  0.00     0.022 A 
ATOM     13  C   UNL     1       5.946  16.843  50.132  1.00  0.00     0.051 A 
ATOM     14  C   UNL     1       4.723  16.190  49.929  1.00  0.00     0.157 A 
ATOM     15  C   UNL     1       5.465  14.379  51.364  1.00  0.00     0.068 A 
ATOM     16  C   UNL     1       4.480  14.958  50.549  1.00  0.00     0.158 A 
BRANCH  14  17
ATOM     17  O   UNL     1       3.744  16.760  49.117  1.00  0.00    -0.504 OA
ATOM     18  H   UNL     1       3.330  17.657  49.338  1.00  0.00     0.293 HD
ENDBRANCH  14  17
BRANCH  16  19
ATOM     19  O   UNL     1       3.258  14.317  50.357  1.00  0.00    -0.504 OA
ATOM     20  H   UNL     1       3.168  13.523  49.733  1.00  0.00     0.293 HD
ENDBRANCH  16  19
ENDBRANCH   1  11
BRANCH  10  21
ATOM     21  O   UNL     1       8.680  13.096  50.622  1.00  0.00    -0.500 OA
ATOM     22  H   UNL     1       8.904  12.146  50.351  1.00  0.00     0.294 HD
ENDBRANCH  10  21
BRANCH   5  23
ATOM     23  O   UNL     1       9.592  14.896  58.122  1.00  0.00    -0.507 OA
ATOM     24  H   UNL     1       8.765  15.326  58.521  1.00  0.00     0.293 HD
ENDBRANCH   5  23
BRANCH   7  25
ATOM     25  O   UNL     1      11.556  11.983  54.851  1.00  0.00    -0.507 OA
ATOM     26  H   UNL     1      12.519  12.192  54.633  1.00  0.00     0.293 HD
ENDBRANCH   7  25
TORSDOF 6
ENDMDL
MODEL 3
REMARK VINA RESULT:     0.000      7.492     11.175
REMARK INTER + INTRA:          -0.354
REMARK INTER:                   0.000
REMARK INTRA:                  -0.354
REMARK UNBOUND:                -0.354
REMARK SMILES Oc1cc(O)c2cc(O)c(-c3ccc(O)c(O)c3)[o+]c2c1
REMARK SMILES IDX 10 1 19 2 20 3 21 4 2 5 3 6 4 7 6 8 7 9 8 10 11 11 12 12
REMARK SMILES IDX 13 13 14 14 18 15 16 16 15 17 17 19 9 21 1 23 5 25
REMARK H PARENT 15 18 17 20 9 22 1 24 5 26
REMARK Flexibility Score: inf
ROOT
ATOM      1  C   UNL     1       9.376  14.408  50.655  1.00  0.00     0.402 A 
ATOM      2  O   UNL     1       9.215  15.384  51.546  1.00  0.00    -0.202 OA
ATOM      3  C   UNL     1       9.725  15.342  52.772  1.00  0.00     0.368 A 
ATOM      4  C   UNL     1       9.499  16.416  53.638  1.00  0.00     0.162 A 
ATOM      5  C   UNL     1      10.022  16.397  54.935  1.00  0.00     0.128 A 
ATOM      6  C   UNL     1      10.772  15.302  55.367  1.00  0.00     0.093 A 
ATOM      7  C   UNL     1      11.013  14.214  54.518  1.00  0.00     0.136 A 
ATOM      8  C   UNL     1      10.487  14.229  53.200  1.00  0.00     0.125 A 
ATOM      9  C   UNL     1      10.688  13.190  52.277  1.00  0.00     0.078 A 
ATOM     10  C   UNL     1      10.142  13.277  50.993  1.00  0.00     0.223 A 
ENDROOT
BRANCH   1  11
ATOM     11  C   UNL     1       8.748  14.566  49.323  1.00  0.00     0.087 A 
ATOM     12  C   UNL     1       9.403  15.321  48.337  1.00  0.00     0.022 A 
ATOM     13  C   UNL     1       8.821  15.500  47.079  1.00  0.00     0.051 A 
ATOM     14  C   UNL     1       7.569  14.940  46.795  1.00  0.00     0.157 A 
ATOM     15  C   UNL     1       7.482  14.023  49.040  1.00  0.00     0.068 A 
ATOM     16  C   UNL     1       6.896  14.204  47.778  1.00  0.00     0.158 A 
BRANCH  14  17
ATOM     17  O   UNL     1       6.986  15.115  45.541  1.00  0.00    -0.504 OA
ATOM     18  H   UNL     1       6.754  16.035  45.188  1.00  0.00     0.293 HD
ENDBRANCH  14  17
BRANCH  16  19
ATOM     19  O   UNL     1       5.644  13.660  47.497  1.00  0.00    -0.504 OA
ATOM     20  H   UNL     1       5.043  13.306  48.232  1.00  0.00     0.293 HD
ENDBRANCH  16  19
ENDBRANCH   1  11
BRANCH  10  21
ATOM     21  O   UNL     1      10.383  12.269  50.059  1.00  0.00    -0.500 OA
ATOM     22  H   UNL     1       9.810  12.162  49.231  1.00  0.00     0.294 HD
ENDBRANCH  10  21
BRANCH   5  23
ATOM     23  O   UNL     1       9.800  17.464  55.804  1.00  0.00    -0.507 OA
ATOM     24  H   UNL     1       8.904  17.601  56.257  1.00  0.00     0.293 HD
ENDBRANCH   5  23
BRANCH   7  25
ATOM     25  O   UNL     1      11.770  13.155  55.028  1.00  0.00    -0.507 OA
ATOM     26  H   UNL     1      12.565  13.265  55.639  1.00  0.00     0.293 HD
ENDBRANCH   7  25
TORSDOF 6
ENDMDL
MODEL 4
REMARK VINA RESULT:     0.000      5.404      7.560
REMARK INTER + INTRA:          -0.354
REMARK INTER:                   0.000
REMARK INTRA:                  -0.354
REMARK UNBOUND:                -0.354
REMARK SMILES Oc1cc(O)c2cc(O)c(-c3ccc(O)c(O)c3)[o+]c2c1
REMARK SMILES IDX 10 1 19 2 20 3 21 4 2 5 3 6 4 7 6 8 7 9 8 10 11 11 12 12
REMARK SMILES IDX 13 13 14 14 18 15 16 16 15 17 17 19 9 21 1 23 5 25
REMARK H PARENT 15 18 17 20 9 22 1 24 5 26
REMARK Flexibility Score: inf
ROOT
ATOM      1  C   UNL     1       9.810  19.742  51.653  1.00  0.00     0.402 A 
ATOM      2  O   UNL     1       9.702  20.345  50.471  1.00  0.00    -0.202 OA
ATOM      3  C   UNL     1      10.005  21.623  50.275  1.00  0.00     0.368 A 
ATOM      4  C   UNL     1       9.856  22.167  48.996  1.00  0.00     0.162 A 
ATOM      5  C   UNL     1      10.164  23.512  48.761  1.00  0.00     0.128 A 
ATOM      6  C   UNL     1      10.623  24.313  49.809  1.00  0.00     0.093 A 
ATOM      7  C   UNL     1      10.781  23.791  51.099  1.00  0.00     0.136 A 
ATOM      8  C   UNL     1      10.471  22.427  51.342  1.00  0.00     0.125 A 
ATOM      9  C   UNL     1      10.612  21.816  52.599  1.00  0.00     0.078 A 
ATOM     10  C   UNL     1      10.292  20.465  52.761  1.00  0.00     0.223 A 
ENDROOT
BRANCH   1  11
ATOM     11  C   UNL     1       9.432  18.314  51.748  1.00  0.00     0.087 A 
ATOM     12  C   UNL     1      10.357  17.328  51.371  1.00  0.00     0.022 A 
ATOM     13  C   UNL     1      10.016  15.975  51.433  1.00  0.00     0.051 A 
ATOM     14  C   UNL     1       8.738  15.588  51.859  1.00  0.00     0.157 A 
ATOM     15  C   UNL     1       8.144  17.922  52.156  1.00  0.00     0.068 A 
ATOM     16  C   UNL     1       7.799  16.563  52.217  1.00  0.00     0.158 A 
BRANCH  14  17
ATOM     17  O   UNL     1       8.394  14.240  51.925  1.00  0.00    -0.504 OA
ATOM     18  H   UNL     1       9.064  13.535  52.209  1.00  0.00     0.293 HD
ENDBRANCH  14  17
BRANCH  16  19
ATOM     19  O   UNL     1       6.525  16.177  52.627  1.00  0.00    -0.504 OA
ATOM     20  H   UNL     1       6.363  15.291  53.092  1.00  0.00     0.293 HD
ENDBRANCH  16  19
ENDBRANCH   1  11
BRANCH  10  21
ATOM     21  O   UNL     1      10.478  19.845  53.996  1.00  0.00    -0.500 OA
ATOM     22  H   UNL     1       9.996  18.987  54.239  1.00  0.00     0.294 HD
ENDBRANCH  10  21
BRANCH   5  23
ATOM     23  O   UNL     1      10.018  24.060  47.489  1.00  0.00    -0.507 OA
ATOM     24  H   UNL     1       9.301  24.748  47.288  1.00  0.00     0.293 HD
ENDBRANCH   5  23
BRANCH   7  25
ATOM     25  O   UNL     1      11.241  24.660  52.093  1.00  0.00    -0.507 OA
ATOM     26  H   UNL     1      10.646  25.132  52.757  1.00  0.00     0.293 HD
ENDBRANCH   7  25
TORSDOF 6
ENDMDL
MODEL 5
REMARK VINA RESULT:     0.000      7.982      8.826
REMARK INTER + INTRA:          -0.354
REMARK INTER:                   0.000
REMARK INTRA:                  -0.354
REMARK UNBOUND:                -0.354
REMARK SMILES Oc1cc(O)c2cc(O)c(-c3ccc(O)c(O)c3)[o+]c2c1
REMARK SMILES IDX 10 1 19 2 20 3 21 4 2 5 3 6 4 7 6 8 7 9 8 10 11 11 12 12
REMARK SMILES IDX 13 13 14 14 18 15 16 16 15 17 17 19 9 21 1 23 5 25
REMARK H PARENT 15 18 17 20 9 22 1 24 5 26
REMARK Flexibility Score: inf
ROOT
ATOM      1  C   UNL     1       8.580  17.355  49.798  1.00  0.00     0.402 A 
ATOM      2  O   UNL     1       8.010  17.268  50.997  1.00  0.00    -0.202 OA
ATOM      3  C   UNL     1       6.803  17.755  51.266  1.00  0.00     0.368 A 
ATOM      4  C   UNL     1       6.289  17.617  52.559  1.00  0.00     0.162 A 
ATOM      5  C   UNL     1       5.022  18.122  52.871  1.00  0.00     0.128 A 
ATOM      6  C   UNL     1       4.269  18.768  51.888  1.00  0.00     0.093 A 
ATOM      7  C   UNL     1       4.762  18.918  50.586  1.00  0.00     0.136 A 
ATOM      8  C   UNL     1       6.046  18.405  50.263  1.00  0.00     0.125 A 
ATOM      9  C   UNL     1       6.614  18.498  48.982  1.00  0.00     0.078 A 
ATOM     10  C   UNL     1       7.883  17.964  48.737  1.00  0.00     0.223 A 
ENDROOT
BRANCH   1  11
ATOM     11  C   UNL     1       9.935  16.783  49.624  1.00  0.00     0.087 A 
ATOM     12  C   UNL     1      10.078  15.407  49.386  1.00  0.00     0.022 A 
ATOM     13  C   UNL     1      11.347  14.841  49.238  1.00  0.00     0.051 A 
ATOM     14  C   UNL     1      12.493  15.641  49.343  1.00  0.00     0.157 A 
ATOM     15  C   UNL     1      11.089  17.579  49.748  1.00  0.00     0.068 A 
ATOM     16  C   UNL     1      12.364  17.011  49.603  1.00  0.00     0.158 A 
BRANCH  14  17
ATOM     17  O   UNL     1      13.760  15.082  49.195  1.00  0.00    -0.504 OA
ATOM     18  H   UNL     1      14.335  14.853  49.997  1.00  0.00     0.293 HD
ENDBRANCH  14  17
BRANCH  16  19
ATOM     19  O   UNL     1      13.505  17.802  49.720  1.00  0.00    -0.504 OA
ATOM     20  H   UNL     1      13.545  18.737  49.331  1.00  0.00     0.293 HD
ENDBRANCH  16  19
ENDBRANCH   1  11
BRANCH  10  21
ATOM     21  O   UNL     1       8.428  18.012  47.454  1.00  0.00    -0.500 OA
ATOM     22  H   UNL     1       8.325  17.242  46.803  1.00  0.00     0.294 HD
ENDBRANCH  10  21
BRANCH   5  23
ATOM     23  O   UNL     1       4.504  17.988  54.157  1.00  0.00    -0.507 OA
ATOM     24  H   UNL     1       5.069  17.641  54.923  1.00  0.00     0.293 HD
ENDBRANCH   5  23
BRANCH   7  25
ATOM     25  O   UNL     1       3.948  19.579  49.661  1.00  0.00    -0.507 OA
ATOM     26  H   UNL     1       3.193  19.144  49.154  1.00  0.00     0.293 HD
ENDBRANCH   7  25
TORSDOF 6
ENDMDL
MODEL 6
REMARK VINA RESULT:     0.000      7.646     11.624
REMARK INTER + INTRA:          -0.354
REMARK INTER:                   0.000
REMARK INTRA:                  -0.354
REMARK UNBOUND:                -0.354
REMARK SMILES Oc1cc(O)c2cc(O)c(-c3ccc(O)c(O)c3)[o+]c2c1
REMARK SMILES IDX 10 1 19 2 20 3 21 4 2 5 3 6 4 7 6 8 7 9 8 10 11 11 12 12
REMARK SMILES IDX 13 13 14 14 18 15 16 16 15 17 17 19 9 21 1 23 5 25
REMARK H PARENT 15 18 17 20 9 22 1 24 5 26
REMARK Flexibility Score: inf
ROOT
ATOM      1  C   UNL     1       5.790  19.588  48.728  1.00  0.00     0.402 A 
ATOM      2  O   UNL     1       6.991  20.152  48.627  1.00  0.00    -0.202 OA
ATOM      3  C   UNL     1       7.433  21.081  49.469  1.00  0.00     0.368 A 
ATOM      4  C   UNL     1       8.709  21.617  49.279  1.00  0.00     0.162 A 
ATOM      5  C   UNL     1       9.198  22.597  50.149  1.00  0.00     0.128 A 
ATOM      6  C   UNL     1       8.408  23.042  51.210  1.00  0.00     0.093 A 
ATOM      7  C   UNL     1       7.126  22.520  51.422  1.00  0.00     0.136 A 
ATOM      8  C   UNL     1       6.626  21.524  50.544  1.00  0.00     0.125 A 
ATOM      9  C   UNL     1       5.359  20.935  50.687  1.00  0.00     0.078 A 
ATOM     10  C   UNL     1       4.935  19.954  49.785  1.00  0.00     0.223 A 
ENDROOT
BRANCH   1  11
ATOM     11  C   UNL     1       5.407  18.571  47.721  1.00  0.00     0.087 A 
ATOM     12  C   UNL     1       5.838  17.245  47.881  1.00  0.00     0.022 A 
ATOM     13  C   UNL     1       5.506  16.273  46.934  1.00  0.00     0.051 A 
ATOM     14  C   UNL     1       4.752  16.617  45.804  1.00  0.00     0.157 A 
ATOM     15  C   UNL     1       4.667  18.916  46.575  1.00  0.00     0.068 A 
ATOM     16  C   UNL     1       4.335  17.941  45.623  1.00  0.00     0.158 A 
BRANCH  14  17
ATOM     17  O   UNL     1       4.417  15.651  44.858  1.00  0.00    -0.504 OA
ATOM     18  H   UNL     1       4.311  15.883  43.878  1.00  0.00     0.293 HD
ENDBRANCH  14  17
BRANCH  16  19
ATOM     19  O   UNL     1       3.597  18.284  44.492  1.00  0.00    -0.504 OA
ATOM     20  H   UNL     1       4.035  18.701  43.678  1.00  0.00     0.293 HD
ENDBRANCH  16  19
ENDBRANCH   1  11
BRANCH  10  21
ATOM     21  O   UNL     1       3.698  19.333  49.955  1.00  0.00    -0.500 OA
ATOM     22  H   UNL     1       3.619  18.402  50.347  1.00  0.00     0.294 HD
ENDBRANCH  10  21
BRANCH   5  23
ATOM     23  O   UNL     1      10.470  23.136  49.965  1.00  0.00    -0.507 OA
ATOM     24  H   UNL     1      11.032  22.904  49.155  1.00  0.00     0.293 HD
ENDBRANCH   5  23
BRANCH   7  25
ATOM     25  O   UNL     1       6.397  23.022  52.504  1.00  0.00    -0.507 OA
ATOM     26  H   UNL     1       6.810  23.393  53.347  1.00  0.00     0.293 HD
ENDBRANCH   7  25
TORSDOF 6
ENDMDL
MODEL 7
REMARK VINA RESULT:     0.000      5.438      9.549
REMARK INTER + INTRA:          -0.354
REMARK INTER:                   0.000
REMARK INTRA:                  -0.354
REMARK UNBOUND:                -0.354
REMARK SMILES Oc1cc(O)c2cc(O)c(-c3ccc(O)c(O)c3)[o+]c2c1
REMARK SMILES IDX 10 1 19 2 20 3 21 4 2 5 3 6 4 7 6 8 7 9 8 10 11 11 12 12
REMARK SMILES IDX 13 13 14 14 18 15 16 16 15 17 17 19 9 21 1 23 5 25
REMARK H PARENT 15 18 17 20 9 22 1 24 5 26
REMARK Flexibility Score: inf
ROOT
ATOM      1  C   UNL     1       7.738  19.296  50.713  1.00  0.00     0.402 A 
ATOM      2  O   UNL     1       8.939  19.861  50.612  1.00  0.00    -0.202 OA
ATOM      3  C   UNL     1       9.381  20.789  51.454  1.00  0.00     0.368 A 
ATOM      4  C   UNL     1      10.658  21.325  51.264  1.00  0.00     0.162 A 
ATOM      5  C   UNL     1      11.147  22.306  52.134  1.00  0.00     0.128 A 
ATOM      6  C   UNL     1      10.356  22.751  53.195  1.00  0.00     0.093 A 
ATOM      7  C   UNL     1       9.074  22.229  53.407  1.00  0.00     0.136 A 
ATOM      8  C   UNL     1       8.574  21.232  52.529  1.00  0.00     0.125 A 
ATOM      9  C   UNL     1       7.307  20.643  52.672  1.00  0.00     0.078 A 
ATOM     10  C   UNL     1       6.883  19.662  51.770  1.00  0.00     0.223 A 
ENDROOT
BRANCH   1  11
ATOM     11  C   UNL     1       7.356  18.280  49.706  1.00  0.00     0.087 A 
ATOM     12  C   UNL     1       7.787  16.954  49.866  1.00  0.00     0.022 A 
ATOM     13  C   UNL     1       7.454  15.982  48.919  1.00  0.00     0.051 A 
ATOM     14  C   UNL     1       6.700  16.326  47.789  1.00  0.00     0.157 A 
ATOM     15  C   UNL     1       6.616  18.625  48.560  1.00  0.00     0.068 A 
ATOM     16  C   UNL     1       6.284  17.650  47.607  1.00  0.00     0.158 A 
BRANCH  14  17
ATOM     17  O   UNL     1       6.365  15.360  46.843  1.00  0.00    -0.504 OA
ATOM     18  H   UNL     1       6.921  15.220  46.008  1.00  0.00     0.293 HD
ENDBRANCH  14  17
BRANCH  16  19
ATOM     19  O   UNL     1       5.545  17.993  46.476  1.00  0.00    -0.504 OA
ATOM     20  H   UNL     1       5.511  18.946  46.133  1.00  0.00     0.293 HD
ENDBRANCH  16  19
ENDBRANCH   1  11
BRANCH  10  21
ATOM     21  O   UNL     1       5.646  19.042  51.939  1.00  0.00    -0.500 OA
ATOM     22  H   UNL     1       4.869  19.224  51.316  1.00  0.00     0.294 HD
ENDBRANCH  10  21
BRANCH   5  23
ATOM     23  O   UNL     1      12.418  22.845  51.950  1.00  0.00    -0.507 OA
ATOM     24  H   UNL     1      12.559  23.841  51.824  1.00  0.00     0.293 HD
ENDBRANCH   5  23
BRANCH   7  25
ATOM     25  O   UNL     1       8.345  22.731  54.489  1.00  0.00    -0.507 OA
ATOM     26  H   UNL     1       8.758  23.132  55.317  1.00  0.00     0.293 HD
ENDBRANCH   7  25
TORSDOF 6
ENDMDL
MODEL 8
REMARK VINA RESULT:     0.000      5.848      8.280
REMARK INTER + INTRA:          -0.354
REMARK INTER:                   0.000
REMARK INTRA:                  -0.354
REMARK UNBOUND:                -0.354
REMARK SMILES Oc1cc(O)c2cc(O)c(-c3ccc(O)c(O)c3)[o+]c2c1
REMARK SMILES IDX 10 1 19 2 20 3 21 4 2 5 3 6 4 7 6 8 7 9 8 10 11 11 12 12
REMARK SMILES IDX 13 13 14 14 18 15 16 16 15 17 17 19 9 21 1 23 5 25
REMARK H PARENT 15 18 17 20 9 22 1 24 5 26
REMARK Flexibility Score: inf
ROOT
ATOM      1  C   UNL     1       6.576  18.557  52.685  1.00  0.00     0.402 A 
ATOM      2  O   UNL     1       6.909  19.459  51.764  1.00  0.00    -0.202 OA
ATOM      3  C   UNL     1       7.412  19.137  50.578  1.00  0.00     0.368 A 
ATOM      4  C   UNL     1       7.734  20.157  49.678  1.00  0.00     0.162 A 
ATOM      5  C   UNL     1       8.268  19.847  48.423  1.00  0.00     0.128 A 
ATOM      6  C   UNL     1       8.481  18.513  48.068  1.00  0.00     0.093 A 
ATOM      7  C   UNL     1       8.166  17.473  48.951  1.00  0.00     0.136 A 
ATOM      8  C   UNL     1       7.622  17.783  50.225  1.00  0.00     0.125 A 
ATOM      9  C   UNL     1       7.264  16.806  51.169  1.00  0.00     0.078 A 
ATOM     10  C   UNL     1       6.728  17.186  52.404  1.00  0.00     0.223 A 
ENDROOT
BRANCH   1  11
ATOM     11  C   UNL     1       6.034  19.041  53.975  1.00  0.00     0.087 A 
ATOM     12  C   UNL     1       4.672  19.369  54.072  1.00  0.00     0.022 A 
ATOM     13  C   UNL     1       4.143  19.846  55.274  1.00  0.00     0.051 A 
ATOM     14  C   UNL     1       4.970  20.018  56.392  1.00  0.00     0.157 A 
ATOM     15  C   UNL     1       6.865  19.234  55.094  1.00  0.00     0.068 A 
ATOM     16  C   UNL     1       6.334  19.715  56.300  1.00  0.00     0.158 A 
BRANCH  14  17
ATOM     17  O   UNL     1       4.446  20.492  57.592  1.00  0.00    -0.504 OA
ATOM     18  H   UNL     1       3.751  21.227  57.613  1.00  0.00     0.293 HD
ENDBRANCH  14  17
BRANCH  16  19
ATOM     19  O   UNL     1       7.158  19.899  57.409  1.00  0.00    -0.504 OA
ATOM     20  H   UNL     1       7.951  20.530  57.382  1.00  0.00     0.293 HD
ENDBRANCH  16  19
ENDBRANCH   1  11
BRANCH  10  21
ATOM     21  O   UNL     1       6.327  16.217  53.322  1.00  0.00    -0.500 OA
ATOM     22  H   UNL     1       6.803  16.093  54.208  1.00  0.00     0.294 HD
ENDBRANCH  10  21
BRANCH   5  23
ATOM     23  O   UNL     1       8.592  20.858  47.521  1.00  0.00    -0.507 OA
ATOM     24  H   UNL     1       7.982  21.654  47.375  1.00  0.00     0.293 HD
ENDBRANCH   5  23
BRANCH   7  25
ATOM     25  O   UNL     1       8.412  16.166  48.521  1.00  0.00    -0.507 OA
ATOM     26  H   UNL     1       7.825  15.658  47.877  1.00  0.00     0.293 HD
ENDBRANCH   7  25
TORSDOF 6
ENDMDL
MODEL 9
REMARK VINA RESULT:     0.000      5.427      8.326
REMARK INTER + INTRA:          -0.354
REMARK INTER:                   0.000
REMARK INTRA:                  -0.354
REMARK UNBOUND:                -0.354
REMARK SMILES Oc1cc(O)c2cc(O)c(-c3ccc(O)c(O)c3)[o+]c2c1
REMARK SMILES IDX 10 1 19 2 20 3 21 4 2 5 3 6 4 7 6 8 7 9 8 10 11 11 12 12
REMARK SMILES IDX 13 13 14 14 18 15 16 16 15 17 17 19 9 21 1 23 5 25
REMARK H PARENT 15 18 17 20 9 22 1 24 5 26
REMARK Flexibility Score: inf
ROOT
ATOM      1  C   UNL     1      10.180  20.483  51.661  1.00  0.00     0.402 A 
ATOM      2  O   UNL     1      11.368  20.978  51.999  1.00  0.00    -0.202 OA
ATOM      3  C   UNL     1      12.516  20.500  51.531  1.00  0.00     0.368 A 
ATOM      4  C   UNL     1      13.715  21.086  51.946  1.00  0.00     0.162 A 
ATOM      5  C   UNL     1      14.938  20.601  51.472  1.00  0.00     0.128 A 
ATOM      6  C   UNL     1      14.962  19.527  50.580  1.00  0.00     0.093 A 
ATOM      7  C   UNL     1      13.774  18.923  50.149  1.00  0.00     0.136 A 
ATOM      8  C   UNL     1      12.530  19.413  50.625  1.00  0.00     0.125 A 
ATOM      9  C   UNL     1      11.291  18.879  50.237  1.00  0.00     0.078 A 
ATOM     10  C   UNL     1      10.104  19.417  50.745  1.00  0.00     0.223 A 
ENDROOT
BRANCH   1  11
ATOM     11  C   UNL     1       8.971  21.095  52.258  1.00  0.00     0.087 A 
ATOM     12  C   UNL     1       8.437  22.263  51.691  1.00  0.00     0.022 A 
ATOM     13  C   UNL     1       7.308  22.870  52.249  1.00  0.00     0.051 A 
ATOM     14  C   UNL     1       6.707  22.326  53.392  1.00  0.00     0.157 A 
ATOM     15  C   UNL     1       8.376  20.564  53.418  1.00  0.00     0.068 A 
ATOM     16  C   UNL     1       7.244  21.174  53.980  1.00  0.00     0.158 A 
BRANCH  14  17
ATOM     17  O   UNL     1       5.581  22.927  53.951  1.00  0.00    -0.504 OA
ATOM     18  H   UNL     1       5.540  23.925  54.115  1.00  0.00     0.293 HD
ENDBRANCH  14  17
BRANCH  16  19
ATOM     19  O   UNL     1       6.653  20.643  55.124  1.00  0.00    -0.504 OA
ATOM     20  H   UNL     1       6.809  21.050  56.040  1.00  0.00     0.293 HD
ENDBRANCH  16  19
ENDBRANCH   1  11
BRANCH  10  21
ATOM     21  O   UNL     1       8.872  18.920  50.322  1.00  0.00    -0.500 OA
ATOM     22  H   UNL     1       8.804  18.181  49.632  1.00  0.00     0.294 HD
ENDBRANCH  10  21
BRANCH   5  23
ATOM     23  O   UNL     1      16.137  21.180  51.882  1.00  0.00    -0.507 OA
ATOM     24  H   UNL     1      16.221  22.180  52.026  1.00  0.00     0.293 HD
ENDBRANCH   5  23
BRANCH   7  25
ATOM     25  O   UNL     1      13.884  17.851  49.258  1.00  0.00    -0.507 OA
ATOM     26  H   UNL     1      14.455  17.034  49.417  1.00  0.00     0.293 HD
ENDBRANCH   7  25
TORSDOF 6
ENDMDL
