MODEL 1
REMARK VINA RESULT:    -4.828      0.000      0.000
REMARK INTER + INTRA:          -6.110
REMARK INTER:                  -5.816
REMARK INTRA:                  -0.293
REMARK UNBOUND:                -0.293
REMARK SMILES O=c1ccn([C@H]2O[C@H](CO)[C@H](O)[C@H]2O)c(=O)[nH]1
REMARK SMILES IDX 6 1 13 2 11 3 8 4 7 5 5 6 3 7 4 8 2 9 17 10 1 11 15 12 16 14
REMARK SMILES IDX 14 15 12 17 9 19 10 20
REMARK H PARENT 17 13 14 16 12 18 10 21
REMARK Flexibility Score: inf
ROOT
ATOM      1  C   UNL     1     129.127 119.490  99.961  1.00  0.00     0.255 C 
ATOM      2  C   UNL     1     129.524 119.298 101.431  1.00  0.00     0.196 C 
ATOM      3  C   UNL     1     130.920 118.746 101.336  1.00  0.00     0.179 C 
ATOM      4  C   UNL     1     130.916 118.059  99.969  1.00  0.00     0.178 C 
ATOM      5  O   UNL     1     130.016 118.757  99.135  1.00  0.00    -0.347 OA
ENDROOT
BRANCH   1   6
ATOM      6  N   UNL     1     129.129 120.918  99.569  1.00  0.00    -0.271 N 
ATOM      7  C   UNL     1     130.297 122.826  98.702  1.00  0.00     0.090 A 
ATOM      8  C   UNL     1     130.265 121.479  99.051  1.00  0.00     0.099 A 
ATOM      9  C   UNL     1     129.155 123.594  98.901  1.00  0.00     0.253 A 
ATOM     10  N   UNL     1     128.043 123.024  99.433  1.00  0.00    -0.274 N 
ATOM     11  O   UNL     1     129.155 124.816  98.593  1.00  0.00    -0.269 OA
ATOM     12  C   UNL     1     128.021 121.706  99.775  1.00  0.00     0.330 A 
ATOM     13  H   UNL     1     127.191 123.611  99.589  1.00  0.00     0.175 HD
ATOM     14  O   UNL     1     126.974 121.221 100.286  1.00  0.00    -0.248 OA
ENDBRANCH   1   6
BRANCH   2  15
ATOM     15  O   UNL     1     129.497 120.502 102.156  1.00  0.00    -0.386 OA
ATOM     16  H   UNL     1     129.894 120.305 103.043  1.00  0.00     0.211 HD
ENDBRANCH   2  15
BRANCH   3  17
ATOM     17  O   UNL     1     131.190 117.868 102.398  1.00  0.00    -0.387 OA
ATOM     18  H   UNL     1     131.222 118.424 103.219  1.00  0.00     0.211 HD
ENDBRANCH   3  17
BRANCH   4  19
ATOM     19  C   UNL     1     130.514 116.573 100.024  1.00  0.00     0.191 C 
BRANCH  19  20
ATOM     20  O   UNL     1     131.653 115.765 100.162  1.00  0.00    -0.394 OA
ATOM     21  H   UNL     1     131.375 114.964 100.678  1.00  0.00     0.210 HD
ENDBRANCH  19  20
ENDBRANCH   4  19
TORSDOF 5
ENDMDL
MODEL 2
REMARK VINA RESULT:    -4.772     10.781     12.969
REMARK INTER + INTRA:          -6.042
REMARK INTER:                  -5.819
REMARK INTRA:                  -0.223
REMARK UNBOUND:                -0.293
REMARK SMILES O=c1ccn([C@H]2O[C@H](CO)[C@H](O)[C@H]2O)c(=O)[nH]1
REMARK SMILES IDX 6 1 13 2 11 3 8 4 7 5 5 6 3 7 4 8 2 9 17 10 1 11 15 12 16 14
REMARK SMILES IDX 14 15 12 17 9 19 10 20
REMARK H PARENT 17 13 14 16 12 18 10 21
REMARK Flexibility Score: inf
ROOT
ATOM      1  C   UNL     1     119.748 124.337 107.222  1.00  0.00     0.255 C 
ATOM      2  C   UNL     1     119.228 125.780 107.182  1.00  0.00     0.196 C 
ATOM      3  C   UNL     1     120.072 126.473 108.216  1.00  0.00     0.179 C 
ATOM      4  C   UNL     1     120.446 125.331 109.163  1.00  0.00     0.178 C 
ATOM      5  O   UNL     1     120.498 124.140 108.407  1.00  0.00    -0.347 OA
ENDROOT
BRANCH   1   6
ATOM      6  N   UNL     1     120.576 124.015 106.037  1.00  0.00    -0.271 N 
ATOM      7  C   UNL     1     122.738 123.790 105.019  1.00  0.00     0.090 A 
ATOM      8  C   UNL     1     121.942 124.062 106.128  1.00  0.00     0.099 A 
ATOM      9  C   UNL     1     122.119 123.482 103.813  1.00  0.00     0.253 A 
ATOM     10  N   UNL     1     120.763 123.458 103.737  1.00  0.00    -0.274 N 
ATOM     11  O   UNL     1     122.815 123.230 102.794  1.00  0.00    -0.269 OA
ATOM     12  C   UNL     1     119.991 123.728 104.826  1.00  0.00     0.330 A 
ATOM     13  H   UNL     1     120.305 123.235 102.823  1.00  0.00     0.175 HD
ATOM     14  O   UNL     1     118.735 123.717 104.706  1.00  0.00    -0.248 OA
ENDBRANCH   1   6
BRANCH   2  15
ATOM     15  O   UNL     1     119.379 126.371 105.917  1.00  0.00    -0.386 OA
ATOM     16  H   UNL     1     119.303 127.351 106.053  1.00  0.00     0.211 HD
ENDBRANCH   2  15
BRANCH   3  17
ATOM     17  O   UNL     1     119.357 127.505 108.846  1.00  0.00    -0.387 OA
ATOM     18  H   UNL     1     119.391 127.315 109.819  1.00  0.00     0.211 HD
ENDBRANCH   3  17
BRANCH   4  19
ATOM     19  C   UNL     1     119.461 125.151 110.335  1.00  0.00     0.191 C 
BRANCH  19  20
ATOM     20  O   UNL     1     119.909 125.859 111.460  1.00  0.00    -0.394 OA
ATOM     21  H   UNL     1     119.117 126.005 112.040  1.00  0.00     0.210 HD
ENDBRANCH  19  20
ENDBRANCH   4  19
TORSDOF 5
ENDMDL
MODEL 3
REMARK VINA RESULT:    -4.772     10.690     12.500
REMARK INTER + INTRA:          -6.041
REMARK INTER:                  -5.749
REMARK INTRA:                  -0.292
REMARK UNBOUND:                -0.293
REMARK SMILES O=c1ccn([C@H]2O[C@H](CO)[C@H](O)[C@H]2O)c(=O)[nH]1
REMARK SMILES IDX 6 1 13 2 11 3 8 4 7 5 5 6 3 7 4 8 2 9 17 10 1 11 15 12 16 14
REMARK SMILES IDX 14 15 12 17 9 19 10 20
REMARK H PARENT 17 13 14 16 12 18 10 21
REMARK Flexibility Score: inf
ROOT
ATOM      1  C   UNL     1     120.058 114.930 104.964  1.00  0.00     0.255 C 
ATOM      2  C   UNL     1     119.807 115.247 103.483  1.00  0.00     0.196 C 
ATOM      3  C   UNL     1     120.140 116.710 103.389  1.00  0.00     0.179 C 
ATOM      4  C   UNL     1     119.871 117.208 104.810  1.00  0.00     0.178 C 
ATOM      5  O   UNL     1     120.123 116.140 105.699  1.00  0.00    -0.347 OA
ENDROOT
BRANCH   1   6
ATOM      6  N   UNL     1     121.300 114.149 105.161  1.00  0.00    -0.271 N 
ATOM      7  C   UNL     1     123.653 114.082 105.633  1.00  0.00     0.090 A 
ATOM      8  C   UNL     1     122.468 114.794 105.472  1.00  0.00     0.099 A 
ATOM      9  C   UNL     1     123.630 112.702 105.460  1.00  0.00     0.253 A 
ATOM     10  N   UNL     1     122.467 112.081 105.133  1.00  0.00    -0.274 N 
ATOM     11  O   UNL     1     124.688 112.032 105.601  1.00  0.00    -0.269 OA
ATOM     12  C   UNL     1     121.313 112.787 104.974  1.00  0.00     0.330 A 
ATOM     13  H   UNL     1     122.461 111.045 104.994  1.00  0.00     0.175 HD
ATOM     14  O   UNL     1     120.259 112.173 104.649  1.00  0.00    -0.248 OA
ENDBRANCH   1   6
BRANCH   2  15
ATOM     15  O   UNL     1     120.615 114.481 102.627  1.00  0.00    -0.386 OA
ATOM     16  H   UNL     1     120.089 114.335 101.798  1.00  0.00     0.211 HD
ENDBRANCH   2  15
BRANCH   3  17
ATOM     17  O   UNL     1     119.350 117.347 102.419  1.00  0.00    -0.387 OA
ATOM     18  H   UNL     1     119.089 116.646 101.767  1.00  0.00     0.211 HD
ENDBRANCH   3  17
BRANCH   4  19
ATOM     19  C   UNL     1     118.434 117.722 105.024  1.00  0.00     0.191 C 
BRANCH  19  20
ATOM     20  O   UNL     1     118.264 118.966 104.398  1.00  0.00    -0.394 OA
ATOM     21  H   UNL     1     118.695 118.899 103.506  1.00  0.00     0.210 HD
ENDBRANCH  19  20
ENDBRANCH   4  19
TORSDOF 5
ENDMDL
MODEL 4
REMARK VINA RESULT:    -4.723      2.041      2.847
REMARK INTER + INTRA:          -5.982
REMARK INTER:                  -5.697
REMARK INTRA:                  -0.286
REMARK UNBOUND:                -0.293
REMARK SMILES O=c1ccn([C@H]2O[C@H](CO)[C@H](O)[C@H]2O)c(=O)[nH]1
REMARK SMILES IDX 6 1 13 2 11 3 8 4 7 5 5 6 3 7 4 8 2 9 17 10 1 11 15 12 16 14
REMARK SMILES IDX 14 15 12 17 9 19 10 20
REMARK H PARENT 17 13 14 16 12 18 10 21
REMARK Flexibility Score: inf
ROOT
ATOM      1  C   UNL     1     131.447 120.428 100.148  1.00  0.00     0.255 C 
ATOM      2  C   UNL     1     132.564 119.932  99.220  1.00  0.00     0.196 C 
ATOM      3  C   UNL     1     132.012 118.639  98.686  1.00  0.00     0.179 C 
ATOM      4  C   UNL     1     131.055 118.199  99.796  1.00  0.00     0.178 C 
ATOM      5  O   UNL     1     130.558 119.361 100.426  1.00  0.00    -0.347 OA
ENDROOT
BRANCH   1   6
ATOM      6  N   UNL     1     130.706 121.568  99.560  1.00  0.00    -0.271 N 
ATOM      7  C   UNL     1     128.837 122.396  98.302  1.00  0.00     0.090 A 
ATOM      8  C   UNL     1     129.536 121.342  98.886  1.00  0.00     0.099 A 
ATOM      9  C   UNL     1     129.358 123.681  98.407  1.00  0.00     0.253 A 
ATOM     10  N   UNL     1     130.530 123.882  99.064  1.00  0.00    -0.274 N 
ATOM     11  O   UNL     1     128.747 124.653  97.889  1.00  0.00    -0.269 OA
ATOM     12  C   UNL     1     131.208 122.846  99.629  1.00  0.00     0.330 A 
ATOM     13  H   UNL     1     130.921 124.851  99.129  1.00  0.00     0.175 HD
ATOM     14  O   UNL     1     132.304 123.075 100.212  1.00  0.00    -0.248 OA
ENDBRANCH   1   6
BRANCH   2  15
ATOM     15  O   UNL     1     132.844 120.837  98.183  1.00  0.00    -0.386 OA
ATOM     16  H   UNL     1     132.920 121.733  98.604  1.00  0.00     0.211 HD
ENDBRANCH   2  15
BRANCH   3  17
ATOM     17  O   UNL     1     133.038 117.713  98.438  1.00  0.00    -0.387 OA
ATOM     18  H   UNL     1     132.649 116.815  98.600  1.00  0.00     0.211 HD
ENDBRANCH   3  17
BRANCH   4  19
ATOM     19  C   UNL     1     131.710 117.286 100.851  1.00  0.00     0.191 C 
BRANCH  19  20
ATOM     20  O   UNL     1     131.923 116.005 100.321  1.00  0.00    -0.394 OA
ATOM     21  H   UNL     1     132.303 116.131  99.413  1.00  0.00     0.210 HD
ENDBRANCH  19  20
ENDBRANCH   4  19
TORSDOF 5
ENDMDL
MODEL 5
REMARK VINA RESULT:    -4.700      8.096     10.715
REMARK INTER + INTRA:          -5.954
REMARK INTER:                  -5.689
REMARK INTRA:                  -0.265
REMARK UNBOUND:                -0.293
REMARK SMILES O=c1ccn([C@H]2O[C@H](CO)[C@H](O)[C@H]2O)c(=O)[nH]1
REMARK SMILES IDX 6 1 13 2 11 3 8 4 7 5 5 6 3 7 4 8 2 9 17 10 1 11 15 12 16 14
REMARK SMILES IDX 14 15 12 17 9 19 10 20
REMARK H PARENT 17 13 14 16 12 18 10 21
REMARK Flexibility Score: inf
ROOT
ATOM      1  C   UNL     1     121.165 122.106 104.625  1.00  0.00     0.255 C 
ATOM      2  C   UNL     1     119.651 122.121 104.379  1.00  0.00     0.196 C 
ATOM      3  C   UNL     1     119.380 123.557 104.021  1.00  0.00     0.179 C 
ATOM      4  C   UNL     1     120.514 124.299 104.731  1.00  0.00     0.178 C 
ATOM      5  O   UNL     1     121.628 123.435 104.790  1.00  0.00    -0.347 OA
ENDROOT
BRANCH   1   6
ATOM      6  N   UNL     1     121.899 121.446 103.520  1.00  0.00    -0.271 N 
ATOM      7  C   UNL     1     123.153 121.606 101.480  1.00  0.00     0.090 A 
ATOM      8  C   UNL     1     122.483 122.206 102.542  1.00  0.00     0.099 A 
ATOM      9  C   UNL     1     123.206 120.217 101.424  1.00  0.00     0.253 A 
ATOM     10  N   UNL     1     122.604 119.479 102.393  1.00  0.00    -0.274 N 
ATOM     11  O   UNL     1     123.806 119.647 100.475  1.00  0.00    -0.269 OA
ATOM     12  C   UNL     1     121.948 120.075 103.428  1.00  0.00     0.330 A 
ATOM     13  H   UNL     1     122.640 118.435 102.339  1.00  0.00     0.175 HD
ATOM     14  O   UNL     1     121.384 119.352 104.295  1.00  0.00    -0.248 OA
ENDBRANCH   1   6
BRANCH   2  15
ATOM     15  O   UNL     1     119.266 121.253 103.345  1.00  0.00    -0.386 OA
ATOM     16  H   UNL     1     120.074 121.100 102.789  1.00  0.00     0.211 HD
ENDBRANCH   2  15
BRANCH   3  17
ATOM     17  O   UNL     1     118.103 123.953 104.448  1.00  0.00    -0.387 OA
ATOM     18  H   UNL     1     117.646 123.130 104.763  1.00  0.00     0.211 HD
ENDBRANCH   3  17
BRANCH   4  19
ATOM     19  C   UNL     1     120.151 124.764 106.155  1.00  0.00     0.191 C 
BRANCH  19  20
ATOM     20  O   UNL     1     119.454 125.980 106.107  1.00  0.00    -0.394 OA
ATOM     21  H   UNL     1     119.690 126.478 106.933  1.00  0.00     0.210 HD
ENDBRANCH  19  20
ENDBRANCH   4  19
TORSDOF 5
ENDMDL
MODEL 6
REMARK VINA RESULT:    -4.660     14.243     15.672
REMARK INTER + INTRA:          -5.906
REMARK INTER:                  -5.648
REMARK INTRA:                  -0.258
REMARK UNBOUND:                -0.293
REMARK SMILES O=c1ccn([C@H]2O[C@H](CO)[C@H](O)[C@H]2O)c(=O)[nH]1
REMARK SMILES IDX 6 1 13 2 11 3 8 4 7 5 5 6 3 7 4 8 2 9 17 10 1 11 15 12 16 14
REMARK SMILES IDX 14 15 12 17 9 19 10 20
REMARK H PARENT 17 13 14 16 12 18 10 21
REMARK Flexibility Score: inf
ROOT
ATOM      1  C   UNL     1     116.566 123.606 107.824  1.00  0.00     0.255 C 
ATOM      2  C   UNL     1     116.738 124.532 106.613  1.00  0.00     0.196 C 
ATOM      3  C   UNL     1     118.162 124.997 106.742  1.00  0.00     0.179 C 
ATOM      4  C   UNL     1     118.415 124.889 108.246  1.00  0.00     0.178 C 
ATOM      5  O   UNL     1     117.616 123.838 108.746  1.00  0.00    -0.347 OA
ENDROOT
BRANCH   1   6
ATOM      6  N   UNL     1     116.542 122.178 107.431  1.00  0.00    -0.271 N 
ATOM      7  C   UNL     1     117.686 120.086 107.154  1.00  0.00     0.090 A 
ATOM      8  C   UNL     1     117.679 121.422 107.544  1.00  0.00     0.099 A 
ATOM      9  C   UNL     1     116.519 119.537 106.634  1.00  0.00     0.253 A 
ATOM     10  N   UNL     1     115.406 120.307 106.511  1.00  0.00    -0.274 N 
ATOM     11  O   UNL     1     116.496 118.330 106.274  1.00  0.00    -0.269 OA
ATOM     12  C   UNL     1     115.409 121.614 106.893  1.00  0.00     0.330 A 
ATOM     13  H   UNL     1     114.535 119.889 106.110  1.00  0.00     0.175 HD
ATOM     14  O   UNL     1     114.360 122.300 106.742  1.00  0.00    -0.248 OA
ENDBRANCH   1   6
BRANCH   2  15
ATOM     15  O   UNL     1     116.523 123.867 105.394  1.00  0.00    -0.386 OA
ATOM     16  H   UNL     1     115.654 124.193 105.044  1.00  0.00     0.211 HD
ENDBRANCH   2  15
BRANCH   3  17
ATOM     17  O   UNL     1     118.314 126.302 106.245  1.00  0.00    -0.387 OA
ATOM     18  H   UNL     1     118.930 126.768 106.868  1.00  0.00     0.211 HD
ENDBRANCH   3  17
BRANCH   4  19
ATOM     19  C   UNL     1     118.101 126.184 109.021  1.00  0.00     0.191 C 
BRANCH  19  20
ATOM     20  O   UNL     1     119.152 127.102 108.881  1.00  0.00    -0.394 OA
ATOM     21  H   UNL     1     119.113 127.704 109.669  1.00  0.00     0.210 HD
ENDBRANCH  19  20
ENDBRANCH   4  19
TORSDOF 5
ENDMDL
MODEL 7
REMARK VINA RESULT:    -4.622     13.042     14.979
REMARK INTER + INTRA:          -5.860
REMARK INTER:                  -5.566
REMARK INTRA:                  -0.294
REMARK UNBOUND:                -0.293
REMARK SMILES O=c1ccn([C@H]2O[C@H](CO)[C@H](O)[C@H]2O)c(=O)[nH]1
REMARK SMILES IDX 6 1 13 2 11 3 8 4 7 5 5 6 3 7 4 8 2 9 17 10 1 11 15 12 16 14
REMARK SMILES IDX 14 15 12 17 9 19 10 20
REMARK H PARENT 17 13 14 16 12 18 10 21
REMARK Flexibility Score: inf
ROOT
ATOM      1  C   UNL     1     118.964 124.415 107.644  1.00  0.00     0.255 C 
ATOM      2  C   UNL     1     118.912 124.831 106.168  1.00  0.00     0.196 C 
ATOM      3  C   UNL     1     117.957 123.836 105.569  1.00  0.00     0.179 C 
ATOM      4  C   UNL     1     118.105 122.629 106.497  1.00  0.00     0.178 C 
ATOM      5  O   UNL     1     118.435 123.108 107.783  1.00  0.00    -0.347 OA
ENDROOT
BRANCH   1   6
ATOM      6  N   UNL     1     118.221 125.359 108.512  1.00  0.00    -0.271 N 
ATOM      7  C   UNL     1     116.203 125.967 109.660  1.00  0.00     0.090 A 
ATOM      8  C   UNL     1     116.928 125.080 108.869  1.00  0.00     0.099 A 
ATOM      9  C   UNL     1     116.813 127.147 110.071  1.00  0.00     0.253 A 
ATOM     10  N   UNL     1     118.090 127.415 109.691  1.00  0.00    -0.274 N 
ATOM     11  O   UNL     1     116.180 127.966 110.788  1.00  0.00    -0.269 OA
ATOM     12  C   UNL     1     118.791 126.543 108.914  1.00  0.00     0.330 A 
ATOM     13  H   UNL     1     118.538 128.309 109.996  1.00  0.00     0.175 HD
ATOM     14  O   UNL     1     119.967 126.841 108.567  1.00  0.00    -0.248 OA
ENDBRANCH   1   6
BRANCH   2  15
ATOM     15  O   UNL     1     118.454 126.148 105.997  1.00  0.00    -0.386 OA
ATOM     16  H   UNL     1     117.901 126.360 106.794  1.00  0.00     0.211 HD
ENDBRANCH   2  15
BRANCH   3  17
ATOM     17  O   UNL     1     118.290 123.555 104.234  1.00  0.00    -0.387 OA
ATOM     18  H   UNL     1     118.442 122.576 104.185  1.00  0.00     0.211 HD
ENDBRANCH   3  17
BRANCH   4  19
ATOM     19  C   UNL     1     119.177 121.622 106.036  1.00  0.00     0.191 C 
BRANCH  19  20
ATOM     20  O   UNL     1     118.669 120.802 105.017  1.00  0.00    -0.394 OA
ATOM     21  H   UNL     1     118.226 121.401 104.362  1.00  0.00     0.210 HD
ENDBRANCH  19  20
ENDBRANCH   4  19
TORSDOF 5
ENDMDL
MODEL 8
REMARK VINA RESULT:    -4.608      9.310     10.594
REMARK INTER + INTRA:          -5.844
REMARK INTER:                  -5.534
REMARK INTRA:                  -0.310
REMARK UNBOUND:                -0.293
REMARK SMILES O=c1ccn([C@H]2O[C@H](CO)[C@H](O)[C@H]2O)c(=O)[nH]1
REMARK SMILES IDX 6 1 13 2 11 3 8 4 7 5 5 6 3 7 4 8 2 9 17 10 1 11 15 12 16 14
REMARK SMILES IDX 14 15 12 17 9 19 10 20
REMARK H PARENT 17 13 14 16 12 18 10 21
REMARK Flexibility Score: inf
ROOT
ATOM      1  C   UNL     1     120.946 121.060 104.103  1.00  0.00     0.255 C 
ATOM      2  C   UNL     1     121.259 121.076 102.600  1.00  0.00     0.196 C 
ATOM      3  C   UNL     1     119.974 120.597 101.982  1.00  0.00     0.179 C 
ATOM      4  C   UNL     1     119.362 119.747 103.097  1.00  0.00     0.178 C 
ATOM      5  O   UNL     1     119.784 120.282 104.333  1.00  0.00    -0.347 OA
ENDROOT
BRANCH   1   6
ATOM      6  N   UNL     1     120.760 122.425 104.644  1.00  0.00    -0.271 N 
ATOM      7  C   UNL     1     119.306 124.252 105.202  1.00  0.00     0.090 A 
ATOM      8  C   UNL     1     119.501 122.960 104.722  1.00  0.00     0.099 A 
ATOM      9  C   UNL     1     120.416 124.995 105.589  1.00  0.00     0.253 A 
ATOM     10  N   UNL     1     121.659 124.455 105.487  1.00  0.00    -0.274 N 
ATOM     11  O   UNL     1     120.269 126.166 106.028  1.00  0.00    -0.269 OA
ATOM     12  C   UNL     1     121.841 123.190 105.013  1.00  0.00     0.330 A 
ATOM     13  H   UNL     1     122.490 125.023 105.770  1.00  0.00     0.175 HD
ATOM     14  O   UNL     1     123.014 122.735 104.915  1.00  0.00    -0.248 OA
ENDBRANCH   1   6
BRANCH   2  15
ATOM     15  O   UNL     1     121.604 122.357 102.138  1.00  0.00    -0.386 OA
ATOM     16  H   UNL     1     120.879 122.640 101.523  1.00  0.00     0.211 HD
ENDBRANCH   2  15
BRANCH   3  17
ATOM     17  O   UNL     1     120.218 119.875 100.803  1.00  0.00    -0.387 OA
ATOM     18  H   UNL     1     121.187 119.973 100.611  1.00  0.00     0.211 HD
ENDBRANCH   3  17
BRANCH   4  19
ATOM     19  C   UNL     1     119.754 118.258 103.024  1.00  0.00     0.191 C 
BRANCH  19  20
ATOM     20  O   UNL     1     119.057 117.621 101.986  1.00  0.00    -0.394 OA
ATOM     21  H   UNL     1     119.618 117.706 101.172  1.00  0.00     0.210 HD
ENDBRANCH  19  20
ENDBRANCH   4  19
TORSDOF 5
ENDMDL
MODEL 9
REMARK VINA RESULT:    -4.605     11.110     12.318
REMARK INTER + INTRA:          -5.840
REMARK INTER:                  -5.530
REMARK INTRA:                  -0.310
REMARK UNBOUND:                -0.293
REMARK SMILES O=c1ccn([C@H]2O[C@H](CO)[C@H](O)[C@H]2O)c(=O)[nH]1
REMARK SMILES IDX 6 1 13 2 11 3 8 4 7 5 5 6 3 7 4 8 2 9 17 10 1 11 15 12 16 14
REMARK SMILES IDX 14 15 12 17 9 19 10 20
REMARK H PARENT 17 13 14 16 12 18 10 21
REMARK Flexibility Score: inf
ROOT
ATOM      1  C   UNL     1     120.239 116.997 105.017  1.00  0.00     0.255 C 
ATOM      2  C   UNL     1     120.171 116.361 103.622  1.00  0.00     0.196 C 
ATOM      3  C   UNL     1     119.996 114.898 103.926  1.00  0.00     0.179 C 
ATOM      4  C   UNL     1     120.645 114.762 105.304  1.00  0.00     0.178 C 
ATOM      5  O   UNL     1     120.487 115.990 105.982  1.00  0.00    -0.347 OA
ENDROOT
BRANCH   1   6
ATOM      6  N   UNL     1     118.996 117.728 105.353  1.00  0.00    -0.271 N 
ATOM      7  C   UNL     1     116.824 117.761 106.374  1.00  0.00     0.090 A 
ATOM      8  C   UNL     1     118.012 117.102 106.071  1.00  0.00     0.099 A 
ATOM      9  C   UNL     1     116.650 119.065 105.922  1.00  0.00     0.253 A 
ATOM     10  N   UNL     1     117.630 119.663 105.196  1.00  0.00    -0.274 N 
ATOM     11  O   UNL     1     115.586 119.686 106.183  1.00  0.00    -0.269 OA
ATOM     12  C   UNL     1     118.788 119.010 104.901  1.00  0.00     0.330 A 
ATOM     13  H   UNL     1     117.488 120.641 104.851  1.00  0.00     0.175 HD
ATOM     14  O   UNL     1     119.663 119.596 104.205  1.00  0.00    -0.248 OA
ENDBRANCH   1   6
BRANCH   2  15
ATOM     15  O   UNL     1     119.103 116.858 102.857  1.00  0.00    -0.386 OA
ATOM     16  H   UNL     1     119.296 117.817 102.693  1.00  0.00     0.211 HD
ENDBRANCH   2  15
BRANCH   3  17
ATOM     17  O   UNL     1     120.605 114.101 102.943  1.00  0.00    -0.387 OA
ATOM     18  H   UNL     1     120.323 113.168 103.126  1.00  0.00     0.211 HD
ENDBRANCH   3  17
BRANCH   4  19
ATOM     19  C   UNL     1     122.142 114.397 105.249  1.00  0.00     0.191 C 
BRANCH  19  20
ATOM     20  O   UNL     1     122.300 113.033 104.964  1.00  0.00    -0.394 OA
ATOM     21  H   UNL     1     122.068 112.911 104.007  1.00  0.00     0.210 HD
ENDBRANCH  19  20
ENDBRANCH   4  19
TORSDOF 5
ENDMDL
