MODEL 1
REMARK VINA RESULT:    23.020      0.000      0.000
REMARK INTER + INTRA:          35.776
REMARK INTER:                  35.132
REMARK INTRA:                   0.643
REMARK UNBOUND:                 0.643
REMARK SMILES CC1=CCC[C@H](C)C(=O)C[C@@H](C(C)C)C(=O)C1
REMARK SMILES IDX 8 1 9 2 6 3 7 4 5 5 4 6 3 7 2 8 1 9 10 11 11 12 15 13 16 14
REMARK SMILES IDX 17 15 12 17 13 18 14 19
REMARK H PARENT
REMARK Flexibility Score: 70.00
ROOT
ATOM      1  C   UNL     1      82.994  13.981 106.915  1.00  0.00     0.136 C 
ATOM      2  O   UNL     1      83.127  12.841 106.494  1.00  0.00    -0.299 OA
ENDROOT
BRANCH   1   3
ATOM      3  C   UNL     1      83.504  15.146 106.082  1.00  0.00     0.053 C 
ATOM      4  C   UNL     1      82.767  15.265 104.735  1.00  0.00     0.016 C 
BRANCH   3   5
ATOM      5  C   UNL     1      83.430  16.483 106.855  1.00  0.00     0.015 C 
BRANCH   5   6
ATOM      6  C   UNL     1      84.722  16.759 107.657  1.00  0.00     0.028 C 
BRANCH   6   7
ATOM      7  C   UNL     1      85.852  15.842 107.261  1.00  0.00    -0.028 C 
ATOM      8  C   UNL     1      86.282  14.781 107.985  1.00  0.00    -0.070 CG0
ATOM      9  C   UNL     1      87.415  13.958 107.426  1.00  0.00     0.039 C 
ATOM     10  G   UNL     1      85.710  14.401 109.344  1.00  0.00     0.000 G0
ENDBRANCH   6   7
ENDBRANCH   5   6
ENDBRANCH   3   5
ENDBRANCH   1   3
BRANCH   1  11
ATOM     11  C   UNL     1      82.247  14.161 108.226  1.00  0.00     0.087 C 
BRANCH  11  12
ATOM     12  C   UNL     1      83.058  14.079 109.556  1.00  0.00     0.066 C 
BRANCH  12  13
ATOM     13  C   UNL     1      84.477  13.562 109.306  1.00  0.00     0.140 C 
ATOM     14  O   UNL     1      84.595  12.388 108.985  1.00  0.00    -0.299 OA
BRANCH  13  15
ATOM     15  C   UNL     1      85.733  14.413 109.368  1.00  0.00     0.106 CG0
ATOM     16  G   UNL     1      86.237  14.781 107.980  1.00  0.00     0.000 G0
ENDBRANCH  13  15
ENDBRANCH  12  13
BRANCH  12  17
ATOM     17  C   UNL     1      82.308  13.471 110.791  1.00  0.00    -0.006 C 
ATOM     18  C   UNL     1      83.273  13.259 111.973  1.00  0.00     0.008 C 
ATOM     19  C   UNL     1      81.156  14.373 111.271  1.00  0.00     0.008 C 
ENDBRANCH  12  17
ENDBRANCH  11  12
ENDBRANCH   1  11
TORSDOF 1
ENDMDL
MODEL 2
REMARK VINA RESULT:    24.530      1.616      3.714
REMARK INTER + INTRA:          38.080
REMARK INTER:                  34.691
REMARK INTRA:                   3.389
REMARK UNBOUND:                 0.643
REMARK SMILES CC1=CCC[C@H](C)C(=O)C[C@@H](C(C)C)C(=O)C1
REMARK SMILES IDX 8 1 9 2 6 3 7 4 5 5 4 6 3 7 2 8 1 9 10 11 11 12 15 13 16 14
REMARK SMILES IDX 17 15 12 17 13 18 14 19
REMARK H PARENT
REMARK Flexibility Score: 70.00
ROOT
ATOM      1  C   UNL     1      82.748  14.365 107.392  1.00  0.00     0.136 C 
ATOM      2  O   UNL     1      81.866  14.957 107.999  1.00  0.00    -0.299 OA
ENDROOT
BRANCH   1   3
ATOM      3  C   UNL     1      82.853  12.854 107.519  1.00  0.00     0.053 C 
ATOM      4  C   UNL     1      83.990  12.276 106.656  1.00  0.00     0.016 C 
BRANCH   3   5
ATOM      5  C   UNL     1      83.016  12.410 108.991  1.00  0.00     0.015 C 
BRANCH   5   6
ATOM      6  C   UNL     1      82.740  13.567 109.978  1.00  0.00     0.028 C 
BRANCH   6   7
ATOM      7  C   UNL     1      83.997  14.060 110.651  1.00  0.00    -0.028 C 
ATOM      8  C   UNL     1      85.207  14.172 110.053  1.00  0.00    -0.070 CG0
ATOM      9  C   UNL     1      86.354  14.704 110.874  1.00  0.00     0.039 C 
ATOM     10  G   UNL     1      85.476  13.753 108.614  1.00  0.00     0.000 G0
ENDBRANCH   6   7
ENDBRANCH   5   6
ENDBRANCH   3   5
ENDBRANCH   1   3
BRANCH   1  11
ATOM     11  C   UNL     1      83.643  15.188 106.480  1.00  0.00     0.087 C 
BRANCH  11  12
ATOM     12  C   UNL     1      84.892  15.885 107.102  1.00  0.00     0.066 C 
BRANCH  12  13
ATOM     13  C   UNL     1      85.862  14.857 107.690  1.00  0.00     0.140 C 
ATOM     14  O   UNL     1      87.049  14.990 107.421  1.00  0.00    -0.299 OA
BRANCH  13  15
ATOM     15  C   UNL     1      85.468  13.728 108.626  1.00  0.00     0.106 CG0
ATOM     16  G   UNL     1      85.217  14.228 110.042  1.00  0.00     0.000 G0
ENDBRANCH  13  15
ENDBRANCH  12  13
BRANCH  12  17
ATOM     17  C   UNL     1      84.615  17.154 107.979  1.00  0.00    -0.006 C 
ATOM     18  C   UNL     1      85.914  17.940 108.237  1.00  0.00     0.008 C 
ATOM     19  C   UNL     1      83.604  18.107 107.314  1.00  0.00     0.008 C 
ENDBRANCH  12  17
ENDBRANCH  11  12
ENDBRANCH   1  11
TORSDOF 1
ENDMDL
MODEL 3
REMARK VINA RESULT:    24.961      8.815     10.326
REMARK INTER + INTRA:          38.738
REMARK INTER:                  33.681
REMARK INTRA:                   5.057
REMARK UNBOUND:                 0.643
REMARK SMILES CC1=CCC[C@H](C)C(=O)C[C@@H](C(C)C)C(=O)C1
REMARK SMILES IDX 8 1 9 2 6 3 7 4 5 5 4 6 3 7 2 8 1 9 10 11 11 12 15 13 16 14
REMARK SMILES IDX 17 15 12 17 13 18 14 19
REMARK H PARENT
REMARK Flexibility Score: 70.00
ROOT
ATOM      1  C   UNL     1      89.041  23.400 111.939  1.00  0.00     0.136 C 
ATOM      2  O   UNL     1      88.788  24.593 111.840  1.00  0.00    -0.299 OA
ENDROOT
BRANCH   1   3
ATOM      3  C   UNL     1      90.481  22.958 112.142  1.00  0.00     0.053 C 
ATOM      4  C   UNL     1      91.460  23.736 111.244  1.00  0.00     0.016 C 
BRANCH   3   5
ATOM      5  C   UNL     1      90.912  23.062 113.623  1.00  0.00     0.015 C 
BRANCH   5   6
ATOM      6  C   UNL     1      91.006  21.675 114.298  1.00  0.00     0.028 C 
BRANCH   6   7
ATOM      7  C   UNL     1      91.997  20.768 113.611  1.00  0.00    -0.028 C 
ATOM      8  C   UNL     1      91.919  20.368 112.319  1.00  0.00    -0.070 CG0
ATOM      9  C   UNL     1      93.012  19.474 111.791  1.00  0.00     0.039 C 
ATOM     10  G   UNL     1      90.773  20.742 111.390  1.00  0.00     0.000 G0
ENDBRANCH   6   7
ENDBRANCH   5   6
ENDBRANCH   3   5
ENDBRANCH   1   3
BRANCH   1  11
ATOM     11  C   UNL     1      87.868  22.433 111.929  1.00  0.00     0.087 C 
BRANCH  11  12
ATOM     12  C   UNL     1      88.097  20.999 111.358  1.00  0.00     0.066 C 
BRANCH  12  13
ATOM     13  C   UNL     1      89.401  20.396 111.887  1.00  0.00     0.140 C 
ATOM     14  O   UNL     1      89.309  19.545 112.760  1.00  0.00    -0.299 OA
BRANCH  13  15
ATOM     15  C   UNL     1      90.787  20.732 111.364  1.00  0.00     0.106 CG0
ATOM     16  G   UNL     1      91.875  20.342 112.354  1.00  0.00     0.000 G0
ENDBRANCH  13  15
ENDBRANCH  12  13
BRANCH  12  17
ATOM     17  C   UNL     1      87.817  20.808 109.828  1.00  0.00    -0.006 C 
ATOM     18  C   UNL     1      86.786  19.688 109.592  1.00  0.00     0.008 C 
ATOM     19  C   UNL     1      87.285  22.095 109.171  1.00  0.00     0.008 C 
ENDBRANCH  12  17
ENDBRANCH  11  12
ENDBRANCH   1  11
TORSDOF 1
ENDMDL
MODEL 4
REMARK VINA RESULT:    25.184      1.298      2.047
REMARK INTER + INTRA:          39.078
REMARK INTER:                  37.522
REMARK INTRA:                   1.556
REMARK UNBOUND:                 0.643
REMARK SMILES CC1=CCC[C@H](C)C(=O)C[C@@H](C(C)C)C(=O)C1
REMARK SMILES IDX 8 1 9 2 6 3 7 4 5 5 4 6 3 7 2 8 1 9 10 11 11 12 15 13 16 14
REMARK SMILES IDX 17 15 12 17 13 18 14 19
REMARK H PARENT
REMARK Flexibility Score: 70.00
ROOT
ATOM      1  C   UNL     1      83.305  13.016 107.519  1.00  0.00     0.136 C 
ATOM      2  O   UNL     1      84.092  12.126 107.228  1.00  0.00    -0.299 OA
ENDROOT
BRANCH   1   3
ATOM      3  C   UNL     1      82.907  14.032 106.461  1.00  0.00     0.053 C 
ATOM      4  C   UNL     1      81.587  14.745 106.808  1.00  0.00     0.016 C 
BRANCH   3   5
ATOM      5  C   UNL     1      84.026  15.068 106.207  1.00  0.00     0.015 C 
BRANCH   5   6
ATOM      6  C   UNL     1      83.516  16.520 106.350  1.00  0.00     0.028 C 
BRANCH   6   7
ATOM      7  C   UNL     1      84.172  17.249 107.495  1.00  0.00    -0.028 C 
ATOM      8  C   UNL     1      84.943  16.671 108.446  1.00  0.00    -0.070 CG0
ATOM      9  C   UNL     1      85.537  17.560 109.510  1.00  0.00     0.039 C 
ATOM     10  G   UNL     1      85.209  15.174 108.518  1.00  0.00     0.000 G0
ENDBRANCH   6   7
ENDBRANCH   5   6
ENDBRANCH   3   5
ENDBRANCH   1   3
BRANCH   1  11
ATOM     11  C   UNL     1      82.713  12.998 108.919  1.00  0.00     0.087 C 
BRANCH  11  12
ATOM     12  C   UNL     1      83.136  14.121 109.916  1.00  0.00     0.066 C 
BRANCH  12  13
ATOM     13  C   UNL     1      84.619  14.467 109.761  1.00  0.00     0.140 C 
ATOM     14  O   UNL     1      85.369  14.128 110.666  1.00  0.00    -0.299 OA
BRANCH  13  15
ATOM     15  C   UNL     1      85.231  15.139 108.545  1.00  0.00     0.106 CG0
ATOM     16  G   UNL     1      84.904  16.625 108.495  1.00  0.00     0.000 G0
ENDBRANCH  13  15
ENDBRANCH  12  13
BRANCH  12  17
ATOM     17  C   UNL     1      82.608  13.981 111.385  1.00  0.00    -0.006 C 
ATOM     18  C   UNL     1      81.127  14.391 111.480  1.00  0.00     0.008 C 
ATOM     19  C   UNL     1      82.740  12.541 111.913  1.00  0.00     0.008 C 
ENDBRANCH  12  17
ENDBRANCH  11  12
ENDBRANCH   1  11
TORSDOF 1
ENDMDL
MODEL 5
REMARK VINA RESULT:    25.534      8.562     10.273
REMARK INTER + INTRA:          39.612
REMARK INTER:                  36.872
REMARK INTRA:                   2.740
REMARK UNBOUND:                 0.643
REMARK SMILES CC1=CCC[C@H](C)C(=O)C[C@@H](C(C)C)C(=O)C1
REMARK SMILES IDX 8 1 9 2 6 3 7 4 5 5 4 6 3 7 2 8 1 9 10 11 11 12 15 13 16 14
REMARK SMILES IDX 17 15 12 17 13 18 14 19
REMARK H PARENT
REMARK Flexibility Score: 70.00
ROOT
ATOM      1  C   UNL     1      89.967  19.772 112.416  1.00  0.00     0.136 C 
ATOM      2  O   UNL     1      89.097  19.520 113.238  1.00  0.00    -0.299 OA
ENDROOT
BRANCH   1   3
ATOM      3  C   UNL     1      91.427  19.685 112.827  1.00  0.00     0.053 C 
ATOM      4  C   UNL     1      92.377  20.110 111.693  1.00  0.00     0.016 C 
BRANCH   3   5
ATOM      5  C   UNL     1      91.715  20.506 114.105  1.00  0.00     0.015 C 
BRANCH   5   6
ATOM      6  C   UNL     1      91.078  21.913 114.045  1.00  0.00     0.028 C 
BRANCH   6   7
ATOM      7  C   UNL     1      91.270  22.574 112.703  1.00  0.00    -0.028 C 
ATOM      8  C   UNL     1      90.297  23.196 111.996  1.00  0.00    -0.070 CG0
ATOM      9  C   UNL     1      90.675  23.823 110.677  1.00  0.00     0.039 C 
ATOM     10  G   UNL     1      88.844  23.262 112.443  1.00  0.00     0.000 G0
ENDBRANCH   6   7
ENDBRANCH   5   6
ENDBRANCH   3   5
ENDBRANCH   1   3
BRANCH   1  11
ATOM     11  C   UNL     1      89.519  20.084 110.997  1.00  0.00     0.087 C 
BRANCH  11  12
ATOM     12  C   UNL     1      88.379  21.129 110.794  1.00  0.00     0.066 C 
BRANCH  12  13
ATOM     13  C   UNL     1      88.136  21.936 112.072  1.00  0.00     0.140 C 
ATOM     14  O   UNL     1      87.340  21.477 112.880  1.00  0.00    -0.299 OA
BRANCH  13  15
ATOM     15  C   UNL     1      88.854  23.224 112.434  1.00  0.00     0.106 CG0
ATOM     16  G   UNL     1      90.307  23.209 111.981  1.00  0.00     0.000 G0
ENDBRANCH  13  15
ENDBRANCH  12  13
BRANCH  12  17
ATOM     17  C   UNL     1      87.100  20.624 110.041  1.00  0.00    -0.006 C 
ATOM     18  C   UNL     1      86.561  21.705 109.086  1.00  0.00     0.008 C 
ATOM     19  C   UNL     1      87.377  19.353 109.218  1.00  0.00     0.008 C 
ENDBRANCH  12  17
ENDBRANCH  11  12
ENDBRANCH   1  11
TORSDOF 1
ENDMDL
MODEL 6
REMARK VINA RESULT:    25.892      8.996     10.815
REMARK INTER + INTRA:          40.159
REMARK INTER:                  38.982
REMARK INTRA:                   1.177
REMARK UNBOUND:                 0.643
REMARK SMILES CC1=CCC[C@H](C)C(=O)C[C@@H](C(C)C)C(=O)C1
REMARK SMILES IDX 8 1 9 2 6 3 7 4 5 5 4 6 3 7 2 8 1 9 10 11 11 12 15 13 16 14
REMARK SMILES IDX 17 15 12 17 13 18 14 19
REMARK H PARENT
REMARK Flexibility Score: 70.00
ROOT
ATOM      1  C   UNL     1      90.936  22.665 113.252  1.00  0.00     0.136 C 
ATOM      2  O   UNL     1      90.575  22.928 114.391  1.00  0.00    -0.299 OA
ENDROOT
BRANCH   1   3
ATOM      3  C   UNL     1      90.432  23.515 112.097  1.00  0.00     0.053 C 
ATOM      4  C   UNL     1      91.285  23.337 110.828  1.00  0.00     0.016 C 
BRANCH   3   5
ATOM      5  C   UNL     1      88.942  23.239 111.787  1.00  0.00     0.015 C 
BRANCH   5   6
ATOM      6  C   UNL     1      88.681  21.745 111.488  1.00  0.00     0.028 C 
BRANCH   6   7
ATOM      7  C   UNL     1      87.704  21.127 112.457  1.00  0.00    -0.028 C 
ATOM      8  C   UNL     1      88.044  20.405 113.550  1.00  0.00    -0.070 CG0
ATOM      9  C   UNL     1      86.932  19.878 114.422  1.00  0.00     0.039 C 
ATOM     10  G   UNL     1      89.481  20.067 113.921  1.00  0.00     0.000 G0
ENDBRANCH   6   7
ENDBRANCH   5   6
ENDBRANCH   3   5
ENDBRANCH   1   3
BRANCH   1  11
ATOM     11  C   UNL     1      91.940  21.537 113.078  1.00  0.00     0.087 C 
BRANCH  11  12
ATOM     12  C   UNL     1      91.542  20.325 112.181  1.00  0.00     0.066 C 
BRANCH  12  13
ATOM     13  C   UNL     1      90.338  19.580 112.762  1.00  0.00     0.140 C 
ATOM     14  O   UNL     1      90.065  18.491 112.274  1.00  0.00    -0.299 OA
BRANCH  13  15
ATOM     15  C   UNL     1      89.502  20.063 113.934  1.00  0.00     0.106 CG0
ATOM     16  G   UNL     1      88.070  20.373 113.519  1.00  0.00     0.000 G0
ENDBRANCH  13  15
ENDBRANCH  12  13
BRANCH  12  17
ATOM     17  C   UNL     1      92.719  19.433 111.655  1.00  0.00    -0.006 C 
ATOM     18  C   UNL     1      93.386  20.071 110.422  1.00  0.00     0.008 C 
ATOM     19  C   UNL     1      93.803  19.216 112.726  1.00  0.00     0.008 C 
ENDBRANCH  12  17
ENDBRANCH  11  12
ENDBRANCH   1  11
TORSDOF 1
ENDMDL
