MODEL 1
REMARK VINA RESULT:    -5.814      0.000      0.000
REMARK INTER + INTRA:          -6.245
REMARK INTER:                  -6.154
REMARK INTRA:                  -0.091
REMARK UNBOUND:                -0.091
REMARK SMILES C=C(C)[C@H]1CC=C(C)C(=O)C1
REMARK SMILES IDX 8 1 7 2 6 3 5 4 4 5 11 6 9 7 10 8 2 9 1 10 3 11
REMARK H PARENT
REMARK Flexibility Score: inf
ROOT
ATOM      1  C   UNL     1     -32.975 -26.113  22.604  1.00  0.00     0.048 C 
ATOM      2  C   UNL     1     -32.765 -24.687  22.177  1.00  0.00    -0.012 C 
ATOM      3  C   UNL     1     -33.753 -24.024  21.550  1.00  0.00    -0.019 C 
ATOM      4  C   UNL     1     -33.589 -22.601  21.084  1.00  0.00     0.036 C 
ATOM      5  C   UNL     1     -32.659 -21.814  22.025  1.00  0.00     0.025 C 
ATOM      6  C   UNL     1     -31.308 -22.538  22.171  1.00  0.00     0.089 C 
ATOM      7  C   UNL     1     -31.518 -23.976  22.556  1.00  0.00     0.158 C 
ATOM      8  O   UNL     1     -30.605 -24.586  23.175  1.00  0.00    -0.295 OA
ENDROOT
BRANCH   5   9
ATOM      9  C   UNL     1     -32.473 -20.378  21.552  1.00  0.00    -0.077 C 
ATOM     10  C   UNL     1     -32.184 -19.410  22.435  1.00  0.00     0.008 C 
ATOM     11  C   UNL     1     -32.604 -20.009  20.094  1.00  0.00     0.039 C 
ENDBRANCH   5   9
TORSDOF 1
ENDMDL
MODEL 2
REMARK VINA RESULT:    -5.452      1.350      2.003
REMARK INTER + INTRA:          -5.862
REMARK INTER:                  -5.764
REMARK INTRA:                  -0.098
REMARK UNBOUND:                -0.091
REMARK SMILES C=C(C)[C@H]1CC=C(C)C(=O)C1
REMARK SMILES IDX 8 1 7 2 6 3 5 4 4 5 11 6 9 7 10 8 2 9 1 10 3 11
REMARK H PARENT
REMARK Flexibility Score: inf
ROOT
ATOM      1  C   UNL     1     -32.026 -26.128  22.730  1.00  0.00     0.048 C 
ATOM      2  C   UNL     1     -32.226 -24.656  22.499  1.00  0.00    -0.012 C 
ATOM      3  C   UNL     1     -31.347 -23.774  23.006  1.00  0.00    -0.019 C 
ATOM      4  C   UNL     1     -31.511 -22.288  22.821  1.00  0.00     0.036 C 
ATOM      5  C   UNL     1     -32.176 -21.968  21.469  1.00  0.00     0.025 C 
ATOM      6  C   UNL     1     -33.512 -22.722  21.338  1.00  0.00     0.089 C 
ATOM      7  C   UNL     1     -33.320 -24.188  21.612  1.00  0.00     0.158 C 
ATOM      8  O   UNL     1     -34.125 -25.017  21.107  1.00  0.00    -0.295 OA
ENDROOT
BRANCH   5   9
ATOM      9  C   UNL     1     -32.362 -20.468  21.281  1.00  0.00    -0.077 C 
ATOM     10  C   UNL     1     -32.277 -19.642  22.335  1.00  0.00     0.008 C 
ATOM     11  C   UNL     1     -32.639 -19.876  19.921  1.00  0.00     0.039 C 
ENDBRANCH   5   9
TORSDOF 1
ENDMDL
MODEL 3
REMARK VINA RESULT:    -5.345      2.083      4.682
REMARK INTER + INTRA:          -5.748
REMARK INTER:                  -5.651
REMARK INTRA:                  -0.097
REMARK UNBOUND:                -0.091
REMARK SMILES C=C(C)[C@H]1CC=C(C)C(=O)C1
REMARK SMILES IDX 8 1 7 2 6 3 5 4 4 5 11 6 9 7 10 8 2 9 1 10 3 11
REMARK H PARENT
REMARK Flexibility Score: inf
ROOT
ATOM      1  C   UNL     1     -31.926 -17.827  20.695  1.00  0.00     0.048 C 
ATOM      2  C   UNL     1     -32.205 -19.230  21.158  1.00  0.00    -0.012 C 
ATOM      3  C   UNL     1     -32.651 -20.148  20.283  1.00  0.00    -0.019 C 
ATOM      4  C   UNL     1     -32.963 -21.561  20.698  1.00  0.00     0.036 C 
ATOM      5  C   UNL     1     -32.034 -22.022  21.837  1.00  0.00     0.025 C 
ATOM      6  C   UNL     1     -32.106 -21.039  23.019  1.00  0.00     0.089 C 
ATOM      7  C   UNL     1     -31.871 -19.630  22.548  1.00  0.00     0.158 C 
ATOM      8  O   UNL     1     -31.420 -18.779  23.362  1.00  0.00    -0.295 OA
ENDROOT
BRANCH   5   9
ATOM      9  C   UNL     1     -32.355 -23.445  22.275  1.00  0.00    -0.077 C 
ATOM     10  C   UNL     1     -33.630 -23.861  22.332  1.00  0.00     0.008 C 
ATOM     11  C   UNL     1     -31.263 -24.416  22.651  1.00  0.00     0.039 C 
ENDBRANCH   5   9
TORSDOF 1
ENDMDL
MODEL 4
REMARK VINA RESULT:    -5.259      2.396      5.073
REMARK INTER + INTRA:          -5.657
REMARK INTER:                  -5.566
REMARK INTRA:                  -0.091
REMARK UNBOUND:                -0.091
REMARK SMILES C=C(C)[C@H]1CC=C(C)C(=O)C1
REMARK SMILES IDX 8 1 7 2 6 3 5 4 4 5 11 6 9 7 10 8 2 9 1 10 3 11
REMARK H PARENT
REMARK Flexibility Score: inf
ROOT
ATOM      1  C   UNL     1     -32.515 -17.318  21.042  1.00  0.00     0.048 C 
ATOM      2  C   UNL     1     -32.390 -18.782  21.360  1.00  0.00    -0.012 C 
ATOM      3  C   UNL     1     -32.152 -19.174  22.624  1.00  0.00    -0.019 C 
ATOM      4  C   UNL     1     -31.999 -20.627  22.994  1.00  0.00     0.036 C 
ATOM      5  C   UNL     1     -32.879 -21.521  22.100  1.00  0.00     0.025 C 
ATOM      6  C   UNL     1     -32.571 -21.262  20.614  1.00  0.00     0.089 C 
ATOM      7  C   UNL     1     -32.653 -19.794  20.306  1.00  0.00     0.158 C 
ATOM      8  O   UNL     1     -32.911 -19.427  19.127  1.00  0.00    -0.295 OA
ENDROOT
BRANCH   5   9
ATOM      9  C   UNL     1     -32.718 -22.993  22.455  1.00  0.00    -0.077 C 
ATOM     10  C   UNL     1     -33.732 -23.849  22.256  1.00  0.00     0.008 C 
ATOM     11  C   UNL     1     -31.428 -23.525  23.031  1.00  0.00     0.039 C 
ENDBRANCH   5   9
TORSDOF 1
ENDMDL
MODEL 5
REMARK VINA RESULT:    -5.027      2.596      5.074
REMARK INTER + INTRA:          -5.412
REMARK INTER:                  -5.314
REMARK INTRA:                  -0.098
REMARK UNBOUND:                -0.091
REMARK SMILES C=C(C)[C@H]1CC=C(C)C(=O)C1
REMARK SMILES IDX 8 1 7 2 6 3 5 4 4 5 11 6 9 7 10 8 2 9 1 10 3 11
REMARK H PARENT
REMARK Flexibility Score: inf
ROOT
ATOM      1  C   UNL     1     -33.968 -23.150  22.616  1.00  0.00     0.048 C 
ATOM      2  C   UNL     1     -32.697 -23.947  22.506  1.00  0.00    -0.012 C 
ATOM      3  C   UNL     1     -31.553 -23.455  23.012  1.00  0.00    -0.019 C 
ATOM      4  C   UNL     1     -30.249 -24.202  22.912  1.00  0.00     0.036 C 
ATOM      5  C   UNL     1     -30.479 -25.724  22.959  1.00  0.00     0.025 C 
ATOM      6  C   UNL     1     -31.478 -26.149  21.868  1.00  0.00     0.089 C 
ATOM      7  C   UNL     1     -32.732 -25.323  21.950  1.00  0.00     0.158 C 
ATOM      8  O   UNL     1     -33.812 -25.800  21.506  1.00  0.00    -0.295 OA
ENDROOT
BRANCH   5   9
ATOM      9  C   UNL     1     -29.167 -26.489  22.840  1.00  0.00    -0.077 C 
ATOM     10  C   UNL     1     -29.129 -27.667  22.198  1.00  0.00     0.008 C 
ATOM     11  C   UNL     1     -27.887 -25.949  23.431  1.00  0.00     0.039 C 
ENDBRANCH   5   9
TORSDOF 1
ENDMDL
MODEL 6
REMARK VINA RESULT:    -4.677      2.410      5.128
REMARK INTER + INTRA:          -5.041
REMARK INTER:                  -4.954
REMARK INTRA:                  -0.087
REMARK UNBOUND:                -0.091
REMARK SMILES C=C(C)[C@H]1CC=C(C)C(=O)C1
REMARK SMILES IDX 8 1 7 2 6 3 5 4 4 5 11 6 9 7 10 8 2 9 1 10 3 11
REMARK H PARENT
REMARK Flexibility Score: inf
ROOT
ATOM      1  C   UNL     1     -31.656 -16.923  21.218  1.00  0.00     0.048 C 
ATOM      2  C   UNL     1     -31.729 -18.396  21.511  1.00  0.00    -0.012 C 
ATOM      3  C   UNL     1     -32.357 -18.827  22.619  1.00  0.00    -0.019 C 
ATOM      4  C   UNL     1     -32.443 -20.290  22.970  1.00  0.00     0.036 C 
ATOM      5  C   UNL     1     -32.509 -21.161  21.702  1.00  0.00     0.025 C 
ATOM      6  C   UNL     1     -31.317 -20.852  20.778  1.00  0.00     0.089 C 
ATOM      7  C   UNL     1     -31.217 -19.375  20.519  1.00  0.00     0.158 C 
ATOM      8  O   UNL     1     -30.658 -18.973  19.463  1.00  0.00    -0.295 OA
ENDROOT
BRANCH   5   9
ATOM      9  C   UNL     1     -32.578 -22.643  22.047  1.00  0.00    -0.077 C 
ATOM     10  C   UNL     1     -33.606 -23.388  21.612  1.00  0.00     0.008 C 
ATOM     11  C   UNL     1     -31.505 -23.307  22.874  1.00  0.00     0.039 C 
ENDBRANCH   5   9
TORSDOF 1
ENDMDL
MODEL 7
REMARK VINA RESULT:    -4.519      1.699      2.909
REMARK INTER + INTRA:          -4.874
REMARK INTER:                  -4.778
REMARK INTRA:                  -0.097
REMARK UNBOUND:                -0.091
REMARK SMILES C=C(C)[C@H]1CC=C(C)C(=O)C1
REMARK SMILES IDX 8 1 7 2 6 3 5 4 4 5 11 6 9 7 10 8 2 9 1 10 3 11
REMARK H PARENT
REMARK Flexibility Score: inf
ROOT
ATOM      1  C   UNL     1     -33.499 -23.388  21.496  1.00  0.00     0.048 C 
ATOM      2  C   UNL     1     -32.909 -22.006  21.517  1.00  0.00    -0.012 C 
ATOM      3  C   UNL     1     -33.050 -21.202  20.448  1.00  0.00    -0.019 C 
ATOM      4  C   UNL     1     -32.463 -19.815  20.410  1.00  0.00     0.036 C 
ATOM      5  C   UNL     1     -32.453 -19.179  21.812  1.00  0.00     0.025 C 
ATOM      6  C   UNL     1     -31.720 -20.094  22.810  1.00  0.00     0.089 C 
ATOM      7  C   UNL     1     -32.281 -21.487  22.758  1.00  0.00     0.158 C 
ATOM      8  O   UNL     1     -32.179 -22.228  23.773  1.00  0.00    -0.295 OA
ENDROOT
BRANCH   5   9
ATOM      9  C   UNL     1     -31.844 -17.783  21.785  1.00  0.00    -0.077 C 
ATOM     10  C   UNL     1     -30.511 -17.630  21.743  1.00  0.00     0.008 C 
ATOM     11  C   UNL     1     -32.710 -16.548  21.802  1.00  0.00     0.039 C 
ENDBRANCH   5   9
TORSDOF 1
ENDMDL
MODEL 8
REMARK VINA RESULT:    -4.423      2.685      5.365
REMARK INTER + INTRA:          -4.773
REMARK INTER:                  -4.675
REMARK INTRA:                  -0.098
REMARK UNBOUND:                -0.091
REMARK SMILES C=C(C)[C@H]1CC=C(C)C(=O)C1
REMARK SMILES IDX 8 1 7 2 6 3 5 4 4 5 11 6 9 7 10 8 2 9 1 10 3 11
REMARK H PARENT
REMARK Flexibility Score: inf
ROOT
ATOM      1  C   UNL     1     -30.706 -16.785  19.927  1.00  0.00     0.048 C 
ATOM      2  C   UNL     1     -31.356 -18.027  20.471  1.00  0.00    -0.012 C 
ATOM      3  C   UNL     1     -31.899 -18.922  19.628  1.00  0.00    -0.019 C 
ATOM      4  C   UNL     1     -32.578 -20.173  20.120  1.00  0.00     0.036 C 
ATOM      5  C   UNL     1     -31.920 -20.688  21.414  1.00  0.00     0.025 C 
ATOM      6  C   UNL     1     -31.898 -19.578  22.481  1.00  0.00     0.089 C 
ATOM      7  C   UNL     1     -31.288 -18.322  21.924  1.00  0.00     0.158 C 
ATOM      8  O   UNL     1     -30.747 -17.500  22.713  1.00  0.00    -0.295 OA
ENDROOT
BRANCH   5   9
ATOM      9  C   UNL     1     -32.612 -21.943  21.929  1.00  0.00    -0.077 C 
ATOM     10  C   UNL     1     -33.428 -22.641  21.123  1.00  0.00     0.008 C 
ATOM     11  C   UNL     1     -32.401 -22.433  23.340  1.00  0.00     0.039 C 
ENDBRANCH   5   9
TORSDOF 1
ENDMDL
MODEL 9
REMARK VINA RESULT:    -4.349      2.038      2.787
REMARK INTER + INTRA:          -4.694
REMARK INTER:                  -4.607
REMARK INTRA:                  -0.087
REMARK UNBOUND:                -0.091
REMARK SMILES C=C(C)[C@H]1CC=C(C)C(=O)C1
REMARK SMILES IDX 8 1 7 2 6 3 5 4 4 5 11 6 9 7 10 8 2 9 1 10 3 11
REMARK H PARENT
REMARK Flexibility Score: inf
ROOT
ATOM      1  C   UNL     1     -33.458 -24.313  22.589  1.00  0.00     0.048 C 
ATOM      2  C   UNL     1     -33.050 -22.905  22.257  1.00  0.00    -0.012 C 
ATOM      3  C   UNL     1     -32.298 -22.204  23.123  1.00  0.00    -0.019 C 
ATOM      4  C   UNL     1     -31.877 -20.784  22.848  1.00  0.00     0.036 C 
ATOM      5  C   UNL     1     -31.672 -20.550  21.340  1.00  0.00     0.025 C 
ATOM      6  C   UNL     1     -32.939 -20.943  20.559  1.00  0.00     0.089 C 
ATOM      7  C   UNL     1     -33.372 -22.336  20.924  1.00  0.00     0.158 C 
ATOM      8  O   UNL     1     -34.048 -23.005  20.096  1.00  0.00    -0.295 OA
ENDROOT
BRANCH   5   9
ATOM      9  C   UNL     1     -31.263 -19.111  21.051  1.00  0.00    -0.077 C 
ATOM     10  C   UNL     1     -30.077 -18.849  20.480  1.00  0.00     0.008 C 
ATOM     11  C   UNL     1     -32.170 -17.954  21.391  1.00  0.00     0.039 C 
ENDBRANCH   5   9
TORSDOF 1
ENDMDL
