MODEL 1
REMARK VINA RESULT:    -3.483      0.000      0.000
REMARK INTER + INTRA:          -4.693
REMARK INTER:                  -4.908
REMARK INTRA:                   0.215
REMARK UNBOUND:                 0.215
REMARK SMILES CC1=CCC(=C(C)C)C(=O)CC(C)=CCC1
REMARK SMILES IDX 12 1 14 2 13 3 15 4 16 5 2 6 1 7 3 8 11 10 9 11 10 12 5 13
REMARK SMILES IDX 6 14 7 15 8 16 4 17
REMARK H PARENT
REMARK Flexibility Score: 60.00
ROOT
ATOM      1  C   UNL     1      20.657  28.504  25.008  1.00  0.00    -0.070 C 
ATOM      2  C   UNL     1      21.010  28.854  23.751  1.00  0.00    -0.027 C 
ATOM      3  C   UNL     1      19.249  28.804  25.455  1.00  0.00     0.039 C 
ENDROOT
BRANCH   2   4
ATOM      4  C   UNL     1      22.337  28.552  23.090  1.00  0.00     0.032 C 
BRANCH   4   5
ATOM      5  C   UNL     1      23.573  29.084  23.845  1.00  0.00     0.034 C 
BRANCH   5   6
ATOM      6  C   UNL     1      23.498  30.571  24.142  1.00  0.00    -0.077 C 
ATOM      7  C   UNL     1      23.434  31.517  22.969  1.00  0.00     0.039 C 
ATOM      8  C   UNL     1      23.414  31.099  25.387  1.00  0.00    -0.023 CG0
ATOM      9  G   UNL     1      23.476  30.350  26.704  1.00  0.00     0.000 G0
ENDBRANCH   5   6
ENDBRANCH   4   5
ENDBRANCH   2   4
BRANCH   1  10
ATOM     10  C   UNL     1      21.573  27.747  25.948  1.00  0.00     0.111 C 
BRANCH  10  11
ATOM     11  C   UNL     1      21.791  28.498  27.235  1.00  0.00     0.163 C 
ATOM     12  O   UNL     1      21.724  27.853  28.317  1.00  0.00    -0.294 OA
BRANCH  11  13
ATOM     13  C   UNL     1      22.141  29.949  27.267  1.00  0.00    -0.002 C 
ATOM     14  C   UNL     1      21.300  30.858  27.847  1.00  0.00    -0.069 C 
ATOM     15  C   UNL     1      19.925  30.456  28.332  1.00  0.00     0.039 C 
ATOM     16  C   UNL     1      21.696  32.306  28.036  1.00  0.00     0.039 C 
BRANCH  13  17
ATOM     17  C   UNL     1      23.501  30.349  26.718  1.00  0.00     0.066 CG0
ATOM     18  G   UNL     1      23.396  31.090  25.400  1.00  0.00     0.000 G0
ENDBRANCH  13  17
ENDBRANCH  11  13
ENDBRANCH  10  11
ENDBRANCH   1  10
TORSDOF 0
ENDMDL
MODEL 2
REMARK VINA RESULT:    -3.406      2.266      5.153
REMARK INTER + INTRA:          -4.584
REMARK INTER:                  -4.980
REMARK INTRA:                   0.396
REMARK UNBOUND:                 0.215
REMARK SMILES CC1=CCC(=C(C)C)C(=O)CC(C)=CCC1
REMARK SMILES IDX 12 1 14 2 13 3 15 4 16 5 2 6 1 7 3 8 11 10 9 11 10 12 5 13
REMARK SMILES IDX 6 14 7 15 8 16 4 17
REMARK H PARENT
REMARK Flexibility Score: 60.00
ROOT
ATOM      1  C   UNL     1      19.629  31.224  29.375  1.00  0.00    -0.070 C 
ATOM      2  C   UNL     1      20.136  30.914  30.589  1.00  0.00    -0.027 C 
ATOM      3  C   UNL     1      19.095  32.620  29.170  1.00  0.00     0.039 C 
ENDROOT
BRANCH   2   4
ATOM      4  C   UNL     1      20.802  29.606  30.959  1.00  0.00     0.032 C 
BRANCH   4   5
ATOM      5  C   UNL     1      22.186  29.379  30.314  1.00  0.00     0.034 C 
BRANCH   5   6
ATOM      6  C   UNL     1      22.353  27.986  29.734  1.00  0.00    -0.077 C 
ATOM      7  C   UNL     1      22.144  26.812  30.659  1.00  0.00     0.039 C 
ATOM      8  C   UNL     1      22.607  27.726  28.429  1.00  0.00    -0.023 CG0
ATOM      9  G   UNL     1      22.868  28.737  27.330  1.00  0.00     0.000 G0
ENDBRANCH   5   6
ENDBRANCH   4   5
ENDBRANCH   2   4
BRANCH   1  10
ATOM     10  C   UNL     1      19.655  30.275  28.195  1.00  0.00     0.111 C 
BRANCH  10  11
ATOM     11  C   UNL     1      20.916  30.431  27.385  1.00  0.00     0.163 C 
ATOM     12  O   UNL     1      21.448  31.572  27.329  1.00  0.00    -0.294 OA
BRANCH  11  13
ATOM     13  C   UNL     1      21.580  29.278  26.707  1.00  0.00    -0.002 C 
ATOM     14  C   UNL     1      21.085  28.776  25.535  1.00  0.00    -0.069 C 
ATOM     15  C   UNL     1      19.769  29.261  24.968  1.00  0.00     0.039 C 
ATOM     16  C   UNL     1      21.821  27.717  24.744  1.00  0.00     0.039 C 
BRANCH  13  17
ATOM     17  C   UNL     1      22.869  28.758  27.322  1.00  0.00     0.066 CG0
ATOM     18  G   UNL     1      22.616  27.749  28.426  1.00  0.00     0.000 G0
ENDBRANCH  13  17
ENDBRANCH  11  13
ENDBRANCH  10  11
ENDBRANCH   1  10
TORSDOF 0
ENDMDL
MODEL 3
REMARK VINA RESULT:    -3.296      1.284      3.779
REMARK INTER + INTRA:          -4.430
REMARK INTER:                  -4.622
REMARK INTRA:                   0.192
REMARK UNBOUND:                 0.215
REMARK SMILES CC1=CCC(=C(C)C)C(=O)CC(C)=CCC1
REMARK SMILES IDX 12 1 14 2 13 3 15 4 16 5 2 6 1 7 3 8 11 10 9 11 10 12 5 13
REMARK SMILES IDX 6 14 7 15 8 16 4 17
REMARK H PARENT
REMARK Flexibility Score: 60.00
ROOT
ATOM      1  C   UNL     1      20.468  31.390  28.576  1.00  0.00    -0.070 C 
ATOM      2  C   UNL     1      21.368  32.335  28.930  1.00  0.00    -0.027 C 
ATOM      3  C   UNL     1      19.546  30.858  29.644  1.00  0.00     0.039 C 
ENDROOT
BRANCH   2   4
ATOM      4  C   UNL     1      22.306  33.057  27.989  1.00  0.00     0.032 C 
BRANCH   4   5
ATOM      5  C   UNL     1      23.522  32.228  27.524  1.00  0.00     0.034 C 
BRANCH   5   6
ATOM      6  C   UNL     1      23.717  32.246  26.019  1.00  0.00    -0.077 C 
ATOM      7  C   UNL     1      24.066  33.563  25.372  1.00  0.00     0.039 C 
ATOM      8  C   UNL     1      23.668  31.146  25.228  1.00  0.00    -0.023 CG0
ATOM      9  G   UNL     1      23.321  29.732  25.650  1.00  0.00     0.000 G0
ENDBRANCH   5   6
ENDBRANCH   4   5
ENDBRANCH   2   4
BRANCH   1  10
ATOM     10  C   UNL     1      20.281  30.913  27.150  1.00  0.00     0.111 C 
BRANCH  10  11
ATOM     11  C   UNL     1      21.064  29.655  26.878  1.00  0.00     0.163 C 
ATOM     12  O   UNL     1      21.025  28.735  27.739  1.00  0.00    -0.294 OA
BRANCH  11  13
ATOM     13  C   UNL     1      21.823  29.442  25.610  1.00  0.00    -0.002 C 
ATOM     14  C   UNL     1      21.173  29.102  24.456  1.00  0.00    -0.069 C 
ATOM     15  C   UNL     1      19.696  28.776  24.454  1.00  0.00     0.039 C 
ATOM     16  C   UNL     1      21.890  29.033  23.125  1.00  0.00     0.039 C 
BRANCH  13  17
ATOM     17  C   UNL     1      23.319  29.711  25.640  1.00  0.00     0.066 CG0
ATOM     18  G   UNL     1      23.657  31.136  25.248  1.00  0.00     0.000 G0
ENDBRANCH  13  17
ENDBRANCH  11  13
ENDBRANCH  10  11
ENDBRANCH   1  10
TORSDOF 0
ENDMDL
MODEL 4
REMARK VINA RESULT:    -3.293      2.133      3.299
REMARK INTER + INTRA:          -4.425
REMARK INTER:                  -4.611
REMARK INTRA:                   0.185
REMARK UNBOUND:                 0.215
REMARK SMILES CC1=CCC(=C(C)C)C(=O)CC(C)=CCC1
REMARK SMILES IDX 12 1 14 2 13 3 15 4 16 5 2 6 1 7 3 8 11 10 9 11 10 12 5 13
REMARK SMILES IDX 6 14 7 15 8 16 4 17
REMARK H PARENT
REMARK Flexibility Score: 60.00
ROOT
ATOM      1  C   UNL     1      22.556  27.623  28.198  1.00  0.00    -0.070 C 
ATOM      2  C   UNL     1      22.108  27.009  27.080  1.00  0.00    -0.027 C 
ATOM      3  C   UNL     1      22.193  27.016  29.529  1.00  0.00     0.039 C 
ENDROOT
BRANCH   2   4
ATOM      4  C   UNL     1      22.444  27.407  25.659  1.00  0.00     0.032 C 
BRANCH   4   5
ATOM      5  C   UNL     1      22.193  28.893  25.326  1.00  0.00     0.034 C 
BRANCH   5   6
ATOM      6  C   UNL     1      20.753  29.320  25.547  1.00  0.00    -0.077 C 
ATOM      7  C   UNL     1      19.680  28.596  24.771  1.00  0.00     0.039 C 
ATOM      8  C   UNL     1      20.363  30.257  26.444  1.00  0.00    -0.023 CG0
ATOM      9  G   UNL     1      21.257  31.118  27.314  1.00  0.00     0.000 G0
ENDBRANCH   5   6
ENDBRANCH   4   5
ENDBRANCH   2   4
BRANCH   1  10
ATOM     10  C   UNL     1      23.475  28.827  28.174  1.00  0.00     0.111 C 
BRANCH  10  11
ATOM     11  C   UNL     1      22.899  29.981  28.952  1.00  0.00     0.163 C 
ATOM     12  O   UNL     1      23.635  30.548  29.804  1.00  0.00    -0.294 OA
BRANCH  11  13
ATOM     13  C   UNL     1      21.523  30.508  28.704  1.00  0.00    -0.002 C 
ATOM     14  C   UNL     1      20.584  30.500  29.697  1.00  0.00    -0.069 C 
ATOM     15  C   UNL     1      20.848  29.821  31.023  1.00  0.00     0.039 C 
ATOM     16  C   UNL     1      19.236  31.167  29.528  1.00  0.00     0.039 C 
BRANCH  13  17
ATOM     17  C   UNL     1      21.251  31.131  27.345  1.00  0.00     0.066 CG0
ATOM     18  G   UNL     1      20.382  30.249  26.469  1.00  0.00     0.000 G0
ENDBRANCH  13  17
ENDBRANCH  11  13
ENDBRANCH  10  11
ENDBRANCH   1  10
TORSDOF 0
ENDMDL
MODEL 5
REMARK VINA RESULT:    -3.203      2.158      4.843
REMARK INTER + INTRA:          -4.299
REMARK INTER:                  -4.473
REMARK INTRA:                   0.174
REMARK UNBOUND:                 0.215
REMARK SMILES CC1=CCC(=C(C)C)C(=O)CC(C)=CCC1
REMARK SMILES IDX 12 1 14 2 13 3 15 4 16 5 2 6 1 7 3 8 11 10 9 11 10 12 5 13
REMARK SMILES IDX 6 14 7 15 8 16 4 17
REMARK H PARENT
REMARK Flexibility Score: 60.00
ROOT
ATOM      1  C   UNL     1      22.380  27.967  30.076  1.00  0.00    -0.070 C 
ATOM      2  C   UNL     1      21.713  28.916  30.771  1.00  0.00    -0.027 C 
ATOM      3  C   UNL     1      22.530  26.605  30.707  1.00  0.00     0.039 C 
ENDROOT
BRANCH   2   4
ATOM      4  C   UNL     1      21.377  30.303  30.270  1.00  0.00     0.032 C 
BRANCH   4   5
ATOM      5  C   UNL     1      20.143  30.378  29.346  1.00  0.00     0.034 C 
BRANCH   5   6
ATOM      6  C   UNL     1      20.417  31.105  28.042  1.00  0.00    -0.077 C 
ATOM      7  C   UNL     1      20.680  32.589  28.109  1.00  0.00     0.039 C 
ATOM      8  C   UNL     1      20.509  30.499  26.834  1.00  0.00    -0.023 CG0
ATOM      9  G   UNL     1      20.267  29.035  26.524  1.00  0.00     0.000 G0
ENDBRANCH   5   6
ENDBRANCH   4   5
ENDBRANCH   2   4
BRANCH   1  10
ATOM     10  C   UNL     1      22.899  28.177  28.668  1.00  0.00     0.111 C 
BRANCH  10  11
ATOM     11  C   UNL     1      22.004  27.531  27.644  1.00  0.00     0.163 C 
ATOM     12  O   UNL     1      21.587  26.363  27.873  1.00  0.00    -0.294 OA
BRANCH  11  13
ATOM     13  C   UNL     1      21.550  28.243  26.412  1.00  0.00    -0.002 C 
ATOM     14  C   UNL     1      22.232  28.107  25.236  1.00  0.00    -0.069 C 
ATOM     15  C   UNL     1      23.550  27.365  25.173  1.00  0.00     0.039 C 
ATOM     16  C   UNL     1      21.712  28.686  23.938  1.00  0.00     0.039 C 
BRANCH  13  17
ATOM     17  C   UNL     1      20.258  29.038  26.505  1.00  0.00     0.066 CG0
ATOM     18  G   UNL     1      20.500  30.496  26.845  1.00  0.00     0.000 G0
ENDBRANCH  13  17
ENDBRANCH  11  13
ENDBRANCH  10  11
ENDBRANCH   1  10
TORSDOF 0
ENDMDL
MODEL 6
REMARK VINA RESULT:    -3.181      2.318      3.748
REMARK INTER + INTRA:          -4.268
REMARK INTER:                  -4.849
REMARK INTRA:                   0.581
REMARK UNBOUND:                 0.215
REMARK SMILES CC1=CCC(=C(C)C)C(=O)CC(C)=CCC1
REMARK SMILES IDX 12 1 14 2 13 3 15 4 16 5 2 6 1 7 3 8 11 10 9 11 10 12 5 13
REMARK SMILES IDX 6 14 7 15 8 16 4 17
REMARK H PARENT
REMARK Flexibility Score: 60.00
ROOT
ATOM      1  C   UNL     1      20.419  30.534  27.834  1.00  0.00    -0.070 C 
ATOM      2  C   UNL     1      19.879  29.988  26.721  1.00  0.00    -0.027 C 
ATOM      3  C   UNL     1      19.527  30.710  29.037  1.00  0.00     0.039 C 
ENDROOT
BRANCH   2   4
ATOM      4  C   UNL     1      20.631  29.643  25.454  1.00  0.00     0.032 C 
BRANCH   4   5
ATOM      5  C   UNL     1      20.627  28.145  25.085  1.00  0.00     0.034 C 
BRANCH   5   6
ATOM      6  C   UNL     1      21.960  27.464  25.336  1.00  0.00    -0.077 C 
ATOM      7  C   UNL     1      22.847  27.198  24.145  1.00  0.00     0.039 C 
ATOM      8  C   UNL     1      22.436  27.145  26.563  1.00  0.00    -0.023 CG0
ATOM      9  G   UNL     1      21.720  27.301  27.891  1.00  0.00     0.000 G0
ENDBRANCH   5   6
ENDBRANCH   4   5
ENDBRANCH   2   4
BRANCH   1  10
ATOM     10  C   UNL     1      21.887  30.889  27.958  1.00  0.00     0.111 C 
BRANCH  10  11
ATOM     11  C   UNL     1      22.750  29.659  28.047  1.00  0.00     0.163 C 
ATOM     12  O   UNL     1      23.910  29.711  27.554  1.00  0.00    -0.294 OA
BRANCH  11  13
ATOM     13  C   UNL     1      22.307  28.417  28.749  1.00  0.00    -0.002 C 
ATOM     14  C   UNL     1      22.355  28.330  30.112  1.00  0.00    -0.069 C 
ATOM     15  C   UNL     1      23.000  29.415  30.946  1.00  0.00     0.039 C 
ATOM     16  C   UNL     1      21.769  27.152  30.859  1.00  0.00     0.039 C 
BRANCH  13  17
ATOM     17  C   UNL     1      21.718  27.307  27.893  1.00  0.00     0.066 CG0
ATOM     18  G   UNL     1      22.433  27.164  26.563  1.00  0.00     0.000 G0
ENDBRANCH  13  17
ENDBRANCH  11  13
ENDBRANCH  10  11
ENDBRANCH   1  10
TORSDOF 0
ENDMDL
MODEL 7
REMARK VINA RESULT:    -3.034      2.852      5.078
REMARK INTER + INTRA:          -4.060
REMARK INTER:                  -4.419
REMARK INTRA:                   0.359
REMARK UNBOUND:                 0.215
REMARK SMILES CC1=CCC(=C(C)C)C(=O)CC(C)=CCC1
REMARK SMILES IDX 12 1 14 2 13 3 15 4 16 5 2 6 1 7 3 8 11 10 9 11 10 12 5 13
REMARK SMILES IDX 6 14 7 15 8 16 4 17
REMARK H PARENT
REMARK Flexibility Score: 60.00
ROOT
ATOM      1  C   UNL     1      20.703  30.163  26.945  1.00  0.00    -0.070 C 
ATOM      2  C   UNL     1      19.994  31.159  27.522  1.00  0.00    -0.027 C 
ATOM      3  C   UNL     1      19.939  29.031  26.307  1.00  0.00     0.039 C 
ENDROOT
BRANCH   2   4
ATOM      4  C   UNL     1      20.572  32.420  28.125  1.00  0.00     0.032 C 
BRANCH   4   5
ATOM      5  C   UNL     1      20.560  32.466  29.667  1.00  0.00     0.034 C 
BRANCH   5   6
ATOM      6  C   UNL     1      19.866  31.271  30.295  1.00  0.00    -0.077 C 
ATOM      7  C   UNL     1      18.369  31.341  30.468  1.00  0.00     0.039 C 
ATOM      8  C   UNL     1      20.490  30.121  30.645  1.00  0.00    -0.023 CG0
ATOM      9  G   UNL     1      21.978  29.831  30.580  1.00  0.00     0.000 G0
ENDBRANCH   5   6
ENDBRANCH   4   5
ENDBRANCH   2   4
BRANCH   1  10
ATOM     10  C   UNL     1      22.214  30.178  26.828  1.00  0.00     0.111 C 
BRANCH  10  11
ATOM     11  C   UNL     1      22.876  30.119  28.179  1.00  0.00     0.163 C 
ATOM     12  O   UNL     1      23.825  30.916  28.411  1.00  0.00    -0.294 OA
BRANCH  11  13
ATOM     13  C   UNL     1      22.409  29.201  29.261  1.00  0.00    -0.002 C 
ATOM     14  C   UNL     1      22.447  27.845  29.091  1.00  0.00    -0.069 C 
ATOM     15  C   UNL     1      22.810  27.231  27.757  1.00  0.00     0.039 C 
ATOM     16  C   UNL     1      22.132  26.888  30.220  1.00  0.00     0.039 C 
BRANCH  13  17
ATOM     17  C   UNL     1      21.986  29.834  30.577  1.00  0.00     0.066 CG0
ATOM     18  G   UNL     1      20.495  30.104  30.634  1.00  0.00     0.000 G0
ENDBRANCH  13  17
ENDBRANCH  11  13
ENDBRANCH  10  11
ENDBRANCH   1  10
TORSDOF 0
ENDMDL
MODEL 8
REMARK VINA RESULT:    -3.030      1.361      2.696
REMARK INTER + INTRA:          -4.055
REMARK INTER:                  -4.537
REMARK INTRA:                   0.482
REMARK UNBOUND:                 0.215
REMARK SMILES CC1=CCC(=C(C)C)C(=O)CC(C)=CCC1
REMARK SMILES IDX 12 1 14 2 13 3 15 4 16 5 2 6 1 7 3 8 11 10 9 11 10 12 5 13
REMARK SMILES IDX 6 14 7 15 8 16 4 17
REMARK H PARENT
REMARK Flexibility Score: 60.00
ROOT
ATOM      1  C   UNL     1      20.373  29.539  27.301  1.00  0.00    -0.070 C 
ATOM      2  C   UNL     1      19.672  29.274  26.176  1.00  0.00    -0.027 C 
ATOM      3  C   UNL     1      19.902  30.675  28.174  1.00  0.00     0.039 C 
ENDROOT
BRANCH   2   4
ATOM      4  C   UNL     1      19.928  28.122  25.229  1.00  0.00     0.032 C 
BRANCH   4   5
ATOM      5  C   UNL     1      20.592  28.516  23.893  1.00  0.00     0.034 C 
BRANCH   5   6
ATOM      6  C   UNL     1      22.092  28.284  23.880  1.00  0.00    -0.077 C 
ATOM      7  C   UNL     1      22.598  27.000  23.270  1.00  0.00     0.039 C 
ATOM      8  C   UNL     1      23.009  29.181  24.317  1.00  0.00    -0.023 CG0
ATOM      9  G   UNL     1      22.736  30.518  24.979  1.00  0.00     0.000 G0
ENDBRANCH   5   6
ENDBRANCH   4   5
ENDBRANCH   2   4
BRANCH   1  10
ATOM     10  C   UNL     1      21.543  28.698  27.770  1.00  0.00     0.111 C 
BRANCH  10  11
ATOM     11  C   UNL     1      22.842  29.169  27.170  1.00  0.00     0.163 C 
ATOM     12  O   UNL     1      23.829  28.386  27.205  1.00  0.00    -0.294 OA
BRANCH  11  13
ATOM     13  C   UNL     1      22.977  30.490  26.487  1.00  0.00    -0.002 C 
ATOM     14  C   UNL     1      23.384  31.596  27.181  1.00  0.00    -0.069 C 
ATOM     15  C   UNL     1      23.559  31.559  28.683  1.00  0.00     0.039 C 
ATOM     16  C   UNL     1      23.682  32.909  26.490  1.00  0.00     0.039 C 
BRANCH  13  17
ATOM     17  C   UNL     1      22.737  30.526  24.987  1.00  0.00     0.066 CG0
ATOM     18  G   UNL     1      23.001  29.187  24.328  1.00  0.00     0.000 G0
ENDBRANCH  13  17
ENDBRANCH  11  13
ENDBRANCH  10  11
ENDBRANCH   1  10
TORSDOF 0
ENDMDL
MODEL 9
REMARK VINA RESULT:    -2.929      1.309      3.792
REMARK INTER + INTRA:          -3.912
REMARK INTER:                  -4.448
REMARK INTRA:                   0.536
REMARK UNBOUND:                 0.215
REMARK SMILES CC1=CCC(=C(C)C)C(=O)CC(C)=CCC1
REMARK SMILES IDX 12 1 14 2 13 3 15 4 16 5 2 6 1 7 3 8 11 10 9 11 10 12 5 13
REMARK SMILES IDX 6 14 7 15 8 16 4 17
REMARK H PARENT
REMARK Flexibility Score: 60.00
ROOT
ATOM      1  C   UNL     1      20.311  28.718  25.465  1.00  0.00    -0.070 C 
ATOM      2  C   UNL     1      19.973  29.668  26.366  1.00  0.00    -0.027 C 
ATOM      3  C   UNL     1      19.589  28.713  24.142  1.00  0.00     0.039 C 
ENDROOT
BRANCH   2   4
ATOM      4  C   UNL     1      20.646  29.897  27.702  1.00  0.00     0.032 C 
BRANCH   4   5
ATOM      5  C   UNL     1      21.337  31.268  27.853  1.00  0.00     0.034 C 
BRANCH   5   6
ATOM      6  C   UNL     1      22.850  31.187  27.759  1.00  0.00    -0.077 C 
ATOM      7  C   UNL     1      23.636  31.241  29.046  1.00  0.00     0.039 C 
ATOM      8  C   UNL     1      23.536  31.000  26.606  1.00  0.00    -0.023 CG0
ATOM      9  G   UNL     1      22.965  30.935  25.203  1.00  0.00     0.000 G0
ENDBRANCH   5   6
ENDBRANCH   4   5
ENDBRANCH   2   4
BRANCH   1  10
ATOM     10  C   UNL     1      21.436  27.727  25.684  1.00  0.00     0.111 C 
BRANCH  10  11
ATOM     11  C   UNL     1      22.786  28.376  25.532  1.00  0.00     0.163 C 
ATOM     12  O   UNL     1      23.755  27.890  26.176  1.00  0.00    -0.294 OA
BRANCH  11  13
ATOM     13  C   UNL     1      23.025  29.523  24.605  1.00  0.00    -0.002 C 
ATOM     14  C   UNL     1      23.208  29.313  23.267  1.00  0.00    -0.069 C 
ATOM     15  C   UNL     1      23.333  27.915  22.701  1.00  0.00     0.039 C 
ATOM     16  C   UNL     1      23.294  30.458  22.281  1.00  0.00     0.039 C 
BRANCH  13  17
ATOM     17  C   UNL     1      22.960  30.921  25.197  1.00  0.00     0.066 CG0
ATOM     18  G   UNL     1      23.535  30.981  26.599  1.00  0.00     0.000 G0
ENDBRANCH  13  17
ENDBRANCH  11  13
ENDBRANCH  10  11
ENDBRANCH   1  10
TORSDOF 0
ENDMDL
