MODEL 1
REMARK VINA RESULT:    -4.623      0.000      0.000
REMARK INTER + INTRA:          -9.895
REMARK INTER:                  -8.677
REMARK INTRA:                  -1.218
REMARK UNBOUND:                -1.218
REMARK SMILES O=C([O-])CCCCCCCCCCCCCCC(=O)[O-]
REMARK SMILES IDX 10 1 9 2 8 3 7 4 6 5 5 6 4 7 2 8 1 9 3 10 11 11 12 12 13 13
REMARK SMILES IDX 14 14 15 15 16 16 17 17 18 18 19 19 20 20
REMARK H PARENT
REMARK Flexibility Score: inf
ROOT
ATOM      1  C   UNL     1      12.074   3.718  41.401  1.00  0.00     0.000 C 
ENDROOT
BRANCH   1   2
ATOM      2  C   UNL     1      11.083   2.990  42.321  1.00  0.00     0.000 C 
BRANCH   2   3
ATOM      3  C   UNL     1      10.787   1.555  41.854  1.00  0.00     0.000 C 
BRANCH   3   4
ATOM      4  C   UNL     1      11.054   1.355  40.354  1.00  0.00     0.000 C 
BRANCH   4   5
ATOM      5  C   UNL     1      12.009   0.177  40.121  1.00  0.00     0.000 C 
BRANCH   5   6
ATOM      6  C   UNL     1      12.671  -0.263  41.432  1.00  0.00     0.006 C 
BRANCH   6   7
ATOM      7  C   UNL     1      14.161  -0.551  41.226  1.00  0.00     0.053 C 
BRANCH   7   8
ATOM      8  C   UNL     1      14.366  -1.968  40.791  1.00  0.00     0.041 C 
ATOM      9  O   UNL     1      15.079  -2.744  41.478  1.00  0.00    -0.550 OA
ATOM     10  O   UNL     1      13.810  -2.417  39.600  1.00  0.00    -0.550 OA
ENDBRANCH   7   8
ENDBRANCH   6   7
ENDBRANCH   5   6
ENDBRANCH   4   5
ENDBRANCH   3   4
ENDBRANCH   2   3
ENDBRANCH   1   2
BRANCH   1  11
ATOM     11  C   UNL     1      12.490   5.067  42.000  1.00  0.00     0.000 C 
BRANCH  11  12
ATOM     12  C   UNL     1      14.003   5.111  42.259  1.00  0.00     0.000 C 
BRANCH  12  13
ATOM     13  C   UNL     1      14.806   5.532  41.017  1.00  0.00     0.000 C 
BRANCH  13  14
ATOM     14  C   UNL     1      16.056   4.661  40.801  1.00  0.00     0.000 C 
BRANCH  14  15
ATOM     15  C   UNL     1      15.790   3.171  41.069  1.00  0.00     0.000 C 
BRANCH  15  16
ATOM     16  C   UNL     1      17.051   2.303  40.909  1.00  0.00     0.006 C 
BRANCH  16  17
ATOM     17  C   UNL     1      18.228   2.833  41.738  1.00  0.00     0.053 C 
BRANCH  17  18
ATOM     18  C   UNL     1      19.517   2.770  40.977  1.00  0.00     0.041 C 
ATOM     19  O   UNL     1      20.565   3.269  41.464  1.00  0.00    -0.550 OA
ATOM     20  O   UNL     1      19.551   2.192  39.714  1.00  0.00    -0.550 OA
ENDBRANCH  17  18
ENDBRANCH  16  17
ENDBRANCH  15  16
ENDBRANCH  14  15
ENDBRANCH  13  14
ENDBRANCH  12  13
ENDBRANCH  11  12
ENDBRANCH   1  11
TORSDOF 15
ENDMDL
MODEL 2
REMARK VINA RESULT:    -4.586      3.481      8.736
REMARK INTER + INTRA:          -9.825
REMARK INTER:                  -9.119
REMARK INTRA:                  -0.705
REMARK UNBOUND:                -1.218
REMARK SMILES O=C([O-])CCCCCCCCCCCCCCC(=O)[O-]
REMARK SMILES IDX 10 1 9 2 8 3 7 4 6 5 5 6 4 7 2 8 1 9 3 10 11 11 12 12 13 13
REMARK SMILES IDX 14 14 15 15 16 16 17 17 18 18 19 19 20 20
REMARK H PARENT
REMARK Flexibility Score: inf
ROOT
ATOM      1  C   UNL     1      16.685   1.385  40.643  1.00  0.00     0.000 C 
ENDROOT
BRANCH   1   2
ATOM      2  C   UNL     1      16.930   2.690  41.414  1.00  0.00     0.000 C 
BRANCH   2   3
ATOM      3  C   UNL     1      16.653   3.940  40.563  1.00  0.00     0.000 C 
BRANCH   3   4
ATOM      4  C   UNL     1      15.302   4.593  40.893  1.00  0.00     0.000 C 
BRANCH   4   5
ATOM      5  C   UNL     1      15.497   6.024  41.408  1.00  0.00     0.000 C 
BRANCH   5   6
ATOM      6  C   UNL     1      16.803   6.627  40.878  1.00  0.00     0.006 C 
BRANCH   6   7
ATOM      7  C   UNL     1      17.672   7.150  42.026  1.00  0.00     0.053 C 
BRANCH   7   8
ATOM      8  C   UNL     1      17.597   8.642  42.103  1.00  0.00     0.041 C 
ATOM      9  O   UNL     1      17.010   9.294  41.199  1.00  0.00    -0.550 OA
ATOM     10  O   UNL     1      18.217   9.318  43.146  1.00  0.00    -0.550 OA
ENDBRANCH   7   8
ENDBRANCH   6   7
ENDBRANCH   5   6
ENDBRANCH   4   5
ENDBRANCH   3   4
ENDBRANCH   2   3
ENDBRANCH   1   2
BRANCH   1  11
ATOM     11  C   UNL     1      15.216   0.953  40.747  1.00  0.00     0.000 C 
BRANCH  11  12
ATOM     12  C   UNL     1      15.103  -0.554  41.019  1.00  0.00     0.000 C 
BRANCH  12  13
ATOM     13  C   UNL     1      13.668  -0.992  41.351  1.00  0.00     0.000 C 
BRANCH  13  14
ATOM     14  C   UNL     1      12.804  -1.184  40.092  1.00  0.00     0.000 C 
BRANCH  14  15
ATOM     15  C   UNL     1      11.315  -0.906  40.351  1.00  0.00     0.000 C 
BRANCH  15  16
ATOM     16  C   UNL     1      11.054  -0.315  41.748  1.00  0.00     0.006 C 
BRANCH  16  17
ATOM     17  C   UNL     1       9.558  -0.104  42.016  1.00  0.00     0.053 C 
BRANCH  17  18
ATOM     18  C   UNL     1       8.817  -1.404  42.084  1.00  0.00     0.041 C 
ATOM     19  O   UNL     1       8.725  -2.025  43.175  1.00  0.00    -0.550 OA
ATOM     20  O   UNL     1       8.258  -1.947  40.934  1.00  0.00    -0.550 OA
ENDBRANCH  17  18
ENDBRANCH  16  17
ENDBRANCH  15  16
ENDBRANCH  14  15
ENDBRANCH  13  14
ENDBRANCH  12  13
ENDBRANCH  11  12
ENDBRANCH   1  11
TORSDOF 15
ENDMDL
MODEL 3
REMARK VINA RESULT:    -4.551      3.829      5.303
REMARK INTER + INTRA:          -9.759
REMARK INTER:                  -8.550
REMARK INTRA:                  -1.209
REMARK UNBOUND:                -1.218
REMARK SMILES O=C([O-])CCCCCCCCCCCCCCC(=O)[O-]
REMARK SMILES IDX 10 1 9 2 8 3 7 4 6 5 5 6 4 7 2 8 1 9 3 10 11 11 12 12 13 13
REMARK SMILES IDX 14 14 15 15 16 16 17 17 18 18 19 19 20 20
REMARK H PARENT
REMARK Flexibility Score: inf
ROOT
ATOM      1  C   UNL     1      16.648   3.996  41.712  1.00  0.00     0.000 C 
ENDROOT
BRANCH   1   2
ATOM      2  C   UNL     1      17.531   3.268  40.689  1.00  0.00     0.000 C 
BRANCH   2   3
ATOM      3  C   UNL     1      17.211   1.767  40.593  1.00  0.00     0.000 C 
BRANCH   3   4
ATOM      4  C   UNL     1      15.754   1.449  40.961  1.00  0.00     0.000 C 
BRANCH   4   5
ATOM      5  C   UNL     1      15.512  -0.066  40.981  1.00  0.00     0.000 C 
BRANCH   5   6
ATOM      6  C   UNL     1      14.150  -0.414  40.368  1.00  0.00     0.006 C 
BRANCH   6   7
ATOM      7  C   UNL     1      13.187  -0.943  41.435  1.00  0.00     0.053 C 
BRANCH   7   8
ATOM      8  C   UNL     1      12.050   0.010  41.633  1.00  0.00     0.041 C 
ATOM      9  O   UNL     1      10.897  -0.425  41.893  1.00  0.00    -0.550 OA
ATOM     10  O   UNL     1      12.252   1.376  41.482  1.00  0.00    -0.550 OA
ENDBRANCH   7   8
ENDBRANCH   6   7
ENDBRANCH   5   6
ENDBRANCH   4   5
ENDBRANCH   3   4
ENDBRANCH   2   3
ENDBRANCH   1   2
BRANCH   1  11
ATOM     11  C   UNL     1      15.813   5.091  41.037  1.00  0.00     0.000 C 
BRANCH  11  12
ATOM     12  C   UNL     1      16.613   6.397  40.916  1.00  0.00     0.000 C 
BRANCH  12  13
ATOM     13  C   UNL     1      16.437   7.316  42.135  1.00  0.00     0.000 C 
BRANCH  13  14
ATOM     14  C   UNL     1      17.614   7.219  43.121  1.00  0.00     0.000 C 
BRANCH  14  15
ATOM     15  C   UNL     1      17.155   6.938  44.561  1.00  0.00     0.000 C 
BRANCH  15  16
ATOM     16  C   UNL     1      15.831   6.156  44.622  1.00  0.00     0.006 C 
BRANCH  16  17
ATOM     17  C   UNL     1      15.853   5.063  45.699  1.00  0.00     0.053 C 
BRANCH  17  18
ATOM     18  C   UNL     1      14.889   5.356  46.807  1.00  0.00     0.041 C 
ATOM     19  O   UNL     1      14.731   6.537  47.215  1.00  0.00    -0.550 OA
ATOM     20  O   UNL     1      14.191   4.319  47.414  1.00  0.00    -0.550 OA
ENDBRANCH  17  18
ENDBRANCH  16  17
ENDBRANCH  15  16
ENDBRANCH  14  15
ENDBRANCH  13  14
ENDBRANCH  12  13
ENDBRANCH  11  12
ENDBRANCH   1  11
TORSDOF 15
ENDMDL
MODEL 4
REMARK VINA RESULT:    -4.550      3.246      4.945
REMARK INTER + INTRA:          -9.758
REMARK INTER:                  -8.562
REMARK INTRA:                  -1.196
REMARK UNBOUND:                -1.218
REMARK SMILES O=C([O-])CCCCCCCCCCCCCCC(=O)[O-]
REMARK SMILES IDX 10 1 9 2 8 3 7 4 6 5 5 6 4 7 2 8 1 9 3 10 11 11 12 12 13 13
REMARK SMILES IDX 14 14 15 15 16 16 17 17 18 18 19 19 20 20
REMARK H PARENT
REMARK Flexibility Score: inf
ROOT
ATOM      1  C   UNL     1      15.364   0.907  41.278  1.00  0.00     0.000 C 
ENDROOT
BRANCH   1   2
ATOM      2  C   UNL     1      15.122  -0.555  40.874  1.00  0.00     0.000 C 
BRANCH   2   3
ATOM      3  C   UNL     1      13.788  -1.103  41.406  1.00  0.00     0.000 C 
BRANCH   3   4
ATOM      4  C   UNL     1      12.672  -0.047  41.403  1.00  0.00     0.000 C 
BRANCH   4   5
ATOM      5  C   UNL     1      11.951  -0.016  40.050  1.00  0.00     0.000 C 
BRANCH   5   6
ATOM      6  C   UNL     1      10.474  -0.398  40.205  1.00  0.00     0.006 C 
BRANCH   6   7
ATOM      7  C   UNL     1      10.081  -0.486  41.683  1.00  0.00     0.053 C 
BRANCH   7   8
ATOM      8  C   UNL     1       9.071  -1.570  41.894  1.00  0.00     0.041 C 
ATOM      9  O   UNL     1       8.627  -1.806  43.048  1.00  0.00    -0.550 OA
ATOM     10  O   UNL     1       8.657  -2.352  40.823  1.00  0.00    -0.550 OA
ENDBRANCH   7   8
ENDBRANCH   6   7
ENDBRANCH   5   6
ENDBRANCH   4   5
ENDBRANCH   3   4
ENDBRANCH   2   3
ENDBRANCH   1   2
BRANCH   1  11
ATOM     11  C   UNL     1      16.582   1.485  40.547  1.00  0.00     0.000 C 
BRANCH  11  12
ATOM     12  C   UNL     1      17.470   2.289  41.508  1.00  0.00     0.000 C 
BRANCH  12  13
ATOM     13  C   UNL     1      16.892   3.677  41.831  1.00  0.00     0.000 C 
BRANCH  13  14
ATOM     14  C   UNL     1      16.374   4.405  40.578  1.00  0.00     0.000 C 
BRANCH  14  15
ATOM     15  C   UNL     1      15.561   5.663  40.922  1.00  0.00     0.000 C 
BRANCH  15  16
ATOM     16  C   UNL     1      14.814   5.541  42.262  1.00  0.00     0.006 C 
BRANCH  16  17
ATOM     17  C   UNL     1      13.299   5.724  42.099  1.00  0.00     0.053 C 
BRANCH  17  18
ATOM     18  C   UNL     1      12.718   4.723  41.147  1.00  0.00     0.041 C 
ATOM     19  O   UNL     1      12.747   3.495  41.424  1.00  0.00    -0.550 OA
ATOM     20  O   UNL     1      12.178   5.144  39.939  1.00  0.00    -0.550 OA
ENDBRANCH  17  18
ENDBRANCH  16  17
ENDBRANCH  15  16
ENDBRANCH  14  15
ENDBRANCH  13  14
ENDBRANCH  12  13
ENDBRANCH  11  12
ENDBRANCH   1  11
TORSDOF 15
ENDMDL
MODEL 5
REMARK VINA RESULT:    -4.514      3.239      7.699
REMARK INTER + INTRA:          -9.691
REMARK INTER:                  -8.477
REMARK INTRA:                  -1.214
REMARK UNBOUND:                -1.218
REMARK SMILES O=C([O-])CCCCCCCCCCCCCCC(=O)[O-]
REMARK SMILES IDX 10 1 9 2 8 3 7 4 6 5 5 6 4 7 2 8 1 9 3 10 11 11 12 12 13 13
REMARK SMILES IDX 14 14 15 15 16 16 17 17 18 18 19 19 20 20
REMARK H PARENT
REMARK Flexibility Score: inf
ROOT
ATOM      1  C   UNL     1      16.807   1.379  40.600  1.00  0.00     0.000 C 
ENDROOT
BRANCH   1   2
ATOM      2  C   UNL     1      17.031   2.898  40.611  1.00  0.00     0.000 C 
BRANCH   2   3
ATOM      3  C   UNL     1      17.048   3.484  42.032  1.00  0.00     0.000 C 
BRANCH   3   4
ATOM      4  C   UNL     1      16.375   4.863  42.112  1.00  0.00     0.000 C 
BRANCH   4   5
ATOM      5  C   UNL     1      15.649   5.194  40.802  1.00  0.00     0.000 C 
BRANCH   5   6
ATOM      6  C   UNL     1      14.335   5.936  41.074  1.00  0.00     0.006 C 
BRANCH   6   7
ATOM      7  C   UNL     1      13.603   5.333  42.277  1.00  0.00     0.053 C 
BRANCH   7   8
ATOM      8  C   UNL     1      12.443   4.504  41.824  1.00  0.00     0.041 C 
ATOM      9  O   UNL     1      12.622   3.314  41.451  1.00  0.00    -0.550 OA
ATOM     10  O   UNL     1      11.171   5.059  41.766  1.00  0.00    -0.550 OA
ENDBRANCH   7   8
ENDBRANCH   6   7
ENDBRANCH   5   6
ENDBRANCH   4   5
ENDBRANCH   3   4
ENDBRANCH   2   3
ENDBRANCH   1   2
BRANCH   1  11
ATOM     11  C   UNL     1      15.346   1.037  40.922  1.00  0.00     0.000 C 
BRANCH  11  12
ATOM     12  C   UNL     1      15.144  -0.483  41.007  1.00  0.00     0.000 C 
BRANCH  12  13
ATOM     13  C   UNL     1      13.704  -0.871  41.379  1.00  0.00     0.000 C 
BRANCH  13  14
ATOM     14  C   UNL     1      12.749  -0.817  40.174  1.00  0.00     0.000 C 
BRANCH  14  15
ATOM     15  C   UNL     1      11.556   0.124  40.408  1.00  0.00     0.000 C 
BRANCH  15  16
ATOM     16  C   UNL     1      10.897  -0.082  41.783  1.00  0.00     0.006 C 
BRANCH  16  17
ATOM     17  C   UNL     1       9.368  -0.160  41.685  1.00  0.00     0.053 C 
BRANCH  17  18
ATOM     18  C   UNL     1       8.866  -1.551  41.924  1.00  0.00     0.041 C 
ATOM     19  O   UNL     1       8.719  -2.347  40.959  1.00  0.00    -0.550 OA
ATOM     20  O   UNL     1       8.528  -1.958  43.209  1.00  0.00    -0.550 OA
ENDBRANCH  17  18
ENDBRANCH  16  17
ENDBRANCH  15  16
ENDBRANCH  14  15
ENDBRANCH  13  14
ENDBRANCH  12  13
ENDBRANCH  11  12
ENDBRANCH   1  11
TORSDOF 15
ENDMDL
MODEL 6
REMARK VINA RESULT:    -4.470      3.419      4.880
REMARK INTER + INTRA:          -9.607
REMARK INTER:                  -8.198
REMARK INTRA:                  -1.409
REMARK UNBOUND:                -1.218
REMARK SMILES O=C([O-])CCCCCCCCCCCCCCC(=O)[O-]
REMARK SMILES IDX 10 1 9 2 8 3 7 4 6 5 5 6 4 7 2 8 1 9 3 10 11 11 12 12 13 13
REMARK SMILES IDX 14 14 15 15 16 16 17 17 18 18 19 19 20 20
REMARK H PARENT
REMARK Flexibility Score: inf
ROOT
ATOM      1  C   UNL     1      16.342   5.277  41.059  1.00  0.00     0.000 C 
ENDROOT
BRANCH   1   2
ATOM      2  C   UNL     1      16.073   3.766  41.086  1.00  0.00     0.000 C 
BRANCH   2   3
ATOM      3  C   UNL     1      17.341   2.934  40.832  1.00  0.00     0.000 C 
BRANCH   3   4
ATOM      4  C   UNL     1      17.040   1.439  40.647  1.00  0.00     0.000 C 
BRANCH   4   5
ATOM      5  C   UNL     1      15.528   1.179  40.662  1.00  0.00     0.000 C 
BRANCH   5   6
ATOM      6  C   UNL     1      15.225  -0.275  41.045  1.00  0.00     0.006 C 
BRANCH   6   7
ATOM      7  C   UNL     1      14.162  -0.876  40.120  1.00  0.00     0.053 C 
BRANCH   7   8
ATOM      8  C   UNL     1      12.792  -0.467  40.561  1.00  0.00     0.041 C 
ATOM      9  O   UNL     1      12.511  -0.412  41.787  1.00  0.00    -0.550 OA
ATOM     10  O   UNL     1      11.810  -0.194  39.617  1.00  0.00    -0.550 OA
ENDBRANCH   7   8
ENDBRANCH   6   7
ENDBRANCH   5   6
ENDBRANCH   4   5
ENDBRANCH   3   4
ENDBRANCH   2   3
ENDBRANCH   1   2
BRANCH   1  11
ATOM     11  C   UNL     1      15.081   6.067  41.431  1.00  0.00     0.000 C 
BRANCH  11  12
ATOM     12  C   UNL     1      14.558   5.648  42.813  1.00  0.00     0.000 C 
BRANCH  12  13
ATOM     13  C   UNL     1      14.973   6.624  43.926  1.00  0.00     0.000 C 
BRANCH  13  14
ATOM     14  C   UNL     1      16.314   6.239  44.577  1.00  0.00     0.000 C 
BRANCH  14  15
ATOM     15  C   UNL     1      17.322   7.399  44.580  1.00  0.00     0.000 C 
BRANCH  15  16
ATOM     16  C   UNL     1      18.075   7.537  43.245  1.00  0.00     0.006 C 
BRANCH  16  17
ATOM     17  C   UNL     1      18.014   8.967  42.692  1.00  0.00     0.053 C 
BRANCH  17  18
ATOM     18  C   UNL     1      17.098   9.067  41.511  1.00  0.00     0.041 C 
ATOM     19  O   UNL     1      17.475   8.660  40.381  1.00  0.00    -0.550 OA
ATOM     20  O   UNL     1      15.842   9.644  41.652  1.00  0.00    -0.550 OA
ENDBRANCH  17  18
ENDBRANCH  16  17
ENDBRANCH  15  16
ENDBRANCH  14  15
ENDBRANCH  13  14
ENDBRANCH  12  13
ENDBRANCH  11  12
ENDBRANCH   1  11
TORSDOF 15
ENDMDL
MODEL 7
REMARK VINA RESULT:    -4.468      3.571      6.962
REMARK INTER + INTRA:          -9.605
REMARK INTER:                  -8.069
REMARK INTRA:                  -1.535
REMARK UNBOUND:                -1.218
REMARK SMILES O=C([O-])CCCCCCCCCCCCCCC(=O)[O-]
REMARK SMILES IDX 10 1 9 2 8 3 7 4 6 5 5 6 4 7 2 8 1 9 3 10 11 11 12 12 13 13
REMARK SMILES IDX 14 14 15 15 16 16 17 17 18 18 19 19 20 20
REMARK H PARENT
REMARK Flexibility Score: inf
ROOT
ATOM      1  C   UNL     1      17.414   3.234  40.310  1.00  0.00     0.000 C 
ENDROOT
BRANCH   1   2
ATOM      2  C   UNL     1      16.818   4.153  41.385  1.00  0.00     0.000 C 
BRANCH   2   3
ATOM      3  C   UNL     1      16.479   5.553  40.846  1.00  0.00     0.000 C 
BRANCH   3   4
ATOM      4  C   UNL     1      15.167   6.106  41.422  1.00  0.00     0.000 C 
BRANCH   4   5
ATOM      5  C   UNL     1      13.959   5.345  40.864  1.00  0.00     0.000 C 
BRANCH   5   6
ATOM      6  C   UNL     1      13.218   4.595  41.978  1.00  0.00     0.006 C 
BRANCH   6   7
ATOM      7  C   UNL     1      12.227   3.584  41.396  1.00  0.00     0.053 C 
BRANCH   7   8
ATOM      8  C   UNL     1      11.116   4.289  40.683  1.00  0.00     0.041 C 
ATOM      9  O   UNL     1      10.925   4.091  39.455  1.00  0.00    -0.550 OA
ATOM     10  O   UNL     1      10.322   5.203  41.364  1.00  0.00    -0.550 OA
ENDBRANCH   7   8
ENDBRANCH   6   7
ENDBRANCH   5   6
ENDBRANCH   4   5
ENDBRANCH   3   4
ENDBRANCH   2   3
ENDBRANCH   1   2
BRANCH   1  11
ATOM     11  C   UNL     1      17.176   1.758  40.655  1.00  0.00     0.000 C 
BRANCH  11  12
ATOM     12  C   UNL     1      15.676   1.428  40.653  1.00  0.00     0.000 C 
BRANCH  12  13
ATOM     13  C   UNL     1      15.391  -0.039  41.012  1.00  0.00     0.000 C 
BRANCH  13  14
ATOM     14  C   UNL     1      14.265  -0.647  40.156  1.00  0.00     0.000 C 
BRANCH  14  15
ATOM     15  C   UNL     1      13.092  -1.162  41.005  1.00  0.00     0.000 C 
BRANCH  15  16
ATOM     16  C   UNL     1      12.297  -0.026  41.674  1.00  0.00     0.006 C 
BRANCH  16  17
ATOM     17  C   UNL     1      10.782  -0.253  41.589  1.00  0.00     0.053 C 
BRANCH  17  18
ATOM     18  C   UNL     1      10.167   0.517  40.461  1.00  0.00     0.041 C 
ATOM     19  O   UNL     1       8.964   0.882  40.524  1.00  0.00    -0.550 OA
ATOM     20  O   UNL     1      10.914   0.799  39.324  1.00  0.00    -0.550 OA
ENDBRANCH  17  18
ENDBRANCH  16  17
ENDBRANCH  15  16
ENDBRANCH  14  15
ENDBRANCH  13  14
ENDBRANCH  12  13
ENDBRANCH  11  12
ENDBRANCH   1  11
TORSDOF 15
ENDMDL
MODEL 8
REMARK VINA RESULT:    -4.460      3.828      5.363
REMARK INTER + INTRA:          -9.590
REMARK INTER:                  -8.722
REMARK INTRA:                  -0.868
REMARK UNBOUND:                -1.218
REMARK SMILES O=C([O-])CCCCCCCCCCCCCCC(=O)[O-]
REMARK SMILES IDX 10 1 9 2 8 3 7 4 6 5 5 6 4 7 2 8 1 9 3 10 11 11 12 12 13 13
REMARK SMILES IDX 14 14 15 15 16 16 17 17 18 18 19 19 20 20
REMARK H PARENT
REMARK Flexibility Score: inf
ROOT
ATOM      1  C   UNL     1      16.824   1.376  40.640  1.00  0.00     0.000 C 
ENDROOT
BRANCH   1   2
ATOM      2  C   UNL     1      15.377   0.977  40.964  1.00  0.00     0.000 C 
BRANCH   2   3
ATOM      3  C   UNL     1      15.175  -0.547  40.992  1.00  0.00     0.000 C 
BRANCH   3   4
ATOM      4  C   UNL     1      13.719  -0.945  41.273  1.00  0.00     0.000 C 
BRANCH   4   5
ATOM      5  C   UNL     1      12.845  -0.741  40.029  1.00  0.00     0.000 C 
BRANCH   5   6
ATOM      6  C   UNL     1      11.355  -0.811  40.386  1.00  0.00     0.006 C 
BRANCH   6   7
ATOM      7  C   UNL     1      11.075  -0.105  41.716  1.00  0.00     0.053 C 
BRANCH   7   8
ATOM      8  C   UNL     1      10.255   1.127  41.493  1.00  0.00     0.041 C 
ATOM      9  O   UNL     1       9.931   1.469  40.326  1.00  0.00    -0.550 OA
ATOM     10  O   UNL     1       9.888   1.923  42.571  1.00  0.00    -0.550 OA
ENDBRANCH   7   8
ENDBRANCH   6   7
ENDBRANCH   5   6
ENDBRANCH   4   5
ENDBRANCH   3   4
ENDBRANCH   2   3
ENDBRANCH   1   2
BRANCH   1  11
ATOM     11  C   UNL     1      17.253   2.601  41.457  1.00  0.00     0.000 C 
BRANCH  11  12
ATOM     12  C   UNL     1      17.251   3.868  40.590  1.00  0.00     0.000 C 
BRANCH  12  13
ATOM     13  C   UNL     1      15.960   4.689  40.741  1.00  0.00     0.000 C 
BRANCH  13  14
ATOM     14  C   UNL     1      16.236   6.190  40.936  1.00  0.00     0.000 C 
BRANCH  14  15
ATOM     15  C   UNL     1      17.497   6.454  41.774  1.00  0.00     0.000 C 
BRANCH  15  16
ATOM     16  C   UNL     1      17.847   7.950  41.869  1.00  0.00     0.006 C 
BRANCH  16  17
ATOM     17  C   UNL     1      16.924   8.816  41.002  1.00  0.00     0.053 C 
BRANCH  17  18
ATOM     18  C   UNL     1      16.122   9.772  41.829  1.00  0.00     0.041 C 
ATOM     19  O   UNL     1      15.890  10.936  41.407  1.00  0.00    -0.550 OA
ATOM     20  O   UNL     1      15.660   9.390  43.082  1.00  0.00    -0.550 OA
ENDBRANCH  17  18
ENDBRANCH  16  17
ENDBRANCH  15  16
ENDBRANCH  14  15
ENDBRANCH  13  14
ENDBRANCH  12  13
ENDBRANCH  11  12
ENDBRANCH   1  11
TORSDOF 15
ENDMDL
MODEL 9
REMARK VINA RESULT:    -4.402      4.012      5.959
REMARK INTER + INTRA:          -9.480
REMARK INTER:                  -7.201
REMARK INTRA:                  -2.280
REMARK UNBOUND:                -1.218
REMARK SMILES O=C([O-])CCCCCCCCCCCCCCC(=O)[O-]
REMARK SMILES IDX 10 1 9 2 8 3 7 4 6 5 5 6 4 7 2 8 1 9 3 10 11 11 12 12 13 13
REMARK SMILES IDX 14 14 15 15 16 16 17 17 18 18 19 19 20 20
REMARK H PARENT
REMARK Flexibility Score: inf
ROOT
ATOM      1  C   UNL     1      14.037   7.563  42.724  1.00  0.00     0.000 C 
ENDROOT
BRANCH   1   2
ATOM      2  C   UNL     1      14.707   6.356  43.396  1.00  0.00     0.000 C 
BRANCH   2   3
ATOM      3  C   UNL     1      14.830   5.147  42.454  1.00  0.00     0.000 C 
BRANCH   3   4
ATOM      4  C   UNL     1      15.193   5.552  41.017  1.00  0.00     0.000 C 
BRANCH   4   5
ATOM      5  C   UNL     1      16.626   5.128  40.674  1.00  0.00     0.000 C 
BRANCH   5   6
ATOM      6  C   UNL     1      16.751   3.600  40.629  1.00  0.00     0.006 C 
BRANCH   6   7
ATOM      7  C   UNL     1      17.792   3.104  41.637  1.00  0.00     0.053 C 
BRANCH   7   8
ATOM      8  C   UNL     1      19.092   2.819  40.952  1.00  0.00     0.041 C 
ATOM      9  O   UNL     1      19.116   2.120  39.905  1.00  0.00    -0.550 OA
ATOM     10  O   UNL     1      20.281   3.284  41.497  1.00  0.00    -0.550 OA
ENDBRANCH   7   8
ENDBRANCH   6   7
ENDBRANCH   5   6
ENDBRANCH   4   5
ENDBRANCH   3   4
ENDBRANCH   2   3
ENDBRANCH   1   2
BRANCH   1  11
ATOM     11  C   UNL     1      14.797   8.858  43.038  1.00  0.00     0.000 C 
BRANCH  11  12
ATOM     12  C   UNL     1      15.082   9.653  41.755  1.00  0.00     0.000 C 
BRANCH  12  13
ATOM     13  C   UNL     1      16.533   9.500  41.272  1.00  0.00     0.000 C 
BRANCH  13  14
ATOM     14  C   UNL     1      17.500   9.140  42.414  1.00  0.00     0.000 C 
BRANCH  14  15
ATOM     15  C   UNL     1      18.419   7.961  42.058  1.00  0.00     0.000 C 
BRANCH  15  16
ATOM     16  C   UNL     1      18.473   6.893  43.166  1.00  0.00     0.006 C 
BRANCH  16  17
ATOM     17  C   UNL     1      18.197   7.486  44.554  1.00  0.00     0.053 C 
BRANCH  17  18
ATOM     18  C   UNL     1      19.458   7.932  45.228  1.00  0.00     0.041 C 
ATOM     19  O   UNL     1      19.528   9.076  45.748  1.00  0.00    -0.550 OA
ATOM     20  O   UNL     1      20.568   7.096  45.250  1.00  0.00    -0.550 OA
ENDBRANCH  17  18
ENDBRANCH  16  17
ENDBRANCH  15  16
ENDBRANCH  14  15
ENDBRANCH  13  14
ENDBRANCH  12  13
ENDBRANCH  11  12
ENDBRANCH   1  11
TORSDOF 15
ENDMDL
