MODEL 1
REMARK VINA RESULT:    -4.161      0.000      0.000
REMARK INTER + INTRA:          -9.935
REMARK INTER:                  -7.566
REMARK INTRA:                  -2.369
REMARK UNBOUND:                -2.369
REMARK SMILES CCCCCCCCCCCCCCCC(=O)[O-]
REMARK SMILES IDX 9 1 10 2 11 3 12 4 13 5 14 6 15 7 16 8 17 9 18 10 8 11 7 12
REMARK SMILES IDX 6 13 5 14 4 15 3 16 2 17 1 18
REMARK H PARENT
REMARK Flexibility Score: inf
ROOT
ATOM      1  C   UNL     1      18.641  48.790  46.611  1.00  0.00     0.000 C 
ENDROOT
BRANCH   1   2
ATOM      2  C   UNL     1      19.924  49.000  47.434  1.00  0.00     0.000 C 
BRANCH   2   3
ATOM      3  C   UNL     1      20.889  50.004  46.787  1.00  0.00     0.000 C 
BRANCH   3   4
ATOM      4  C   UNL     1      20.807  49.938  45.257  1.00  0.00     0.000 C 
BRANCH   4   5
ATOM      5  C   UNL     1      22.063  49.289  44.665  1.00  0.00     0.000 C 
BRANCH   5   6
ATOM      6  C   UNL     1      21.698  48.086  43.784  1.00  0.00     0.006 C 
BRANCH   6   7
ATOM      7  C   UNL     1      21.312  46.855  44.612  1.00  0.00     0.053 C 
BRANCH   7   8
ATOM      8  C   UNL     1      21.207  45.624  43.764  1.00  0.00     0.041 C 
ATOM      9  O   UNL     1      20.393  45.583  42.804  1.00  0.00    -0.550 OA
ATOM     10  O   UNL     1      21.986  44.512  44.055  1.00  0.00    -0.550 OA
ENDBRANCH   7   8
ENDBRANCH   6   7
ENDBRANCH   5   6
ENDBRANCH   4   5
ENDBRANCH   3   4
ENDBRANCH   2   3
ENDBRANCH   1   2
BRANCH   1  11
ATOM     11  C   UNL     1      17.484  49.751  46.947  1.00  0.00     0.000 C 
BRANCH  11  12
ATOM     12  C   UNL     1      16.229  49.606  46.062  1.00  0.00    -0.000 C 
BRANCH  12  13
ATOM     13  C   UNL     1      16.135  50.613  44.899  1.00  0.00    -0.000 C 
BRANCH  13  14
ATOM     14  C   UNL     1      17.455  51.335  44.568  1.00  0.00    -0.000 C 
BRANCH  14  15
ATOM     15  C   UNL     1      18.028  50.971  43.178  1.00  0.00    -0.000 C 
BRANCH  15  16
ATOM     16  C   UNL     1      17.438  49.678  42.586  1.00  0.00    -0.000 C 
BRANCH  16  17
ATOM     17  C   UNL     1      18.259  48.436  42.960  1.00  0.00    -0.003 C 
ATOM     18  C   UNL     1      17.350  47.281  43.370  1.00  0.00     0.004 C 
ENDBRANCH  16  17
ENDBRANCH  15  16
ENDBRANCH  14  15
ENDBRANCH  13  14
ENDBRANCH  12  13
ENDBRANCH  11  12
ENDBRANCH   1  11
TORSDOF 14
ENDMDL
MODEL 2
REMARK VINA RESULT:    -4.154      2.659      4.905
REMARK INTER + INTRA:          -9.923
REMARK INTER:                  -7.483
REMARK INTRA:                  -2.441
REMARK UNBOUND:                -2.369
REMARK SMILES CCCCCCCCCCCCCCCC(=O)[O-]
REMARK SMILES IDX 9 1 10 2 11 3 12 4 13 5 14 6 15 7 16 8 17 9 18 10 8 11 7 12
REMARK SMILES IDX 6 13 5 14 4 15 3 16 2 17 1 18
REMARK H PARENT
REMARK Flexibility Score: inf
ROOT
ATOM      1  C   UNL     1      19.467  47.941  48.053  1.00  0.00     0.000 C 
ENDROOT
BRANCH   1   2
ATOM      2  C   UNL     1      18.090  47.728  47.399  1.00  0.00     0.000 C 
BRANCH   2   3
ATOM      3  C   UNL     1      18.143  46.773  46.197  1.00  0.00     0.000 C 
BRANCH   3   4
ATOM      4  C   UNL     1      17.446  47.388  44.977  1.00  0.00     0.000 C 
BRANCH   4   5
ATOM      5  C   UNL     1      16.623  48.618  45.374  1.00  0.00     0.000 C 
BRANCH   5   6
ATOM      6  C   UNL     1      16.822  49.762  44.370  1.00  0.00     0.006 C 
BRANCH   6   7
ATOM      7  C   UNL     1      17.144  49.249  42.960  1.00  0.00     0.053 C 
BRANCH   7   8
ATOM      8  C   UNL     1      17.354  50.375  41.994  1.00  0.00     0.041 C 
ATOM      9  O   UNL     1      18.128  51.324  42.284  1.00  0.00    -0.550 OA
ATOM     10  O   UNL     1      16.667  50.390  40.787  1.00  0.00    -0.550 OA
ENDBRANCH   7   8
ENDBRANCH   6   7
ENDBRANCH   5   6
ENDBRANCH   4   5
ENDBRANCH   3   4
ENDBRANCH   2   3
ENDBRANCH   1   2
BRANCH   1  11
ATOM     11  C   UNL     1      20.075  49.343  47.853  1.00  0.00     0.000 C 
BRANCH  11  12
ATOM     12  C   UNL     1      19.971  49.907  46.422  1.00  0.00    -0.000 C 
BRANCH  12  13
ATOM     13  C   UNL     1      21.125  49.512  45.482  1.00  0.00    -0.000 C 
BRANCH  13  14
ATOM     14  C   UNL     1      20.736  49.413  43.994  1.00  0.00    -0.000 C 
BRANCH  14  15
ATOM     15  C   UNL     1      20.617  47.959  43.482  1.00  0.00    -0.000 C 
BRANCH  15  16
ATOM     16  C   UNL     1      21.378  46.935  44.344  1.00  0.00    -0.000 C 
BRANCH  16  17
ATOM     17  C   UNL     1      20.903  45.496  44.096  1.00  0.00    -0.003 C 
ATOM     18  C   UNL     1      22.042  44.501  44.302  1.00  0.00     0.004 C 
ENDBRANCH  16  17
ENDBRANCH  15  16
ENDBRANCH  14  15
ENDBRANCH  13  14
ENDBRANCH  12  13
ENDBRANCH  11  12
ENDBRANCH   1  11
TORSDOF 14
ENDMDL
MODEL 3
REMARK VINA RESULT:    -4.127      2.107      5.181
REMARK INTER + INTRA:          -9.874
REMARK INTER:                  -7.385
REMARK INTRA:                  -2.489
REMARK UNBOUND:                -2.369
REMARK SMILES CCCCCCCCCCCCCCCC(=O)[O-]
REMARK SMILES IDX 9 1 10 2 11 3 12 4 13 5 14 6 15 7 16 8 17 9 18 10 8 11 7 12
REMARK SMILES IDX 6 13 5 14 4 15 3 16 2 17 1 18
REMARK H PARENT
REMARK Flexibility Score: inf
ROOT
ATOM      1  C   UNL     1      19.619  46.973  46.761  1.00  0.00     0.000 C 
ENDROOT
BRANCH   1   2
ATOM      2  C   UNL     1      18.256  47.652  46.981  1.00  0.00     0.000 C 
BRANCH   2   3
ATOM      3  C   UNL     1      17.782  48.446  45.754  1.00  0.00     0.000 C 
BRANCH   3   4
ATOM      4  C   UNL     1      16.995  49.693  46.177  1.00  0.00     0.000 C 
BRANCH   4   5
ATOM      5  C   UNL     1      16.745  50.619  44.982  1.00  0.00     0.000 C 
BRANCH   5   6
ATOM      6  C   UNL     1      18.066  51.029  44.315  1.00  0.00     0.006 C 
BRANCH   6   7
ATOM      7  C   UNL     1      17.992  50.955  42.785  1.00  0.00     0.053 C 
BRANCH   7   8
ATOM      8  C   UNL     1      17.152  49.803  42.324  1.00  0.00     0.041 C 
ATOM      9  O   UNL     1      17.619  48.634  42.329  1.00  0.00    -0.550 OA
ATOM     10  O   UNL     1      15.863  50.028  41.858  1.00  0.00    -0.550 OA
ENDBRANCH   7   8
ENDBRANCH   6   7
ENDBRANCH   5   6
ENDBRANCH   4   5
ENDBRANCH   3   4
ENDBRANCH   2   3
ENDBRANCH   1   2
BRANCH   1  11
ATOM     11  C   UNL     1      19.891  46.505  45.318  1.00  0.00     0.000 C 
BRANCH  11  12
ATOM     12  C   UNL     1      21.194  47.038  44.688  1.00  0.00    -0.000 C 
BRANCH  12  13
ATOM     13  C   UNL     1      21.008  48.210  43.705  1.00  0.00    -0.000 C 
BRANCH  13  14
ATOM     14  C   UNL     1      21.365  49.593  44.282  1.00  0.00    -0.000 C 
BRANCH  14  15
ATOM     15  C   UNL     1      22.566  49.567  45.254  1.00  0.00    -0.000 C 
BRANCH  15  16
ATOM     16  C   UNL     1      22.226  50.064  46.671  1.00  0.00    -0.000 C 
BRANCH  16  17
ATOM     17  C   UNL     1      20.753  50.479  46.807  1.00  0.00    -0.003 C 
ATOM     18  C   UNL     1      20.307  50.446  48.265  1.00  0.00     0.004 C 
ENDBRANCH  16  17
ENDBRANCH  15  16
ENDBRANCH  14  15
ENDBRANCH  13  14
ENDBRANCH  12  13
ENDBRANCH  11  12
ENDBRANCH   1  11
TORSDOF 14
ENDMDL
MODEL 4
REMARK VINA RESULT:    -4.124      1.846      4.288
REMARK INTER + INTRA:          -9.868
REMARK INTER:                  -7.304
REMARK INTRA:                  -2.564
REMARK UNBOUND:                -2.369
REMARK SMILES CCCCCCCCCCCCCCCC(=O)[O-]
REMARK SMILES IDX 9 1 10 2 11 3 12 4 13 5 14 6 15 7 16 8 17 9 18 10 8 11 7 12
REMARK SMILES IDX 6 13 5 14 4 15 3 16 2 17 1 18
REMARK H PARENT
REMARK Flexibility Score: inf
ROOT
ATOM      1  C   UNL     1      18.450  49.406  47.798  1.00  0.00     0.000 C 
ENDROOT
BRANCH   1   2
ATOM      2  C   UNL     1      19.745  49.990  47.206  1.00  0.00     0.000 C 
BRANCH   2   3
ATOM      3  C   UNL     1      19.496  50.853  45.960  1.00  0.00     0.000 C 
BRANCH   3   4
ATOM      4  C   UNL     1      18.142  50.518  45.323  1.00  0.00     0.000 C 
BRANCH   4   5
ATOM      5  C   UNL     1      18.086  50.993  43.866  1.00  0.00     0.000 C 
BRANCH   5   6
ATOM      6  C   UNL     1      17.981  49.802  42.902  1.00  0.00     0.006 C 
BRANCH   6   7
ATOM      7  C   UNL     1      17.042  48.710  43.428  1.00  0.00     0.053 C 
BRANCH   7   8
ATOM      8  C   UNL     1      16.897  47.584  42.450  1.00  0.00     0.041 C 
ATOM      9  O   UNL     1      15.758  47.253  42.028  1.00  0.00    -0.550 OA
ATOM     10  O   UNL     1      18.019  46.880  42.031  1.00  0.00    -0.550 OA
ENDBRANCH   7   8
ENDBRANCH   6   7
ENDBRANCH   5   6
ENDBRANCH   4   5
ENDBRANCH   3   4
ENDBRANCH   2   3
ENDBRANCH   1   2
BRANCH   1  11
ATOM     11  C   UNL     1      18.409  47.868  47.889  1.00  0.00     0.000 C 
BRANCH  11  12
ATOM     12  C   UNL     1      19.511  47.132  47.099  1.00  0.00    -0.000 C 
BRANCH  12  13
ATOM     13  C   UNL     1      19.102  46.677  45.685  1.00  0.00    -0.000 C 
BRANCH  13  14
ATOM     14  C   UNL     1      20.273  46.542  44.692  1.00  0.00    -0.000 C 
BRANCH  14  15
ATOM     15  C   UNL     1      21.343  47.647  44.843  1.00  0.00    -0.000 C 
BRANCH  15  16
ATOM     16  C   UNL     1      21.363  48.651  43.677  1.00  0.00    -0.000 C 
BRANCH  16  17
ATOM     17  C   UNL     1      22.441  49.732  43.854  1.00  0.00    -0.003 C 
ATOM     18  C   UNL     1      22.972  49.745  45.284  1.00  0.00     0.004 C 
ENDBRANCH  16  17
ENDBRANCH  15  16
ENDBRANCH  14  15
ENDBRANCH  13  14
ENDBRANCH  12  13
ENDBRANCH  11  12
ENDBRANCH   1  11
TORSDOF 14
ENDMDL
MODEL 5
REMARK VINA RESULT:    -4.112      2.671      4.895
REMARK INTER + INTRA:          -9.846
REMARK INTER:                  -7.919
REMARK INTRA:                  -1.927
REMARK UNBOUND:                -2.369
REMARK SMILES CCCCCCCCCCCCCCCC(=O)[O-]
REMARK SMILES IDX 9 1 10 2 11 3 12 4 13 5 14 6 15 7 16 8 17 9 18 10 8 11 7 12
REMARK SMILES IDX 6 13 5 14 4 15 3 16 2 17 1 18
REMARK H PARENT
REMARK Flexibility Score: inf
ROOT
ATOM      1  C   UNL     1      19.440  48.175  47.287  1.00  0.00     0.000 C 
ENDROOT
BRANCH   1   2
ATOM      2  C   UNL     1      17.911  48.320  47.194  1.00  0.00     0.000 C 
BRANCH   2   3
ATOM      3  C   UNL     1      17.469  49.750  46.847  1.00  0.00     0.000 C 
BRANCH   3   4
ATOM      4  C   UNL     1      16.741  49.787  45.498  1.00  0.00     0.000 C 
BRANCH   4   5
ATOM      5  C   UNL     1      16.906  51.152  44.820  1.00  0.00     0.000 C 
BRANCH   5   6
ATOM      6  C   UNL     1      18.010  51.108  43.754  1.00  0.00     0.006 C 
BRANCH   6   7
ATOM      7  C   UNL     1      17.863  49.905  42.814  1.00  0.00     0.053 C 
BRANCH   7   8
ATOM      8  C   UNL     1      16.955  50.207  41.662  1.00  0.00     0.041 C 
ATOM      9  O   UNL     1      17.338  50.968  40.735  1.00  0.00    -0.550 OA
ATOM     10  O   UNL     1      15.673  49.675  41.630  1.00  0.00    -0.550 OA
ENDBRANCH   7   8
ENDBRANCH   6   7
ENDBRANCH   5   6
ENDBRANCH   4   5
ENDBRANCH   3   4
ENDBRANCH   2   3
ENDBRANCH   1   2
BRANCH   1  11
ATOM     11  C   UNL     1      20.180  49.402  47.856  1.00  0.00     0.000 C 
BRANCH  11  12
ATOM     12  C   UNL     1      21.119  50.122  46.866  1.00  0.00    -0.000 C 
BRANCH  12  13
ATOM     13  C   UNL     1      20.907  49.753  45.385  1.00  0.00    -0.000 C 
BRANCH  13  14
ATOM     14  C   UNL     1      22.072  48.973  44.746  1.00  0.00    -0.000 C 
BRANCH  14  15
ATOM     15  C   UNL     1      21.688  48.252  43.433  1.00  0.00    -0.000 C 
BRANCH  15  16
ATOM     16  C   UNL     1      20.565  47.213  43.604  1.00  0.00    -0.000 C 
BRANCH  16  17
ATOM     17  C   UNL     1      20.911  46.146  44.654  1.00  0.00    -0.003 C 
ATOM     18  C   UNL     1      21.681  44.989  44.026  1.00  0.00     0.004 C 
ENDBRANCH  16  17
ENDBRANCH  15  16
ENDBRANCH  14  15
ENDBRANCH  13  14
ENDBRANCH  12  13
ENDBRANCH  11  12
ENDBRANCH   1  11
TORSDOF 14
ENDMDL
MODEL 6
REMARK VINA RESULT:    -4.088      1.911      4.755
REMARK INTER + INTRA:          -9.802
REMARK INTER:                  -7.463
REMARK INTRA:                  -2.339
REMARK UNBOUND:                -2.369
REMARK SMILES CCCCCCCCCCCCCCCC(=O)[O-]
REMARK SMILES IDX 9 1 10 2 11 3 12 4 13 5 14 6 15 7 16 8 17 9 18 10 8 11 7 12
REMARK SMILES IDX 6 13 5 14 4 15 3 16 2 17 1 18
REMARK H PARENT
REMARK Flexibility Score: inf
ROOT
ATOM      1  C   UNL     1      18.488  47.775  47.388  1.00  0.00     0.000 C 
ENDROOT
BRANCH   1   2
ATOM      2  C   UNL     1      17.631  48.362  46.253  1.00  0.00     0.000 C 
BRANCH   2   3
ATOM      3  C   UNL     1      17.288  49.843  46.469  1.00  0.00     0.000 C 
BRANCH   3   4
ATOM      4  C   UNL     1      16.728  50.470  45.187  1.00  0.00     0.000 C 
BRANCH   4   5
ATOM      5  C   UNL     1      17.811  51.252  44.436  1.00  0.00     0.000 C 
BRANCH   5   6
ATOM      6  C   UNL     1      18.312  50.468  43.215  1.00  0.00     0.006 C 
BRANCH   6   7
ATOM      7  C   UNL     1      17.194  50.198  42.200  1.00  0.00     0.053 C 
BRANCH   7   8
ATOM      8  C   UNL     1      17.053  48.736  41.904  1.00  0.00     0.041 C 
ATOM      9  O   UNL     1      16.538  48.355  40.821  1.00  0.00    -0.550 OA
ATOM     10  O   UNL     1      17.462  47.796  42.841  1.00  0.00    -0.550 OA
ENDBRANCH   7   8
ENDBRANCH   6   7
ENDBRANCH   5   6
ENDBRANCH   4   5
ENDBRANCH   3   4
ENDBRANCH   2   3
ENDBRANCH   1   2
BRANCH   1  11
ATOM     11  C   UNL     1      19.559  46.761  46.941  1.00  0.00     0.000 C 
BRANCH  11  12
ATOM     12  C   UNL     1      19.620  46.494  45.423  1.00  0.00    -0.000 C 
BRANCH  12  13
ATOM     13  C   UNL     1      20.967  46.832  44.757  1.00  0.00    -0.000 C 
BRANCH  13  14
ATOM     14  C   UNL     1      20.885  47.894  43.644  1.00  0.00    -0.000 C 
BRANCH  14  15
ATOM     15  C   UNL     1      21.899  49.049  43.815  1.00  0.00    -0.000 C 
BRANCH  15  16
ATOM     16  C   UNL     1      22.176  49.417  45.284  1.00  0.00    -0.000 C 
BRANCH  16  17
ATOM     17  C   UNL     1      20.984  50.128  45.943  1.00  0.00    -0.003 C 
ATOM     18  C   UNL     1      21.193  50.266  47.448  1.00  0.00     0.004 C 
ENDBRANCH  16  17
ENDBRANCH  15  16
ENDBRANCH  14  15
ENDBRANCH  13  14
ENDBRANCH  12  13
ENDBRANCH  11  12
ENDBRANCH   1  11
TORSDOF 14
ENDMDL
MODEL 7
REMARK VINA RESULT:    -4.035      2.762      3.869
REMARK INTER + INTRA:          -9.706
REMARK INTER:                  -7.410
REMARK INTRA:                  -2.296
REMARK UNBOUND:                -2.369
REMARK SMILES CCCCCCCCCCCCCCCC(=O)[O-]
REMARK SMILES IDX 9 1 10 2 11 3 12 4 13 5 14 6 15 7 16 8 17 9 18 10 8 11 7 12
REMARK SMILES IDX 6 13 5 14 4 15 3 16 2 17 1 18
REMARK H PARENT
REMARK Flexibility Score: inf
ROOT
ATOM      1  C   UNL     1      19.566  46.726  45.193  1.00  0.00     0.000 C 
ENDROOT
BRANCH   1   2
ATOM      2  C   UNL     1      20.923  46.375  44.559  1.00  0.00     0.000 C 
BRANCH   2   3
ATOM      3  C   UNL     1      21.298  47.310  43.399  1.00  0.00     0.000 C 
BRANCH   3   4
ATOM      4  C   UNL     1      21.007  48.772  43.755  1.00  0.00     0.000 C 
BRANCH   4   5
ATOM      5  C   UNL     1      22.307  49.571  43.910  1.00  0.00     0.000 C 
BRANCH   5   6
ATOM      6  C   UNL     1      22.674  49.744  45.391  1.00  0.00     0.006 C 
BRANCH   6   7
ATOM      7  C   UNL     1      21.436  49.782  46.296  1.00  0.00     0.053 C 
BRANCH   7   8
ATOM      8  C   UNL     1      21.668  50.616  47.519  1.00  0.00     0.041 C 
ATOM      9  O   UNL     1      20.717  51.256  48.040  1.00  0.00    -0.550 OA
ATOM     10  O   UNL     1      22.942  50.712  48.063  1.00  0.00    -0.550 OA
ENDBRANCH   7   8
ENDBRANCH   6   7
ENDBRANCH   5   6
ENDBRANCH   4   5
ENDBRANCH   3   4
ENDBRANCH   2   3
ENDBRANCH   1   2
BRANCH   1  11
ATOM     11  C   UNL     1      19.544  46.719  46.734  1.00  0.00     0.000 C 
BRANCH  11  12
ATOM     12  C   UNL     1      18.490  47.639  47.382  1.00  0.00    -0.000 C 
BRANCH  12  13
ATOM     13  C   UNL     1      17.458  48.234  46.405  1.00  0.00    -0.000 C 
BRANCH  13  14
ATOM     14  C   UNL     1      17.397  49.773  46.394  1.00  0.00    -0.000 C 
BRANCH  14  15
ATOM     15  C   UNL     1      18.046  50.410  45.143  1.00  0.00    -0.000 C 
BRANCH  15  16
ATOM     16  C   UNL     1      17.091  50.524  43.941  1.00  0.00    -0.000 C 
BRANCH  16  17
ATOM     17  C   UNL     1      17.679  49.899  42.667  1.00  0.00    -0.003 C 
ATOM     18  C   UNL     1      17.482  48.387  42.657  1.00  0.00     0.004 C 
ENDBRANCH  16  17
ENDBRANCH  15  16
ENDBRANCH  14  15
ENDBRANCH  13  14
ENDBRANCH  12  13
ENDBRANCH  11  12
ENDBRANCH   1  11
TORSDOF 14
ENDMDL
MODEL 8
REMARK VINA RESULT:    -4.020      2.686      5.201
REMARK INTER + INTRA:          -9.679
REMARK INTER:                  -7.336
REMARK INTRA:                  -2.343
REMARK UNBOUND:                -2.369
REMARK SMILES CCCCCCCCCCCCCCCC(=O)[O-]
REMARK SMILES IDX 9 1 10 2 11 3 12 4 13 5 14 6 15 7 16 8 17 9 18 10 8 11 7 12
REMARK SMILES IDX 6 13 5 14 4 15 3 16 2 17 1 18
REMARK H PARENT
REMARK Flexibility Score: inf
ROOT
ATOM      1  C   UNL     1      19.425  49.754  46.825  1.00  0.00     0.000 C 
ENDROOT
BRANCH   1   2
ATOM      2  C   UNL     1      18.188  50.032  45.954  1.00  0.00     0.000 C 
BRANCH   2   3
ATOM      3  C   UNL     1      18.400  51.193  44.970  1.00  0.00     0.000 C 
BRANCH   3   4
ATOM      4  C   UNL     1      18.082  50.761  43.534  1.00  0.00     0.000 C 
BRANCH   4   5
ATOM      5  C   UNL     1      17.364  49.407  43.511  1.00  0.00     0.000 C 
BRANCH   5   6
ATOM      6  C   UNL     1      15.983  49.526  42.851  1.00  0.00     0.006 C 
BRANCH   6   7
ATOM      7  C   UNL     1      14.865  49.747  43.877  1.00  0.00     0.053 C 
BRANCH   7   8
ATOM      8  C   UNL     1      14.806  48.638  44.883  1.00  0.00     0.041 C 
ATOM      9  O   UNL     1      14.912  48.891  46.112  1.00  0.00    -0.550 OA
ATOM     10  O   UNL     1      14.669  47.323  44.458  1.00  0.00    -0.550 OA
ENDBRANCH   7   8
ENDBRANCH   6   7
ENDBRANCH   5   6
ENDBRANCH   4   5
ENDBRANCH   3   4
ENDBRANCH   2   3
ENDBRANCH   1   2
BRANCH   1  11
ATOM     11  C   UNL     1      19.799  48.266  46.973  1.00  0.00     0.000 C 
BRANCH  11  12
ATOM     12  C   UNL     1      18.864  47.277  46.248  1.00  0.00    -0.000 C 
BRANCH  12  13
ATOM     13  C   UNL     1      19.438  46.666  44.956  1.00  0.00    -0.000 C 
BRANCH  13  14
ATOM     14  C   UNL     1      20.969  46.775  44.821  1.00  0.00    -0.000 C 
BRANCH  14  15
ATOM     15  C   UNL     1      21.426  47.572  43.578  1.00  0.00    -0.000 C 
BRANCH  15  16
ATOM     16  C   UNL     1      21.241  49.094  43.716  1.00  0.00    -0.000 C 
BRANCH  16  17
ATOM     17  C   UNL     1      22.573  49.827  43.934  1.00  0.00    -0.003 C 
ATOM     18  C   UNL     1      22.967  49.821  45.409  1.00  0.00     0.004 C 
ENDBRANCH  16  17
ENDBRANCH  15  16
ENDBRANCH  14  15
ENDBRANCH  13  14
ENDBRANCH  12  13
ENDBRANCH  11  12
ENDBRANCH   1  11
TORSDOF 14
ENDMDL
MODEL 9
REMARK VINA RESULT:    -4.010      1.100      2.015
REMARK INTER + INTRA:          -9.662
REMARK INTER:                  -7.547
REMARK INTRA:                  -2.115
REMARK UNBOUND:                -2.369
REMARK SMILES CCCCCCCCCCCCCCCC(=O)[O-]
REMARK SMILES IDX 9 1 10 2 11 3 12 4 13 5 14 6 15 7 16 8 17 9 18 10 8 11 7 12
REMARK SMILES IDX 6 13 5 14 4 15 3 16 2 17 1 18
REMARK H PARENT
REMARK Flexibility Score: inf
ROOT
ATOM      1  C   UNL     1      19.802  48.597  47.994  1.00  0.00     0.000 C 
ENDROOT
BRANCH   1   2
ATOM      2  C   UNL     1      20.035  49.824  47.095  1.00  0.00     0.000 C 
BRANCH   2   3
ATOM      3  C   UNL     1      21.524  50.120  46.865  1.00  0.00     0.000 C 
BRANCH   3   4
ATOM      4  C   UNL     1      22.002  49.530  45.533  1.00  0.00     0.000 C 
BRANCH   4   5
ATOM      5  C   UNL     1      20.903  49.613  44.467  1.00  0.00     0.000 C 
BRANCH   5   6
ATOM      6  C   UNL     1      20.826  48.313  43.653  1.00  0.00     0.006 C 
BRANCH   6   7
ATOM      7  C   UNL     1      21.410  47.116  44.413  1.00  0.00     0.053 C 
BRANCH   7   8
ATOM      8  C   UNL     1      21.191  45.830  43.676  1.00  0.00     0.041 C 
ATOM      9  O   UNL     1      21.915  44.829  43.918  1.00  0.00    -0.550 OA
ATOM     10  O   UNL     1      20.209  45.749  42.698  1.00  0.00    -0.550 OA
ENDBRANCH   7   8
ENDBRANCH   6   7
ENDBRANCH   5   6
ENDBRANCH   4   5
ENDBRANCH   3   4
ENDBRANCH   2   3
ENDBRANCH   1   2
BRANCH   1  11
ATOM     11  C   UNL     1      19.050  47.429  47.324  1.00  0.00     0.000 C 
BRANCH  11  12
ATOM     12  C   UNL     1      18.121  47.827  46.159  1.00  0.00    -0.000 C 
BRANCH  12  13
ATOM     13  C   UNL     1      16.712  48.287  46.580  1.00  0.00    -0.000 C 
BRANCH  13  14
ATOM     14  C   UNL     1      16.354  49.725  46.157  1.00  0.00    -0.000 C 
BRANCH  14  15
ATOM     15  C   UNL     1      17.170  50.236  44.948  1.00  0.00    -0.000 C 
BRANCH  15  16
ATOM     16  C   UNL     1      16.595  49.805  43.587  1.00  0.00    -0.000 C 
BRANCH  16  17
ATOM     17  C   UNL     1      17.581  50.045  42.434  1.00  0.00    -0.003 C 
ATOM     18  C   UNL     1      16.840  50.340  41.133  1.00  0.00     0.004 C 
ENDBRANCH  16  17
ENDBRANCH  15  16
ENDBRANCH  14  15
ENDBRANCH  13  14
ENDBRANCH  12  13
ENDBRANCH  11  12
ENDBRANCH   1  11
TORSDOF 14
ENDMDL
