MODEL 1
REMARK VINA RESULT:    -4.937      0.000      0.000
REMARK INTER + INTRA:          -5.322
REMARK INTER:                  -5.226
REMARK INTRA:                  -0.096
REMARK UNBOUND:                -0.096
REMARK SMILES C=C(C)[C@H]1CC[C@H](C)[C@@]12CC=C(C)CC2
REMARK SMILES IDX 8 1 7 2 6 3 5 4 4 5 9 6 15 7 14 8 12 9 11 10 10 11 13 12
REMARK SMILES IDX 2 13 1 14 3 15
REMARK H PARENT
REMARK Flexibility Score: inf
ROOT
ATOM      1  C   UNL     1     135.856 134.933 133.588  1.00  0.00     0.008 C 
ATOM      2  C   UNL     1     134.882 134.579 134.728  1.00  0.00    -0.007 C 
ATOM      3  C   UNL     1     133.578 133.956 134.221  1.00  0.00     0.004 C 
ATOM      4  C   UNL     1     133.033 133.093 135.364  1.00  0.00     0.009 C 
ATOM      5  C   UNL     1     134.055 133.167 136.513  1.00  0.00     0.021 C 
ATOM      6  C   UNL     1     135.394 133.625 135.846  1.00  0.00    -0.017 C 
ATOM      7  C   UNL     1     136.124 132.346 135.245  1.00  0.00     0.012 C 
ATOM      8  C   UNL     1     137.426 131.983 135.976  1.00  0.00     0.031 C 
ATOM      9  C   UNL     1     138.311 133.203 136.044  1.00  0.00    -0.077 C 
ATOM     10  C   UNL     1     137.764 134.361 136.442  1.00  0.00    -0.027 C 
ATOM     11  C   UNL     1     136.320 134.389 136.858  1.00  0.00     0.035 C 
ATOM     12  C   UNL     1     139.746 133.155 135.599  1.00  0.00     0.039 C 
ENDROOT
BRANCH   5  13
ATOM     13  C   UNL     1     133.562 134.045 137.674  1.00  0.00    -0.077 C 
ATOM     14  C   UNL     1     132.769 135.115 137.488  1.00  0.00     0.008 C 
ATOM     15  C   UNL     1     133.964 133.701 139.087  1.00  0.00     0.039 C 
ENDBRANCH   5  13
TORSDOF 1
ENDMDL
MODEL 2
REMARK VINA RESULT:    -4.933      3.293      4.971
REMARK INTER + INTRA:          -5.318
REMARK INTER:                  -5.227
REMARK INTRA:                  -0.091
REMARK UNBOUND:                -0.096
REMARK SMILES C=C(C)[C@H]1CC[C@H](C)[C@@]12CC=C(C)CC2
REMARK SMILES IDX 8 1 7 2 6 3 5 4 4 5 9 6 15 7 14 8 12 9 11 10 10 11 13 12
REMARK SMILES IDX 2 13 1 14 3 15
REMARK H PARENT
REMARK Flexibility Score: inf
ROOT
ATOM      1  C   UNL     1     134.917 136.786 133.595  1.00  0.00     0.008 C 
ATOM      2  C   UNL     1     134.575 137.760 134.739  1.00  0.00    -0.007 C 
ATOM      3  C   UNL     1     133.954 139.066 134.239  1.00  0.00     0.004 C 
ATOM      4  C   UNL     1     133.101 139.613 135.388  1.00  0.00     0.009 C 
ATOM      5  C   UNL     1     133.179 138.588 136.535  1.00  0.00     0.021 C 
ATOM      6  C   UNL     1     133.627 137.249 135.862  1.00  0.00    -0.017 C 
ATOM      7  C   UNL     1     132.341 136.525 135.270  1.00  0.00     0.012 C 
ATOM      8  C   UNL     1     131.979 135.224 136.001  1.00  0.00     0.031 C 
ATOM      9  C   UNL     1     133.195 134.334 136.059  1.00  0.00    -0.077 C 
ATOM     10  C   UNL     1     134.358 134.875 136.450  1.00  0.00    -0.027 C 
ATOM     11  C   UNL     1     134.395 136.319 136.868  1.00  0.00     0.035 C 
ATOM     12  C   UNL     1     133.139 132.900 135.612  1.00  0.00     0.039 C 
ENDROOT
BRANCH   5  13
ATOM     13  C   UNL     1     134.068 139.076 137.691  1.00  0.00    -0.077 C 
ATOM     14  C   UNL     1     135.130 139.880 137.501  1.00  0.00     0.008 C 
ATOM     15  C   UNL     1     133.744 138.658 139.104  1.00  0.00     0.039 C 
ENDBRANCH   5  13
TORSDOF 1
ENDMDL
MODEL 3
REMARK VINA RESULT:    -4.933      3.309      4.948
REMARK INTER + INTRA:          -5.318
REMARK INTER:                  -5.228
REMARK INTRA:                  -0.089
REMARK UNBOUND:                -0.096
REMARK SMILES C=C(C)[C@H]1CC[C@H](C)[C@@]12CC=C(C)CC2
REMARK SMILES IDX 8 1 7 2 6 3 5 4 4 5 9 6 15 7 14 8 12 9 11 10 10 11 13 12
REMARK SMILES IDX 2 13 1 14 3 15
REMARK H PARENT
REMARK Flexibility Score: inf
ROOT
ATOM      1  C   UNL     1     137.586 135.890 133.774  1.00  0.00     0.008 C 
ATOM      2  C   UNL     1     137.975 134.906 134.894  1.00  0.00    -0.007 C 
ATOM      3  C   UNL     1     138.562 133.598 134.356  1.00  0.00     0.004 C 
ATOM      4  C   UNL     1     139.464 133.037 135.460  1.00  0.00     0.009 C 
ATOM      5  C   UNL     1     139.450 134.055 136.615  1.00  0.00     0.021 C 
ATOM      6  C   UNL     1     138.980 135.402 135.974  1.00  0.00    -0.017 C 
ATOM      7  C   UNL     1     140.242 136.120 135.325  1.00  0.00     0.012 C 
ATOM      8  C   UNL     1     140.649 137.414 136.045  1.00  0.00     0.031 C 
ATOM      9  C   UNL     1     139.444 138.313 136.167  1.00  0.00    -0.077 C 
ATOM     10  C   UNL     1     138.297 137.777 136.610  1.00  0.00    -0.027 C 
ATOM     11  C   UNL     1     138.269 136.332 137.021  1.00  0.00     0.035 C 
ATOM     12  C   UNL     1     139.489 139.749 135.727  1.00  0.00     0.039 C 
ENDROOT
BRANCH   5  13
ATOM     13  C   UNL     1     138.614 133.566 137.810  1.00  0.00    -0.077 C 
ATOM     14  C   UNL     1     137.544 132.763 137.667  1.00  0.00     0.008 C 
ATOM     15  C   UNL     1     139.002 133.982 139.207  1.00  0.00     0.039 C 
ENDBRANCH   5  13
TORSDOF 1
ENDMDL
MODEL 4
REMARK VINA RESULT:    -4.902      4.695      6.980
REMARK INTER + INTRA:          -5.285
REMARK INTER:                  -5.202
REMARK INTRA:                  -0.083
REMARK UNBOUND:                -0.096
REMARK SMILES C=C(C)[C@H]1CC[C@H](C)[C@@]12CC=C(C)CC2
REMARK SMILES IDX 8 1 7 2 6 3 5 4 4 5 9 6 15 7 14 8 12 9 11 10 10 11 13 12
REMARK SMILES IDX 2 13 1 14 3 15
REMARK H PARENT
REMARK Flexibility Score: inf
ROOT
ATOM      1  C   UNL     1     136.602 137.551 133.855  1.00  0.00     0.008 C 
ATOM      2  C   UNL     1     137.641 137.946 134.921  1.00  0.00    -0.007 C 
ATOM      3  C   UNL     1     138.914 138.543 134.316  1.00  0.00     0.004 C 
ATOM      4  C   UNL     1     139.527 139.447 135.390  1.00  0.00     0.009 C 
ATOM      5  C   UNL     1     138.572 139.423 136.598  1.00  0.00     0.021 C 
ATOM      6  C   UNL     1     137.196 138.945 136.028  1.00  0.00    -0.017 C 
ATOM      7  C   UNL     1     136.435 140.203 135.421  1.00  0.00     0.012 C 
ATOM      8  C   UNL     1     135.179 140.599 136.211  1.00  0.00     0.031 C 
ATOM      9  C   UNL     1     134.297 139.387 136.377  1.00  0.00    -0.077 C 
ATOM     10  C   UNL     1     134.863 138.243 136.789  1.00  0.00    -0.027 C 
ATOM     11  C   UNL     1     136.329 138.226 137.122  1.00  0.00     0.035 C 
ATOM     12  C   UNL     1     132.838 139.424 136.015  1.00  0.00     0.039 C 
ENDROOT
BRANCH   5  13
ATOM     13  C   UNL     1     139.130 138.589 137.763  1.00  0.00    -0.077 C 
ATOM     14  C   UNL     1     139.949 137.538 137.576  1.00  0.00     0.008 C 
ATOM     15  C   UNL     1     138.765 138.956 139.180  1.00  0.00     0.039 C 
ENDBRANCH   5  13
TORSDOF 1
ENDMDL
MODEL 5
REMARK VINA RESULT:    -4.826      4.972      7.203
REMARK INTER + INTRA:          -5.204
REMARK INTER:                  -5.091
REMARK INTRA:                  -0.113
REMARK UNBOUND:                -0.096
REMARK SMILES C=C(C)[C@H]1CC[C@H](C)[C@@]12CC=C(C)CC2
REMARK SMILES IDX 8 1 7 2 6 3 5 4 4 5 9 6 15 7 14 8 12 9 11 10 10 11 13 12
REMARK SMILES IDX 2 13 1 14 3 15
REMARK H PARENT
REMARK Flexibility Score: inf
ROOT
ATOM      1  C   UNL     1     133.957 138.651 134.031  1.00  0.00     0.008 C 
ATOM      2  C   UNL     1     135.434 139.087 134.007  1.00  0.00    -0.007 C 
ATOM      3  C   UNL     1     135.703 140.217 133.010  1.00  0.00     0.004 C 
ATOM      4  C   UNL     1     136.938 140.966 133.521  1.00  0.00     0.009 C 
ATOM      5  C   UNL     1     137.348 140.307 134.850  1.00  0.00     0.021 C 
ATOM      6  C   UNL     1     136.072 139.552 135.348  1.00  0.00    -0.017 C 
ATOM      7  C   UNL     1     135.142 140.586 136.120  1.00  0.00     0.012 C 
ATOM      8  C   UNL     1     135.039 140.312 137.628  1.00  0.00     0.031 C 
ATOM      9  C   UNL     1     134.643 138.872 137.843  1.00  0.00    -0.077 C 
ATOM     10  C   UNL     1     135.302 137.925 137.158  1.00  0.00    -0.027 C 
ATOM     11  C   UNL     1     136.436 138.324 136.256  1.00  0.00     0.035 C 
ATOM     12  C   UNL     1     133.489 138.501 138.731  1.00  0.00     0.039 C 
ENDROOT
BRANCH   5  13
ATOM     13  C   UNL     1     138.611 139.443 134.705  1.00  0.00    -0.077 C 
ATOM     14  C   UNL     1     138.828 138.647 133.642  1.00  0.00     0.008 C 
ATOM     15  C   UNL     1     139.668 139.485 135.781  1.00  0.00     0.039 C 
ENDBRANCH   5  13
TORSDOF 1
ENDMDL
MODEL 6
REMARK VINA RESULT:    -4.823      4.904      6.882
REMARK INTER + INTRA:          -5.201
REMARK INTER:                  -5.088
REMARK INTRA:                  -0.113
REMARK UNBOUND:                -0.096
REMARK SMILES C=C(C)[C@H]1CC[C@H](C)[C@@]12CC=C(C)CC2
REMARK SMILES IDX 8 1 7 2 6 3 5 4 4 5 9 6 15 7 14 8 12 9 11 10 10 11 13 12
REMARK SMILES IDX 2 13 1 14 3 15
REMARK H PARENT
REMARK Flexibility Score: inf
ROOT
ATOM      1  C   UNL     1     138.337 136.565 133.893  1.00  0.00     0.008 C 
ATOM      2  C   UNL     1     138.891 136.978 135.270  1.00  0.00    -0.007 C 
ATOM      3  C   UNL     1     140.417 136.892 135.345  1.00  0.00     0.004 C 
ATOM      4  C   UNL     1     140.860 137.888 136.422  1.00  0.00     0.009 C 
ATOM      5  C   UNL     1     139.591 138.600 136.927  1.00  0.00     0.021 C 
ATOM      6  C   UNL     1     138.526 138.396 135.799  1.00  0.00    -0.017 C 
ATOM      7  C   UNL     1     138.743 139.517 134.691  1.00  0.00     0.012 C 
ATOM      8  C   UNL     1     137.598 140.539 134.621  1.00  0.00     0.031 C 
ATOM      9  C   UNL     1     136.288 139.805 134.484  1.00  0.00    -0.077 C 
ATOM     10  C   UNL     1     136.050 138.774 135.308  1.00  0.00    -0.027 C 
ATOM     11  C   UNL     1     137.062 138.427 136.365  1.00  0.00     0.035 C 
ATOM     12  C   UNL     1     135.303 140.155 133.404  1.00  0.00     0.039 C 
ENDROOT
BRANCH   5  13
ATOM     13  C   UNL     1     139.171 138.117 138.325  1.00  0.00    -0.077 C 
ATOM     14  C   UNL     1     139.314 136.840 138.725  1.00  0.00     0.008 C 
ATOM     15  C   UNL     1     138.586 139.102 139.306  1.00  0.00     0.039 C 
ENDBRANCH   5  13
TORSDOF 1
ENDMDL
MODEL 7
REMARK VINA RESULT:    -4.805      2.465      3.924
REMARK INTER + INTRA:          -5.183
REMARK INTER:                  -5.066
REMARK INTRA:                  -0.117
REMARK UNBOUND:                -0.096
REMARK SMILES C=C(C)[C@H]1CC[C@H](C)[C@@]12CC=C(C)CC2
REMARK SMILES IDX 8 1 7 2 6 3 5 4 4 5 9 6 15 7 14 8 12 9 11 10 10 11 13 12
REMARK SMILES IDX 2 13 1 14 3 15
REMARK H PARENT
REMARK Flexibility Score: inf
ROOT
ATOM      1  C   UNL     1     136.540 134.300 133.913  1.00  0.00     0.008 C 
ATOM      2  C   UNL     1     136.954 133.744 135.289  1.00  0.00    -0.007 C 
ATOM      3  C   UNL     1     136.883 132.216 135.356  1.00  0.00     0.004 C 
ATOM      4  C   UNL     1     137.880 131.779 136.434  1.00  0.00     0.009 C 
ATOM      5  C   UNL     1     138.576 133.053 136.948  1.00  0.00     0.021 C 
ATOM      6  C   UNL     1     138.365 134.121 135.825  1.00  0.00    -0.017 C 
ATOM      7  C   UNL     1     139.492 133.922 134.720  1.00  0.00     0.012 C 
ATOM      8  C   UNL     1     140.502 135.078 134.660  1.00  0.00     0.031 C 
ATOM      9  C   UNL     1     139.755 136.382 134.528  1.00  0.00    -0.077 C 
ATOM     10  C   UNL     1     138.718 136.604 135.349  1.00  0.00    -0.027 C 
ATOM     11  C   UNL     1     138.379 135.583 136.399  1.00  0.00     0.035 C 
ATOM     12  C   UNL     1     140.098 137.376 133.454  1.00  0.00     0.039 C 
ENDROOT
BRANCH   5  13
ATOM     13  C   UNL     1     138.083 133.460 138.347  1.00  0.00    -0.077 C 
ATOM     14  C   UNL     1     136.804 133.312 138.737  1.00  0.00     0.008 C 
ATOM     15  C   UNL     1     139.061 134.037 139.340  1.00  0.00     0.039 C 
ENDBRANCH   5  13
TORSDOF 1
ENDMDL
MODEL 8
REMARK VINA RESULT:    -4.801      2.832      4.703
REMARK INTER + INTRA:          -5.179
REMARK INTER:                  -5.060
REMARK INTRA:                  -0.118
REMARK UNBOUND:                -0.096
REMARK SMILES C=C(C)[C@H]1CC[C@H](C)[C@@]12CC=C(C)CC2
REMARK SMILES IDX 8 1 7 2 6 3 5 4 4 5 9 6 15 7 14 8 12 9 11 10 10 11 13 12
REMARK SMILES IDX 2 13 1 14 3 15
REMARK H PARENT
REMARK Flexibility Score: inf
ROOT
ATOM      1  C   UNL     1     133.940 134.101 133.808  1.00  0.00     0.008 C 
ATOM      2  C   UNL     1     133.500 135.576 133.863  1.00  0.00    -0.007 C 
ATOM      3  C   UNL     1     132.375 135.896 132.875  1.00  0.00     0.004 C 
ATOM      4  C   UNL     1     131.619 137.099 133.448  1.00  0.00     0.009 C 
ATOM      5  C   UNL     1     132.268 137.437 134.803  1.00  0.00     0.021 C 
ATOM      6  C   UNL     1     133.024 136.137 135.234  1.00  0.00    -0.017 C 
ATOM      7  C   UNL     1     131.988 135.163 135.947  1.00  0.00     0.012 C 
ATOM      8  C   UNL     1     132.253 134.978 137.448  1.00  0.00     0.031 C 
ATOM      9  C   UNL     1     133.693 134.575 137.650  1.00  0.00    -0.077 C 
ATOM     10  C   UNL     1     134.642 135.273 137.009  1.00  0.00    -0.027 C 
ATOM     11  C   UNL     1     134.245 136.455 136.169  1.00  0.00     0.035 C 
ATOM     12  C   UNL     1     134.062 133.375 138.476  1.00  0.00     0.039 C 
ENDROOT
BRANCH   5  13
ATOM     13  C   UNL     1     133.129 138.709 134.733  1.00  0.00    -0.077 C 
ATOM     14  C   UNL     1     133.921 138.992 133.682  1.00  0.00     0.008 C 
ATOM     15  C   UNL     1     133.089 139.697 135.872  1.00  0.00     0.039 C 
ENDBRANCH   5  13
TORSDOF 1
ENDMDL
MODEL 9
REMARK VINA RESULT:    -4.767      4.052      6.097
REMARK INTER + INTRA:          -5.142
REMARK INTER:                  -5.028
REMARK INTRA:                  -0.114
REMARK UNBOUND:                -0.096
REMARK SMILES C=C(C)[C@H]1CC[C@H](C)[C@@]12CC=C(C)CC2
REMARK SMILES IDX 8 1 7 2 6 3 5 4 4 5 9 6 15 7 14 8 12 9 11 10 10 11 13 12
REMARK SMILES IDX 2 13 1 14 3 15
REMARK H PARENT
REMARK Flexibility Score: inf
ROOT
ATOM      1  C   UNL     1     138.542 138.685 134.152  1.00  0.00     0.008 C 
ATOM      2  C   UNL     1     139.009 137.218 134.093  1.00  0.00    -0.007 C 
ATOM      3  C   UNL     1     140.146 136.998 133.092  1.00  0.00     0.004 C 
ATOM      4  C   UNL     1     140.921 135.767 133.573  1.00  0.00     0.009 C 
ATOM      5  C   UNL     1     140.269 135.310 134.891  1.00  0.00     0.021 C 
ATOM      6  C   UNL     1     139.486 136.558 135.419  1.00  0.00    -0.017 C 
ATOM      7  C   UNL     1     140.499 137.490 136.215  1.00  0.00     0.012 C 
ATOM      8  C   UNL     1     140.220 137.550 137.725  1.00  0.00     0.031 C 
ATOM      9  C   UNL     1     138.772 137.909 137.946  1.00  0.00    -0.077 C 
ATOM     10  C   UNL     1     137.841 137.248 137.244  1.00  0.00    -0.027 C 
ATOM     11  C   UNL     1     138.265 136.145 136.315  1.00  0.00     0.035 C 
ATOM     12  C   UNL     1     138.375 139.033 138.862  1.00  0.00     0.039 C 
ENDROOT
BRANCH   5  13
ATOM     13  C   UNL     1     139.432 134.033 134.713  1.00  0.00    -0.077 C 
ATOM     14  C   UNL     1     138.658 133.817 133.634  1.00  0.00     0.008 C 
ATOM     15  C   UNL     1     139.477 132.961 135.774  1.00  0.00     0.039 C 
ENDBRANCH   5  13
TORSDOF 1
ENDMDL
