MODEL 1
REMARK VINA RESULT:    -3.877      0.000      0.000
REMARK INTER + INTRA:          -4.952
REMARK INTER:                  -4.557
REMARK INTRA:                  -0.394
REMARK UNBOUND:                -0.394
REMARK SMILES [NH3+][C@H](CO)C(=O)[O-]
REMARK SMILES IDX 3 1 2 2 1 3 5 7 6 8 7 9 4 10
REMARK H PARENT 1 4 1 5 1 6 4 11
REMARK Flexibility Score: inf
ROOT
ATOM      1  C   UNL     1      20.474  -6.779 -21.261  1.00  0.00     0.227 C 
ENDROOT
BRANCH   1   2
ATOM      2  C   UNL     1      20.804  -8.280 -21.232  1.00  0.00     0.253 C 
BRANCH   2   3
ATOM      3  N   UNL     1      21.863  -8.609 -22.194  1.00  0.00    -0.348 N 
ATOM      4  H   UNL     1      21.635  -8.203 -23.130  1.00  0.00     0.345 HD
ATOM      5  H   UNL     1      22.785  -8.231 -21.873  1.00  0.00     0.345 HD
ATOM      6  H   UNL     1      21.936  -9.647 -22.300  1.00  0.00     0.345 HD
ENDBRANCH   2   3
BRANCH   2   7
ATOM      7  C   UNL     1      21.207  -8.695 -19.843  1.00  0.00     0.102 C 
ATOM      8  O   UNL     1      22.419  -8.679 -19.498  1.00  0.00    -0.544 OA
ATOM      9  O   UNL     1      20.239  -9.084 -18.926  1.00  0.00    -0.544 OA
ENDBRANCH   2   7
ENDBRANCH   1   2
BRANCH   1  10
ATOM     10  O   UNL     1      20.864  -6.179 -20.056  1.00  0.00    -0.390 OA
ATOM     11  H   UNL     1      20.973  -5.213 -20.252  1.00  0.00     0.210 HD
ENDBRANCH   1  10
TORSDOF 4
ENDMDL
MODEL 2
REMARK VINA RESULT:    -3.855      1.931      2.894
REMARK INTER + INTRA:          -4.925
REMARK INTER:                  -4.675
REMARK INTRA:                  -0.250
REMARK UNBOUND:                -0.394
REMARK SMILES [NH3+][C@H](CO)C(=O)[O-]
REMARK SMILES IDX 3 1 2 2 1 3 5 7 6 8 7 9 4 10
REMARK H PARENT 1 4 1 5 1 6 4 11
REMARK Flexibility Score: inf
ROOT
ATOM      1  C   UNL     1      22.386  -9.061 -20.163  1.00  0.00     0.227 C 
ENDROOT
BRANCH   1   2
ATOM      2  C   UNL     1      20.903  -8.696 -20.333  1.00  0.00     0.253 C 
BRANCH   2   3
ATOM      3  N   UNL     1      20.200  -8.723 -19.044  1.00  0.00    -0.348 N 
ATOM      4  H   UNL     1      19.340  -9.313 -19.117  1.00  0.00     0.345 HD
ATOM      5  H   UNL     1      20.817  -9.110 -18.293  1.00  0.00     0.345 HD
ATOM      6  H   UNL     1      19.907  -7.754 -18.780  1.00  0.00     0.345 HD
ENDBRANCH   2   3
BRANCH   2   7
ATOM      7  C   UNL     1      20.772  -7.342 -20.975  1.00  0.00     0.102 C 
ATOM      8  O   UNL     1      20.542  -7.239 -22.209  1.00  0.00    -0.544 OA
ATOM      9  O   UNL     1      20.891  -6.193 -20.202  1.00  0.00    -0.544 OA
ENDBRANCH   2   7
ENDBRANCH   1   2
BRANCH   1  10
ATOM     10  O   UNL     1      23.125  -7.919 -19.827  1.00  0.00    -0.390 OA
ATOM     11  H   UNL     1      22.936  -7.740 -18.870  1.00  0.00     0.210 HD
ENDBRANCH   1  10
TORSDOF 4
ENDMDL
MODEL 3
REMARK VINA RESULT:    -3.799      1.089      2.603
REMARK INTER + INTRA:          -4.860
REMARK INTER:                  -4.465
REMARK INTRA:                  -0.395
REMARK UNBOUND:                -0.394
REMARK SMILES [NH3+][C@H](CO)C(=O)[O-]
REMARK SMILES IDX 3 1 2 2 1 3 5 7 6 8 7 9 4 10
REMARK H PARENT 1 4 1 5 1 6 4 11
REMARK Flexibility Score: inf
ROOT
ATOM      1  C   UNL     1      21.229  -9.204 -19.638  1.00  0.00     0.227 C 
ENDROOT
BRANCH   1   2
ATOM      2  C   UNL     1      21.798  -8.285 -20.732  1.00  0.00     0.253 C 
BRANCH   2   3
ATOM      3  N   UNL     1      22.094  -9.040 -21.956  1.00  0.00    -0.348 N 
ATOM      4  H   UNL     1      23.032  -9.496 -21.878  1.00  0.00     0.345 HD
ATOM      5  H   UNL     1      21.369  -9.776 -22.124  1.00  0.00     0.345 HD
ATOM      6  H   UNL     1      22.118  -8.390 -22.776  1.00  0.00     0.345 HD
ENDBRANCH   2   3
BRANCH   2   7
ATOM      7  C   UNL     1      20.832  -7.168 -21.024  1.00  0.00     0.102 C 
ATOM      8  O   UNL     1      20.030  -7.253 -21.991  1.00  0.00    -0.544 OA
ATOM      9  O   UNL     1      20.811  -6.040 -20.214  1.00  0.00    -0.544 OA
ENDBRANCH   2   7
ENDBRANCH   1   2
BRANCH   1  10
ATOM     10  O   UNL     1      20.033  -8.672 -19.140  1.00  0.00    -0.390 OA
ATOM     11  H   UNL     1      19.770  -9.250 -18.378  1.00  0.00     0.210 HD
ENDBRANCH   1  10
TORSDOF 4
ENDMDL
MODEL 4
REMARK VINA RESULT:    -3.708      2.034      2.899
REMARK INTER + INTRA:          -4.753
REMARK INTER:                  -4.534
REMARK INTRA:                  -0.219
REMARK UNBOUND:                -0.394
REMARK SMILES [NH3+][C@H](CO)C(=O)[O-]
REMARK SMILES IDX 3 1 2 2 1 3 5 7 6 8 7 9 4 10
REMARK H PARENT 1 4 1 5 1 6 4 11
REMARK Flexibility Score: inf
ROOT
ATOM      1  C   UNL     1      21.613  -9.557 -21.203  1.00  0.00     0.227 C 
ENDROOT
BRANCH   1   2
ATOM      2  C   UNL     1      21.673  -8.384 -20.211  1.00  0.00     0.253 C 
BRANCH   2   3
ATOM      3  N   UNL     1      23.061  -7.998 -19.931  1.00  0.00    -0.348 N 
ATOM      4  H   UNL     1      23.283  -8.167 -18.923  1.00  0.00     0.345 HD
ATOM      5  H   UNL     1      23.726  -8.546 -20.524  1.00  0.00     0.345 HD
ATOM      6  H   UNL     1      23.192  -6.978 -20.124  1.00  0.00     0.345 HD
ENDBRANCH   2   3
BRANCH   2   7
ATOM      7  C   UNL     1      20.899  -7.211 -20.750  1.00  0.00     0.102 C 
ATOM      8  O   UNL     1      20.903  -6.108 -20.140  1.00  0.00    -0.544 OA
ATOM      9  O   UNL     1      20.187  -7.334 -21.936  1.00  0.00    -0.544 OA
ENDBRANCH   2   7
ENDBRANCH   1   2
BRANCH   1  10
ATOM     10  O   UNL     1      22.232  -9.199 -22.407  1.00  0.00    -0.390 OA
ATOM     11  H   UNL     1      23.208  -9.263 -22.245  1.00  0.00     0.210 HD
ENDBRANCH   1  10
TORSDOF 4
ENDMDL
MODEL 5
REMARK VINA RESULT:    -3.623      2.102      2.409
REMARK INTER + INTRA:          -4.653
REMARK INTER:                  -4.280
REMARK INTRA:                  -0.373
REMARK UNBOUND:                -0.394
REMARK SMILES [NH3+][C@H](CO)C(=O)[O-]
REMARK SMILES IDX 3 1 2 2 1 3 5 7 6 8 7 9 4 10
REMARK H PARENT 1 4 1 5 1 6 4 11
REMARK Flexibility Score: inf
ROOT
ATOM      1  C   UNL     1      20.711  -8.614 -21.633  1.00  0.00     0.227 C 
ENDROOT
BRANCH   1   2
ATOM      2  C   UNL     1      20.923  -8.107 -20.198  1.00  0.00     0.253 C 
BRANCH   2   3
ATOM      3  N   UNL     1      20.019  -8.782 -19.258  1.00  0.00    -0.348 N 
ATOM      4  H   UNL     1      19.538  -9.579 -19.734  1.00  0.00     0.345 HD
ATOM      5  H   UNL     1      20.547  -9.146 -18.431  1.00  0.00     0.345 HD
ATOM      6  H   UNL     1      19.286  -8.112 -18.928  1.00  0.00     0.345 HD
ENDBRANCH   2   3
BRANCH   2   7
ATOM      7  C   UNL     1      22.356  -8.307 -19.784  1.00  0.00     0.102 C 
ATOM      8  O   UNL     1      23.124  -7.318 -19.643  1.00  0.00    -0.544 OA
ATOM      9  O   UNL     1      22.836  -9.587 -19.539  1.00  0.00    -0.544 OA
ENDBRANCH   2   7
ENDBRANCH   1   2
BRANCH   1  10
ATOM     10  O   UNL     1      21.945  -8.737 -22.285  1.00  0.00    -0.390 OA
ATOM     11  H   UNL     1      21.769  -9.250 -23.115  1.00  0.00     0.210 HD
ENDBRANCH   1  10
TORSDOF 4
ENDMDL
MODEL 6
REMARK VINA RESULT:    -3.585      1.459      1.711
REMARK INTER + INTRA:          -4.608
REMARK INTER:                  -4.441
REMARK INTRA:                  -0.168
REMARK UNBOUND:                -0.394
REMARK SMILES [NH3+][C@H](CO)C(=O)[O-]
REMARK SMILES IDX 3 1 2 2 1 3 5 7 6 8 7 9 4 10
REMARK H PARENT 1 4 1 5 1 6 4 11
REMARK Flexibility Score: inf
ROOT
ATOM      1  C   UNL     1      20.876  -7.063 -20.797  1.00  0.00     0.227 C 
ENDROOT
BRANCH   1   2
ATOM      2  C   UNL     1      21.837  -8.240 -20.570  1.00  0.00     0.253 C 
BRANCH   2   3
ATOM      3  N   UNL     1      23.050  -7.806 -19.865  1.00  0.00    -0.348 N 
ATOM      4  H   UNL     1      23.597  -7.148 -20.465  1.00  0.00     0.345 HD
ATOM      5  H   UNL     1      22.806  -7.327 -18.967  1.00  0.00     0.345 HD
ATOM      6  H   UNL     1      23.655  -8.635 -19.657  1.00  0.00     0.345 HD
ENDBRANCH   2   3
BRANCH   2   7
ATOM      7  C   UNL     1      21.145  -9.334 -19.802  1.00  0.00     0.102 C 
ATOM      8  O   UNL     1      20.206  -9.061 -19.008  1.00  0.00    -0.544 OA
ATOM      9  O   UNL     1      21.531 -10.657 -19.977  1.00  0.00    -0.544 OA
ENDBRANCH   2   7
ENDBRANCH   1   2
BRANCH   1  10
ATOM     10  O   UNL     1      21.072  -6.088 -19.810  1.00  0.00    -0.390 OA
ATOM     11  H   UNL     1      21.879  -5.580 -20.081  1.00  0.00     0.210 HD
ENDBRANCH   1  10
TORSDOF 4
ENDMDL
MODEL 7
REMARK VINA RESULT:    -3.550     16.870     17.383
REMARK INTER + INTRA:          -4.568
REMARK INTER:                  -4.174
REMARK INTRA:                  -0.393
REMARK UNBOUND:                -0.394
REMARK SMILES [NH3+][C@H](CO)C(=O)[O-]
REMARK SMILES IDX 3 1 2 2 1 3 5 7 6 8 7 9 4 10
REMARK H PARENT 1 4 1 5 1 6 4 11
REMARK Flexibility Score: inf
ROOT
ATOM      1  C   UNL     1       4.624  -5.275 -18.856  1.00  0.00     0.227 C 
ENDROOT
BRANCH   1   2
ATOM      2  C   UNL     1       4.369  -5.651 -17.387  1.00  0.00     0.253 C 
BRANCH   2   3
ATOM      3  N   UNL     1       3.194  -4.947 -16.857  1.00  0.00    -0.348 N 
ATOM      4  H   UNL     1       3.463  -3.985 -16.546  1.00  0.00     0.345 HD
ATOM      5  H   UNL     1       2.445  -4.874 -17.584  1.00  0.00     0.345 HD
ATOM      6  H   UNL     1       2.817  -5.462 -16.027  1.00  0.00     0.345 HD
ENDBRANCH   2   3
BRANCH   2   7
ATOM      7  C   UNL     1       4.193  -7.139 -17.256  1.00  0.00     0.102 C 
ATOM      8  O   UNL     1       3.043  -7.639 -17.133  1.00  0.00    -0.544 OA
ATOM      9  O   UNL     1       5.303  -7.975 -17.285  1.00  0.00    -0.544 OA
ENDBRANCH   2   7
ENDBRANCH   1   2
BRANCH   1  10
ATOM     10  O   UNL     1       4.563  -6.421 -19.660  1.00  0.00    -0.390 OA
ATOM     11  H   UNL     1       3.920  -6.214 -20.386  1.00  0.00     0.210 HD
ENDBRANCH   1  10
TORSDOF 4
ENDMDL
MODEL 8
REMARK VINA RESULT:    -3.524      1.723      1.729
REMARK INTER + INTRA:          -4.536
REMARK INTER:                  -4.507
REMARK INTRA:                  -0.029
REMARK UNBOUND:                -0.394
REMARK SMILES [NH3+][C@H](CO)C(=O)[O-]
REMARK SMILES IDX 3 1 2 2 1 3 5 7 6 8 7 9 4 10
REMARK H PARENT 1 4 1 5 1 6 4 11
REMARK Flexibility Score: inf
ROOT
ATOM      1  C   UNL     1      20.533  -7.551 -21.936  1.00  0.00     0.227 C 
ENDROOT
BRANCH   1   2
ATOM      2  C   UNL     1      21.407  -7.303 -20.696  1.00  0.00     0.253 C 
BRANCH   2   3
ATOM      3  N   UNL     1      20.941  -6.130 -19.945  1.00  0.00    -0.348 N 
ATOM      4  H   UNL     1      21.331  -6.148 -18.975  1.00  0.00     0.345 HD
ATOM      5  H   UNL     1      21.238  -5.245 -20.417  1.00  0.00     0.345 HD
ATOM      6  H   UNL     1      19.896  -6.147 -19.874  1.00  0.00     0.345 HD
ENDBRANCH   2   3
BRANCH   2   7
ATOM      7  C   UNL     1      21.414  -8.523 -19.815  1.00  0.00     0.102 C 
ATOM      8  O   UNL     1      22.481  -9.166 -19.623  1.00  0.00    -0.544 OA
ATOM      9  O   UNL     1      20.243  -8.938 -19.194  1.00  0.00    -0.544 OA
ENDBRANCH   2   7
ENDBRANCH   1   2
BRANCH   1  10
ATOM     10  O   UNL     1      19.470  -6.638 -21.963  1.00  0.00    -0.390 OA
ATOM     11  H   UNL     1      19.877  -5.745 -22.106  1.00  0.00     0.210 HD
ENDBRANCH   1  10
TORSDOF 4
ENDMDL
MODEL 9
REMARK VINA RESULT:    -3.519      2.131      2.526
REMARK INTER + INTRA:          -4.530
REMARK INTER:                  -4.306
REMARK INTRA:                  -0.225
REMARK UNBOUND:                -0.394
REMARK SMILES [NH3+][C@H](CO)C(=O)[O-]
REMARK SMILES IDX 3 1 2 2 1 3 5 7 6 8 7 9 4 10
REMARK H PARENT 1 4 1 5 1 6 4 11
REMARK Flexibility Score: inf
ROOT
ATOM      1  C   UNL     1      22.318  -9.815 -21.433  1.00  0.00     0.227 C 
ENDROOT
BRANCH   1   2
ATOM      2  C   UNL     1      22.358  -9.327 -19.976  1.00  0.00     0.253 C 
BRANCH   2   3
ATOM      3  N   UNL     1      23.125  -8.081 -19.856  1.00  0.00    -0.348 N 
ATOM      4  H   UNL     1      24.114  -8.294 -19.590  1.00  0.00     0.345 HD
ATOM      5  H   UNL     1      23.120  -7.553 -20.760  1.00  0.00     0.345 HD
ATOM      6  H   UNL     1      22.710  -7.480 -19.107  1.00  0.00     0.345 HD
ENDBRANCH   2   3
BRANCH   2   7
ATOM      7  C   UNL     1      20.959  -9.136 -19.455  1.00  0.00     0.102 C 
ATOM      8  O   UNL     1      20.207  -8.256 -19.952  1.00  0.00    -0.544 OA
ATOM      9  O   UNL     1      20.484  -9.943 -18.429  1.00  0.00    -0.544 OA
ENDBRANCH   2   7
ENDBRANCH   1   2
BRANCH   1  10
ATOM     10  O   UNL     1      22.002  -8.750 -22.287  1.00  0.00    -0.390 OA
ATOM     11  H   UNL     1      22.599  -8.842 -23.074  1.00  0.00     0.210 HD
ENDBRANCH   1  10
TORSDOF 4
ENDMDL
