MODEL 1
REMARK VINA RESULT:    -4.375      0.000      0.000
REMARK INTER + INTRA:          -6.437
REMARK INTER:                  -6.165
REMARK INTRA:                  -0.272
REMARK UNBOUND:                -0.272
REMARK SMILES CCCCCCCCC(=O)[O-]
REMARK SMILES IDX 6 1 7 2 8 3 9 4 10 5 11 6 5 7 4 8 3 9 2 10 1 11
REMARK H PARENT
REMARK Flexibility Score: inf
ROOT
ATOM      1  C   UNL     1      50.610 -41.444  -3.216  1.00  0.00     0.000 C 
ENDROOT
BRANCH   1   2
ATOM      2  C   UNL     1      51.859 -40.742  -2.665  1.00  0.00     0.006 C 
BRANCH   2   3
ATOM      3  C   UNL     1      52.788 -41.743  -1.971  1.00  0.00     0.053 C 
BRANCH   3   4
ATOM      4  C   UNL     1      54.164 -41.173  -1.832  1.00  0.00     0.041 C 
ATOM      5  O   UNL     1      55.163 -41.936  -1.774  1.00  0.00    -0.550 OA
ATOM      6  O   UNL     1      54.339 -39.800  -1.714  1.00  0.00    -0.550 OA
ENDBRANCH   3   4
ENDBRANCH   2   3
ENDBRANCH   1   2
BRANCH   1   7
ATOM      7  C   UNL     1      49.839 -40.580  -4.231  1.00  0.00     0.000 C 
BRANCH   7   8
ATOM      8  C   UNL     1      48.486 -41.165  -4.688  1.00  0.00    -0.000 C 
BRANCH   8   9
ATOM      9  C   UNL     1      47.281 -40.213  -4.554  1.00  0.00    -0.000 C 
BRANCH   9  10
ATOM     10  C   UNL     1      46.509 -40.332  -3.229  1.00  0.00    -0.003 C 
ATOM     11  C   UNL     1      46.959 -39.312  -2.184  1.00  0.00     0.004 C 
ENDBRANCH   9  10
ENDBRANCH   8   9
ENDBRANCH   7   8
ENDBRANCH   1   7
TORSDOF 7
ENDMDL
MODEL 2
REMARK VINA RESULT:    -4.292     11.796     12.807
REMARK INTER + INTRA:          -6.320
REMARK INTER:                  -6.015
REMARK INTRA:                  -0.305
REMARK UNBOUND:                -0.272
REMARK SMILES CCCCCCCCC(=O)[O-]
REMARK SMILES IDX 6 1 7 2 8 3 9 4 10 5 11 6 5 7 4 8 3 9 2 10 1 11
REMARK H PARENT
REMARK Flexibility Score: inf
ROOT
ATOM      1  C   UNL     1      50.515 -38.833   8.328  1.00  0.00     0.000 C 
ENDROOT
BRANCH   1   2
ATOM      2  C   UNL     1      51.498 -37.739   8.770  1.00  0.00     0.006 C 
BRANCH   2   3
ATOM      3  C   UNL     1      51.079 -37.138  10.115  1.00  0.00     0.053 C 
BRANCH   3   4
ATOM      4  C   UNL     1      50.774 -35.681   9.966  1.00  0.00     0.041 C 
ATOM      5  O   UNL     1      50.550 -34.974  10.984  1.00  0.00    -0.550 OA
ATOM      6  O   UNL     1      50.685 -35.114   8.701  1.00  0.00    -0.550 OA
ENDBRANCH   3   4
ENDBRANCH   2   3
ENDBRANCH   1   2
BRANCH   1   7
ATOM      7  C   UNL     1      49.787 -39.495   9.512  1.00  0.00     0.000 C 
BRANCH   7   8
ATOM      8  C   UNL     1      49.434 -40.983   9.309  1.00  0.00    -0.000 C 
BRANCH   8   9
ATOM      9  C   UNL     1      49.498 -41.479   7.851  1.00  0.00    -0.000 C 
BRANCH   9  10
ATOM     10  C   UNL     1      50.089 -42.889   7.674  1.00  0.00    -0.003 C 
ATOM     11  C   UNL     1      49.090 -43.883   7.083  1.00  0.00     0.004 C 
ENDBRANCH   9  10
ENDBRANCH   8   9
ENDBRANCH   7   8
ENDBRANCH   1   7
TORSDOF 7
ENDMDL
MODEL 3
REMARK VINA RESULT:    -4.250      3.381      5.861
REMARK INTER + INTRA:          -6.261
REMARK INTER:                  -5.994
REMARK INTRA:                  -0.267
REMARK UNBOUND:                -0.272
REMARK SMILES CCCCCCCCC(=O)[O-]
REMARK SMILES IDX 6 1 7 2 8 3 9 4 10 5 11 6 5 7 4 8 3 9 2 10 1 11
REMARK H PARENT
REMARK Flexibility Score: inf
ROOT
ATOM      1  C   UNL     1      49.562 -41.824  -3.382  1.00  0.00     0.000 C 
ENDROOT
BRANCH   1   2
ATOM      2  C   UNL     1      49.213 -40.440  -2.817  1.00  0.00     0.006 C 
BRANCH   2   3
ATOM      3  C   UNL     1      47.751 -40.387  -2.363  1.00  0.00     0.053 C 
BRANCH   3   4
ATOM      4  C   UNL     1      47.594 -39.453  -1.205  1.00  0.00     0.041 C 
ATOM      5  O   UNL     1      47.083 -39.858  -0.128  1.00  0.00    -0.550 OA
ATOM      6  O   UNL     1      47.965 -38.120  -1.332  1.00  0.00    -0.550 OA
ENDBRANCH   3   4
ENDBRANCH   2   3
ENDBRANCH   1   2
BRANCH   1   7
ATOM      7  C   UNL     1      51.071 -42.125  -3.333  1.00  0.00     0.000 C 
BRANCH   7   8
ATOM      8  C   UNL     1      51.909 -41.125  -2.510  1.00  0.00    -0.000 C 
BRANCH   8   9
ATOM      9  C   UNL     1      53.179 -41.710  -1.862  1.00  0.00    -0.000 C 
BRANCH   9  10
ATOM     10  C   UNL     1      54.398 -40.771  -1.869  1.00  0.00    -0.003 C 
ATOM     11  C   UNL     1      54.030 -39.320  -2.174  1.00  0.00     0.004 C 
ENDBRANCH   9  10
ENDBRANCH   8   9
ENDBRANCH   7   8
ENDBRANCH   1   7
TORSDOF 7
ENDMDL
MODEL 4
REMARK VINA RESULT:    -4.177      1.627      1.839
REMARK INTER + INTRA:          -6.158
REMARK INTER:                  -5.690
REMARK INTRA:                  -0.468
REMARK UNBOUND:                -0.272
REMARK SMILES CCCCCCCCC(=O)[O-]
REMARK SMILES IDX 6 1 7 2 8 3 9 4 10 5 11 6 5 7 4 8 3 9 2 10 1 11
REMARK H PARENT
REMARK Flexibility Score: inf
ROOT
ATOM      1  C   UNL     1      51.491 -38.579  -4.295  1.00  0.00     0.000 C 
ENDROOT
BRANCH   1   2
ATOM      2  C   UNL     1      51.796 -39.581  -3.171  1.00  0.00     0.006 C 
BRANCH   2   3
ATOM      3  C   UNL     1      53.220 -39.391  -2.641  1.00  0.00     0.053 C 
BRANCH   3   4
ATOM      4  C   UNL     1      53.726 -40.660  -2.031  1.00  0.00     0.041 C 
ATOM      5  O   UNL     1      54.962 -40.838  -1.874  1.00  0.00    -0.550 OA
ATOM      6  O   UNL     1      52.835 -41.667  -1.682  1.00  0.00    -0.550 OA
ENDBRANCH   3   4
ENDBRANCH   2   3
ENDBRANCH   1   2
BRANCH   1   7
ATOM      7  C   UNL     1      50.695 -39.205  -5.454  1.00  0.00     0.000 C 
BRANCH   7   8
ATOM      8  C   UNL     1      49.766 -40.369  -5.052  1.00  0.00    -0.000 C 
BRANCH   8   9
ATOM      9  C   UNL     1      48.298 -39.977  -4.793  1.00  0.00    -0.000 C 
BRANCH   9  10
ATOM     10  C   UNL     1      47.651 -40.661  -3.576  1.00  0.00    -0.003 C 
ATOM     11  C   UNL     1      48.275 -40.228  -2.250  1.00  0.00     0.004 C 
ENDBRANCH   9  10
ENDBRANCH   8   9
ENDBRANCH   7   8
ENDBRANCH   1   7
TORSDOF 7
ENDMDL
MODEL 5
REMARK VINA RESULT:    -4.177      1.245      1.909
REMARK INTER + INTRA:          -6.158
REMARK INTER:                  -5.894
REMARK INTRA:                  -0.264
REMARK UNBOUND:                -0.272
REMARK SMILES CCCCCCCCC(=O)[O-]
REMARK SMILES IDX 6 1 7 2 8 3 9 4 10 5 11 6 5 7 4 8 3 9 2 10 1 11
REMARK H PARENT
REMARK Flexibility Score: inf
ROOT
ATOM      1  C   UNL     1      49.207 -41.810  -3.731  1.00  0.00     0.000 C 
ENDROOT
BRANCH   1   2
ATOM      2  C   UNL     1      50.678 -41.974  -3.325  1.00  0.00     0.006 C 
BRANCH   2   3
ATOM      3  C   UNL     1      51.320 -40.614  -3.035  1.00  0.00     0.053 C 
BRANCH   3   4
ATOM      4  C   UNL     1      52.639 -40.790  -2.351  1.00  0.00     0.041 C 
ATOM      5  O   UNL     1      53.470 -39.845  -2.324  1.00  0.00    -0.550 OA
ATOM      6  O   UNL     1      52.972 -42.016  -1.788  1.00  0.00    -0.550 OA
ENDBRANCH   3   4
ENDBRANCH   2   3
ENDBRANCH   1   2
BRANCH   1   7
ATOM      7  C   UNL     1      48.982 -40.640  -4.706  1.00  0.00     0.000 C 
BRANCH   7   8
ATOM      8  C   UNL     1      47.539 -40.098  -4.751  1.00  0.00    -0.000 C 
BRANCH   8   9
ATOM      9  C   UNL     1      46.733 -40.267  -3.448  1.00  0.00    -0.000 C 
BRANCH   9  10
ATOM     10  C   UNL     1      45.282 -39.759  -3.515  1.00  0.00    -0.003 C 
ATOM     11  C   UNL     1      44.530 -39.930  -2.196  1.00  0.00     0.004 C 
ENDBRANCH   9  10
ENDBRANCH   8   9
ENDBRANCH   7   8
ENDBRANCH   1   7
TORSDOF 7
ENDMDL
MODEL 6
REMARK VINA RESULT:    -4.168     12.493     13.553
REMARK INTER + INTRA:          -6.146
REMARK INTER:                  -5.715
REMARK INTRA:                  -0.431
REMARK UNBOUND:                -0.272
REMARK SMILES CCCCCCCCC(=O)[O-]
REMARK SMILES IDX 6 1 7 2 8 3 9 4 10 5 11 6 5 7 4 8 3 9 2 10 1 11
REMARK H PARENT
REMARK Flexibility Score: inf
ROOT
ATOM      1  C   UNL     1      51.079 -37.551  10.050  1.00  0.00     0.000 C 
ENDROOT
BRANCH   1   2
ATOM      2  C   UNL     1      50.127 -36.433  10.497  1.00  0.00     0.006 C 
BRANCH   2   3
ATOM      3  C   UNL     1      50.349 -35.162   9.672  1.00  0.00     0.053 C 
BRANCH   3   4
ATOM      4  C   UNL     1      50.706 -34.014  10.562  1.00  0.00     0.041 C 
ATOM      5  O   UNL     1      49.827 -33.179  10.902  1.00  0.00    -0.550 OA
ATOM      6  O   UNL     1      52.020 -33.837  10.976  1.00  0.00    -0.550 OA
ENDBRANCH   3   4
ENDBRANCH   2   3
ENDBRANCH   1   2
BRANCH   1   7
ATOM      7  C   UNL     1      51.327 -37.552   8.530  1.00  0.00     0.000 C 
BRANCH   7   8
ATOM      8  C   UNL     1      50.820 -38.806   7.789  1.00  0.00    -0.000 C 
BRANCH   8   9
ATOM      9  C   UNL     1      49.329 -39.135   8.000  1.00  0.00    -0.000 C 
BRANCH   9  10
ATOM     10  C   UNL     1      49.054 -40.511   8.632  1.00  0.00    -0.003 C 
ATOM     11  C   UNL     1      49.705 -41.659   7.863  1.00  0.00     0.004 C 
ENDBRANCH   9  10
ENDBRANCH   8   9
ENDBRANCH   7   8
ENDBRANCH   1   7
TORSDOF 7
ENDMDL
MODEL 7
REMARK VINA RESULT:    -4.115      2.356      3.603
REMARK INTER + INTRA:          -6.072
REMARK INTER:                  -5.668
REMARK INTRA:                  -0.403
REMARK UNBOUND:                -0.272
REMARK SMILES CCCCCCCCC(=O)[O-]
REMARK SMILES IDX 6 1 7 2 8 3 9 4 10 5 11 6 5 7 4 8 3 9 2 10 1 11
REMARK H PARENT
REMARK Flexibility Score: inf
ROOT
ATOM      1  C   UNL     1      47.806 -40.082  -4.632  1.00  0.00     0.000 C 
ENDROOT
BRANCH   1   2
ATOM      2  C   UNL     1      48.975 -41.036  -4.916  1.00  0.00     0.006 C 
BRANCH   2   3
ATOM      3  C   UNL     1      49.366 -41.812  -3.655  1.00  0.00     0.053 C 
BRANCH   3   4
ATOM      4  C   UNL     1      50.814 -41.605  -3.340  1.00  0.00     0.041 C 
ATOM      5  O   UNL     1      51.567 -42.594  -3.139  1.00  0.00    -0.550 OA
ATOM      6  O   UNL     1      51.322 -40.318  -3.217  1.00  0.00    -0.550 OA
ENDBRANCH   3   4
ENDBRANCH   2   3
ENDBRANCH   1   2
BRANCH   1   7
ATOM      7  C   UNL     1      46.983 -40.496  -3.399  1.00  0.00     0.000 C 
BRANCH   7   8
ATOM      8  C   UNL     1      45.479 -40.163  -3.478  1.00  0.00    -0.000 C 
BRANCH   8   9
ATOM      9  C   UNL     1      45.149 -38.691  -3.796  1.00  0.00    -0.000 C 
BRANCH   9  10
ATOM     10  C   UNL     1      44.123 -38.489  -4.925  1.00  0.00    -0.003 C 
ATOM     11  C   UNL     1      44.774 -38.173  -6.270  1.00  0.00     0.004 C 
ENDBRANCH   9  10
ENDBRANCH   8   9
ENDBRANCH   7   8
ENDBRANCH   1   7
TORSDOF 7
ENDMDL
MODEL 8
REMARK VINA RESULT:    -4.057      4.238      6.884
REMARK INTER + INTRA:          -5.989
REMARK INTER:                  -5.866
REMARK INTRA:                  -0.123
REMARK UNBOUND:                -0.272
REMARK SMILES CCCCCCCCC(=O)[O-]
REMARK SMILES IDX 6 1 7 2 8 3 9 4 10 5 11 6 5 7 4 8 3 9 2 10 1 11
REMARK H PARENT
REMARK Flexibility Score: inf
ROOT
ATOM      1  C   UNL     1      48.478 -41.173  -4.280  1.00  0.00     0.000 C 
ENDROOT
BRANCH   1   2
ATOM      2  C   UNL     1      47.532 -39.967  -4.370  1.00  0.00     0.006 C 
BRANCH   2   3
ATOM      3  C   UNL     1      46.174 -40.288  -3.740  1.00  0.00     0.053 C 
BRANCH   3   4
ATOM      4  C   UNL     1      45.320 -39.061  -3.680  1.00  0.00     0.041 C 
ATOM      5  O   UNL     1      45.841 -37.937  -3.459  1.00  0.00    -0.550 OA
ATOM      6  O   UNL     1      43.942 -39.166  -3.817  1.00  0.00    -0.550 OA
ENDBRANCH   3   4
ENDBRANCH   2   3
ENDBRANCH   1   2
BRANCH   1   7
ATOM      7  C   UNL     1      49.359 -41.147  -3.017  1.00  0.00     0.000 C 
BRANCH   7   8
ATOM      8  C   UNL     1      50.760 -41.770  -3.189  1.00  0.00    -0.000 C 
BRANCH   8   9
ATOM      9  C   UNL     1      51.922 -40.944  -2.601  1.00  0.00    -0.000 C 
BRANCH   9  10
ATOM     10  C   UNL     1      52.990 -41.768  -1.862  1.00  0.00    -0.003 C 
ATOM     11  C   UNL     1      54.354 -41.079  -1.828  1.00  0.00     0.004 C 
ENDBRANCH   9  10
ENDBRANCH   8   9
ENDBRANCH   7   8
ENDBRANCH   1   7
TORSDOF 7
ENDMDL
MODEL 9
REMARK VINA RESULT:    -4.040     12.166     13.055
REMARK INTER + INTRA:          -5.966
REMARK INTER:                  -5.387
REMARK INTRA:                  -0.578
REMARK UNBOUND:                -0.272
REMARK SMILES CCCCCCCCC(=O)[O-]
REMARK SMILES IDX 6 1 7 2 8 3 9 4 10 5 11 6 5 7 4 8 3 9 2 10 1 11
REMARK H PARENT
REMARK Flexibility Score: inf
ROOT
ATOM      1  C   UNL     1      51.381 -37.984   8.336  1.00  0.00     0.000 C 
ENDROOT
BRANCH   1   2
ATOM      2  C   UNL     1      50.510 -37.021   9.156  1.00  0.00     0.006 C 
BRANCH   2   3
ATOM      3  C   UNL     1      51.025 -36.909  10.594  1.00  0.00     0.053 C 
BRANCH   3   4
ATOM      4  C   UNL     1      50.112 -37.629  11.536  1.00  0.00     0.041 C 
ATOM      5  O   UNL     1      49.869 -38.853  11.370  1.00  0.00    -0.550 OA
ATOM      6  O   UNL     1      49.491 -36.938  12.568  1.00  0.00    -0.550 OA
ENDBRANCH   3   4
ENDBRANCH   2   3
ENDBRANCH   1   2
BRANCH   1   7
ATOM      7  C   UNL     1      50.554 -39.037   7.576  1.00  0.00     0.000 C 
BRANCH   7   8
ATOM      8  C   UNL     1      49.043 -39.025   7.885  1.00  0.00    -0.000 C 
BRANCH   8   9
ATOM      9  C   UNL     1      48.472 -40.353   8.419  1.00  0.00    -0.000 C 
BRANCH   9  10
ATOM     10  C   UNL     1      49.508 -41.478   8.592  1.00  0.00    -0.003 C 
ATOM     11  C   UNL     1      49.415 -42.546   7.503  1.00  0.00     0.004 C 
ENDBRANCH   9  10
ENDBRANCH   8   9
ENDBRANCH   7   8
ENDBRANCH   1   7
TORSDOF 7
ENDMDL
