MODEL 1
REMARK VINA RESULT:    -3.698      0.000      0.000
REMARK INTER + INTRA:          -6.353
REMARK INTER:                  -5.860
REMARK INTRA:                  -0.493
REMARK UNBOUND:                -0.493
REMARK SMILES CCCCCCCCCCCC(=O)[O-]
REMARK SMILES IDX 7 1 8 2 9 3 10 4 11 5 12 6 13 7 14 8 6 9 5 10 4 11 3 12 2 13
REMARK SMILES IDX 1 14
REMARK H PARENT
REMARK Flexibility Score: inf
ROOT
ATOM      1  C   UNL     1      10.286  -0.029  45.345  1.00  0.00     0.000 C 
ENDROOT
BRANCH   1   2
ATOM      2  C   UNL     1       9.779   1.040  46.327  1.00  0.00     0.000 C 
BRANCH   2   3
ATOM      3  C   UNL     1       8.275   1.325  46.165  1.00  0.00     0.000 C 
BRANCH   3   4
ATOM      4  C   UNL     1       7.781   1.084  44.728  1.00  0.00     0.006 C 
BRANCH   4   5
ATOM      5  C   UNL     1       6.308   0.663  44.671  1.00  0.00     0.053 C 
BRANCH   5   6
ATOM      6  C   UNL     1       5.439   1.842  44.367  1.00  0.00     0.041 C 
ATOM      7  O   UNL     1       5.858   2.760  43.614  1.00  0.00    -0.550 OA
ATOM      8  O   UNL     1       4.148   1.904  44.875  1.00  0.00    -0.550 OA
ENDBRANCH   5   6
ENDBRANCH   4   5
ENDBRANCH   3   4
ENDBRANCH   2   3
ENDBRANCH   1   2
BRANCH   1   9
ATOM      9  C   UNL     1      11.748  -0.428  45.611  1.00  0.00     0.000 C 
BRANCH   9  10
ATOM     10  C   UNL     1      12.523  -0.724  44.317  1.00  0.00    -0.000 C 
BRANCH  10  11
ATOM     11  C   UNL     1      14.030  -0.438  44.450  1.00  0.00    -0.000 C 
BRANCH  11  12
ATOM     12  C   UNL     1      14.348   0.534  45.598  1.00  0.00    -0.000 C 
BRANCH  12  13
ATOM     13  C   UNL     1      15.540   1.448  45.282  1.00  0.00    -0.003 C 
ATOM     14  C   UNL     1      16.308   0.948  44.062  1.00  0.00     0.004 C 
ENDBRANCH  12  13
ENDBRANCH  11  12
ENDBRANCH  10  11
ENDBRANCH   9  10
ENDBRANCH   1   9
TORSDOF 10
ENDMDL
MODEL 2
REMARK VINA RESULT:    -3.674      9.270     11.429
REMARK INTER + INTRA:          -6.315
REMARK INTER:                  -5.428
REMARK INTRA:                  -0.887
REMARK UNBOUND:                -0.493
REMARK SMILES CCCCCCCCCCCC(=O)[O-]
REMARK SMILES IDX 7 1 8 2 9 3 10 4 11 5 12 6 13 7 14 8 6 9 5 10 4 11 3 12 2 13
REMARK SMILES IDX 1 14
REMARK H PARENT
REMARK Flexibility Score: inf
ROOT
ATOM      1  C   UNL     1      14.640   2.834  38.448  1.00  0.00     0.000 C 
ENDROOT
BRANCH   1   2
ATOM      2  C   UNL     1      15.885   3.574  38.963  1.00  0.00     0.000 C 
BRANCH   2   3
ATOM      3  C   UNL     1      17.149   3.240  38.151  1.00  0.00     0.000 C 
BRANCH   3   4
ATOM      4  C   UNL     1      17.253   4.064  36.857  1.00  0.00     0.006 C 
BRANCH   4   5
ATOM      5  C   UNL     1      17.017   5.562  37.087  1.00  0.00     0.053 C 
BRANCH   5   6
ATOM      6  C   UNL     1      15.975   6.077  36.146  1.00  0.00     0.041 C 
ATOM      7  O   UNL     1      16.143   7.176  35.555  1.00  0.00    -0.550 OA
ATOM      8  O   UNL     1      14.840   5.320  35.883  1.00  0.00    -0.550 OA
ENDBRANCH   5   6
ENDBRANCH   4   5
ENDBRANCH   3   4
ENDBRANCH   2   3
ENDBRANCH   1   2
BRANCH   1   9
ATOM      9  C   UNL     1      14.796   1.304  38.506  1.00  0.00     0.000 C 
BRANCH   9  10
ATOM     10  C   UNL     1      14.332   0.614  37.214  1.00  0.00    -0.000 C 
BRANCH  10  11
ATOM     11  C   UNL     1      15.264   0.899  36.022  1.00  0.00    -0.000 C 
BRANCH  11  12
ATOM     12  C   UNL     1      15.680  -0.381  35.279  1.00  0.00    -0.000 C 
BRANCH  12  13
ATOM     13  C   UNL     1      15.600  -0.230  33.754  1.00  0.00    -0.003 C 
ATOM     14  C   UNL     1      14.156  -0.045  33.296  1.00  0.00     0.004 C 
ENDBRANCH  12  13
ENDBRANCH  11  12
ENDBRANCH  10  11
ENDBRANCH   9  10
ENDBRANCH   1   9
TORSDOF 10
ENDMDL
MODEL 3
REMARK VINA RESULT:    -3.576      3.978      6.849
REMARK INTER + INTRA:          -6.159
REMARK INTER:                  -4.917
REMARK INTRA:                  -1.242
REMARK UNBOUND:                -0.493
REMARK SMILES CCCCCCCCCCCC(=O)[O-]
REMARK SMILES IDX 7 1 8 2 9 3 10 4 11 5 12 6 13 7 14 8 6 9 5 10 4 11 3 12 2 13
REMARK SMILES IDX 1 14
REMARK H PARENT
REMARK Flexibility Score: inf
ROOT
ATOM      1  C   UNL     1       6.327   0.283  45.494  1.00  0.00     0.000 C 
ENDROOT
BRANCH   1   2
ATOM      2  C   UNL     1       7.668  -0.074  46.158  1.00  0.00     0.000 C 
BRANCH   2   3
ATOM      3  C   UNL     1       8.874   0.523  45.411  1.00  0.00     0.000 C 
BRANCH   3   4
ATOM      4  C   UNL     1      10.196   0.318  46.169  1.00  0.00     0.006 C 
BRANCH   4   5
ATOM      5  C   UNL     1      11.299  -0.277  45.285  1.00  0.00     0.053 C 
BRANCH   5   6
ATOM      6  C   UNL     1      12.179  -1.183  46.087  1.00  0.00     0.041 C 
ATOM      7  O   UNL     1      12.753  -2.159  45.537  1.00  0.00    -0.550 OA
ATOM      8  O   UNL     1      12.406  -0.920  47.432  1.00  0.00    -0.550 OA
ENDBRANCH   5   6
ENDBRANCH   4   5
ENDBRANCH   3   4
ENDBRANCH   2   3
ENDBRANCH   1   2
BRANCH   1   9
ATOM      9  C   UNL     1       6.508   1.102  44.204  1.00  0.00     0.000 C 
BRANCH   9  10
ATOM     10  C   UNL     1       5.531   2.285  44.115  1.00  0.00    -0.000 C 
BRANCH  10  11
ATOM     11  C   UNL     1       5.981   3.491  44.958  1.00  0.00    -0.000 C 
BRANCH  11  12
ATOM     12  C   UNL     1       7.429   3.913  44.659  1.00  0.00    -0.000 C 
BRANCH  12  13
ATOM     13  C   UNL     1       8.240   4.182  45.934  1.00  0.00    -0.003 C 
ATOM     14  C   UNL     1       7.611   3.491  47.141  1.00  0.00     0.004 C 
ENDBRANCH  12  13
ENDBRANCH  11  12
ENDBRANCH  10  11
ENDBRANCH   9  10
ENDBRANCH   1   9
TORSDOF 10
ENDMDL
MODEL 4
REMARK VINA RESULT:    -3.571      7.699      8.718
REMARK INTER + INTRA:          -6.152
REMARK INTER:                  -5.048
REMARK INTRA:                  -1.104
REMARK UNBOUND:                -0.493
REMARK SMILES CCCCCCCCCCCC(=O)[O-]
REMARK SMILES IDX 7 1 8 2 9 3 10 4 11 5 12 6 13 7 14 8 6 9 5 10 4 11 3 12 2 13
REMARK SMILES IDX 1 14
REMARK H PARENT
REMARK Flexibility Score: inf
ROOT
ATOM      1  C   UNL     1      16.654   2.135  41.274  1.00  0.00     0.000 C 
ENDROOT
BRANCH   1   2
ATOM      2  C   UNL     1      17.471   3.151  40.459  1.00  0.00     0.000 C 
BRANCH   2   3
ATOM      3  C   UNL     1      16.727   3.633  39.201  1.00  0.00     0.000 C 
BRANCH   3   4
ATOM      4  C   UNL     1      15.224   3.314  39.247  1.00  0.00     0.006 C 
BRANCH   4   5
ATOM      5  C   UNL     1      14.724   2.631  37.967  1.00  0.00     0.053 C 
BRANCH   5   6
ATOM      6  C   UNL     1      14.613   1.154  38.174  1.00  0.00     0.041 C 
ATOM      7  O   UNL     1      13.481   0.611  38.268  1.00  0.00    -0.550 OA
ATOM      8  O   UNL     1      15.758   0.369  38.213  1.00  0.00    -0.550 OA
ENDBRANCH   5   6
ENDBRANCH   4   5
ENDBRANCH   3   4
ENDBRANCH   2   3
ENDBRANCH   1   2
BRANCH   1   9
ATOM      9  C   UNL     1      16.808   2.336  42.792  1.00  0.00     0.000 C 
BRANCH   9  10
ATOM     10  C   UNL     1      17.065   1.018  43.539  1.00  0.00    -0.000 C 
BRANCH  10  11
ATOM     11  C   UNL     1      18.544   0.590  43.495  1.00  0.00    -0.000 C 
BRANCH  11  12
ATOM     12  C   UNL     1      19.502   1.739  43.848  1.00  0.00    -0.000 C 
BRANCH  12  13
ATOM     13  C   UNL     1      20.525   2.015  42.738  1.00  0.00    -0.003 C 
ATOM     14  C   UNL     1      20.350   1.042  41.575  1.00  0.00     0.004 C 
ENDBRANCH  12  13
ENDBRANCH  11  12
ENDBRANCH  10  11
ENDBRANCH   9  10
ENDBRANCH   1   9
TORSDOF 10
ENDMDL
MODEL 5
REMARK VINA RESULT:    -3.511      3.674      6.978
REMARK INTER + INTRA:          -6.056
REMARK INTER:                  -4.732
REMARK INTRA:                  -1.324
REMARK UNBOUND:                -0.493
REMARK SMILES CCCCCCCCCCCC(=O)[O-]
REMARK SMILES IDX 7 1 8 2 9 3 10 4 11 5 12 6 13 7 14 8 6 9 5 10 4 11 3 12 2 13
REMARK SMILES IDX 1 14
REMARK H PARENT
REMARK Flexibility Score: inf
ROOT
ATOM      1  C   UNL     1       7.364   3.506  46.632  1.00  0.00     0.000 C 
ENDROOT
BRANCH   1   2
ATOM      2  C   UNL     1       8.652   2.895  46.053  1.00  0.00     0.000 C 
BRANCH   2   3
ATOM      3  C   UNL     1       8.924   1.477  46.584  1.00  0.00     0.000 C 
BRANCH   3   4
ATOM      4  C   UNL     1       9.317   0.495  45.468  1.00  0.00     0.006 C 
BRANCH   4   5
ATOM      5  C   UNL     1      10.750  -0.030  45.619  1.00  0.00     0.053 C 
BRANCH   5   6
ATOM      6  C   UNL     1      10.738  -1.453  46.082  1.00  0.00     0.041 C 
ATOM      7  O   UNL     1      11.820  -2.081  46.226  1.00  0.00    -0.550 OA
ATOM      8  O   UNL     1       9.536  -2.071  46.400  1.00  0.00    -0.550 OA
ENDBRANCH   5   6
ENDBRANCH   4   5
ENDBRANCH   3   4
ENDBRANCH   2   3
ENDBRANCH   1   2
BRANCH   1   9
ATOM      9  C   UNL     1       6.431   4.058  45.541  1.00  0.00     0.000 C 
BRANCH   9  10
ATOM     10  C   UNL     1       6.513   3.255  44.233  1.00  0.00    -0.000 C 
BRANCH  10  11
ATOM     11  C   UNL     1       5.397   2.203  44.110  1.00  0.00    -0.000 C 
BRANCH  11  12
ATOM     12  C   UNL     1       5.869   0.793  44.500  1.00  0.00    -0.000 C 
BRANCH  12  13
ATOM     13  C   UNL     1       5.388   0.376  45.897  1.00  0.00    -0.003 C 
ATOM     14  C   UNL     1       6.018  -0.947  46.323  1.00  0.00     0.004 C 
ENDBRANCH  12  13
ENDBRANCH  11  12
ENDBRANCH  10  11
ENDBRANCH   9  10
ENDBRANCH   1   9
TORSDOF 10
ENDMDL
MODEL 6
REMARK VINA RESULT:    -3.507      9.813     12.325
REMARK INTER + INTRA:          -6.050
REMARK INTER:                  -4.753
REMARK INTRA:                  -1.296
REMARK UNBOUND:                -0.493
REMARK SMILES CCCCCCCCCCCC(=O)[O-]
REMARK SMILES IDX 7 1 8 2 9 3 10 4 11 5 12 6 13 7 14 8 6 9 5 10 4 11 3 12 2 13
REMARK SMILES IDX 1 14
REMARK H PARENT
REMARK Flexibility Score: inf
ROOT
ATOM      1  C   UNL     1      16.844   0.472  33.177  1.00  0.00     0.000 C 
ENDROOT
BRANCH   1   2
ATOM      2  C   UNL     1      17.250   1.924  32.875  1.00  0.00     0.000 C 
BRANCH   2   3
ATOM      3  C   UNL     1      16.301   2.949  33.521  1.00  0.00     0.000 C 
BRANCH   3   4
ATOM      4  C   UNL     1      17.031   3.909  34.475  1.00  0.00     0.006 C 
BRANCH   4   5
ATOM      5  C   UNL     1      16.333   4.040  35.834  1.00  0.00     0.053 C 
BRANCH   5   6
ATOM      6  C   UNL     1      15.474   5.264  35.863  1.00  0.00     0.041 C 
ATOM      7  O   UNL     1      14.277   5.189  36.248  1.00  0.00    -0.550 OA
ATOM      8  O   UNL     1      16.008   6.497  35.513  1.00  0.00    -0.550 OA
ENDBRANCH   5   6
ENDBRANCH   4   5
ENDBRANCH   3   4
ENDBRANCH   2   3
ENDBRANCH   1   2
BRANCH   1   9
ATOM      9  C   UNL     1      15.345   0.334  33.498  1.00  0.00     0.000 C 
BRANCH   9  10
ATOM     10  C   UNL     1      15.094  -0.317  34.867  1.00  0.00    -0.000 C 
BRANCH  10  11
ATOM     11  C   UNL     1      16.310  -0.214  35.805  1.00  0.00    -0.000 C 
BRANCH  11  12
ATOM     12  C   UNL     1      15.989   0.531  37.110  1.00  0.00    -0.000 C 
BRANCH  12  13
ATOM     13  C   UNL     1      14.526   0.991  37.181  1.00  0.00    -0.003 C 
ATOM     14  C   UNL     1      14.343   2.085  38.229  1.00  0.00     0.004 C 
ENDBRANCH  12  13
ENDBRANCH  11  12
ENDBRANCH  10  11
ENDBRANCH   9  10
ENDBRANCH   1   9
TORSDOF 10
ENDMDL
MODEL 7
REMARK VINA RESULT:    -3.503      8.379      9.193
REMARK INTER + INTRA:          -6.043
REMARK INTER:                  -5.012
REMARK INTRA:                  -1.030
REMARK UNBOUND:                -0.493
REMARK SMILES CCCCCCCCCCCC(=O)[O-]
REMARK SMILES IDX 7 1 8 2 9 3 10 4 11 5 12 6 13 7 14 8 6 9 5 10 4 11 3 12 2 13
REMARK SMILES IDX 1 14
REMARK H PARENT
REMARK Flexibility Score: inf
ROOT
ATOM      1  C   UNL     1      16.906   2.164  42.455  1.00  0.00     0.000 C 
ENDROOT
BRANCH   1   2
ATOM      2  C   UNL     1      16.720   1.949  40.943  1.00  0.00     0.000 C 
BRANCH   2   3
ATOM      3  C   UNL     1      15.909   3.076  40.282  1.00  0.00     0.000 C 
BRANCH   3   4
ATOM      4  C   UNL     1      15.838   2.932  38.752  1.00  0.00     0.006 C 
BRANCH   4   5
ATOM      5  C   UNL     1      14.666   2.055  38.294  1.00  0.00     0.053 C 
BRANCH   5   6
ATOM      6  C   UNL     1      15.167   0.883  37.511  1.00  0.00     0.041 C 
ATOM      7  O   UNL     1      16.095   0.165  37.968  1.00  0.00    -0.550 OA
ATOM      8  O   UNL     1      14.577   0.554  36.298  1.00  0.00    -0.550 OA
ENDBRANCH   5   6
ENDBRANCH   4   5
ENDBRANCH   3   4
ENDBRANCH   2   3
ENDBRANCH   1   2
BRANCH   1   9
ATOM      9  C   UNL     1      18.063   3.126  42.776  1.00  0.00     0.000 C 
BRANCH   9  10
ATOM     10  C   UNL     1      19.287   2.898  41.874  1.00  0.00    -0.000 C 
BRANCH  10  11
ATOM     11  C   UNL     1      20.214   1.788  42.402  1.00  0.00    -0.000 C 
BRANCH  11  12
ATOM     12  C   UNL     1      20.157   0.514  41.544  1.00  0.00    -0.000 C 
BRANCH  12  13
ATOM     13  C   UNL     1      19.691  -0.712  42.342  1.00  0.00    -0.003 C 
ATOM     14  C   UNL     1      19.494  -0.367  43.815  1.00  0.00     0.004 C 
ENDBRANCH  12  13
ENDBRANCH  11  12
ENDBRANCH  10  11
ENDBRANCH   9  10
ENDBRANCH   1   9
TORSDOF 10
ENDMDL
MODEL 8
REMARK VINA RESULT:    -3.482      7.625      9.215
REMARK INTER + INTRA:          -6.010
REMARK INTER:                  -4.846
REMARK INTRA:                  -1.164
REMARK UNBOUND:                -0.493
REMARK SMILES CCCCCCCCCCCC(=O)[O-]
REMARK SMILES IDX 7 1 8 2 9 3 10 4 11 5 12 6 13 7 14 8 6 9 5 10 4 11 3 12 2 13
REMARK SMILES IDX 1 14
REMARK H PARENT
REMARK Flexibility Score: inf
ROOT
ATOM      1  C   UNL     1      19.712   1.840  40.309  1.00  0.00     0.000 C 
ENDROOT
BRANCH   1   2
ATOM      2  C   UNL     1      18.323   1.266  39.984  1.00  0.00     0.000 C 
BRANCH   2   3
ATOM      3  C   UNL     1      17.217   2.335  40.027  1.00  0.00     0.000 C 
BRANCH   3   4
ATOM      4  C   UNL     1      15.824   1.754  39.734  1.00  0.00     0.006 C 
BRANCH   4   5
ATOM      5  C   UNL     1      15.318   2.110  38.330  1.00  0.00     0.053 C 
BRANCH   5   6
ATOM      6  C   UNL     1      14.519   0.980  37.762  1.00  0.00     0.041 C 
ATOM      7  O   UNL     1      14.914   0.382  36.727  1.00  0.00    -0.550 OA
ATOM      8  O   UNL     1      13.363   0.553  38.403  1.00  0.00    -0.550 OA
ENDBRANCH   5   6
ENDBRANCH   4   5
ENDBRANCH   3   4
ENDBRANCH   2   3
ENDBRANCH   1   2
BRANCH   1   9
ATOM      9  C   UNL     1      20.381   1.129  41.498  1.00  0.00     0.000 C 
BRANCH   9  10
ATOM     10  C   UNL     1      20.581   2.060  42.705  1.00  0.00    -0.000 C 
BRANCH  10  11
ATOM     11  C   UNL     1      19.418   1.985  43.710  1.00  0.00    -0.000 C 
BRANCH  11  12
ATOM     12  C   UNL     1      18.701   0.626  43.685  1.00  0.00    -0.000 C 
BRANCH  12  13
ATOM     13  C   UNL     1      17.173   0.767  43.636  1.00  0.00    -0.003 C 
ATOM     14  C   UNL     1      16.755   2.234  43.668  1.00  0.00     0.004 C 
ENDBRANCH  12  13
ENDBRANCH  11  12
ENDBRANCH  10  11
ENDBRANCH   9  10
ENDBRANCH   1   9
TORSDOF 10
ENDMDL
MODEL 9
REMARK VINA RESULT:    -3.454      8.132      9.173
REMARK INTER + INTRA:          -5.965
REMARK INTER:                  -4.618
REMARK INTRA:                  -1.347
REMARK UNBOUND:                -0.493
REMARK SMILES CCCCCCCCCCCC(=O)[O-]
REMARK SMILES IDX 7 1 8 2 9 3 10 4 11 5 12 6 13 7 14 8 6 9 5 10 4 11 3 12 2 13
REMARK SMILES IDX 1 14
REMARK H PARENT
REMARK Flexibility Score: inf
ROOT
ATOM      1  C   UNL     1      17.013   1.950  42.070  1.00  0.00     0.000 C 
ENDROOT
BRANCH   1   2
ATOM      2  C   UNL     1      16.593   3.276  41.414  1.00  0.00     0.000 C 
BRANCH   2   3
ATOM      3  C   UNL     1      15.919   3.071  40.046  1.00  0.00     0.000 C 
BRANCH   3   4
ATOM      4  C   UNL     1      15.842   1.589  39.643  1.00  0.00     0.006 C 
BRANCH   4   5
ATOM      5  C   UNL     1      15.950   1.381  38.128  1.00  0.00     0.053 C 
BRANCH   5   6
ATOM      6  C   UNL     1      14.680   0.802  37.589  1.00  0.00     0.041 C 
ATOM      7  O   UNL     1      13.665   0.704  38.328  1.00  0.00    -0.550 OA
ATOM      8  O   UNL     1      14.602   0.415  36.257  1.00  0.00    -0.550 OA
ENDBRANCH   5   6
ENDBRANCH   4   5
ENDBRANCH   3   4
ENDBRANCH   2   3
ENDBRANCH   1   2
BRANCH   1   9
ATOM      9  C   UNL     1      17.959   2.157  43.266  1.00  0.00     0.000 C 
BRANCH   9  10
ATOM     10  C   UNL     1      19.432   2.257  42.841  1.00  0.00    -0.000 C 
BRANCH  10  11
ATOM     11  C   UNL     1      19.914   1.015  42.070  1.00  0.00    -0.000 C 
BRANCH  11  12
ATOM     12  C   UNL     1      20.672   1.376  40.783  1.00  0.00    -0.000 C 
BRANCH  12  13
ATOM     13  C   UNL     1      19.742   1.500  39.567  1.00  0.00    -0.003 C 
ATOM     14  C   UNL     1      19.573   2.958  39.151  1.00  0.00     0.004 C 
ENDBRANCH  12  13
ENDBRANCH  11  12
ENDBRANCH  10  11
ENDBRANCH   9  10
ENDBRANCH   1   9
TORSDOF 10
ENDMDL
