MODEL 1
REMARK VINA RESULT:    -1.538      0.000      0.000
REMARK INTER + INTRA:          -2.749
REMARK INTER:                  -2.347
REMARK INTRA:                  -0.403
REMARK UNBOUND:                -0.403
REMARK SMILES O=C([O-])CCCCCCCCC(=O)[O-]
REMARK SMILES IDX 7 1 6 2 5 3 4 4 2 5 1 6 3 7 8 8 9 9 10 10 11 11 12 12 13 13
REMARK SMILES IDX 14 14
REMARK H PARENT
REMARK Flexibility Score: inf
ROOT
ATOM      1  C   UNL     1      -4.623  34.952  19.202  1.00  0.00     0.000 C 
ENDROOT
BRANCH   1   2
ATOM      2  C   UNL     1      -4.573  34.552  17.723  1.00  0.00     0.000 C 
BRANCH   2   3
ATOM      3  C   UNL     1      -4.050  35.705  16.858  1.00  0.00     0.006 C 
BRANCH   3   4
ATOM      4  C   UNL     1      -3.172  35.182  15.718  1.00  0.00     0.053 C 
BRANCH   4   5
ATOM      5  C   UNL     1      -3.120  36.173  14.599  1.00  0.00     0.041 C 
ATOM      6  O   UNL     1      -2.088  36.267  13.883  1.00  0.00    -0.550 OA
ATOM      7  O   UNL     1      -4.191  37.030  14.378  1.00  0.00    -0.550 OA
ENDBRANCH   4   5
ENDBRANCH   3   4
ENDBRANCH   2   3
ENDBRANCH   1   2
BRANCH   1   8
ATOM      8  C   UNL     1      -6.020  34.705  19.793  1.00  0.00     0.000 C 
BRANCH   8   9
ATOM      9  C   UNL     1      -6.125  35.108  21.275  1.00  0.00     0.000 C 
BRANCH   9  10
ATOM     10  C   UNL     1      -5.049  36.095  21.759  1.00  0.00     0.006 C 
BRANCH  10  11
ATOM     11  C   UNL     1      -5.639  37.339  22.435  1.00  0.00     0.053 C 
BRANCH  11  12
ATOM     12  C   UNL     1      -5.523  38.528  21.536  1.00  0.00     0.041 C 
ATOM     13  O   UNL     1      -5.610  38.389  20.287  1.00  0.00    -0.550 OA
ATOM     14  O   UNL     1      -5.369  39.799  22.077  1.00  0.00    -0.550 OA
ENDBRANCH  11  12
ENDBRANCH  10  11
ENDBRANCH   9  10
ENDBRANCH   8   9
ENDBRANCH   1   8
TORSDOF 9
ENDMDL
MODEL 2
REMARK VINA RESULT:    -1.479      2.170      2.473
REMARK INTER + INTRA:          -2.660
REMARK INTER:                  -2.637
REMARK INTRA:                  -0.023
REMARK UNBOUND:                -0.403
REMARK SMILES O=C([O-])CCCCCCCCC(=O)[O-]
REMARK SMILES IDX 7 1 6 2 5 3 4 4 2 5 1 6 3 7 8 8 9 9 10 10 11 11 12 12 13 13
REMARK SMILES IDX 14 14
REMARK H PARENT
REMARK Flexibility Score: inf
ROOT
ATOM      1  C   UNL     1      -4.659  35.275  19.070  1.00  0.00     0.000 C 
ENDROOT
BRANCH   1   2
ATOM      2  C   UNL     1      -4.406  34.503  17.770  1.00  0.00     0.000 C 
BRANCH   2   3
ATOM      3  C   UNL     1      -4.346  35.453  16.568  1.00  0.00     0.006 C 
BRANCH   3   4
ATOM      4  C   UNL     1      -2.973  35.398  15.893  1.00  0.00     0.053 C 
BRANCH   4   5
ATOM      5  C   UNL     1      -2.991  36.159  14.605  1.00  0.00     0.041 C 
ATOM      6  O   UNL     1      -1.937  36.282  13.927  1.00  0.00    -0.550 OA
ATOM      7  O   UNL     1      -4.160  36.776  14.179  1.00  0.00    -0.550 OA
ENDBRANCH   4   5
ENDBRANCH   3   4
ENDBRANCH   2   3
ENDBRANCH   1   2
BRANCH   1   8
ATOM      8  C   UNL     1      -6.075  35.009  19.602  1.00  0.00     0.000 C 
BRANCH   8   9
ATOM      9  C   UNL     1      -6.125  34.871  21.135  1.00  0.00     0.000 C 
BRANCH   9  10
ATOM     10  C   UNL     1      -5.273  35.893  21.908  1.00  0.00     0.006 C 
BRANCH  10  11
ATOM     11  C   UNL     1      -6.020  36.518  23.094  1.00  0.00     0.053 C 
BRANCH  11  12
ATOM     12  C   UNL     1      -5.930  35.631  24.294  1.00  0.00     0.041 C 
ATOM     13  O   UNL     1      -5.775  36.128  25.441  1.00  0.00    -0.550 OA
ATOM     14  O   UNL     1      -6.069  34.255  24.155  1.00  0.00    -0.550 OA
ENDBRANCH  11  12
ENDBRANCH  10  11
ENDBRANCH   9  10
ENDBRANCH   8   9
ENDBRANCH   1   8
TORSDOF 9
ENDMDL
MODEL 3
REMARK VINA RESULT:    -1.258      3.069      7.496
REMARK INTER + INTRA:          -2.323
REMARK INTER:                  -1.835
REMARK INTRA:                  -0.488
REMARK UNBOUND:                -0.403
REMARK SMILES O=C([O-])CCCCCCCCC(=O)[O-]
REMARK SMILES IDX 7 1 6 2 5 3 4 4 2 5 1 6 3 7 8 8 9 9 10 10 11 11 12 12 13 13
REMARK SMILES IDX 14 14
REMARK H PARENT
REMARK Flexibility Score: inf
ROOT
ATOM      1  C   UNL     1      -5.258  34.975  22.954  1.00  0.00     0.000 C 
ENDROOT
BRANCH   1   2
ATOM      2  C   UNL     1      -6.117  34.823  24.215  1.00  0.00     0.000 C 
BRANCH   2   3
ATOM      3  C   UNL     1      -6.125  36.118  25.035  1.00  0.00     0.006 C 
BRANCH   3   4
ATOM      4  C   UNL     1      -4.896  36.199  25.945  1.00  0.00     0.053 C 
BRANCH   4   5
ATOM      5  C   UNL     1      -4.274  37.557  25.867  1.00  0.00     0.041 C 
ATOM      6  O   UNL     1      -4.695  38.399  25.032  1.00  0.00    -0.550 OA
ATOM      7  O   UNL     1      -3.195  37.876  26.683  1.00  0.00    -0.550 OA
ENDBRANCH   4   5
ENDBRANCH   3   4
ENDBRANCH   2   3
ENDBRANCH   1   2
BRANCH   1   8
ATOM      8  C   UNL     1      -6.121  35.353  21.741  1.00  0.00     0.000 C 
BRANCH   8   9
ATOM      9  C   UNL     1      -5.720  36.701  21.115  1.00  0.00     0.000 C 
BRANCH   9  10
ATOM     10  C   UNL     1      -5.259  36.626  19.649  1.00  0.00     0.006 C 
BRANCH  10  11
ATOM     11  C   UNL     1      -4.354  35.420  19.367  1.00  0.00     0.053 C 
BRANCH  11  12
ATOM     12  C   UNL     1      -4.881  34.630  18.212  1.00  0.00     0.041 C 
ATOM     13  O   UNL     1      -4.246  34.595  17.125  1.00  0.00    -0.550 OA
ATOM     14  O   UNL     1      -6.048  33.889  18.351  1.00  0.00    -0.550 OA
ENDBRANCH  11  12
ENDBRANCH  10  11
ENDBRANCH   9  10
ENDBRANCH   8   9
ENDBRANCH   1   8
TORSDOF 9
ENDMDL
MODEL 4
REMARK VINA RESULT:    -1.175      2.156      3.444
REMARK INTER + INTRA:          -2.196
REMARK INTER:                  -2.024
REMARK INTRA:                  -0.172
REMARK UNBOUND:                -0.403
REMARK SMILES O=C([O-])CCCCCCCCC(=O)[O-]
REMARK SMILES IDX 7 1 6 2 5 3 4 4 2 5 1 6 3 7 8 8 9 9 10 10 11 11 12 12 13 13
REMARK SMILES IDX 14 14
REMARK H PARENT
REMARK Flexibility Score: inf
ROOT
ATOM      1  C   UNL     1      -4.795  34.316  22.739  1.00  0.00     0.000 C 
ENDROOT
BRANCH   1   2
ATOM      2  C   UNL     1      -4.321  34.906  21.405  1.00  0.00     0.000 C 
BRANCH   2   3
ATOM      3  C   UNL     1      -5.510  35.362  20.552  1.00  0.00     0.006 C 
BRANCH   3   4
ATOM      4  C   UNL     1      -5.037  35.923  19.207  1.00  0.00     0.053 C 
BRANCH   4   5
ATOM      5  C   UNL     1      -4.860  34.820  18.212  1.00  0.00     0.041 C 
ATOM      6  O   UNL     1      -5.444  33.717  18.378  1.00  0.00    -0.550 OA
ATOM      7  O   UNL     1      -4.008  34.992  17.128  1.00  0.00    -0.550 OA
ENDBRANCH   4   5
ENDBRANCH   3   4
ENDBRANCH   2   3
ENDBRANCH   1   2
BRANCH   1   8
ATOM      8  C   UNL     1      -6.123  34.951  23.180  1.00  0.00     0.000 C 
BRANCH   8   9
ATOM      9  C   UNL     1      -5.935  36.088  24.201  1.00  0.00     0.000 C 
BRANCH   9  10
ATOM     10  C   UNL     1      -6.108  37.508  23.633  1.00  0.00     0.006 C 
BRANCH  10  11
ATOM     11  C   UNL     1      -5.025  37.881  22.614  1.00  0.00     0.053 C 
BRANCH  11  12
ATOM     12  C   UNL     1      -5.490  39.004  21.744  1.00  0.00     0.041 C 
ATOM     13  O   UNL     1      -5.514  40.182  22.188  1.00  0.00    -0.550 OA
ATOM     14  O   UNL     1      -5.852  38.759  20.425  1.00  0.00    -0.550 OA
ENDBRANCH  11  12
ENDBRANCH  10  11
ENDBRANCH   9  10
ENDBRANCH   8   9
ENDBRANCH   1   8
TORSDOF 9
ENDMDL
MODEL 5
REMARK VINA RESULT:    -1.141      0.610      6.228
REMARK INTER + INTRA:          -2.144
REMARK INTER:                  -1.662
REMARK INTRA:                  -0.481
REMARK UNBOUND:                -0.403
REMARK SMILES O=C([O-])CCCCCCCCC(=O)[O-]
REMARK SMILES IDX 7 1 6 2 5 3 4 4 2 5 1 6 3 7 8 8 9 9 10 10 11 11 12 12 13 13
REMARK SMILES IDX 14 14
REMARK H PARENT
REMARK Flexibility Score: inf
ROOT
ATOM      1  C   UNL     1      -6.102  34.607  19.332  1.00  0.00     0.000 C 
ENDROOT
BRANCH   1   2
ATOM      2  C   UNL     1      -6.125  34.992  20.816  1.00  0.00     0.000 C 
BRANCH   2   3
ATOM      3  C   UNL     1      -4.979  35.954  21.153  1.00  0.00     0.006 C 
BRANCH   3   4
ATOM      4  C   UNL     1      -5.461  37.081  22.072  1.00  0.00     0.053 C 
BRANCH   4   5
ATOM      5  C   UNL     1      -5.488  38.383  21.336  1.00  0.00     0.041 C 
ATOM      6  O   UNL     1      -5.474  39.470  21.971  1.00  0.00    -0.550 OA
ATOM      7  O   UNL     1      -5.580  38.396  19.950  1.00  0.00    -0.550 OA
ENDBRANCH   4   5
ENDBRANCH   3   4
ENDBRANCH   2   3
ENDBRANCH   1   2
BRANCH   1   8
ATOM      8  C   UNL     1      -4.919  35.270  18.610  1.00  0.00     0.000 C 
BRANCH   8   9
ATOM      9  C   UNL     1      -4.214  34.325  17.620  1.00  0.00     0.000 C 
BRANCH   9  10
ATOM     10  C   UNL     1      -3.417  35.026  16.505  1.00  0.00     0.006 C 
BRANCH  10  11
ATOM     11  C   UNL     1      -4.194  36.171  15.843  1.00  0.00     0.053 C 
BRANCH  11  12
ATOM     12  C   UNL     1      -3.476  36.654  14.624  1.00  0.00     0.041 C 
ATOM     13  O   UNL     1      -3.972  37.570  13.917  1.00  0.00    -0.550 OA
ATOM     14  O   UNL     1      -2.232  36.128  14.295  1.00  0.00    -0.550 OA
ENDBRANCH  11  12
ENDBRANCH  10  11
ENDBRANCH   9  10
ENDBRANCH   8   9
ENDBRANCH   1   8
TORSDOF 9
ENDMDL
MODEL 6
REMARK VINA RESULT:    -1.101      2.522      3.839
REMARK INTER + INTRA:          -2.082
REMARK INTER:                  -1.658
REMARK INTRA:                  -0.424
REMARK UNBOUND:                -0.403
REMARK SMILES O=C([O-])CCCCCCCCC(=O)[O-]
REMARK SMILES IDX 7 1 6 2 5 3 4 4 2 5 1 6 3 7 8 8 9 9 10 10 11 11 12 12 13 13
REMARK SMILES IDX 14 14
REMARK H PARENT
REMARK Flexibility Score: inf
ROOT
ATOM      1  C   UNL     1      -5.186  34.261  23.267  1.00  0.00     0.000 C 
ENDROOT
BRANCH   1   2
ATOM      2  C   UNL     1      -5.601  34.378  21.796  1.00  0.00     0.000 C 
BRANCH   2   3
ATOM      3  C   UNL     1      -4.678  35.339  21.038  1.00  0.00     0.006 C 
BRANCH   3   4
ATOM      4  C   UNL     1      -5.355  35.863  19.767  1.00  0.00     0.053 C 
BRANCH   4   5
ATOM      5  C   UNL     1      -5.276  34.845  18.674  1.00  0.00     0.041 C 
ATOM      6  O   UNL     1      -6.110  33.903  18.624  1.00  0.00    -0.550 OA
ATOM      7  O   UNL     1      -4.250  34.907  17.739  1.00  0.00    -0.550 OA
ENDBRANCH   4   5
ENDBRANCH   3   4
ENDBRANCH   2   3
ENDBRANCH   1   2
BRANCH   1   8
ATOM      8  C   UNL     1      -6.125  35.076  24.170  1.00  0.00     0.000 C 
BRANCH   8   9
ATOM      9  C   UNL     1      -5.381  36.124  25.019  1.00  0.00     0.000 C 
BRANCH   9  10
ATOM     10  C   UNL     1      -5.505  37.574  24.518  1.00  0.00     0.006 C 
BRANCH  10  11
ATOM     11  C   UNL     1      -6.125  37.673  23.119  1.00  0.00     0.053 C 
BRANCH  11  12
ATOM     12  C   UNL     1      -5.560  38.844  22.379  1.00  0.00     0.041 C 
ATOM     13  O   UNL     1      -5.613  38.884  21.121  1.00  0.00    -0.550 OA
ATOM     14  O   UNL     1      -5.020  39.915  23.080  1.00  0.00    -0.550 OA
ENDBRANCH  11  12
ENDBRANCH  10  11
ENDBRANCH   9  10
ENDBRANCH   8   9
ENDBRANCH   1   8
TORSDOF 9
ENDMDL
MODEL 7
REMARK VINA RESULT:    -1.006      3.660      4.983
REMARK INTER + INTRA:          -1.938
REMARK INTER:                  -1.572
REMARK INTRA:                  -0.366
REMARK UNBOUND:                -0.403
REMARK SMILES O=C([O-])CCCCCCCCC(=O)[O-]
REMARK SMILES IDX 7 1 6 2 5 3 4 4 2 5 1 6 3 7 8 8 9 9 10 10 11 11 12 12 13 13
REMARK SMILES IDX 14 14
REMARK H PARENT
REMARK Flexibility Score: inf
ROOT
ATOM      1  C   UNL     1      -4.267  34.843  21.806  1.00  0.00     0.000 C 
ENDROOT
BRANCH   1   2
ATOM      2  C   UNL     1      -5.203  34.921  20.595  1.00  0.00     0.000 C 
BRANCH   2   3
ATOM      3  C   UNL     1      -5.512  36.378  20.231  1.00  0.00     0.006 C 
BRANCH   3   4
ATOM      4  C   UNL     1      -5.196  37.315  21.401  1.00  0.00     0.053 C 
BRANCH   4   5
ATOM      5  C   UNL     1      -5.489  38.734  21.030  1.00  0.00     0.041 C 
ATOM      6  O   UNL     1      -5.485  39.633  21.911  1.00  0.00    -0.550 OA
ATOM      7  O   UNL     1      -5.815  39.057  19.718  1.00  0.00    -0.550 OA
ENDBRANCH   4   5
ENDBRANCH   3   4
ENDBRANCH   2   3
ENDBRANCH   1   2
BRANCH   1   8
ATOM      8  C   UNL     1      -4.784  33.827  22.837  1.00  0.00     0.000 C 
BRANCH   8   9
ATOM      9  C   UNL     1      -6.083  34.281  23.527  1.00  0.00     0.000 C 
BRANCH   9  10
ATOM     10  C   UNL     1      -6.125  35.768  23.923  1.00  0.00     0.006 C 
BRANCH  10  11
ATOM     11  C   UNL     1      -5.752  36.006  25.391  1.00  0.00     0.053 C 
BRANCH  11  12
ATOM     12  C   UNL     1      -4.891  37.222  25.521  1.00  0.00     0.041 C 
ATOM     13  O   UNL     1      -5.188  38.278  24.902  1.00  0.00    -0.550 OA
ATOM     14  O   UNL     1      -3.786  37.206  26.364  1.00  0.00    -0.550 OA
ENDBRANCH  11  12
ENDBRANCH  10  11
ENDBRANCH   9  10
ENDBRANCH   8   9
ENDBRANCH   1   8
TORSDOF 9
ENDMDL
MODEL 8
REMARK VINA RESULT:     0.817      2.943      4.011
REMARK INTER + INTRA:           0.844
REMARK INTER:                   1.281
REMARK INTRA:                  -0.437
REMARK UNBOUND:                -0.403
REMARK SMILES O=C([O-])CCCCCCCCC(=O)[O-]
REMARK SMILES IDX 7 1 6 2 5 3 4 4 2 5 1 6 3 7 8 8 9 9 10 10 11 11 12 12 13 13
REMARK SMILES IDX 14 14
REMARK H PARENT
REMARK Flexibility Score: inf
ROOT
ATOM      1  C   UNL     1      -4.498  34.918  21.918  1.00  0.00     0.000 C 
ENDROOT
BRANCH   1   2
ATOM      2  C   UNL     1      -5.872  35.486  21.540  1.00  0.00     0.000 C 
BRANCH   2   3
ATOM      3  C   UNL     1      -6.032  35.572  20.018  1.00  0.00     0.006 C 
BRANCH   3   4
ATOM      4  C   UNL     1      -4.668  35.622  19.324  1.00  0.00     0.053 C 
BRANCH   4   5
ATOM      5  C   UNL     1      -4.682  34.793  18.079  1.00  0.00     0.041 C 
ATOM      6  O   UNL     1      -5.411  33.770  18.008  1.00  0.00    -0.550 OA
ATOM      7  O   UNL     1      -3.851  35.123  17.015  1.00  0.00    -0.550 OA
ENDBRANCH   4   5
ENDBRANCH   3   4
ENDBRANCH   2   3
ENDBRANCH   1   2
BRANCH   1   8
ATOM      8  C   UNL     1      -4.577  34.110  23.222  1.00  0.00     0.000 C 
BRANCH   8   9
ATOM      9  C   UNL     1      -5.980  34.127  23.856  1.00  0.00     0.000 C 
BRANCH   9  10
ATOM     10  C   UNL     1      -6.125  35.031  25.093  1.00  0.00     0.006 C 
BRANCH  10  11
ATOM     11  C   UNL     1      -6.125  36.525  24.745  1.00  0.00     0.053 C 
BRANCH  11  12
ATOM     12  C   UNL     1      -4.972  37.214  25.401  1.00  0.00     0.041 C 
ATOM     13  O   UNL     1      -4.251  36.596  26.228  1.00  0.00    -0.550 OA
ATOM     14  O   UNL     1      -4.661  38.526  25.063  1.00  0.00    -0.550 OA
ENDBRANCH  11  12
ENDBRANCH  10  11
ENDBRANCH   9  10
ENDBRANCH   8   9
ENDBRANCH   1   8
TORSDOF 9
ENDMDL
