MODEL 1
REMARK VINA RESULT:    -5.326      0.000      0.000
REMARK INTER + INTRA:          -6.014
REMARK INTER:                  -5.949
REMARK INTRA:                  -0.066
REMARK UNBOUND:                -0.066
REMARK SMILES COc1cc2ccc(=O)oc2c(O)c1O
REMARK SMILES IDX 3 1 14 2 12 3 11 4 5 5 4 6 6 7 7 8 8 9 9 10 10 11 2 12 1 13
REMARK SMILES IDX 15 14 13 16
REMARK H PARENT 15 15 13 17
REMARK Flexibility Score: inf
ROOT
ATOM      1  C   UNL     1      19.873  -0.390 -17.781  1.00  0.00     0.165 A 
ATOM      2  C   UNL     1      20.821   0.631 -17.572  1.00  0.00     0.204 A 
ATOM      3  C   UNL     1      21.573   1.133 -18.650  1.00  0.00     0.205 A 
ATOM      4  C   UNL     1      21.378   0.620 -19.938  1.00  0.00     0.184 A 
ATOM      5  C   UNL     1      20.430  -0.401 -20.152  1.00  0.00     0.025 A 
ATOM      6  C   UNL     1      19.683  -0.901 -19.080  1.00  0.00     0.062 A 
ATOM      7  C   UNL     1      20.261  -0.893 -21.452  1.00  0.00     0.020 A 
ATOM      8  C   UNL     1      21.027  -0.364 -22.489  1.00  0.00     0.094 A 
ATOM      9  C   UNL     1      21.948   0.647 -22.203  1.00  0.00     0.336 A 
ATOM     10  O   UNL     1      22.651   1.138 -23.125  1.00  0.00    -0.246 OA
ATOM     11  O   UNL     1      22.090   1.096 -20.958  1.00  0.00    -0.419 OA
ENDROOT
BRANCH   1  12
ATOM     12  O   UNL     1      19.141  -0.868 -16.682  1.00  0.00    -0.493 OA
ATOM     13  C   UNL     1      17.850  -0.401 -16.304  1.00  0.00     0.278 C 
ENDBRANCH   1  12
BRANCH   2  14
ATOM     14  O   UNL     1      21.028   1.154 -16.294  1.00  0.00    -0.502 OA
ATOM     15  H   UNL     1      21.902   1.040 -15.796  1.00  0.00     0.293 HD
ENDBRANCH   2  14
BRANCH   3  16
ATOM     16  O   UNL     1      22.516   2.144 -18.457  1.00  0.00    -0.502 OA
ATOM     17  H   UNL     1      23.464   1.947 -18.161  1.00  0.00     0.293 HD
ENDBRANCH   3  16
TORSDOF 3
ENDMDL
MODEL 2
REMARK VINA RESULT:    -5.286     15.877     17.198
REMARK INTER + INTRA:          -5.969
REMARK INTER:                  -5.920
REMARK INTRA:                  -0.049
REMARK UNBOUND:                -0.066
REMARK SMILES COc1cc2ccc(=O)oc2c(O)c1O
REMARK SMILES IDX 3 1 14 2 12 3 11 4 5 5 4 6 6 7 7 8 8 9 9 10 10 11 2 12 1 13
REMARK SMILES IDX 15 14 13 16
REMARK H PARENT 15 15 13 17
REMARK Flexibility Score: inf
ROOT
ATOM      1  C   UNL     1       7.558  -4.276 -10.710  1.00  0.00     0.165 A 
ATOM      2  C   UNL     1       7.108  -4.392  -9.380  1.00  0.00     0.204 A 
ATOM      3  C   UNL     1       7.767  -5.248  -8.479  1.00  0.00     0.205 A 
ATOM      4  C   UNL     1       8.877  -5.989  -8.903  1.00  0.00     0.184 A 
ATOM      5  C   UNL     1       9.332  -5.877 -10.232  1.00  0.00     0.025 A 
ATOM      6  C   UNL     1       8.675  -5.025 -11.129  1.00  0.00     0.062 A 
ATOM      7  C   UNL     1      10.443  -6.631 -10.624  1.00  0.00     0.020 A 
ATOM      8  C   UNL     1      11.065  -7.466  -9.697  1.00  0.00     0.094 A 
ATOM      9  C   UNL     1      10.560  -7.528  -8.395  1.00  0.00     0.336 A 
ATOM     10  O   UNL     1      11.106  -8.275  -7.543  1.00  0.00    -0.246 OA
ATOM     11  O   UNL     1       9.501  -6.800  -8.050  1.00  0.00    -0.419 OA
ENDROOT
BRANCH   1  12
ATOM     12  O   UNL     1       6.876  -3.412 -11.582  1.00  0.00    -0.493 OA
ATOM     13  C   UNL     1       7.289  -3.112 -12.911  1.00  0.00     0.278 C 
ENDBRANCH   1  12
BRANCH   2  14
ATOM     14  O   UNL     1       6.003  -3.660  -8.940  1.00  0.00    -0.502 OA
ATOM     15  H   UNL     1       5.990  -2.648  -8.937  1.00  0.00     0.293 HD
ENDBRANCH   2  14
BRANCH   3  16
ATOM     16  O   UNL     1       7.332  -5.373  -7.159  1.00  0.00    -0.502 OA
ATOM     17  H   UNL     1       7.948  -5.215  -6.370  1.00  0.00     0.293 HD
ENDBRANCH   3  16
TORSDOF 3
ENDMDL
MODEL 3
REMARK VINA RESULT:    -5.261     15.440     16.957
REMARK INTER + INTRA:          -5.941
REMARK INTER:                  -5.969
REMARK INTRA:                   0.028
REMARK UNBOUND:                -0.066
REMARK SMILES COc1cc2ccc(=O)oc2c(O)c1O
REMARK SMILES IDX 3 1 14 2 12 3 11 4 5 5 4 6 6 7 7 8 8 9 9 10 10 11 2 12 1 13
REMARK SMILES IDX 15 14 13 16
REMARK H PARENT 15 15 13 17
REMARK Flexibility Score: inf
ROOT
ATOM      1  C   UNL     1       8.513  -6.314  -7.596  1.00  0.00     0.165 A 
ATOM      2  C   UNL     1       9.890  -6.024  -7.665  1.00  0.00     0.204 A 
ATOM      3  C   UNL     1      10.645  -6.429  -8.780  1.00  0.00     0.205 A 
ATOM      4  C   UNL     1      10.029  -7.123  -9.828  1.00  0.00     0.184 A 
ATOM      5  C   UNL     1       8.652  -7.416  -9.764  1.00  0.00     0.025 A 
ATOM      6  C   UNL     1       7.900  -7.012  -8.654  1.00  0.00     0.062 A 
ATOM      7  C   UNL     1       8.066  -8.111 -10.828  1.00  0.00     0.020 A 
ATOM      8  C   UNL     1       8.854  -8.492 -11.913  1.00  0.00     0.094 A 
ATOM      9  C   UNL     1      10.214  -8.169 -11.909  1.00  0.00     0.336 A 
ATOM     10  O   UNL     1      10.943  -8.504 -12.878  1.00  0.00    -0.246 OA
ATOM     11  O   UNL     1      10.745  -7.507 -10.884  1.00  0.00    -0.419 OA
ENDROOT
BRANCH   1  12
ATOM     12  O   UNL     1       7.789  -5.894  -6.467  1.00  0.00    -0.493 OA
ATOM     13  C   UNL     1       7.827  -6.536  -5.197  1.00  0.00     0.278 C 
ENDBRANCH   1  12
BRANCH   2  14
ATOM     14  O   UNL     1      10.521  -5.332  -6.629  1.00  0.00    -0.502 OA
ATOM     15  H   UNL     1      11.273  -5.737  -6.086  1.00  0.00     0.293 HD
ENDBRANCH   2  14
BRANCH   3  16
ATOM     16  O   UNL     1      12.010  -6.149  -8.862  1.00  0.00    -0.502 OA
ATOM     17  H   UNL     1      12.648  -6.724  -9.399  1.00  0.00     0.293 HD
ENDBRANCH   3  16
TORSDOF 3
ENDMDL
MODEL 4
REMARK VINA RESULT:    -5.237      1.630      5.108
REMARK INTER + INTRA:          -5.915
REMARK INTER:                  -5.866
REMARK INTRA:                  -0.049
REMARK UNBOUND:                -0.066
REMARK SMILES COc1cc2ccc(=O)oc2c(O)c1O
REMARK SMILES IDX 3 1 14 2 12 3 11 4 5 5 4 6 6 7 7 8 8 9 9 10 10 11 2 12 1 13
REMARK SMILES IDX 15 14 13 16
REMARK H PARENT 15 15 13 17
REMARK Flexibility Score: inf
ROOT
ATOM      1  C   UNL     1      20.548   0.140 -20.124  1.00  0.00     0.165 A 
ATOM      2  C   UNL     1      19.469  -0.212 -19.290  1.00  0.00     0.204 A 
ATOM      3  C   UNL     1      19.513   0.076 -17.914  1.00  0.00     0.205 A 
ATOM      4  C   UNL     1      20.633   0.716 -17.368  1.00  0.00     0.184 A 
ATOM      5  C   UNL     1      21.715   1.070 -18.199  1.00  0.00     0.025 A 
ATOM      6  C   UNL     1      21.671   0.783 -19.569  1.00  0.00     0.062 A 
ATOM      7  C   UNL     1      22.819   1.708 -17.622  1.00  0.00     0.020 A 
ATOM      8  C   UNL     1      22.818   1.974 -16.254  1.00  0.00     0.094 A 
ATOM      9  C   UNL     1      21.711   1.594 -15.491  1.00  0.00     0.336 A 
ATOM     10  O   UNL     1      21.690   1.824 -14.254  1.00  0.00    -0.246 OA
ATOM     11  O   UNL     1      20.674   0.988 -16.065  1.00  0.00    -0.419 OA
ENDROOT
BRANCH   1  12
ATOM     12  O   UNL     1      20.471  -0.163 -21.494  1.00  0.00    -0.493 OA
ATOM     13  C   UNL     1      21.577  -0.147 -22.390  1.00  0.00     0.278 C 
ENDBRANCH   1  12
BRANCH   2  14
ATOM     14  O   UNL     1      18.345  -0.850 -19.817  1.00  0.00    -0.502 OA
ATOM     15  H   UNL     1      18.276  -1.109 -20.794  1.00  0.00     0.293 HD
ENDBRANCH   2  14
BRANCH   3  16
ATOM     16  O   UNL     1      18.451  -0.267 -17.075  1.00  0.00    -0.502 OA
ATOM     17  H   UNL     1      17.927   0.428 -16.556  1.00  0.00     0.293 HD
ENDBRANCH   3  16
TORSDOF 3
ENDMDL
MODEL 5
REMARK VINA RESULT:    -5.158     14.751     17.105
REMARK INTER + INTRA:          -5.827
REMARK INTER:                  -5.764
REMARK INTRA:                  -0.063
REMARK UNBOUND:                -0.066
REMARK SMILES COc1cc2ccc(=O)oc2c(O)c1O
REMARK SMILES IDX 3 1 14 2 12 3 11 4 5 5 4 6 6 7 7 8 8 9 9 10 10 11 2 12 1 13
REMARK SMILES IDX 15 14 13 16
REMARK H PARENT 15 15 13 17
REMARK Flexibility Score: inf
ROOT
ATOM      1  C   UNL     1       9.564  -7.234 -11.405  1.00  0.00     0.165 A 
ATOM      2  C   UNL     1      10.830  -6.814 -10.952  1.00  0.00     0.204 A 
ATOM      3  C   UNL     1      10.988  -6.320  -9.644  1.00  0.00     0.205 A 
ATOM      4  C   UNL     1       9.884  -6.246  -8.786  1.00  0.00     0.184 A 
ATOM      5  C   UNL     1       8.615  -6.666  -9.235  1.00  0.00     0.025 A 
ATOM      6  C   UNL     1       8.458  -7.157 -10.537  1.00  0.00     0.062 A 
ATOM      7  C   UNL     1       7.533  -6.578  -8.353  1.00  0.00     0.020 A 
ATOM      8  C   UNL     1       7.736  -6.083  -7.066  1.00  0.00     0.094 A 
ATOM      9  C   UNL     1       9.022  -5.685  -6.689  1.00  0.00     0.336 A 
ATOM     10  O   UNL     1       9.227  -5.234  -5.532  1.00  0.00    -0.246 OA
ATOM     11  O   UNL     1      10.034  -5.778  -7.548  1.00  0.00    -0.419 OA
ENDROOT
BRANCH   1  12
ATOM     12  O   UNL     1       9.443  -7.722 -12.717  1.00  0.00    -0.493 OA
ATOM     13  C   UNL     1       9.018  -9.038 -13.055  1.00  0.00     0.278 C 
ENDBRANCH   1  12
BRANCH   2  14
ATOM     14  O   UNL     1      11.942  -6.881 -11.794  1.00  0.00    -0.502 OA
ATOM     15  H   UNL     1      12.731  -7.486 -11.603  1.00  0.00     0.293 HD
ENDBRANCH   2  14
BRANCH   3  16
ATOM     16  O   UNL     1      12.236  -5.900  -9.182  1.00  0.00    -0.502 OA
ATOM     17  H   UNL     1      12.533  -4.932  -9.234  1.00  0.00     0.293 HD
ENDBRANCH   3  16
TORSDOF 3
ENDMDL
MODEL 6
REMARK VINA RESULT:    -5.021     15.776     18.098
REMARK INTER + INTRA:          -5.674
REMARK INTER:                  -5.622
REMARK INTRA:                  -0.052
REMARK UNBOUND:                -0.066
REMARK SMILES COc1cc2ccc(=O)oc2c(O)c1O
REMARK SMILES IDX 3 1 14 2 12 3 11 4 5 5 4 6 6 7 7 8 8 9 9 10 10 11 2 12 1 13
REMARK SMILES IDX 15 14 13 16
REMARK H PARENT 15 15 13 17
REMARK Flexibility Score: inf
ROOT
ATOM      1  C   UNL     1       7.985  -5.297 -11.501  1.00  0.00     0.165 A 
ATOM      2  C   UNL     1       8.141  -6.666 -11.793  1.00  0.00     0.204 A 
ATOM      3  C   UNL     1       8.186  -7.613 -10.753  1.00  0.00     0.205 A 
ATOM      4  C   UNL     1       8.073  -7.196  -9.421  1.00  0.00     0.184 A 
ATOM      5  C   UNL     1       7.916  -5.827  -9.124  1.00  0.00     0.025 A 
ATOM      6  C   UNL     1       7.872  -4.885 -10.159  1.00  0.00     0.062 A 
ATOM      7  C   UNL     1       7.806  -5.443  -7.783  1.00  0.00     0.020 A 
ATOM      8  C   UNL     1       7.855  -6.416  -6.786  1.00  0.00     0.094 A 
ATOM      9  C   UNL     1       8.013  -7.755  -7.154  1.00  0.00     0.336 A 
ATOM     10  O   UNL     1       8.060  -8.649  -6.270  1.00  0.00    -0.246 OA
ATOM     11  O   UNL     1       8.115  -8.093  -8.437  1.00  0.00    -0.419 OA
ENDROOT
BRANCH   1  12
ATOM     12  O   UNL     1       7.945  -4.379 -12.563  1.00  0.00    -0.493 OA
ATOM     13  C   UNL     1       7.179  -3.180 -12.568  1.00  0.00     0.278 C 
ENDBRANCH   1  12
BRANCH   2  14
ATOM     14  O   UNL     1       8.255  -7.100 -13.115  1.00  0.00    -0.502 OA
ATOM     15  H   UNL     1       7.773  -7.921 -13.459  1.00  0.00     0.293 HD
ENDBRANCH   2  14
BRANCH   3  16
ATOM     16  O   UNL     1       8.341  -8.973 -11.027  1.00  0.00    -0.502 OA
ATOM     17  H   UNL     1       7.845  -9.688 -10.508  1.00  0.00     0.293 HD
ENDBRANCH   3  16
TORSDOF 3
ENDMDL
MODEL 7
REMARK VINA RESULT:    -5.008      1.957      2.762
REMARK INTER + INTRA:          -5.659
REMARK INTER:                  -5.605
REMARK INTRA:                  -0.054
REMARK UNBOUND:                -0.066
REMARK SMILES COc1cc2ccc(=O)oc2c(O)c1O
REMARK SMILES IDX 3 1 14 2 12 3 11 4 5 5 4 6 6 7 7 8 8 9 9 10 10 11 2 12 1 13
REMARK SMILES IDX 15 14 13 16
REMARK H PARENT 15 15 13 17
REMARK Flexibility Score: inf
ROOT
ATOM      1  C   UNL     1      20.895   1.352 -15.749  1.00  0.00     0.165 A 
ATOM      2  C   UNL     1      22.022   1.728 -16.506  1.00  0.00     0.204 A 
ATOM      3  C   UNL     1      22.128   1.351 -17.857  1.00  0.00     0.205 A 
ATOM      4  C   UNL     1      21.109   0.600 -18.456  1.00  0.00     0.184 A 
ATOM      5  C   UNL     1      19.979   0.222 -17.703  1.00  0.00     0.025 A 
ATOM      6  C   UNL     1      19.874   0.597 -16.358  1.00  0.00     0.062 A 
ATOM      7  C   UNL     1      18.978  -0.529 -18.331  1.00  0.00     0.020 A 
ATOM      8  C   UNL     1      19.125  -0.879 -19.672  1.00  0.00     0.094 A 
ATOM      9  C   UNL     1      20.273  -0.470 -20.357  1.00  0.00     0.336 A 
ATOM     10  O   UNL     1      20.425  -0.776 -21.568  1.00  0.00    -0.246 OA
ATOM     11  O   UNL     1      21.209   0.243 -19.735  1.00  0.00    -0.419 OA
ENDROOT
BRANCH   1  12
ATOM     12  O   UNL     1      20.823   1.745 -14.403  1.00  0.00    -0.493 OA
ATOM     13  C   UNL     1      19.643   2.217 -13.760  1.00  0.00     0.278 C 
ENDBRANCH   1  12
BRANCH   2  14
ATOM     14  O   UNL     1      23.048   2.477 -15.925  1.00  0.00    -0.502 OA
ATOM     15  H   UNL     1      23.129   3.477 -16.056  1.00  0.00     0.293 HD
ENDBRANCH   2  14
BRANCH   3  16
ATOM     16  O   UNL     1      23.239   1.716 -18.619  1.00  0.00    -0.502 OA
ATOM     17  H   UNL     1      23.412   2.675 -18.896  1.00  0.00     0.293 HD
ENDBRANCH   3  16
TORSDOF 3
ENDMDL
MODEL 8
REMARK VINA RESULT:    -4.856     10.824     13.297
REMARK INTER + INTRA:          -5.489
REMARK INTER:                  -5.420
REMARK INTRA:                  -0.069
REMARK UNBOUND:                -0.066
REMARK SMILES COc1cc2ccc(=O)oc2c(O)c1O
REMARK SMILES IDX 3 1 14 2 12 3 11 4 5 5 4 6 6 7 7 8 8 9 9 10 10 11 2 12 1 13
REMARK SMILES IDX 15 14 13 16
REMARK H PARENT 15 15 13 17
REMARK Flexibility Score: inf
ROOT
ATOM      1  C   UNL     1      19.316  -2.370  -8.325  1.00  0.00     0.165 A 
ATOM      2  C   UNL     1      18.962  -2.733  -7.010  1.00  0.00     0.204 A 
ATOM      3  C   UNL     1      19.955  -3.099  -6.083  1.00  0.00     0.205 A 
ATOM      4  C   UNL     1      21.302  -3.104  -6.466  1.00  0.00     0.184 A 
ATOM      5  C   UNL     1      21.661  -2.742  -7.780  1.00  0.00     0.025 A 
ATOM      6  C   UNL     1      20.673  -2.378  -8.703  1.00  0.00     0.062 A 
ATOM      7  C   UNL     1      23.015  -2.758  -8.131  1.00  0.00     0.020 A 
ATOM      8  C   UNL     1      23.965  -3.127  -7.179  1.00  0.00     0.094 A 
ATOM      9  C   UNL     1      23.537  -3.474  -5.895  1.00  0.00     0.336 A 
ATOM     10  O   UNL     1      24.377  -3.812  -5.022  1.00  0.00    -0.246 OA
ATOM     11  O   UNL     1      22.242  -3.452  -5.589  1.00  0.00    -0.419 OA
ENDROOT
BRANCH   1  12
ATOM     12  O   UNL     1      18.298  -2.010  -9.223  1.00  0.00    -0.493 OA
ATOM     13  C   UNL     1      17.939  -0.671  -9.544  1.00  0.00     0.278 C 
ENDBRANCH   1  12
BRANCH   2  14
ATOM     14  O   UNL     1      17.624  -2.733  -6.611  1.00  0.00    -0.502 OA
ATOM     15  H   UNL     1      17.332  -3.048  -5.694  1.00  0.00     0.293 HD
ENDBRANCH   2  14
BRANCH   3  16
ATOM     16  O   UNL     1      19.620  -3.461  -4.778  1.00  0.00    -0.502 OA
ATOM     17  H   UNL     1      18.960  -2.928  -4.223  1.00  0.00     0.293 HD
ENDBRANCH   3  16
TORSDOF 3
ENDMDL
MODEL 9
REMARK VINA RESULT:    -4.743     12.670     15.739
REMARK INTER + INTRA:          -5.363
REMARK INTER:                  -5.305
REMARK INTRA:                  -0.058
REMARK UNBOUND:                -0.066
REMARK SMILES COc1cc2ccc(=O)oc2c(O)c1O
REMARK SMILES IDX 3 1 14 2 12 3 11 4 5 5 4 6 6 7 7 8 8 9 9 10 10 11 2 12 1 13
REMARK SMILES IDX 15 14 13 16
REMARK H PARENT 15 15 13 17
REMARK Flexibility Score: inf
ROOT
ATOM      1  C   UNL     1      12.407   3.441  -4.432  1.00  0.00     0.165 A 
ATOM      2  C   UNL     1      11.873   2.637  -5.458  1.00  0.00     0.204 A 
ATOM      3  C   UNL     1      12.525   2.548  -6.702  1.00  0.00     0.205 A 
ATOM      4  C   UNL     1      13.710   3.259  -6.923  1.00  0.00     0.184 A 
ATOM      5  C   UNL     1      14.248   4.065  -5.899  1.00  0.00     0.025 A 
ATOM      6  C   UNL     1      13.600   4.154  -4.662  1.00  0.00     0.062 A 
ATOM      7  C   UNL     1      15.434   4.763  -6.153  1.00  0.00     0.020 A 
ATOM      8  C   UNL     1      16.046   4.644  -7.400  1.00  0.00     0.094 A 
ATOM      9  C   UNL     1      15.455   3.827  -8.368  1.00  0.00     0.336 A 
ATOM     10  O   UNL     1      15.990   3.706  -9.501  1.00  0.00    -0.246 OA
ATOM     11  O   UNL     1      14.327   3.175  -8.100  1.00  0.00    -0.419 OA
ENDROOT
BRANCH   1  12
ATOM     12  O   UNL     1      11.729   3.507  -3.203  1.00  0.00    -0.493 OA
ATOM     13  C   UNL     1      10.741   4.478  -2.875  1.00  0.00     0.278 C 
ENDBRANCH   1  12
BRANCH   2  14
ATOM     14  O   UNL     1      10.692   1.921  -5.254  1.00  0.00    -0.502 OA
ATOM     15  H   UNL     1      10.516   1.395  -4.407  1.00  0.00     0.293 HD
ENDBRANCH   2  14
BRANCH   3  16
ATOM     16  O   UNL     1      12.007   1.755  -7.727  1.00  0.00    -0.502 OA
ATOM     17  H   UNL     1      12.590   1.380  -8.466  1.00  0.00     0.293 HD
ENDBRANCH   3  16
TORSDOF 3
ENDMDL
