MODEL 1
REMARK VINA RESULT:    -4.625      0.000      0.000
REMARK INTER + INTRA:          -5.725
REMARK INTER:                  -5.572
REMARK INTRA:                  -0.153
REMARK UNBOUND:                -0.153
REMARK SMILES [NH3+][C@@H](Cc1cnc[nH]1)C(=O)[O-]
REMARK SMILES IDX 3 1 2 2 1 3 9 7 10 8 11 9 4 10 5 11 8 12 6 13 7 14
REMARK H PARENT 1 4 1 5 1 6 8 15
REMARK Flexibility Score: inf
ROOT
ATOM      1  C   UNL     1     -18.828  -8.402  43.772  1.00  0.00     0.127 C 
ENDROOT
BRANCH   1   2
ATOM      2  C   UNL     1     -20.207  -7.858  43.347  1.00  0.00     0.233 C 
BRANCH   2   3
ATOM      3  N   UNL     1     -20.649  -6.765  44.225  1.00  0.00    -0.350 N 
ATOM      4  H   UNL     1     -20.104  -5.897  44.019  1.00  0.00     0.345 HD
ATOM      5  H   UNL     1     -20.519  -7.022  45.231  1.00  0.00     0.345 HD
ATOM      6  H   UNL     1     -21.660  -6.557  44.051  1.00  0.00     0.345 HD
ENDBRANCH   2   3
BRANCH   2   7
ATOM      7  C   UNL     1     -21.219  -8.972  43.353  1.00  0.00     0.099 C 
ATOM      8  O   UNL     1     -20.845 -10.175  43.375  1.00  0.00    -0.544 OA
ATOM      9  O   UNL     1     -22.576  -8.678  43.312  1.00  0.00    -0.544 OA
ENDBRANCH   2   7
ENDBRANCH   1   2
BRANCH   1  10
ATOM     10  C   UNL     1     -17.757  -8.016  42.796  1.00  0.00     0.041 A 
ATOM     11  C   UNL     1     -17.318  -8.759  41.723  1.00  0.00     0.134 A 
ATOM     12  N   UNL     1     -17.022  -6.896  42.872  1.00  0.00    -0.348 N 
ATOM     13  N   UNL     1     -16.311  -8.103  41.115  1.00  0.00    -0.245 NA
ATOM     14  C   UNL     1     -16.160  -6.973  41.841  1.00  0.00     0.196 A 
ATOM     15  H   UNL     1     -17.094  -6.133  43.581  1.00  0.00     0.167 HD
ENDBRANCH   1  10
TORSDOF 4
ENDMDL
MODEL 2
REMARK VINA RESULT:    -4.622      3.264      4.729
REMARK INTER + INTRA:          -5.720
REMARK INTER:                  -5.542
REMARK INTRA:                  -0.178
REMARK UNBOUND:                -0.153
REMARK SMILES [NH3+][C@@H](Cc1cnc[nH]1)C(=O)[O-]
REMARK SMILES IDX 3 1 2 2 1 3 9 7 10 8 11 9 4 10 5 11 8 12 6 13 7 14
REMARK H PARENT 1 4 1 5 1 6 8 15
REMARK Flexibility Score: inf
ROOT
ATOM      1  C   UNL     1     -17.367  -9.231  43.798  1.00  0.00     0.127 C 
ENDROOT
BRANCH   1   2
ATOM      2  C   UNL     1     -16.812 -10.210  42.742  1.00  0.00     0.233 C 
BRANCH   2   3
ATOM      3  N   UNL     1     -16.243 -11.411  43.370  1.00  0.00    -0.350 N 
ATOM      4  H   UNL     1     -15.408 -11.153  43.945  1.00  0.00     0.345 HD
ATOM      5  H   UNL     1     -15.959 -12.109  42.645  1.00  0.00     0.345 HD
ATOM      6  H   UNL     1     -16.949 -11.845  44.008  1.00  0.00     0.345 HD
ENDBRANCH   2   3
BRANCH   2   7
ATOM      7  C   UNL     1     -15.773  -9.518  41.902  1.00  0.00     0.099 C 
ATOM      8  O   UNL     1     -14.569  -9.889  41.940  1.00  0.00    -0.544 OA
ATOM      9  O   UNL     1     -16.134  -8.450  41.091  1.00  0.00    -0.544 OA
ENDBRANCH   2   7
ENDBRANCH   1   2
BRANCH   1  10
ATOM     10  C   UNL     1     -18.793  -8.863  43.514  1.00  0.00     0.041 A 
ATOM     11  C   UNL     1     -19.678  -9.558  42.719  1.00  0.00     0.134 A 
ATOM     12  N   UNL     1     -19.398  -7.751  43.959  1.00  0.00    -0.348 N 
ATOM     13  N   UNL     1     -20.845  -8.887  42.668  1.00  0.00    -0.245 NA
ATOM     14  C   UNL     1     -20.638  -7.794  43.436  1.00  0.00     0.196 A 
ATOM     15  H   UNL     1     -18.994  -7.007  44.570  1.00  0.00     0.167 HD
ENDBRANCH   1  10
TORSDOF 4
ENDMDL
MODEL 3
REMARK VINA RESULT:    -4.590      4.802      5.573
REMARK INTER + INTRA:          -5.682
REMARK INTER:                  -5.516
REMARK INTRA:                  -0.165
REMARK UNBOUND:                -0.153
REMARK SMILES [NH3+][C@@H](Cc1cnc[nH]1)C(=O)[O-]
REMARK SMILES IDX 3 1 2 2 1 3 9 7 10 8 11 9 4 10 5 11 8 12 6 13 7 14
REMARK H PARENT 1 4 1 5 1 6 8 15
REMARK Flexibility Score: inf
ROOT
ATOM      1  C   UNL     1     -18.060 -13.258  42.493  1.00  0.00     0.127 C 
ENDROOT
BRANCH   1   2
ATOM      2  C   UNL     1     -18.217 -14.379  43.542  1.00  0.00     0.233 C 
BRANCH   2   3
ATOM      3  N   UNL     1     -17.658 -15.649  43.060  1.00  0.00    -0.350 N 
ATOM      4  H   UNL     1     -17.211 -16.168  43.850  1.00  0.00     0.345 HD
ATOM      5  H   UNL     1     -16.946 -15.481  42.312  1.00  0.00     0.345 HD
ATOM      6  H   UNL     1     -18.424 -16.250  42.676  1.00  0.00     0.345 HD
ENDBRANCH   2   3
BRANCH   2   7
ATOM      7  C   UNL     1     -19.670 -14.549  43.894  1.00  0.00     0.099 C 
ATOM      8  O   UNL     1     -20.541 -13.784  43.401  1.00  0.00    -0.544 OA
ATOM      9  O   UNL     1     -20.057 -15.542  44.785  1.00  0.00    -0.544 OA
ENDBRANCH   2   7
ENDBRANCH   1   2
BRANCH   1  10
ATOM     10  C   UNL     1     -17.576 -11.982  43.115  1.00  0.00     0.041 A 
ATOM     11  C   UNL     1     -18.352 -10.916  43.512  1.00  0.00     0.134 A 
ATOM     12  N   UNL     1     -16.286 -11.674  43.321  1.00  0.00    -0.348 N 
ATOM     13  N   UNL     1     -17.552  -9.937  43.976  1.00  0.00    -0.245 NA
ATOM     14  C   UNL     1     -16.302 -10.435  43.846  1.00  0.00     0.196 A 
ATOM     15  H   UNL     1     -15.449 -12.263  43.111  1.00  0.00     0.167 HD
ENDBRANCH   1  10
TORSDOF 4
ENDMDL
MODEL 4
REMARK VINA RESULT:    -4.546      1.484      2.135
REMARK INTER + INTRA:          -5.629
REMARK INTER:                  -5.364
REMARK INTRA:                  -0.265
REMARK UNBOUND:                -0.153
REMARK SMILES [NH3+][C@@H](Cc1cnc[nH]1)C(=O)[O-]
REMARK SMILES IDX 3 1 2 2 1 3 9 7 10 8 11 9 4 10 5 11 8 12 6 13 7 14
REMARK H PARENT 1 4 1 5 1 6 8 15
REMARK Flexibility Score: inf
ROOT
ATOM      1  C   UNL     1     -20.340  -7.703  44.015  1.00  0.00     0.127 C 
ENDROOT
BRANCH   1   2
ATOM      2  C   UNL     1     -21.582  -7.660  43.100  1.00  0.00     0.233 C 
BRANCH   2   3
ATOM      3  N   UNL     1     -22.320  -6.398  43.254  1.00  0.00    -0.350 N 
ATOM      4  H   UNL     1     -21.951  -5.864  44.074  1.00  0.00     0.345 HD
ATOM      5  H   UNL     1     -23.341  -6.580  43.393  1.00  0.00     0.345 HD
ATOM      6  H   UNL     1     -22.189  -5.806  42.401  1.00  0.00     0.345 HD
ENDBRANCH   2   3
BRANCH   2   7
ATOM      7  C   UNL     1     -22.480  -8.829  43.405  1.00  0.00     0.099 C 
ATOM      8  O   UNL     1     -23.698  -8.647  43.674  1.00  0.00    -0.544 OA
ATOM      9  O   UNL     1     -21.964 -10.118  43.409  1.00  0.00    -0.544 OA
ENDBRANCH   2   7
ENDBRANCH   1   2
BRANCH   1  10
ATOM     10  C   UNL     1     -19.135  -8.218  43.286  1.00  0.00     0.041 A 
ATOM     11  C   UNL     1     -17.818  -8.009  43.627  1.00  0.00     0.134 A 
ATOM     12  N   UNL     1     -19.176  -8.920  42.143  1.00  0.00    -0.348 N 
ATOM     13  N   UNL     1     -17.026  -8.586  42.703  1.00  0.00    -0.245 NA
ATOM     14  C   UNL     1     -17.888  -9.132  41.816  1.00  0.00     0.196 A 
ATOM     15  H   UNL     1     -20.022  -9.228  41.614  1.00  0.00     0.167 HD
ENDBRANCH   1  10
TORSDOF 4
ENDMDL
MODEL 5
REMARK VINA RESULT:    -4.524      4.923      5.936
REMARK INTER + INTRA:          -5.603
REMARK INTER:                  -5.465
REMARK INTRA:                  -0.138
REMARK UNBOUND:                -0.153
REMARK SMILES [NH3+][C@@H](Cc1cnc[nH]1)C(=O)[O-]
REMARK SMILES IDX 3 1 2 2 1 3 9 7 10 8 11 9 4 10 5 11 8 12 6 13 7 14
REMARK H PARENT 1 4 1 5 1 6 8 15
REMARK Flexibility Score: inf
ROOT
ATOM      1  C   UNL     1     -17.885 -11.228  43.066  1.00  0.00     0.127 C 
ENDROOT
BRANCH   1   2
ATOM      2  C   UNL     1     -16.422 -10.806  43.316  1.00  0.00     0.233 C 
BRANCH   2   3
ATOM      3  N   UNL     1     -16.255 -10.209  44.649  1.00  0.00    -0.350 N 
ATOM      4  H   UNL     1     -15.824  -9.260  44.565  1.00  0.00     0.345 HD
ATOM      5  H   UNL     1     -15.647 -10.810  45.251  1.00  0.00     0.345 HD
ATOM      6  H   UNL     1     -17.189 -10.096  45.106  1.00  0.00     0.345 HD
ENDBRANCH   2   3
BRANCH   2   7
ATOM      7  C   UNL     1     -15.982  -9.837  42.252  1.00  0.00     0.099 C 
ATOM      8  O   UNL     1     -14.770  -9.761  41.918  1.00  0.00    -0.544 OA
ATOM      9  O   UNL     1     -16.913  -9.004  41.644  1.00  0.00    -0.544 OA
ENDBRANCH   2   7
ENDBRANCH   1   2
BRANCH   1  10
ATOM     10  C   UNL     1     -18.083 -12.697  43.293  1.00  0.00     0.041 A 
ATOM     11  C   UNL     1     -19.176 -13.298  43.878  1.00  0.00     0.134 A 
ATOM     12  N   UNL     1     -17.176 -13.643  43.005  1.00  0.00    -0.348 N 
ATOM     13  N   UNL     1     -18.962 -14.626  43.951  1.00  0.00    -0.245 NA
ATOM     14  C   UNL     1     -17.736 -14.799  43.409  1.00  0.00     0.196 A 
ATOM     15  H   UNL     1     -16.236 -13.513  42.569  1.00  0.00     0.167 HD
ENDBRANCH   1  10
TORSDOF 4
ENDMDL
MODEL 6
REMARK VINA RESULT:    -4.517      6.731      7.867
REMARK INTER + INTRA:          -5.594
REMARK INTER:                  -5.437
REMARK INTRA:                  -0.156
REMARK UNBOUND:                -0.153
REMARK SMILES [NH3+][C@@H](Cc1cnc[nH]1)C(=O)[O-]
REMARK SMILES IDX 3 1 2 2 1 3 9 7 10 8 11 9 4 10 5 11 8 12 6 13 7 14
REMARK H PARENT 1 4 1 5 1 6 8 15
REMARK Flexibility Score: inf
ROOT
ATOM      1  C   UNL     1     -19.005 -14.316  44.513  1.00  0.00     0.127 C 
ENDROOT
BRANCH   1   2
ATOM      2  C   UNL     1     -18.386 -13.932  43.153  1.00  0.00     0.233 C 
BRANCH   2   3
ATOM      3  N   UNL     1     -17.030 -14.478  43.005  1.00  0.00    -0.350 N 
ATOM      4  H   UNL     1     -16.545 -14.489  43.932  1.00  0.00     0.345 HD
ATOM      5  H   UNL     1     -16.471 -13.907  42.331  1.00  0.00     0.345 HD
ATOM      6  H   UNL     1     -17.081 -15.465  42.660  1.00  0.00     0.345 HD
ENDBRANCH   2   3
BRANCH   2   7
ATOM      7  C   UNL     1     -18.363 -12.434  43.007  1.00  0.00     0.099 C 
ATOM      8  O   UNL     1     -17.320 -11.845  42.618  1.00  0.00    -0.544 OA
ATOM      9  O   UNL     1     -19.492 -11.689  43.323  1.00  0.00    -0.544 OA
ENDBRANCH   2   7
ENDBRANCH   1   2
BRANCH   1  10
ATOM     10  C   UNL     1     -19.985 -15.443  44.376  1.00  0.00     0.041 A 
ATOM     11  C   UNL     1     -20.632 -15.832  43.225  1.00  0.00     0.134 A 
ATOM     12  N   UNL     1     -20.418 -16.205  45.392  1.00  0.00    -0.348 N 
ATOM     13  N   UNL     1     -21.470 -16.847  43.513  1.00  0.00    -0.245 NA
ATOM     14  C   UNL     1     -21.312 -17.047  44.840  1.00  0.00     0.196 A 
ATOM     15  H   UNL     1     -20.134 -16.153  46.395  1.00  0.00     0.167 HD
ENDBRANCH   1  10
TORSDOF 4
ENDMDL
MODEL 7
REMARK VINA RESULT:    -4.485      2.789      4.692
REMARK INTER + INTRA:          -5.556
REMARK INTER:                  -5.419
REMARK INTRA:                  -0.137
REMARK UNBOUND:                -0.153
REMARK SMILES [NH3+][C@@H](Cc1cnc[nH]1)C(=O)[O-]
REMARK SMILES IDX 3 1 2 2 1 3 9 7 10 8 11 9 4 10 5 11 8 12 6 13 7 14
REMARK H PARENT 1 4 1 5 1 6 8 15
REMARK Flexibility Score: inf
ROOT
ATOM      1  C   UNL     1     -18.736  -8.532  43.741  1.00  0.00     0.127 C 
ENDROOT
BRANCH   1   2
ATOM      2  C   UNL     1     -17.674  -7.746  42.943  1.00  0.00     0.233 C 
BRANCH   2   3
ATOM      3  N   UNL     1     -17.369  -8.402  41.664  1.00  0.00    -0.350 N 
ATOM      4  H   UNL     1     -16.942  -9.341  41.835  1.00  0.00     0.345 HD
ATOM      5  H   UNL     1     -16.708  -7.822  41.098  1.00  0.00     0.345 HD
ATOM      6  H   UNL     1     -18.252  -8.547  41.121  1.00  0.00     0.345 HD
ENDBRANCH   2   3
BRANCH   2   7
ATOM      7  C   UNL     1     -16.423  -7.601  43.766  1.00  0.00     0.099 C 
ATOM      8  O   UNL     1     -15.760  -6.529  43.738  1.00  0.00    -0.544 OA
ATOM      9  O   UNL     1     -15.979  -8.659  44.549  1.00  0.00    -0.544 OA
ENDBRANCH   2   7
ENDBRANCH   1   2
BRANCH   1  10
ATOM     10  C   UNL     1     -20.127  -8.088  43.397  1.00  0.00     0.041 A 
ATOM     11  C   UNL     1     -21.170  -8.894  42.999  1.00  0.00     0.134 A 
ATOM     12  N   UNL     1     -20.537  -6.811  43.371  1.00  0.00    -0.348 N 
ATOM     13  N   UNL     1     -22.243  -8.125  42.730  1.00  0.00    -0.245 NA
ATOM     14  C   UNL     1     -21.820  -6.864  42.969  1.00  0.00     0.196 A 
ATOM     15  H   UNL     1     -19.980  -5.958  43.604  1.00  0.00     0.167 HD
ENDBRANCH   1  10
TORSDOF 4
ENDMDL
MODEL 8
REMARK VINA RESULT:    -4.473      3.783      4.757
REMARK INTER + INTRA:          -5.541
REMARK INTER:                  -5.375
REMARK INTRA:                  -0.166
REMARK UNBOUND:                -0.153
REMARK SMILES [NH3+][C@@H](Cc1cnc[nH]1)C(=O)[O-]
REMARK SMILES IDX 3 1 2 2 1 3 9 7 10 8 11 9 4 10 5 11 8 12 6 13 7 14
REMARK H PARENT 1 4 1 5 1 6 8 15
REMARK Flexibility Score: inf
ROOT
ATOM      1  C   UNL     1     -17.302  -9.462  42.382  1.00  0.00     0.127 C 
ENDROOT
BRANCH   1   2
ATOM      2  C   UNL     1     -17.622  -8.457  43.508  1.00  0.00     0.233 C 
BRANCH   2   3
ATOM      3  N   UNL     1     -18.336  -7.281  42.993  1.00  0.00    -0.350 N 
ATOM      4  H   UNL     1     -18.361  -6.530  43.720  1.00  0.00     0.345 HD
ATOM      5  H   UNL     1     -19.315  -7.531  42.722  1.00  0.00     0.345 HD
ATOM      6  H   UNL     1     -17.834  -6.900  42.157  1.00  0.00     0.345 HD
ENDBRANCH   2   3
BRANCH   2   7
ATOM      7  C   UNL     1     -16.349  -8.036  44.193  1.00  0.00     0.099 C 
ATOM      8  O   UNL     1     -15.927  -6.854  44.085  1.00  0.00    -0.544 OA
ATOM      9  O   UNL     1     -15.621  -8.958  44.933  1.00  0.00    -0.544 OA
ENDBRANCH   2   7
ENDBRANCH   1   2
BRANCH   1  10
ATOM     10  C   UNL     1     -17.783 -10.842  42.719  1.00  0.00     0.041 A 
ATOM     11  C   UNL     1     -18.994 -11.174  43.285  1.00  0.00     0.134 A 
ATOM     12  N   UNL     1     -17.059 -11.962  42.567  1.00  0.00    -0.348 N 
ATOM     13  N   UNL     1     -19.038 -12.505  43.482  1.00  0.00    -0.245 NA
ATOM     14  C   UNL     1     -17.844 -12.951  43.032  1.00  0.00     0.196 A 
ATOM     15  H   UNL     1     -16.093 -12.048  42.181  1.00  0.00     0.167 HD
ENDBRANCH   1  10
TORSDOF 4
ENDMDL
MODEL 9
REMARK VINA RESULT:    -4.436      3.739      4.317
REMARK INTER + INTRA:          -5.496
REMARK INTER:                  -5.324
REMARK INTRA:                  -0.173
REMARK UNBOUND:                -0.153
REMARK SMILES [NH3+][C@@H](Cc1cnc[nH]1)C(=O)[O-]
REMARK SMILES IDX 3 1 2 2 1 3 9 7 10 8 11 9 4 10 5 11 8 12 6 13 7 14
REMARK H PARENT 1 4 1 5 1 6 8 15
REMARK Flexibility Score: inf
ROOT
ATOM      1  C   UNL     1     -18.215 -10.540  43.632  1.00  0.00     0.127 C 
ENDROOT
BRANCH   1   2
ATOM      2  C   UNL     1     -19.063  -9.757  42.608  1.00  0.00     0.233 C 
BRANCH   2   3
ATOM      3  N   UNL     1     -18.272  -8.713  41.940  1.00  0.00    -0.350 N 
ATOM      4  H   UNL     1     -18.907  -8.000  41.514  1.00  0.00     0.345 HD
ATOM      5  H   UNL     1     -17.668  -9.126  41.193  1.00  0.00     0.345 HD
ATOM      6  H   UNL     1     -17.667  -8.225  42.641  1.00  0.00     0.345 HD
ENDBRANCH   2   3
BRANCH   2   7
ATOM      7  C   UNL     1     -20.257  -9.149  43.293  1.00  0.00     0.099 C 
ATOM      8  O   UNL     1     -21.305  -9.824  43.471  1.00  0.00    -0.544 OA
ATOM      9  O   UNL     1     -20.214  -7.827  43.717  1.00  0.00    -0.544 OA
ENDBRANCH   2   7
ENDBRANCH   1   2
BRANCH   1  10
ATOM     10  C   UNL     1     -18.198 -12.008  43.328  1.00  0.00     0.041 A 
ATOM     11  C   UNL     1     -19.282 -12.859  43.327  1.00  0.00     0.134 A 
ATOM     12  N   UNL     1     -17.092 -12.722  43.068  1.00  0.00    -0.348 N 
ATOM     13  N   UNL     1     -18.860 -14.109  43.058  1.00  0.00    -0.245 NA
ATOM     14  C   UNL     1     -17.523 -13.987  42.905  1.00  0.00     0.196 A 
ATOM     15  H   UNL     1     -16.108 -12.376  43.013  1.00  0.00     0.167 HD
ENDBRANCH   1  10
TORSDOF 4
ENDMDL
