MODEL 1
REMARK VINA RESULT:    -4.586      0.000      0.000
REMARK INTER + INTRA:          -4.870
REMARK INTER:                  -4.854
REMARK INTRA:                  -0.016
REMARK UNBOUND:                -0.016
REMARK SMILES O=C([O-])c1cccnc1
REMARK SMILES IDX 4 1 5 2 9 3 6 4 8 5 7 6 2 7 1 8 3 9
REMARK H PARENT
REMARK Flexibility Score: inf
ROOT
ATOM      1  C   UNL     1     -16.755   8.620  30.713  1.00  0.00     0.016 A 
ATOM      2  C   UNL     1     -17.593   7.906  29.840  1.00  0.00     0.013 A 
ATOM      3  C   UNL     1     -15.634   9.276  30.176  1.00  0.00     0.120 A 
ATOM      4  C   UNL     1     -17.305   7.858  28.475  1.00  0.00     0.021 A 
ATOM      5  N   UNL     1     -15.377   9.213  28.842  1.00  0.00    -0.264 NA
ATOM      6  C   UNL     1     -16.180   8.526  27.989  1.00  0.00     0.111 A 
ENDROOT
BRANCH   1   7
ATOM      7  C   UNL     1     -17.051   8.678  32.161  1.00  0.00     0.073 C 
ATOM      8  O   UNL     1     -16.606   7.793  32.940  1.00  0.00    -0.545 OA
ATOM      9  O   UNL     1     -17.823   9.709  32.682  1.00  0.00    -0.545 OA
ENDBRANCH   1   7
TORSDOF 1
ENDMDL
MODEL 2
REMARK VINA RESULT:    -4.393     11.977     12.714
REMARK INTER + INTRA:          -4.665
REMARK INTER:                  -4.644
REMARK INTRA:                  -0.021
REMARK UNBOUND:                -0.016
REMARK SMILES O=C([O-])c1cccnc1
REMARK SMILES IDX 4 1 5 2 9 3 6 4 8 5 7 6 2 7 1 8 3 9
REMARK H PARENT
REMARK Flexibility Score: inf
ROOT
ATOM      1  C   UNL     1     -22.915   0.830  23.353  1.00  0.00     0.016 A 
ATOM      2  C   UNL     1     -24.226   0.326  23.370  1.00  0.00     0.013 A 
ATOM      3  C   UNL     1     -22.002   0.348  24.308  1.00  0.00     0.120 A 
ATOM      4  C   UNL     1     -24.598  -0.629  24.317  1.00  0.00     0.021 A 
ATOM      5  N   UNL     1     -22.391  -0.582  25.220  1.00  0.00    -0.264 NA
ATOM      6  C   UNL     1     -23.656  -1.075  25.245  1.00  0.00     0.111 A 
ENDROOT
BRANCH   1   7
ATOM      7  C   UNL     1     -22.509   1.842  22.354  1.00  0.00     0.073 C 
ATOM      8  O   UNL     1     -21.326   1.875  21.921  1.00  0.00    -0.545 OA
ATOM      9  O   UNL     1     -23.428   2.770  21.879  1.00  0.00    -0.545 OA
ENDBRANCH   1   7
TORSDOF 1
ENDMDL
MODEL 3
REMARK VINA RESULT:    -4.382     12.160     12.782
REMARK INTER + INTRA:          -4.654
REMARK INTER:                  -4.632
REMARK INTRA:                  -0.022
REMARK UNBOUND:                -0.016
REMARK SMILES O=C([O-])c1cccnc1
REMARK SMILES IDX 4 1 5 2 9 3 6 4 8 5 7 6 2 7 1 8 3 9
REMARK H PARENT
REMARK Flexibility Score: inf
ROOT
ATOM      1  C   UNL     1     -22.932   0.858  23.365  1.00  0.00     0.016 A 
ATOM      2  C   UNL     1     -22.023   0.367  24.317  1.00  0.00     0.013 A 
ATOM      3  C   UNL     1     -24.256   0.388  23.398  1.00  0.00     0.120 A 
ATOM      4  C   UNL     1     -22.441  -0.567  25.267  1.00  0.00     0.021 A 
ATOM      5  N   UNL     1     -24.636  -0.522  24.335  1.00  0.00    -0.264 NA
ATOM      6  C   UNL     1     -23.766  -1.004  25.260  1.00  0.00     0.111 A 
ENDROOT
BRANCH   1   7
ATOM      7  C   UNL     1     -22.500   1.848  22.353  1.00  0.00     0.073 C 
ATOM      8  O   UNL     1     -21.306   1.874  21.953  1.00  0.00    -0.545 OA
ATOM      9  O   UNL     1     -23.408   2.762  21.831  1.00  0.00    -0.545 OA
ENDBRANCH   1   7
TORSDOF 1
ENDMDL
MODEL 4
REMARK VINA RESULT:    -4.163     10.038     10.948
REMARK INTER + INTRA:          -4.422
REMARK INTER:                  -4.406
REMARK INTRA:                  -0.016
REMARK UNBOUND:                -0.016
REMARK SMILES O=C([O-])c1cccnc1
REMARK SMILES IDX 4 1 5 2 9 3 6 4 8 5 7 6 2 7 1 8 3 9
REMARK H PARENT
REMARK Flexibility Score: inf
ROOT
ATOM      1  C   UNL     1     -17.873   0.506  37.318  1.00  0.00     0.016 A 
ATOM      2  C   UNL     1     -17.472  -0.713  37.891  1.00  0.00     0.013 A 
ATOM      3  C   UNL     1     -17.869   0.619  35.916  1.00  0.00     0.120 A 
ATOM      4  C   UNL     1     -17.081  -1.776  37.075  1.00  0.00     0.021 A 
ATOM      5  N   UNL     1     -17.483  -0.433  35.145  1.00  0.00    -0.264 NA
ATOM      6  C   UNL     1     -17.093  -1.615  35.689  1.00  0.00     0.111 A 
ENDROOT
BRANCH   1   7
ATOM      7  C   UNL     1     -18.289   1.639  38.172  1.00  0.00     0.073 C 
ATOM      8  O   UNL     1     -19.486   1.748  38.551  1.00  0.00    -0.545 OA
ATOM      9  O   UNL     1     -17.365   2.598  38.570  1.00  0.00    -0.545 OA
ENDBRANCH   1   7
TORSDOF 1
ENDMDL
MODEL 5
REMARK VINA RESULT:    -4.131     10.481     11.384
REMARK INTER + INTRA:          -4.388
REMARK INTER:                  -4.371
REMARK INTRA:                  -0.018
REMARK UNBOUND:                -0.016
REMARK SMILES O=C([O-])c1cccnc1
REMARK SMILES IDX 4 1 5 2 9 3 6 4 8 5 7 6 2 7 1 8 3 9
REMARK H PARENT
REMARK Flexibility Score: inf
ROOT
ATOM      1  C   UNL     1     -17.839  -0.272  36.537  1.00  0.00     0.016 A 
ATOM      2  C   UNL     1     -17.559  -0.866  37.779  1.00  0.00     0.013 A 
ATOM      3  C   UNL     1     -17.354  -0.895  35.374  1.00  0.00     0.120 A 
ATOM      4  C   UNL     1     -16.817  -2.047  37.839  1.00  0.00     0.021 A 
ATOM      5  N   UNL     1     -16.634  -2.045  35.461  1.00  0.00    -0.264 NA
ATOM      6  C   UNL     1     -16.358  -2.627  36.657  1.00  0.00     0.111 A 
ENDROOT
BRANCH   1   7
ATOM      7  C   UNL     1     -18.624   0.979  36.461  1.00  0.00     0.073 C 
ATOM      8  O   UNL     1     -19.721   1.009  35.842  1.00  0.00    -0.545 OA
ATOM      9  O   UNL     1     -18.162   2.139  37.072  1.00  0.00    -0.545 OA
ENDBRANCH   1   7
TORSDOF 1
ENDMDL
MODEL 6
REMARK VINA RESULT:    -4.105      2.832      3.679
REMARK INTER + INTRA:          -4.361
REMARK INTER:                  -4.338
REMARK INTRA:                  -0.023
REMARK UNBOUND:                -0.016
REMARK SMILES O=C([O-])c1cccnc1
REMARK SMILES IDX 4 1 5 2 9 3 6 4 8 5 7 6 2 7 1 8 3 9
REMARK H PARENT
REMARK Flexibility Score: inf
ROOT
ATOM      1  C   UNL     1     -16.474   8.975  29.816  1.00  0.00     0.016 A 
ATOM      2  C   UNL     1     -17.684   8.572  30.406  1.00  0.00     0.013 A 
ATOM      3  C   UNL     1     -15.591   9.764  30.573  1.00  0.00     0.120 A 
ATOM      4  C   UNL     1     -17.987   8.955  31.714  1.00  0.00     0.021 A 
ATOM      5  N   UNL     1     -15.912  10.123  31.845  1.00  0.00    -0.264 NA
ATOM      6  C   UNL     1     -17.078   9.740  32.425  1.00  0.00     0.111 A 
ENDROOT
BRANCH   1   7
ATOM      7  C   UNL     1     -16.143   8.575  28.431  1.00  0.00     0.073 C 
ATOM      8  O   UNL     1     -17.046   8.188  27.643  1.00  0.00    -0.545 OA
ATOM      9  O   UNL     1     -14.828   8.621  27.981  1.00  0.00    -0.545 OA
ENDBRANCH   1   7
TORSDOF 1
ENDMDL
MODEL 7
REMARK VINA RESULT:    -4.070     12.045     12.438
REMARK INTER + INTRA:          -4.324
REMARK INTER:                  -4.300
REMARK INTRA:                  -0.024
REMARK UNBOUND:                -0.016
REMARK SMILES O=C([O-])c1cccnc1
REMARK SMILES IDX 4 1 5 2 9 3 6 4 8 5 7 6 2 7 1 8 3 9
REMARK H PARENT
REMARK Flexibility Score: inf
ROOT
ATOM      1  C   UNL     1     -22.985   0.462  23.603  1.00  0.00     0.016 A 
ATOM      2  C   UNL     1     -21.607   0.335  23.360  1.00  0.00     0.013 A 
ATOM      3  C   UNL     1     -23.701   1.447  22.898  1.00  0.00     0.120 A 
ATOM      4  C   UNL     1     -20.978   1.174  22.438  1.00  0.00     0.021 A 
ATOM      5  N   UNL     1     -23.062   2.250  22.006  1.00  0.00    -0.264 NA
ATOM      6  C   UNL     1     -21.731   2.136  21.764  1.00  0.00     0.111 A 
ENDROOT
BRANCH   1   7
ATOM      7  C   UNL     1     -23.663  -0.420  24.577  1.00  0.00     0.073 C 
ATOM      8  O   UNL     1     -22.991  -1.132  25.371  1.00  0.00    -0.545 OA
ATOM      9  O   UNL     1     -25.050  -0.476  24.631  1.00  0.00    -0.545 OA
ENDBRANCH   1   7
TORSDOF 1
ENDMDL
MODEL 8
REMARK VINA RESULT:    -4.001      3.756      4.758
REMARK INTER + INTRA:          -4.251
REMARK INTER:                  -4.230
REMARK INTRA:                  -0.021
REMARK UNBOUND:                -0.016
REMARK SMILES O=C([O-])c1cccnc1
REMARK SMILES IDX 4 1 5 2 9 3 6 4 8 5 7 6 2 7 1 8 3 9
REMARK H PARENT
REMARK Flexibility Score: inf
ROOT
ATOM      1  C   UNL     1     -20.191   9.556  30.774  1.00  0.00     0.016 A 
ATOM      2  C   UNL     1     -20.297  10.116  32.059  1.00  0.00     0.013 A 
ATOM      3  C   UNL     1     -18.958   9.003  30.386  1.00  0.00     0.120 A 
ATOM      4  C   UNL     1     -19.195  10.116  32.916  1.00  0.00     0.021 A 
ATOM      5  N   UNL     1     -17.901   9.017  31.242  1.00  0.00    -0.264 NA
ATOM      6  C   UNL     1     -17.992   9.556  32.485  1.00  0.00     0.111 A 
ENDROOT
BRANCH   1   7
ATOM      7  C   UNL     1     -21.351   9.550  29.858  1.00  0.00     0.073 C 
ATOM      8  O   UNL     1     -22.516   9.370  30.302  1.00  0.00    -0.545 OA
ATOM      9  O   UNL     1     -21.171   9.744  28.493  1.00  0.00    -0.545 OA
ENDBRANCH   1   7
TORSDOF 1
ENDMDL
MODEL 9
REMARK VINA RESULT:    -3.864     11.290     11.582
REMARK INTER + INTRA:          -4.106
REMARK INTER:                  -4.082
REMARK INTRA:                  -0.024
REMARK UNBOUND:                -0.016
REMARK SMILES O=C([O-])c1cccnc1
REMARK SMILES IDX 4 1 5 2 9 3 6 4 8 5 7 6 2 7 1 8 3 9
REMARK H PARENT
REMARK Flexibility Score: inf
ROOT
ATOM      1  C   UNL     1     -16.135  -2.410  32.623  1.00  0.00     0.016 A 
ATOM      2  C   UNL     1     -16.780  -2.354  31.376  1.00  0.00     0.013 A 
ATOM      3  C   UNL     1     -16.902  -2.197  33.782  1.00  0.00     0.120 A 
ATOM      4  C   UNL     1     -18.149  -2.092  31.306  1.00  0.00     0.021 A 
ATOM      5  N   UNL     1     -18.235  -1.943  33.685  1.00  0.00    -0.264 NA
ATOM      6  C   UNL     1     -18.868  -1.886  32.484  1.00  0.00     0.111 A 
ENDROOT
BRANCH   1   7
ATOM      7  C   UNL     1     -14.685  -2.687  32.709  1.00  0.00     0.073 C 
ATOM      8  O   UNL     1     -14.027  -2.977  31.675  1.00  0.00    -0.545 OA
ATOM      9  O   UNL     1     -14.029  -2.630  33.933  1.00  0.00    -0.545 OA
ENDBRANCH   1   7
TORSDOF 1
ENDMDL
