MODEL 1
REMARK VINA RESULT:    -4.592      0.000      0.000
REMARK INTER + INTRA:          -5.687
REMARK INTER:                  -5.532
REMARK INTRA:                  -0.155
REMARK UNBOUND:                -0.155
REMARK SMILES [NH3+][C@H](Cc1cnc[nH]1)C(=O)[O-]
REMARK SMILES IDX 3 1 2 2 1 3 9 7 10 8 11 9 4 10 5 11 8 12 6 13 7 14
REMARK H PARENT 1 4 1 5 1 6 8 15
REMARK Flexibility Score: inf
ROOT
ATOM      1  C   UNL     1     -18.675  -8.400  43.808  1.00  0.00     0.127 C 
ENDROOT
BRANCH   1   2
ATOM      2  C   UNL     1     -17.608  -7.687  42.955  1.00  0.00     0.233 C 
BRANCH   2   3
ATOM      3  N   UNL     1     -16.600  -7.055  43.814  1.00  0.00    -0.350 N 
ATOM      4  H   UNL     1     -15.819  -7.722  44.021  1.00  0.00     0.345 HD
ATOM      5  H   UNL     1     -16.210  -6.207  43.340  1.00  0.00     0.345 HD
ATOM      6  H   UNL     1     -17.039  -6.754  44.713  1.00  0.00     0.345 HD
ENDBRANCH   2   3
BRANCH   2   7
ATOM      7  C   UNL     1     -16.950  -8.647  41.997  1.00  0.00     0.099 C 
ATOM      8  O   UNL     1     -16.362  -8.221  40.968  1.00  0.00    -0.544 OA
ATOM      9  O   UNL     1     -16.975 -10.011  42.256  1.00  0.00    -0.544 OA
ENDBRANCH   2   7
ENDBRANCH   1   2
BRANCH   1  10
ATOM     10  C   UNL     1     -20.063  -8.005  43.399  1.00  0.00     0.041 A 
ATOM     11  C   UNL     1     -20.954  -8.768  42.677  1.00  0.00     0.134 A 
ATOM     12  N   UNL     1     -20.609  -6.800  43.618  1.00  0.00    -0.348 N 
ATOM     13  N   UNL     1     -22.070  -8.046  42.450  1.00  0.00    -0.245 NA
ATOM     14  C   UNL     1     -21.823  -6.855  43.039  1.00  0.00     0.196 A 
ATOM     15  H   UNL     1     -20.185  -5.988  44.119  1.00  0.00     0.167 HD
ENDBRANCH   1  10
TORSDOF 4
ENDMDL
MODEL 2
REMARK VINA RESULT:    -4.582      3.311      4.043
REMARK INTER + INTRA:          -5.675
REMARK INTER:                  -5.431
REMARK INTRA:                  -0.244
REMARK UNBOUND:                -0.155
REMARK SMILES [NH3+][C@H](Cc1cnc[nH]1)C(=O)[O-]
REMARK SMILES IDX 3 1 2 2 1 3 9 7 10 8 11 9 4 10 5 11 8 12 6 13 7 14
REMARK H PARENT 1 4 1 5 1 6 8 15
REMARK Flexibility Score: inf
ROOT
ATOM      1  C   UNL     1     -17.610  -9.870  43.759  1.00  0.00     0.127 C 
ENDROOT
BRANCH   1   2
ATOM      2  C   UNL     1     -17.740  -8.972  42.513  1.00  0.00     0.233 C 
BRANCH   2   3
ATOM      3  N   UNL     1     -18.186  -7.627  42.893  1.00  0.00    -0.350 N 
ATOM      4  H   UNL     1     -19.142  -7.432  42.512  1.00  0.00     0.345 HD
ATOM      5  H   UNL     1     -18.208  -7.541  43.936  1.00  0.00     0.345 HD
ATOM      6  H   UNL     1     -17.518  -6.914  42.521  1.00  0.00     0.345 HD
ENDBRANCH   2   3
BRANCH   2   7
ATOM      7  C   UNL     1     -16.437  -8.898  41.760  1.00  0.00     0.099 C 
ATOM      8  O   UNL     1     -16.274  -8.046  40.846  1.00  0.00    -0.544 OA
ATOM      9  O   UNL     1     -15.398  -9.761  42.085  1.00  0.00    -0.544 OA
ENDBRANCH   2   7
ENDBRANCH   1   2
BRANCH   1  10
ATOM     10  C   UNL     1     -17.919 -11.303  43.441  1.00  0.00     0.041 A 
ATOM     11  C   UNL     1     -19.165 -11.889  43.419  1.00  0.00     0.134 A 
ATOM     12  N   UNL     1     -16.996 -12.248  43.206  1.00  0.00    -0.348 N 
ATOM     13  N   UNL     1     -19.029 -13.204  43.157  1.00  0.00    -0.245 NA
ATOM     14  C   UNL     1     -17.696 -13.385  43.033  1.00  0.00     0.196 A 
ATOM     15  H   UNL     1     -15.958 -12.134  43.175  1.00  0.00     0.167 HD
ENDBRANCH   1  10
TORSDOF 4
ENDMDL
MODEL 3
REMARK VINA RESULT:    -4.557      1.639      1.781
REMARK INTER + INTRA:          -5.645
REMARK INTER:                  -5.505
REMARK INTRA:                  -0.140
REMARK UNBOUND:                -0.155
REMARK SMILES [NH3+][C@H](Cc1cnc[nH]1)C(=O)[O-]
REMARK SMILES IDX 3 1 2 2 1 3 9 7 10 8 11 9 4 10 5 11 8 12 6 13 7 14
REMARK H PARENT 1 4 1 5 1 6 8 15
REMARK Flexibility Score: inf
ROOT
ATOM      1  C   UNL     1     -18.851  -8.340  43.764  1.00  0.00     0.127 C 
ENDROOT
BRANCH   1   2
ATOM      2  C   UNL     1     -18.284  -9.288  42.689  1.00  0.00     0.233 C 
BRANCH   2   3
ATOM      3  N   UNL     1     -17.588  -8.526  41.647  1.00  0.00    -0.350 N 
ATOM      4  H   UNL     1     -16.645  -8.217  41.981  1.00  0.00     0.345 HD
ATOM      5  H   UNL     1     -17.472  -9.117  40.791  1.00  0.00     0.345 HD
ATOM      6  H   UNL     1     -18.151  -7.683  41.388  1.00  0.00     0.345 HD
ENDBRANCH   2   3
BRANCH   2   7
ATOM      7  C   UNL     1     -17.356 -10.306  43.300  1.00  0.00     0.099 C 
ATOM      8  O   UNL     1     -17.143 -11.405  42.722  1.00  0.00    -0.544 OA
ATOM      9  O   UNL     1     -16.715 -10.028  44.500  1.00  0.00    -0.544 OA
ENDBRANCH   2   7
ENDBRANCH   1   2
BRANCH   1  10
ATOM     10  C   UNL     1     -20.238  -7.882  43.421  1.00  0.00     0.041 A 
ATOM     11  C   UNL     1     -21.214  -8.623  42.793  1.00  0.00     0.134 A 
ATOM     12  N   UNL     1     -20.701  -6.638  43.615  1.00  0.00    -0.348 N 
ATOM     13  N   UNL     1     -22.300  -7.848  42.600  1.00  0.00    -0.245 NA
ATOM     14  C   UNL     1     -21.950  -6.648  43.114  1.00  0.00     0.196 A 
ATOM     15  H   UNL     1     -20.200  -5.831  44.049  1.00  0.00     0.167 HD
ENDBRANCH   1  10
TORSDOF 4
ENDMDL
MODEL 4
REMARK VINA RESULT:    -4.551      4.634      5.383
REMARK INTER + INTRA:          -5.638
REMARK INTER:                  -5.467
REMARK INTRA:                  -0.170
REMARK UNBOUND:                -0.155
REMARK SMILES [NH3+][C@H](Cc1cnc[nH]1)C(=O)[O-]
REMARK SMILES IDX 3 1 2 2 1 3 9 7 10 8 11 9 4 10 5 11 8 12 6 13 7 14
REMARK H PARENT 1 4 1 5 1 6 8 15
REMARK Flexibility Score: inf
ROOT
ATOM      1  C   UNL     1     -17.100 -11.602  42.966  1.00  0.00     0.127 C 
ENDROOT
BRANCH   1   2
ATOM      2  C   UNL     1     -17.456 -10.618  44.097  1.00  0.00     0.233 C 
BRANCH   2   3
ATOM      3  N   UNL     1     -16.257 -10.259  44.862  1.00  0.00    -0.350 N 
ATOM      4  H   UNL     1     -16.512  -9.967  45.835  1.00  0.00     0.345 HD
ATOM      5  H   UNL     1     -15.606 -11.077  44.908  1.00  0.00     0.345 HD
ATOM      6  H   UNL     1     -15.758  -9.471  44.390  1.00  0.00     0.345 HD
ENDBRANCH   2   3
BRANCH   2   7
ATOM      7  C   UNL     1     -18.117  -9.379  43.549  1.00  0.00     0.099 C 
ATOM      8  O   UNL     1     -17.733  -8.236  43.913  1.00  0.00    -0.544 OA
ATOM      9  O   UNL     1     -19.146  -9.493  42.623  1.00  0.00    -0.544 OA
ENDBRANCH   2   7
ENDBRANCH   1   2
BRANCH   1  10
ATOM     10  C   UNL     1     -17.643 -12.974  43.237  1.00  0.00     0.041 A 
ATOM     11  C   UNL     1     -18.774 -13.281  43.961  1.00  0.00     0.134 A 
ATOM     12  N   UNL     1     -17.046 -14.117  42.868  1.00  0.00    -0.348 N 
ATOM     13  N   UNL     1     -18.897 -14.621  44.039  1.00  0.00    -0.245 NA
ATOM     14  C   UNL     1     -17.828 -15.095  43.362  1.00  0.00     0.196 A 
ATOM     15  H   UNL     1     -16.160 -14.229  42.326  1.00  0.00     0.167 HD
ENDBRANCH   1  10
TORSDOF 4
ENDMDL
MODEL 5
REMARK VINA RESULT:    -4.533      4.621      5.344
REMARK INTER + INTRA:          -5.615
REMARK INTER:                  -5.482
REMARK INTRA:                  -0.134
REMARK UNBOUND:                -0.155
REMARK SMILES [NH3+][C@H](Cc1cnc[nH]1)C(=O)[O-]
REMARK SMILES IDX 3 1 2 2 1 3 9 7 10 8 11 9 4 10 5 11 8 12 6 13 7 14
REMARK H PARENT 1 4 1 5 1 6 8 15
REMARK Flexibility Score: inf
ROOT
ATOM      1  C   UNL     1     -17.424 -11.140  43.028  1.00  0.00     0.127 C 
ENDROOT
BRANCH   1   2
ATOM      2  C   UNL     1     -16.000 -10.783  43.500  1.00  0.00     0.233 C 
BRANCH   2   3
ATOM      3  N   UNL     1     -15.126 -10.528  42.349  1.00  0.00    -0.350 N 
ATOM      4  H   UNL     1     -14.120 -10.534  42.641  1.00  0.00     0.345 HD
ATOM      5  H   UNL     1     -15.277 -11.262  41.618  1.00  0.00     0.345 HD
ATOM      6  H   UNL     1     -15.354  -9.598  41.930  1.00  0.00     0.345 HD
ENDBRANCH   2   3
BRANCH   2   7
ATOM      7  C   UNL     1     -16.018  -9.588  44.419  1.00  0.00     0.099 C 
ATOM      8  O   UNL     1     -16.816  -8.636  44.214  1.00  0.00    -0.544 OA
ATOM      9  O   UNL     1     -15.161  -9.541  45.511  1.00  0.00    -0.544 OA
ENDBRANCH   2   7
ENDBRANCH   1   2
BRANCH   1  10
ATOM     10  C   UNL     1     -17.762 -12.571  43.327  1.00  0.00     0.041 A 
ATOM     11  C   UNL     1     -18.886 -13.029  43.977  1.00  0.00     0.134 A 
ATOM     12  N   UNL     1     -16.962 -13.614  43.065  1.00  0.00    -0.348 N 
ATOM     13  N   UNL     1     -18.801 -14.367  44.115  1.00  0.00    -0.245 NA
ATOM     14  C   UNL     1     -17.617 -14.687  43.547  1.00  0.00     0.196 A 
ATOM     15  H   UNL     1     -16.027 -13.601  42.599  1.00  0.00     0.167 HD
ENDBRANCH   1  10
TORSDOF 4
ENDMDL
MODEL 6
REMARK VINA RESULT:    -4.523      3.704      4.460
REMARK INTER + INTRA:          -5.603
REMARK INTER:                  -5.419
REMARK INTRA:                  -0.184
REMARK UNBOUND:                -0.155
REMARK SMILES [NH3+][C@H](Cc1cnc[nH]1)C(=O)[O-]
REMARK SMILES IDX 3 1 2 2 1 3 9 7 10 8 11 9 4 10 5 11 8 12 6 13 7 14
REMARK H PARENT 1 4 1 5 1 6 8 15
REMARK Flexibility Score: inf
ROOT
ATOM      1  C   UNL     1     -15.927 -10.420  43.532  1.00  0.00     0.127 C 
ENDROOT
BRANCH   1   2
ATOM      2  C   UNL     1     -16.209  -9.371  44.626  1.00  0.00     0.233 C 
BRANCH   2   3
ATOM      3  N   UNL     1     -15.187  -9.436  45.677  1.00  0.00    -0.350 N 
ATOM      4  H   UNL     1     -14.334  -9.937  45.333  1.00  0.00     0.345 HD
ATOM      5  H   UNL     1     -14.921  -8.468  45.974  1.00  0.00     0.345 HD
ATOM      6  H   UNL     1     -15.566  -9.941  46.510  1.00  0.00     0.345 HD
ENDBRANCH   2   3
BRANCH   2   7
ATOM      7  C   UNL     1     -16.270  -7.982  44.042  1.00  0.00     0.099 C 
ATOM      8  O   UNL     1     -15.475  -7.088  44.434  1.00  0.00    -0.544 OA
ATOM      9  O   UNL     1     -17.197  -7.687  43.050  1.00  0.00    -0.544 OA
ENDBRANCH   2   7
ENDBRANCH   1   2
BRANCH   1  10
ATOM     10  C   UNL     1     -17.058 -11.396  43.398  1.00  0.00     0.041 A 
ATOM     11  C   UNL     1     -18.403 -11.105  43.451  1.00  0.00     0.134 A 
ATOM     12  N   UNL     1     -16.910 -12.724  43.284  1.00  0.00    -0.348 N 
ATOM     13  N   UNL     1     -19.106 -12.251  43.358  1.00  0.00    -0.245 NA
ATOM     14  C   UNL     1     -18.163 -13.214  43.256  1.00  0.00     0.196 A 
ATOM     15  H   UNL     1     -16.018 -13.265  43.238  1.00  0.00     0.167 HD
ENDBRANCH   1  10
TORSDOF 4
ENDMDL
MODEL 7
REMARK VINA RESULT:    -4.484      2.392      4.586
REMARK INTER + INTRA:          -5.557
REMARK INTER:                  -5.226
REMARK INTRA:                  -0.332
REMARK UNBOUND:                -0.155
REMARK SMILES [NH3+][C@H](Cc1cnc[nH]1)C(=O)[O-]
REMARK SMILES IDX 3 1 2 2 1 3 9 7 10 8 11 9 4 10 5 11 8 12 6 13 7 14
REMARK H PARENT 1 4 1 5 1 6 8 15
REMARK Flexibility Score: inf
ROOT
ATOM      1  C   UNL     1     -18.156  -8.020  42.894  1.00  0.00     0.127 C 
ENDROOT
BRANCH   1   2
ATOM      2  C   UNL     1     -19.548  -8.111  43.549  1.00  0.00     0.233 C 
BRANCH   2   3
ATOM      3  N   UNL     1     -20.291  -6.861  43.353  1.00  0.00    -0.350 N 
ATOM      4  H   UNL     1     -21.123  -6.822  43.988  1.00  0.00     0.345 HD
ATOM      5  H   UNL     1     -19.669  -6.043  43.549  1.00  0.00     0.345 HD
ATOM      6  H   UNL     1     -20.616  -6.794  42.361  1.00  0.00     0.345 HD
ENDBRANCH   2   3
BRANCH   2   7
ATOM      7  C   UNL     1     -20.331  -9.276  42.999  1.00  0.00     0.099 C 
ATOM      8  O   UNL     1     -21.308  -9.083  42.228  1.00  0.00    -0.544 OA
ATOM      9  O   UNL     1     -19.963 -10.575  43.326  1.00  0.00    -0.544 OA
ENDBRANCH   2   7
ENDBRANCH   1   2
BRANCH   1  10
ATOM     10  C   UNL     1     -17.082  -8.539  43.805  1.00  0.00     0.041 A 
ATOM     11  C   UNL     1     -16.002  -7.833  44.286  1.00  0.00     0.134 A 
ATOM     12  N   UNL     1     -16.985  -9.810  44.222  1.00  0.00    -0.348 N 
ATOM     13  N   UNL     1     -15.228  -8.658  45.018  1.00  0.00    -0.245 NA
ATOM     14  C   UNL     1     -15.858  -9.851  44.957  1.00  0.00     0.196 A 
ATOM     15  H   UNL     1     -17.634 -10.602  44.015  1.00  0.00     0.167 HD
ENDBRANCH   1  10
TORSDOF 4
ENDMDL
MODEL 8
REMARK VINA RESULT:    -4.468      2.488      2.656
REMARK INTER + INTRA:          -5.537
REMARK INTER:                  -5.303
REMARK INTRA:                  -0.234
REMARK UNBOUND:                -0.155
REMARK SMILES [NH3+][C@H](Cc1cnc[nH]1)C(=O)[O-]
REMARK SMILES IDX 3 1 2 2 1 3 9 7 10 8 11 9 4 10 5 11 8 12 6 13 7 14
REMARK H PARENT 1 4 1 5 1 6 8 15
REMARK Flexibility Score: inf
ROOT
ATOM      1  C   UNL     1     -17.591  -9.558  42.787  1.00  0.00     0.127 C 
ENDROOT
BRANCH   1   2
ATOM      2  C   UNL     1     -16.869 -10.153  44.013  1.00  0.00     0.233 C 
BRANCH   2   3
ATOM      3  N   UNL     1     -16.165 -11.387  43.646  1.00  0.00    -0.350 N 
ATOM      4  H   UNL     1     -15.778 -11.318  42.675  1.00  0.00     0.345 HD
ATOM      5  H   UNL     1     -15.381 -11.562  44.317  1.00  0.00     0.345 HD
ATOM      6  H   UNL     1     -16.823 -12.198  43.694  1.00  0.00     0.345 HD
ENDBRANCH   2   3
BRANCH   2   7
ATOM      7  C   UNL     1     -15.906  -9.159  44.609  1.00  0.00     0.099 C 
ATOM      8  O   UNL     1     -16.070  -7.923  44.430  1.00  0.00    -0.544 OA
ATOM      9  O   UNL     1     -14.838  -9.603  45.377  1.00  0.00    -0.544 OA
ENDBRANCH   2   7
ENDBRANCH   1   2
BRANCH   1  10
ATOM     10  C   UNL     1     -18.916  -8.963  43.162  1.00  0.00     0.041 A 
ATOM     11  C   UNL     1     -20.112  -9.634  43.285  1.00  0.00     0.134 A 
ATOM     12  N   UNL     1     -19.136  -7.654  43.358  1.00  0.00    -0.348 N 
ATOM     13  N   UNL     1     -21.087  -8.749  43.571  1.00  0.00    -0.245 NA
ATOM     14  C   UNL     1     -20.455  -7.555  43.608  1.00  0.00     0.196 A 
ATOM     15  H   UNL     1     -18.441  -6.876  43.315  1.00  0.00     0.167 HD
ENDBRANCH   1  10
TORSDOF 4
ENDMDL
MODEL 9
REMARK VINA RESULT:    -4.387      5.576      6.551
REMARK INTER + INTRA:          -5.440
REMARK INTER:                  -5.315
REMARK INTRA:                  -0.125
REMARK UNBOUND:                -0.155
REMARK SMILES [NH3+][C@H](Cc1cnc[nH]1)C(=O)[O-]
REMARK SMILES IDX 3 1 2 2 1 3 9 7 10 8 11 9 4 10 5 11 8 12 6 13 7 14
REMARK H PARENT 1 4 1 5 1 6 8 15
REMARK Flexibility Score: inf
ROOT
ATOM      1  C   UNL     1     -18.832 -13.499  44.074  1.00  0.00     0.127 C 
ENDROOT
BRANCH   1   2
ATOM      2  C   UNL     1     -18.808 -14.585  42.980  1.00  0.00     0.233 C 
BRANCH   2   3
ATOM      3  N   UNL     1     -17.705 -15.525  43.213  1.00  0.00    -0.350 N 
ATOM      4  H   UNL     1     -16.920 -15.056  43.724  1.00  0.00     0.345 HD
ATOM      5  H   UNL     1     -18.045 -16.339  43.778  1.00  0.00     0.345 HD
ATOM      6  H   UNL     1     -17.349 -15.887  42.300  1.00  0.00     0.345 HD
ENDBRANCH   2   3
BRANCH   2   7
ATOM      7  C   UNL     1     -20.120 -15.324  42.921  1.00  0.00     0.099 C 
ATOM      8  O   UNL     1     -20.143 -16.578  42.811  1.00  0.00    -0.544 OA
ATOM      9  O   UNL     1     -21.316 -14.622  43.005  1.00  0.00    -0.544 OA
ENDBRANCH   2   7
ENDBRANCH   1   2
BRANCH   1  10
ATOM     10  C   UNL     1     -18.155 -12.240  43.617  1.00  0.00     0.041 A 
ATOM     11  C   UNL     1     -18.759 -11.028  43.369  1.00  0.00     0.134 A 
ATOM     12  N   UNL     1     -16.854 -12.144  43.307  1.00  0.00    -0.348 N 
ATOM     13  N   UNL     1     -17.834 -10.161  42.913  1.00  0.00    -0.245 NA
ATOM     14  C   UNL     1     -16.687 -10.875  42.890  1.00  0.00     0.196 A 
ATOM     15  H   UNL     1     -16.127 -12.891  43.364  1.00  0.00     0.167 HD
ENDBRANCH   1  10
TORSDOF 4
ENDMDL
