MODEL 1
REMARK VINA RESULT:    -6.015      0.000      0.000
REMARK INTER + INTRA:          -7.553
REMARK INTER:                  -7.246
REMARK INTRA:                  -0.307
REMARK UNBOUND:                -0.307
REMARK SMILES O=c1c(O)c(-c2ccc(O)cc2O)oc2cc(O)cc(O)c12
REMARK SMILES IDX 5 1 3 2 2 3 1 4 22 5 20 6 19 7 17 8 16 9 15 10 14 11 6 12
REMARK SMILES IDX 8 13 7 14 9 15 11 16 12 17 10 18 13 20 4 22 21 24 18 26
REMARK H PARENT 10 19 13 21 4 23 21 25 18 27
REMARK Flexibility Score: inf
ROOT
ATOM      1  C   UNL     1      -1.673  17.705  -4.087  1.00  0.00     0.184 A 
ATOM      2  C   UNL     1      -0.631  16.845  -4.477  1.00  0.00     0.208 A 
ATOM      3  C   UNL     1       0.468  16.679  -3.620  1.00  0.00     0.238 A 
ATOM      4  O   UNL     1       1.414  15.920  -3.963  1.00  0.00    -0.285 OA
ATOM      5  C   UNL     1       0.495  17.359  -2.384  1.00  0.00     0.111 A 
ATOM      6  C   UNL     1       1.563  17.245  -1.461  1.00  0.00     0.134 A 
ATOM      7  C   UNL     1       1.513  17.948  -0.249  1.00  0.00     0.093 A 
ATOM      8  C   UNL     1       0.415  18.760   0.059  1.00  0.00     0.123 A 
ATOM      9  C   UNL     1      -0.639  18.876  -0.847  1.00  0.00     0.094 A 
ATOM     10  C   UNL     1      -0.607  18.186  -2.062  1.00  0.00     0.146 A 
ATOM     11  O   UNL     1      -1.622  18.318  -2.908  1.00  0.00    -0.451 OA
ENDROOT
BRANCH   1  12
ATOM     12  C   UNL     1      -2.853  17.933  -4.947  1.00  0.00     0.063 A 
ATOM     13  C   UNL     1      -4.115  19.430  -6.388  1.00  0.00     0.047 A 
ATOM     14  C   UNL     1      -3.013  19.184  -5.563  1.00  0.00     0.020 A 
ATOM     15  C   UNL     1      -5.061  18.428  -6.616  1.00  0.00     0.119 A 
ATOM     16  C   UNL     1      -4.897  17.169  -6.024  1.00  0.00     0.093 A 
ATOM     17  C   UNL     1      -3.792  16.911  -5.200  1.00  0.00     0.130 A 
BRANCH  15  18
ATOM     18  O   UNL     1      -6.156  18.691  -7.437  1.00  0.00    -0.508 OA
ATOM     19  H   UNL     1      -6.092  18.614  -8.446  1.00  0.00     0.293 HD
ENDBRANCH  15  18
BRANCH  17  20
ATOM     20  O   UNL     1      -3.613  15.639  -4.655  1.00  0.00    -0.507 OA
ATOM     21  H   UNL     1      -3.010  14.954  -5.094  1.00  0.00     0.293 HD
ENDBRANCH  17  20
ENDBRANCH   1  12
BRANCH   2  22
ATOM     22  O   UNL     1      -0.710  16.151  -5.687  1.00  0.00    -0.502 OA
ATOM     23  H   UNL     1      -1.365  15.393  -5.834  1.00  0.00     0.293 HD
ENDBRANCH   2  22
BRANCH   6  24
ATOM     24  O   UNL     1       2.671  16.442  -1.740  1.00  0.00    -0.507 OA
ATOM     25  H   UNL     1       2.764  15.953  -2.623  1.00  0.00     0.293 HD
ENDBRANCH   6  24
BRANCH   8  26
ATOM     26  O   UNL     1       0.364  19.457   1.265  1.00  0.00    -0.508 OA
ATOM     27  H   UNL     1       0.623  19.018   2.141  1.00  0.00     0.293 HD
ENDBRANCH   8  26
TORSDOF 6
ENDMDL
MODEL 2
REMARK VINA RESULT:    -5.732      0.853      1.463
REMARK INTER + INTRA:          -7.212
REMARK INTER:                  -7.074
REMARK INTRA:                  -0.138
REMARK UNBOUND:                -0.307
REMARK SMILES O=c1c(O)c(-c2ccc(O)cc2O)oc2cc(O)cc(O)c12
REMARK SMILES IDX 5 1 3 2 2 3 1 4 22 5 20 6 19 7 17 8 16 9 15 10 14 11 6 12
REMARK SMILES IDX 8 13 7 14 9 15 11 16 12 17 10 18 13 20 4 22 21 24 18 26
REMARK H PARENT 10 19 13 21 4 23 21 25 18 27
REMARK Flexibility Score: inf
ROOT
ATOM      1  C   UNL     1      -1.808  17.496  -4.441  1.00  0.00     0.184 A 
ATOM      2  C   UNL     1      -0.720  16.700  -4.839  1.00  0.00     0.208 A 
ATOM      3  C   UNL     1       0.385  16.584  -3.980  1.00  0.00     0.238 A 
ATOM      4  O   UNL     1       1.372  15.883  -4.331  1.00  0.00    -0.285 OA
ATOM      5  C   UNL     1       0.372  17.249  -2.736  1.00  0.00     0.111 A 
ATOM      6  C   UNL     1       1.442  17.183  -1.812  1.00  0.00     0.134 A 
ATOM      7  C   UNL     1       1.350  17.866  -0.591  1.00  0.00     0.093 A 
ATOM      8  C   UNL     1       0.208  18.612  -0.276  1.00  0.00     0.123 A 
ATOM      9  C   UNL     1      -0.849  18.681  -1.183  1.00  0.00     0.094 A 
ATOM     10  C   UNL     1      -0.776  18.009  -2.407  1.00  0.00     0.146 A 
ATOM     11  O   UNL     1      -1.795  18.096  -3.255  1.00  0.00    -0.451 OA
ENDROOT
BRANCH   1  12
ATOM     12  C   UNL     1      -2.998  17.669  -5.301  1.00  0.00     0.063 A 
ATOM     13  C   UNL     1      -4.721  16.662  -6.689  1.00  0.00     0.047 A 
ATOM     14  C   UNL     1      -3.592  16.534  -5.875  1.00  0.00     0.020 A 
ATOM     15  C   UNL     1      -5.278  17.920  -6.927  1.00  0.00     0.119 A 
ATOM     16  C   UNL     1      -4.706  19.056  -6.340  1.00  0.00     0.093 A 
ATOM     17  C   UNL     1      -3.576  18.937  -5.517  1.00  0.00     0.130 A 
BRANCH  15  18
ATOM     18  O   UNL     1      -6.401  18.031  -7.744  1.00  0.00    -0.508 OA
ATOM     19  H   UNL     1      -7.051  18.804  -7.649  1.00  0.00     0.293 HD
ENDBRANCH  15  18
BRANCH  17  20
ATOM     20  O   UNL     1      -3.045  20.069  -4.899  1.00  0.00    -0.507 OA
ATOM     21  H   UNL     1      -3.102  20.202  -3.896  1.00  0.00     0.293 HD
ENDBRANCH  17  20
ENDBRANCH   1  12
BRANCH   2  22
ATOM     22  O   UNL     1      -0.758  16.018  -6.058  1.00  0.00    -0.502 OA
ATOM     23  H   UNL     1      -0.053  15.339  -6.320  1.00  0.00     0.293 HD
ENDBRANCH   2  22
BRANCH   6  24
ATOM     24  O   UNL     1       2.593  16.446  -2.098  1.00  0.00    -0.507 OA
ATOM     25  H   UNL     1       3.509  16.749  -1.791  1.00  0.00     0.293 HD
ENDBRANCH   6  24
BRANCH   8  26
ATOM     26  O   UNL     1       0.116  19.289   0.939  1.00  0.00    -0.508 OA
ATOM     27  H   UNL     1       0.607  20.161   1.098  1.00  0.00     0.293 HD
ENDBRANCH   8  26
TORSDOF 6
ENDMDL
MODEL 3
REMARK VINA RESULT:    -5.617      1.615      6.712
REMARK INTER + INTRA:          -7.074
REMARK INTER:                  -6.670
REMARK INTRA:                  -0.404
REMARK UNBOUND:                -0.307
REMARK SMILES O=c1c(O)c(-c2ccc(O)cc2O)oc2cc(O)cc(O)c12
REMARK SMILES IDX 5 1 3 2 2 3 1 4 22 5 20 6 19 7 17 8 16 9 15 10 14 11 6 12
REMARK SMILES IDX 8 13 7 14 9 15 11 16 12 17 10 18 13 20 4 22 21 24 18 26
REMARK H PARENT 10 19 13 21 4 23 21 25 18 27
REMARK Flexibility Score: inf
ROOT
ATOM      1  C   UNL     1      -1.424  17.232  -2.777  1.00  0.00     0.184 A 
ATOM      2  C   UNL     1      -2.310  16.176  -2.496  1.00  0.00     0.208 A 
ATOM      3  C   UNL     1      -3.259  15.812  -3.464  1.00  0.00     0.238 A 
ATOM      4  O   UNL     1      -4.066  14.875  -3.219  1.00  0.00    -0.285 OA
ATOM      5  C   UNL     1      -3.291  16.494  -4.698  1.00  0.00     0.111 A 
ATOM      6  C   UNL     1      -4.213  16.187  -5.728  1.00  0.00     0.134 A 
ATOM      7  C   UNL     1      -4.176  16.906  -6.931  1.00  0.00     0.093 A 
ATOM      8  C   UNL     1      -3.235  17.924  -7.125  1.00  0.00     0.123 A 
ATOM      9  C   UNL     1      -2.325  18.231  -6.113  1.00  0.00     0.094 A 
ATOM     10  C   UNL     1      -2.346  17.527  -4.905  1.00  0.00     0.146 A 
ATOM     11  O   UNL     1      -1.472  17.843  -3.957  1.00  0.00    -0.451 OA
ENDROOT
BRANCH   1  12
ATOM     12  C   UNL     1      -0.408  17.673  -1.798  1.00  0.00     0.063 A 
ATOM     13  C   UNL     1       0.202  19.137   0.045  1.00  0.00     0.047 A 
ATOM     14  C   UNL     1      -0.733  18.700  -0.898  1.00  0.00     0.020 A 
ATOM     15  C   UNL     1       1.466  18.546   0.108  1.00  0.00     0.119 A 
ATOM     16  C   UNL     1       1.791  17.505  -0.772  1.00  0.00     0.093 A 
ATOM     17  C   UNL     1       0.857  17.056  -1.717  1.00  0.00     0.130 A 
BRANCH  15  18
ATOM     18  O   UNL     1       2.388  18.995   1.050  1.00  0.00    -0.508 OA
ATOM     19  H   UNL     1       2.102  19.551   1.849  1.00  0.00     0.293 HD
ENDBRANCH  15  18
BRANCH  17  20
ATOM     20  O   UNL     1       1.175  15.986  -2.554  1.00  0.00    -0.507 OA
ATOM     21  H   UNL     1       0.832  15.050  -2.373  1.00  0.00     0.293 HD
ENDBRANCH  17  20
ENDBRANCH   1  12
BRANCH   2  22
ATOM     22  O   UNL     1      -2.222  15.491  -1.281  1.00  0.00    -0.502 OA
ATOM     23  H   UNL     1      -1.824  14.562  -1.211  1.00  0.00     0.293 HD
ENDBRANCH   2  22
BRANCH   6  24
ATOM     24  O   UNL     1      -5.163  15.177  -5.564  1.00  0.00    -0.507 OA
ATOM     25  H   UNL     1      -5.384  14.798  -4.651  1.00  0.00     0.293 HD
ENDBRANCH   6  24
BRANCH   8  26
ATOM     26  O   UNL     1      -3.197  18.637  -8.321  1.00  0.00    -0.508 OA
ATOM     27  H   UNL     1      -2.633  19.474  -8.422  1.00  0.00     0.293 HD
ENDBRANCH   8  26
TORSDOF 6
ENDMDL
MODEL 4
REMARK VINA RESULT:    -5.488      1.309      1.714
REMARK INTER + INTRA:          -6.918
REMARK INTER:                  -6.608
REMARK INTRA:                  -0.310
REMARK UNBOUND:                -0.307
REMARK SMILES O=c1c(O)c(-c2ccc(O)cc2O)oc2cc(O)cc(O)c12
REMARK SMILES IDX 5 1 3 2 2 3 1 4 22 5 20 6 19 7 17 8 16 9 15 10 14 11 6 12
REMARK SMILES IDX 8 13 7 14 9 15 11 16 12 17 10 18 13 20 4 22 21 24 18 26
REMARK H PARENT 10 19 13 21 4 23 21 25 18 27
REMARK Flexibility Score: inf
ROOT
ATOM      1  C   UNL     1      -2.261  18.165  -4.841  1.00  0.00     0.184 A 
ATOM      2  C   UNL     1      -1.507  17.320  -5.675  1.00  0.00     0.208 A 
ATOM      3  C   UNL     1      -0.331  16.744  -5.171  1.00  0.00     0.238 A 
ATOM      4  O   UNL     1       0.360  15.994  -5.912  1.00  0.00    -0.285 OA
ATOM      5  C   UNL     1       0.058  17.007  -3.841  1.00  0.00     0.111 A 
ATOM      6  C   UNL     1       1.227  16.465  -3.254  1.00  0.00     0.134 A 
ATOM      7  C   UNL     1       1.542  16.768  -1.922  1.00  0.00     0.093 A 
ATOM      8  C   UNL     1       0.710  17.601  -1.164  1.00  0.00     0.123 A 
ATOM      9  C   UNL     1      -0.443  18.138  -1.738  1.00  0.00     0.094 A 
ATOM     10  C   UNL     1      -0.773  17.850  -3.065  1.00  0.00     0.146 A 
ATOM     11  O   UNL     1      -1.874  18.379  -3.587  1.00  0.00    -0.451 OA
ENDROOT
BRANCH   1  12
ATOM     12  C   UNL     1      -3.504  18.812  -5.312  1.00  0.00     0.063 A 
ATOM     13  C   UNL     1      -4.665  20.842  -5.976  1.00  0.00     0.047 A 
ATOM     14  C   UNL     1      -3.509  20.200  -5.525  1.00  0.00     0.020 A 
ATOM     15  C   UNL     1      -5.824  20.106  -6.233  1.00  0.00     0.119 A 
ATOM     16  C   UNL     1      -5.822  18.717  -6.046  1.00  0.00     0.093 A 
ATOM     17  C   UNL     1      -4.664  18.063  -5.599  1.00  0.00     0.130 A 
BRANCH  15  18
ATOM     18  O   UNL     1      -6.970  20.761  -6.678  1.00  0.00    -0.508 OA
ATOM     19  H   UNL     1      -6.987  21.257  -7.562  1.00  0.00     0.293 HD
ENDBRANCH  15  18
BRANCH  17  20
ATOM     20  O   UNL     1      -4.659  16.675  -5.464  1.00  0.00    -0.507 OA
ATOM     21  H   UNL     1      -3.850  16.179  -5.109  1.00  0.00     0.293 HD
ENDBRANCH  17  20
ENDBRANCH   1  12
BRANCH   2  22
ATOM     22  O   UNL     1      -1.944  17.044  -6.973  1.00  0.00    -0.502 OA
ATOM     23  H   UNL     1      -1.721  17.642  -7.758  1.00  0.00     0.293 HD
ENDBRANCH   2  22
BRANCH   6  24
ATOM     24  O   UNL     1       2.076  15.631  -3.985  1.00  0.00    -0.507 OA
ATOM     25  H   UNL     1       2.528  15.945  -4.835  1.00  0.00     0.293 HD
ENDBRANCH   6  24
BRANCH   8  26
ATOM     26  O   UNL     1       1.021  17.900   0.160  1.00  0.00    -0.508 OA
ATOM     27  H   UNL     1       1.639  18.667   0.399  1.00  0.00     0.293 HD
ENDBRANCH   8  26
TORSDOF 6
ENDMDL
MODEL 5
REMARK VINA RESULT:    -5.476      2.400      6.015
REMARK INTER + INTRA:          -6.903
REMARK INTER:                  -6.509
REMARK INTRA:                  -0.394
REMARK UNBOUND:                -0.307
REMARK SMILES O=c1c(O)c(-c2ccc(O)cc2O)oc2cc(O)cc(O)c12
REMARK SMILES IDX 5 1 3 2 2 3 1 4 22 5 20 6 19 7 17 8 16 9 15 10 14 11 6 12
REMARK SMILES IDX 8 13 7 14 9 15 11 16 12 17 10 18 13 20 4 22 21 24 18 26
REMARK H PARENT 10 19 13 21 4 23 21 25 18 27
REMARK Flexibility Score: inf
ROOT
ATOM      1  C   UNL     1       0.262  17.092  -3.266  1.00  0.00     0.184 A 
ATOM      2  C   UNL     1       1.493  16.447  -3.487  1.00  0.00     0.208 A 
ATOM      3  C   UNL     1       1.775  15.947  -4.768  1.00  0.00     0.238 A 
ATOM      4  O   UNL     1       2.870  15.358  -4.975  1.00  0.00    -0.285 OA
ATOM      5  C   UNL     1       0.834  16.118  -5.805  1.00  0.00     0.111 A 
ATOM      6  C   UNL     1       1.042  15.647  -7.124  1.00  0.00     0.134 A 
ATOM      7  C   UNL     1       0.061  15.862  -8.102  1.00  0.00     0.093 A 
ATOM      8  C   UNL     1      -1.122  16.541  -7.787  1.00  0.00     0.123 A 
ATOM      9  C   UNL     1      -1.332  17.006  -6.489  1.00  0.00     0.094 A 
ATOM     10  C   UNL     1      -0.368  16.799  -5.498  1.00  0.00     0.146 A 
ATOM     11  O   UNL     1      -0.595  17.249  -4.270  1.00  0.00    -0.451 OA
ENDROOT
BRANCH   1  12
ATOM     12  C   UNL     1      -0.103  17.632  -1.939  1.00  0.00     0.063 A 
ATOM     13  C   UNL     1       0.271  19.283  -0.195  1.00  0.00     0.047 A 
ATOM     14  C   UNL     1       0.595  18.744  -1.443  1.00  0.00     0.020 A 
ATOM     15  C   UNL     1      -0.761  18.728   0.565  1.00  0.00     0.119 A 
ATOM     16  C   UNL     1      -1.479  17.632   0.067  1.00  0.00     0.093 A 
ATOM     17  C   UNL     1      -1.165  17.088  -1.187  1.00  0.00     0.130 A 
BRANCH  15  18
ATOM     18  O   UNL     1      -1.069  19.274   1.809  1.00  0.00    -0.508 OA
ATOM     19  H   UNL     1      -1.307  18.687   2.601  1.00  0.00     0.293 HD
ENDBRANCH  15  18
BRANCH  17  20
ATOM     20  O   UNL     1      -1.919  16.029  -1.693  1.00  0.00    -0.507 OA
ATOM     21  H   UNL     1      -1.902  15.788  -2.677  1.00  0.00     0.293 HD
ENDBRANCH  17  20
ENDBRANCH   1  12
BRANCH   2  22
ATOM     22  O   UNL     1       2.422  16.335  -2.450  1.00  0.00    -0.502 OA
ATOM     23  H   UNL     1       3.416  16.238  -2.622  1.00  0.00     0.293 HD
ENDBRANCH   2  22
BRANCH   6  24
ATOM     24  O   UNL     1       2.213  14.967  -7.467  1.00  0.00    -0.507 OA
ATOM     25  H   UNL     1       2.463  14.086  -7.035  1.00  0.00     0.293 HD
ENDBRANCH   6  24
BRANCH   8  26
ATOM     26  O   UNL     1      -2.096  16.757  -8.760  1.00  0.00    -0.508 OA
ATOM     27  H   UNL     1      -2.164  17.639  -9.255  1.00  0.00     0.293 HD
ENDBRANCH   8  26
TORSDOF 6
ENDMDL
MODEL 6
REMARK VINA RESULT:    -5.423      2.860      4.235
REMARK INTER + INTRA:          -6.839
REMARK INTER:                  -6.456
REMARK INTRA:                  -0.383
REMARK UNBOUND:                -0.307
REMARK SMILES O=c1c(O)c(-c2ccc(O)cc2O)oc2cc(O)cc(O)c12
REMARK SMILES IDX 5 1 3 2 2 3 1 4 22 5 20 6 19 7 17 8 16 9 15 10 14 11 6 12
REMARK SMILES IDX 8 13 7 14 9 15 11 16 12 17 10 18 13 20 4 22 21 24 18 26
REMARK H PARENT 10 19 13 21 4 23 21 25 18 27
REMARK Flexibility Score: inf
ROOT
ATOM      1  C   UNL     1      -0.152  16.419  -4.343  1.00  0.00     0.184 A 
ATOM      2  C   UNL     1      -1.273  15.794  -3.767  1.00  0.00     0.208 A 
ATOM      3  C   UNL     1      -1.631  16.124  -2.451  1.00  0.00     0.238 A 
ATOM      4  O   UNL     1      -2.627  15.562  -1.920  1.00  0.00    -0.285 OA
ATOM      5  C   UNL     1      -0.876  17.083  -1.744  1.00  0.00     0.111 A 
ATOM      6  C   UNL     1      -1.171  17.474  -0.415  1.00  0.00     0.134 A 
ATOM      7  C   UNL     1      -0.377  18.442   0.217  1.00  0.00     0.093 A 
ATOM      8  C   UNL     1       0.704  19.026  -0.453  1.00  0.00     0.123 A 
ATOM      9  C   UNL     1       0.999  18.644  -1.762  1.00  0.00     0.094 A 
ATOM     10  C   UNL     1       0.222  17.679  -2.410  1.00  0.00     0.146 A 
ATOM     11  O   UNL     1       0.528  17.330  -3.654  1.00  0.00    -0.451 OA
ENDROOT
BRANCH   1  12
ATOM     12  C   UNL     1       0.286  16.110  -5.721  1.00  0.00     0.063 A 
ATOM     13  C   UNL     1      -0.152  16.209  -8.110  1.00  0.00     0.047 A 
ATOM     14  C   UNL     1      -0.538  16.481  -6.795  1.00  0.00     0.020 A 
ATOM     15  C   UNL     1       1.067  15.577  -8.369  1.00  0.00     0.119 A 
ATOM     16  C   UNL     1       1.906  15.224  -7.304  1.00  0.00     0.093 A 
ATOM     17  C   UNL     1       1.529  15.498  -5.981  1.00  0.00     0.130 A 
BRANCH  15  18
ATOM     18  O   UNL     1       1.436  15.309  -9.685  1.00  0.00    -0.508 OA
ATOM     19  H   UNL     1       0.949  14.615 -10.241  1.00  0.00     0.293 HD
ENDBRANCH  15  18
BRANCH  17  20
ATOM     20  O   UNL     1       2.396  15.187  -4.933  1.00  0.00    -0.507 OA
ATOM     21  H   UNL     1       3.324  14.819  -5.104  1.00  0.00     0.293 HD
ENDBRANCH  17  20
ENDBRANCH   1  12
BRANCH   2  22
ATOM     22  O   UNL     1      -2.026  14.882  -4.510  1.00  0.00    -0.502 OA
ATOM     23  H   UNL     1      -3.019  15.002  -4.669  1.00  0.00     0.293 HD
ENDBRANCH   2  22
BRANCH   6  24
ATOM     24  O   UNL     1      -2.243  16.910   0.278  1.00  0.00    -0.507 OA
ATOM     25  H   UNL     1      -3.079  16.596  -0.199  1.00  0.00     0.293 HD
ENDBRANCH   6  24
BRANCH   8  26
ATOM     26  O   UNL     1       1.492  19.989   0.175  1.00  0.00    -0.508 OA
ATOM     27  H   UNL     1       2.094  20.608  -0.355  1.00  0.00     0.293 HD
ENDBRANCH   8  26
TORSDOF 6
ENDMDL
MODEL 7
REMARK VINA RESULT:    -5.414      1.490      6.391
REMARK INTER + INTRA:          -6.828
REMARK INTER:                  -6.608
REMARK INTRA:                  -0.221
REMARK UNBOUND:                -0.307
REMARK SMILES O=c1c(O)c(-c2ccc(O)cc2O)oc2cc(O)cc(O)c12
REMARK SMILES IDX 5 1 3 2 2 3 1 4 22 5 20 6 19 7 17 8 16 9 15 10 14 11 6 12
REMARK SMILES IDX 8 13 7 14 9 15 11 16 12 17 10 18 13 20 4 22 21 24 18 26
REMARK H PARENT 10 19 13 21 4 23 21 25 18 27
REMARK Flexibility Score: inf
ROOT
ATOM      1  C   UNL     1      -0.116  17.244  -3.351  1.00  0.00     0.184 A 
ATOM      2  C   UNL     1       0.526  16.408  -4.282  1.00  0.00     0.208 A 
ATOM      3  C   UNL     1      -0.099  16.163  -5.515  1.00  0.00     0.238 A 
ATOM      4  O   UNL     1       0.461  15.406  -6.354  1.00  0.00    -0.285 OA
ATOM      5  C   UNL     1      -1.339  16.772  -5.800  1.00  0.00     0.111 A 
ATOM      6  C   UNL     1      -2.033  16.580  -7.019  1.00  0.00     0.134 A 
ATOM      7  C   UNL     1      -3.259  17.227  -7.231  1.00  0.00     0.093 A 
ATOM      8  C   UNL     1      -3.802  18.064  -6.249  1.00  0.00     0.123 A 
ATOM      9  C   UNL     1      -3.122  18.256  -5.046  1.00  0.00     0.094 A 
ATOM     10  C   UNL     1      -1.900  17.618  -4.814  1.00  0.00     0.146 A 
ATOM     11  O   UNL     1      -1.276  17.814  -3.659  1.00  0.00    -0.451 OA
ENDROOT
BRANCH   1  12
ATOM     12  C   UNL     1       0.482  17.536  -2.030  1.00  0.00     0.063 A 
ATOM     13  C   UNL     1       1.309  19.180  -0.443  1.00  0.00     0.047 A 
ATOM     14  C   UNL     1       0.750  18.869  -1.686  1.00  0.00     0.020 A 
ATOM     15  C   UNL     1       1.593  18.165   0.474  1.00  0.00     0.119 A 
ATOM     16  C   UNL     1       1.307  16.833   0.148  1.00  0.00     0.093 A 
ATOM     17  C   UNL     1       0.740  16.513  -1.094  1.00  0.00     0.130 A 
BRANCH  15  18
ATOM     18  O   UNL     1       2.154  18.490   1.707  1.00  0.00    -0.508 OA
ATOM     19  H   UNL     1       2.111  19.434   2.077  1.00  0.00     0.293 HD
ENDBRANCH  15  18
BRANCH  17  20
ATOM     20  O   UNL     1       0.414  15.188  -1.388  1.00  0.00    -0.507 OA
ATOM     21  H   UNL     1       0.643  14.432  -0.754  1.00  0.00     0.293 HD
ENDBRANCH  17  20
ENDBRANCH   1  12
BRANCH   2  22
ATOM     22  O   UNL     1       1.775  15.857  -3.987  1.00  0.00    -0.502 OA
ATOM     23  H   UNL     1       1.880  14.915  -3.629  1.00  0.00     0.293 HD
ENDBRANCH   2  22
BRANCH   6  24
ATOM     24  O   UNL     1      -1.516  15.751  -8.017  1.00  0.00    -0.507 OA
ATOM     25  H   UNL     1      -1.346  14.766  -7.856  1.00  0.00     0.293 HD
ENDBRANCH   6  24
BRANCH   8  26
ATOM     26  O   UNL     1      -5.019  18.709  -6.461  1.00  0.00    -0.508 OA
ATOM     27  H   UNL     1      -5.601  19.009  -5.687  1.00  0.00     0.293 HD
ENDBRANCH   8  26
TORSDOF 6
ENDMDL
MODEL 8
REMARK VINA RESULT:    -5.399      7.790      9.461
REMARK INTER + INTRA:          -6.811
REMARK INTER:                  -6.431
REMARK INTRA:                  -0.380
REMARK UNBOUND:                -0.307
REMARK SMILES O=c1c(O)c(-c2ccc(O)cc2O)oc2cc(O)cc(O)c12
REMARK SMILES IDX 5 1 3 2 2 3 1 4 22 5 20 6 19 7 17 8 16 9 15 10 14 11 6 12
REMARK SMILES IDX 8 13 7 14 9 15 11 16 12 17 10 18 13 20 4 22 21 24 18 26
REMARK H PARENT 10 19 13 21 4 23 21 25 18 27
REMARK Flexibility Score: inf
ROOT
ATOM      1  C   UNL     1      -7.495  24.246  -5.545  1.00  0.00     0.184 A 
ATOM      2  C   UNL     1      -6.371  23.498  -5.153  1.00  0.00     0.208 A 
ATOM      3  C   UNL     1      -5.965  23.539  -3.810  1.00  0.00     0.238 A 
ATOM      4  O   UNL     1      -4.951  22.882  -3.449  1.00  0.00    -0.285 OA
ATOM      5  C   UNL     1      -6.700  24.308  -2.884  1.00  0.00     0.111 A 
ATOM      6  C   UNL     1      -6.360  24.400  -1.512  1.00  0.00     0.134 A 
ATOM      7  C   UNL     1      -7.146  25.180  -0.653  1.00  0.00     0.093 A 
ATOM      8  C   UNL     1      -8.266  25.867  -1.137  1.00  0.00     0.123 A 
ATOM      9  C   UNL     1      -8.604  25.780  -2.487  1.00  0.00     0.094 A 
ATOM     10  C   UNL     1      -7.832  25.010  -3.362  1.00  0.00     0.146 A 
ATOM     11  O   UNL     1      -8.174  24.948  -4.643  1.00  0.00    -0.451 OA
ENDROOT
BRANCH   1  12
ATOM     12  C   UNL     1      -7.970  24.257  -6.945  1.00  0.00     0.063 A 
ATOM     13  C   UNL     1      -7.561  24.829  -9.272  1.00  0.00     0.047 A 
ATOM     14  C   UNL     1      -7.145  24.809  -7.938  1.00  0.00     0.020 A 
ATOM     15  C   UNL     1      -8.797  24.287  -9.633  1.00  0.00     0.119 A 
ATOM     16  C   UNL     1      -9.616  23.713  -8.652  1.00  0.00     0.093 A 
ATOM     17  C   UNL     1      -9.205  23.683  -7.311  1.00  0.00     0.130 A 
BRANCH  15  18
ATOM     18  O   UNL     1      -9.199  24.319 -10.966  1.00  0.00    -0.508 OA
ATOM     19  H   UNL     1     -10.012  24.848 -11.262  1.00  0.00     0.293 HD
ENDBRANCH  15  18
BRANCH  17  20
ATOM     20  O   UNL     1     -10.008  23.065  -6.352  1.00  0.00    -0.507 OA
ATOM     21  H   UNL     1     -10.394  22.140  -6.499  1.00  0.00     0.293 HD
ENDBRANCH  17  20
ENDBRANCH   1  12
BRANCH   2  22
ATOM     22  O   UNL     1      -5.692  22.711  -6.086  1.00  0.00    -0.502 OA
ATOM     23  H   UNL     1      -6.111  22.430  -6.965  1.00  0.00     0.293 HD
ENDBRANCH   2  22
BRANCH   6  24
ATOM     24  O   UNL     1      -5.250  23.726  -1.001  1.00  0.00    -0.507 OA
ATOM     25  H   UNL     1      -5.318  23.134  -0.182  1.00  0.00     0.293 HD
ENDBRANCH   6  24
BRANCH   8  26
ATOM     26  O   UNL     1      -9.048  26.640  -0.281  1.00  0.00    -0.508 OA
ATOM     27  H   UNL     1      -8.751  27.561   0.022  1.00  0.00     0.293 HD
ENDBRANCH   8  26
TORSDOF 6
ENDMDL
MODEL 9
REMARK VINA RESULT:    -5.199      2.375      6.739
REMARK INTER + INTRA:          -6.569
REMARK INTER:                  -6.232
REMARK INTRA:                  -0.337
REMARK UNBOUND:                -0.307
REMARK SMILES O=c1c(O)c(-c2ccc(O)cc2O)oc2cc(O)cc(O)c12
REMARK SMILES IDX 5 1 3 2 2 3 1 4 22 5 20 6 19 7 17 8 16 9 15 10 14 11 6 12
REMARK SMILES IDX 8 13 7 14 9 15 11 16 12 17 10 18 13 20 4 22 21 24 18 26
REMARK H PARENT 10 19 13 21 4 23 21 25 18 27
REMARK Flexibility Score: inf
ROOT
ATOM      1  C   UNL     1      -0.322  16.790  -3.314  1.00  0.00     0.184 A 
ATOM      2  C   UNL     1      -1.659  16.356  -3.346  1.00  0.00     0.208 A 
ATOM      3  C   UNL     1      -2.205  15.934  -4.569  1.00  0.00     0.238 A 
ATOM      4  O   UNL     1      -3.406  15.553  -4.613  1.00  0.00    -0.285 OA
ATOM      5  C   UNL     1      -1.400  15.934  -5.727  1.00  0.00     0.111 A 
ATOM      6  C   UNL     1      -1.871  15.521  -6.997  1.00  0.00     0.134 A 
ATOM      7  C   UNL     1      -1.006  15.543  -8.100  1.00  0.00     0.093 A 
ATOM      8  C   UNL     1       0.321  15.968  -7.958  1.00  0.00     0.123 A 
ATOM      9  C   UNL     1       0.789  16.377  -6.710  1.00  0.00     0.094 A 
ATOM     10  C   UNL     1      -0.058  16.365  -5.597  1.00  0.00     0.146 A 
ATOM     11  O   UNL     1       0.413  16.763  -4.421  1.00  0.00    -0.451 OA
ENDROOT
BRANCH   1  12
ATOM     12  C   UNL     1       0.311  17.259  -2.062  1.00  0.00     0.063 A 
ATOM     13  C   UNL     1       1.082  19.113  -0.693  1.00  0.00     0.047 A 
ATOM     14  C   UNL     1       0.492  18.637  -1.867  1.00  0.00     0.020 A 
ATOM     15  C   UNL     1       1.484  18.222   0.305  1.00  0.00     0.119 A 
ATOM     16  C   UNL     1       1.286  16.846   0.128  1.00  0.00     0.093 A 
ATOM     17  C   UNL     1       0.690  16.359  -1.044  1.00  0.00     0.130 A 
BRANCH  15  18
ATOM     18  O   UNL     1       2.074  18.712   1.467  1.00  0.00    -0.508 OA
ATOM     19  H   UNL     1       1.517  19.092   2.225  1.00  0.00     0.293 HD
ENDBRANCH  15  18
BRANCH  17  20
ATOM     20  O   UNL     1       0.453  14.992  -1.187  1.00  0.00    -0.507 OA
ATOM     21  H   UNL     1       1.115  14.384  -1.653  1.00  0.00     0.293 HD
ENDBRANCH  17  20
ENDBRANCH   1  12
BRANCH   2  22
ATOM     22  O   UNL     1      -2.415  16.325  -2.172  1.00  0.00    -0.502 OA
ATOM     23  H   UNL     1      -2.280  15.618  -1.460  1.00  0.00     0.293 HD
ENDBRANCH   2  22
BRANCH   6  24
ATOM     24  O   UNL     1      -3.188  15.091  -7.169  1.00  0.00    -0.507 OA
ATOM     25  H   UNL     1      -3.488  14.168  -6.881  1.00  0.00     0.293 HD
ENDBRANCH   6  24
BRANCH   8  26
ATOM     26  O   UNL     1       1.181  15.988  -9.054  1.00  0.00    -0.508 OA
ATOM     27  H   UNL     1       2.185  15.909  -8.941  1.00  0.00     0.293 HD
ENDBRANCH   8  26
TORSDOF 6
ENDMDL
