MODEL 1
REMARK VINA RESULT:    -3.668      0.000      0.000
REMARK INTER + INTRA:          -5.762
REMARK INTER:                  -5.383
REMARK INTRA:                  -0.379
REMARK UNBOUND:                -0.379
REMARK SMILES O=C([O-])CCCCCCCC(=O)[O-]
REMARK SMILES IDX 7 1 6 2 5 3 4 4 2 5 1 6 3 7 8 8 9 9 10 10 11 11 12 12 13 13
REMARK H PARENT
REMARK Flexibility Score: inf
ROOT
ATOM      1  C   UNL     1       3.917 -34.247  21.310  1.00  0.00     0.000 C 
ENDROOT
BRANCH   1   2
ATOM      2  C   UNL     1       4.570 -33.485  22.481  1.00  0.00     0.000 C 
BRANCH   2   3
ATOM      3  C   UNL     1       5.990 -33.951  22.850  1.00  0.00     0.006 C 
BRANCH   3   4
ATOM      4  C   UNL     1       6.125 -34.334  24.329  1.00  0.00     0.053 C 
BRANCH   4   5
ATOM      5  C   UNL     1       5.988 -35.815  24.497  1.00  0.00     0.041 C 
ATOM      6  O   UNL     1       6.002 -36.572  23.491  1.00  0.00    -0.550 OA
ATOM      7  O   UNL     1       5.892 -36.364  25.770  1.00  0.00    -0.550 OA
ENDBRANCH   4   5
ENDBRANCH   3   4
ENDBRANCH   2   3
ENDBRANCH   1   2
BRANCH   1   8
ATOM      8  C   UNL     1       4.826 -34.479  20.088  1.00  0.00     0.000 C 
BRANCH   8   9
ATOM      9  C   UNL     1       5.220 -35.947  19.832  1.00  0.00     0.006 C 
BRANCH   9  10
ATOM     10  C   UNL     1       4.573 -36.948  20.807  1.00  0.00     0.053 C 
BRANCH  10  11
ATOM     11  C   UNL     1       5.049 -38.352  20.593  1.00  0.00     0.041 C 
ATOM     12  O   UNL     1       5.325 -38.760  19.434  1.00  0.00    -0.550 OA
ATOM     13  O   UNL     1       5.224 -39.202  21.679  1.00  0.00    -0.550 OA
ENDBRANCH  10  11
ENDBRANCH   9  10
ENDBRANCH   8   9
ENDBRANCH   1   8
TORSDOF 8
ENDMDL
MODEL 2
REMARK VINA RESULT:    -3.620      0.304      4.141
REMARK INTER + INTRA:          -5.691
REMARK INTER:                  -5.709
REMARK INTRA:                   0.018
REMARK UNBOUND:                -0.379
REMARK SMILES O=C([O-])CCCCCCCC(=O)[O-]
REMARK SMILES IDX 7 1 6 2 5 3 4 4 2 5 1 6 3 7 8 8 9 9 10 10 11 11 12 12 13 13
REMARK H PARENT
REMARK Flexibility Score: inf
ROOT
ATOM      1  C   UNL     1       3.924 -34.132  20.815  1.00  0.00     0.000 C 
ENDROOT
BRANCH   1   2
ATOM      2  C   UNL     1       5.051 -34.634  19.890  1.00  0.00     0.000 C 
BRANCH   2   3
ATOM      3  C   UNL     1       5.041 -36.148  19.614  1.00  0.00     0.006 C 
BRANCH   3   4
ATOM      4  C   UNL     1       4.672 -36.977  20.850  1.00  0.00     0.053 C 
BRANCH   4   5
ATOM      5  C   UNL     1       5.061 -38.408  20.654  1.00  0.00     0.041 C 
ATOM      6  O   UNL     1       5.357 -38.833  19.506  1.00  0.00    -0.550 OA
ATOM      7  O   UNL     1       5.144 -39.263  21.746  1.00  0.00    -0.550 OA
ENDBRANCH   4   5
ENDBRANCH   3   4
ENDBRANCH   2   3
ENDBRANCH   1   2
BRANCH   1   8
ATOM      8  C   UNL     1       4.352 -33.809  22.259  1.00  0.00     0.000 C 
BRANCH   8   9
ATOM      9  C   UNL     1       5.835 -34.079  22.581  1.00  0.00     0.006 C 
BRANCH   9  10
ATOM     10  C   UNL     1       6.115 -34.331  24.074  1.00  0.00     0.053 C 
BRANCH  10  11
ATOM     11  C   UNL     1       5.916 -35.763  24.466  1.00  0.00     0.041 C 
ATOM     12  O   UNL     1       5.593 -36.619  23.602  1.00  0.00    -0.550 OA
ATOM     13  O   UNL     1       6.125 -36.160  25.782  1.00  0.00    -0.550 OA
ENDBRANCH  10  11
ENDBRANCH   9  10
ENDBRANCH   8   9
ENDBRANCH   1   8
TORSDOF 8
ENDMDL
MODEL 3
REMARK VINA RESULT:    -3.584      1.091      1.403
REMARK INTER + INTRA:          -5.639
REMARK INTER:                  -5.345
REMARK INTRA:                  -0.293
REMARK UNBOUND:                -0.379
REMARK SMILES O=C([O-])CCCCCCCC(=O)[O-]
REMARK SMILES IDX 7 1 6 2 5 3 4 4 2 5 1 6 3 7 8 8 9 9 10 10 11 11 12 12 13 13
REMARK H PARENT
REMARK Flexibility Score: inf
ROOT
ATOM      1  C   UNL     1       4.239 -34.187  22.162  1.00  0.00     0.000 C 
ENDROOT
BRANCH   1   2
ATOM      2  C   UNL     1       5.514 -33.723  22.895  1.00  0.00     0.000 C 
BRANCH   2   3
ATOM      3  C   UNL     1       6.014 -34.674  23.997  1.00  0.00     0.006 C 
BRANCH   3   4
ATOM      4  C   UNL     1       5.232 -35.993  24.045  1.00  0.00     0.053 C 
BRANCH   4   5
ATOM      5  C   UNL     1       5.423 -36.664  25.368  1.00  0.00     0.041 C 
ATOM      6  O   UNL     1       6.125 -36.119  26.261  1.00  0.00    -0.550 OA
ATOM      7  O   UNL     1       4.788 -37.872  25.634  1.00  0.00    -0.550 OA
ENDBRANCH   4   5
ENDBRANCH   3   4
ENDBRANCH   2   3
ENDBRANCH   1   2
BRANCH   1   8
ATOM      8  C   UNL     1       4.255 -34.002  20.633  1.00  0.00     0.000 C 
BRANCH   8   9
ATOM      9  C   UNL     1       4.698 -35.237  19.825  1.00  0.00     0.006 C 
BRANCH   9  10
ATOM     10  C   UNL     1       5.394 -36.320  20.670  1.00  0.00     0.053 C 
BRANCH  10  11
ATOM     11  C   UNL     1       4.978 -37.707  20.288  1.00  0.00     0.041 C 
ATOM     12  O   UNL     1       4.602 -37.957  19.112  1.00  0.00    -0.550 OA
ATOM     13  O   UNL     1       5.042 -38.736  21.220  1.00  0.00    -0.550 OA
ENDBRANCH  10  11
ENDBRANCH   9  10
ENDBRANCH   8   9
ENDBRANCH   1   8
TORSDOF 8
ENDMDL
MODEL 4
REMARK VINA RESULT:    -3.431      2.191      4.918
REMARK INTER + INTRA:          -5.414
REMARK INTER:                  -5.306
REMARK INTRA:                  -0.109
REMARK UNBOUND:                -0.379
REMARK SMILES O=C([O-])CCCCCCCC(=O)[O-]
REMARK SMILES IDX 7 1 6 2 5 3 4 4 2 5 1 6 3 7 8 8 9 9 10 10 11 11 12 12 13 13
REMARK H PARENT
REMARK Flexibility Score: inf
ROOT
ATOM      1  C   UNL     1       4.648 -33.782  22.288  1.00  0.00     0.000 C 
ENDROOT
BRANCH   1   2
ATOM      2  C   UNL     1       3.939 -34.801  21.374  1.00  0.00     0.000 C 
BRANCH   2   3
ATOM      3  C   UNL     1       4.773 -36.043  21.012  1.00  0.00     0.006 C 
BRANCH   3   4
ATOM      4  C   UNL     1       4.749 -36.360  19.512  1.00  0.00     0.053 C 
BRANCH   4   5
ATOM      5  C   UNL     1       5.015 -35.123  18.714  1.00  0.00     0.041 C 
ATOM      6  O   UNL     1       4.214 -34.767  17.810  1.00  0.00    -0.550 OA
ATOM      7  O   UNL     1       6.124 -34.335  18.999  1.00  0.00    -0.550 OA
ENDBRANCH   4   5
ENDBRANCH   3   4
ENDBRANCH   2   3
ENDBRANCH   1   2
BRANCH   1   8
ATOM      8  C   UNL     1       6.035 -34.212  22.803  1.00  0.00     0.000 C 
BRANCH   8   9
ATOM      9  C   UNL     1       6.041 -34.885  24.189  1.00  0.00     0.006 C 
BRANCH   9  10
ATOM     10  C   UNL     1       5.363 -36.266  24.218  1.00  0.00     0.053 C 
BRANCH  10  11
ATOM     11  C   UNL     1       5.216 -36.809  25.607  1.00  0.00     0.041 C 
ATOM     12  O   UNL     1       6.122 -36.622  26.461  1.00  0.00    -0.550 OA
ATOM     13  O   UNL     1       4.060 -37.490  25.970  1.00  0.00    -0.550 OA
ENDBRANCH  10  11
ENDBRANCH   9  10
ENDBRANCH   8   9
ENDBRANCH   1   8
TORSDOF 8
ENDMDL
MODEL 5
REMARK VINA RESULT:    -3.131      1.975      2.550
REMARK INTER + INTRA:          -4.974
REMARK INTER:                  -5.011
REMARK INTRA:                   0.037
REMARK UNBOUND:                -0.379
REMARK SMILES O=C([O-])CCCCCCCC(=O)[O-]
REMARK SMILES IDX 7 1 6 2 5 3 4 4 2 5 1 6 3 7 8 8 9 9 10 10 11 11 12 12 13 13
REMARK H PARENT
REMARK Flexibility Score: inf
ROOT
ATOM      1  C   UNL     1       4.070 -33.883  21.871  1.00  0.00     0.000 C 
ENDROOT
BRANCH   1   2
ATOM      2  C   UNL     1       5.150 -33.516  22.909  1.00  0.00     0.000 C 
BRANCH   2   3
ATOM      3  C   UNL     1       6.124 -34.653  23.264  1.00  0.00     0.006 C 
BRANCH   3   4
ATOM      4  C   UNL     1       6.035 -35.075  24.736  1.00  0.00     0.053 C 
BRANCH   4   5
ATOM      5  C   UNL     1       5.395 -36.422  24.855  1.00  0.00     0.041 C 
ATOM      6  O   UNL     1       5.588 -37.296  23.968  1.00  0.00    -0.550 OA
ATOM      7  O   UNL     1       4.623 -36.730  25.968  1.00  0.00    -0.550 OA
ENDBRANCH   4   5
ENDBRANCH   3   4
ENDBRANCH   2   3
ENDBRANCH   1   2
BRANCH   1   8
ATOM      8  C   UNL     1       3.898 -35.390  21.604  1.00  0.00     0.000 C 
BRANCH   8   9
ATOM      9  C   UNL     1       5.083 -36.070  20.891  1.00  0.00     0.006 C 
BRANCH   9  10
ATOM     10  C   UNL     1       4.815 -36.404  19.412  1.00  0.00     0.053 C 
BRANCH  10  11
ATOM     11  C   UNL     1       4.920 -35.204  18.521  1.00  0.00     0.041 C 
ATOM     12  O   UNL     1       5.775 -34.310  18.758  1.00  0.00    -0.550 OA
ATOM     13  O   UNL     1       4.099 -35.090  17.406  1.00  0.00    -0.550 OA
ENDBRANCH  10  11
ENDBRANCH   9  10
ENDBRANCH   8   9
ENDBRANCH   1   8
TORSDOF 8
ENDMDL
MODEL 6
REMARK VINA RESULT:    -2.911      1.915      3.760
REMARK INTER + INTRA:          -4.651
REMARK INTER:                  -4.334
REMARK INTRA:                  -0.317
REMARK UNBOUND:                -0.379
REMARK SMILES O=C([O-])CCCCCCCC(=O)[O-]
REMARK SMILES IDX 7 1 6 2 5 3 4 4 2 5 1 6 3 7 8 8 9 9 10 10 11 11 12 12 13 13
REMARK H PARENT
REMARK Flexibility Score: inf
ROOT
ATOM      1  C   UNL     1       5.719 -34.320  23.151  1.00  0.00     0.000 C 
ENDROOT
BRANCH   1   2
ATOM      2  C   UNL     1       4.488 -33.604  22.560  1.00  0.00     0.000 C 
BRANCH   2   3
ATOM      3  C   UNL     1       4.131 -34.006  21.118  1.00  0.00     0.006 C 
BRANCH   3   4
ATOM      4  C   UNL     1       5.354 -34.450  20.305  1.00  0.00     0.053 C 
BRANCH   4   5
ATOM      5  C   UNL     1       4.954 -34.780  18.901  1.00  0.00     0.041 C 
ATOM      6  O   UNL     1       5.337 -34.054  17.945  1.00  0.00    -0.550 OA
ATOM      7  O   UNL     1       4.197 -35.916  18.642  1.00  0.00    -0.550 OA
ENDBRANCH   4   5
ENDBRANCH   3   4
ENDBRANCH   2   3
ENDBRANCH   1   2
BRANCH   1   8
ATOM      8  C   UNL     1       5.439 -35.694  23.789  1.00  0.00     0.000 C 
BRANCH   8   9
ATOM      9  C   UNL     1       5.870 -36.910  22.946  1.00  0.00     0.006 C 
BRANCH   9  10
ATOM     10  C   UNL     1       4.853 -37.311  21.862  1.00  0.00     0.053 C 
BRANCH  10  11
ATOM     11  C   UNL     1       5.229 -38.580  21.159  1.00  0.00     0.041 C 
ATOM     12  O   UNL     1       5.412 -38.586  19.913  1.00  0.00    -0.550 OA
ATOM     13  O   UNL     1       5.414 -39.751  21.885  1.00  0.00    -0.550 OA
ENDBRANCH  10  11
ENDBRANCH   9  10
ENDBRANCH   8   9
ENDBRANCH   1   8
TORSDOF 8
ENDMDL
MODEL 7
REMARK VINA RESULT:    -2.871      2.826      5.209
REMARK INTER + INTRA:          -4.593
REMARK INTER:                  -3.751
REMARK INTRA:                  -0.842
REMARK UNBOUND:                -0.379
REMARK SMILES O=C([O-])CCCCCCCC(=O)[O-]
REMARK SMILES IDX 7 1 6 2 5 3 4 4 2 5 1 6 3 7 8 8 9 9 10 10 11 11 12 12 13 13
REMARK H PARENT
REMARK Flexibility Score: inf
ROOT
ATOM      1  C   UNL     1       5.194 -37.314  22.721  1.00  0.00     0.000 C 
ENDROOT
BRANCH   1   2
ATOM      2  C   UNL     1       4.854 -37.626  21.249  1.00  0.00     0.000 C 
BRANCH   2   3
ATOM      3  C   UNL     1       5.427 -36.632  20.223  1.00  0.00     0.006 C 
BRANCH   3   4
ATOM      4  C   UNL     1       4.419 -36.260  19.128  1.00  0.00     0.053 C 
BRANCH   4   5
ATOM      5  C   UNL     1       4.831 -34.992  18.450  1.00  0.00     0.041 C 
ATOM      6  O   UNL     1       4.185 -34.565  17.457  1.00  0.00    -0.550 OA
ATOM      7  O   UNL     1       5.901 -34.254  18.944  1.00  0.00    -0.550 OA
ENDBRANCH   4   5
ENDBRANCH   3   4
ENDBRANCH   2   3
ENDBRANCH   1   2
BRANCH   1   8
ATOM      8  C   UNL     1       5.986 -36.012  22.952  1.00  0.00     0.000 C 
BRANCH   8   9
ATOM      9  C   UNL     1       5.148 -34.811  23.432  1.00  0.00     0.006 C 
BRANCH   9  10
ATOM     10  C   UNL     1       4.977 -33.705  22.375  1.00  0.00     0.053 C 
BRANCH  10  11
ATOM     11  C   UNL     1       3.629 -33.734  21.722  1.00  0.00     0.041 C 
ATOM     12  O   UNL     1       2.897 -34.754  21.820  1.00  0.00    -0.550 OA
ATOM     13  O   UNL     1       3.164 -32.619  21.034  1.00  0.00    -0.550 OA
ENDBRANCH  10  11
ENDBRANCH   9  10
ENDBRANCH   8   9
ENDBRANCH   1   8
TORSDOF 8
ENDMDL
MODEL 8
REMARK VINA RESULT:    -2.851      1.904      3.936
REMARK INTER + INTRA:          -4.563
REMARK INTER:                  -4.908
REMARK INTRA:                   0.346
REMARK UNBOUND:                -0.379
REMARK SMILES O=C([O-])CCCCCCCC(=O)[O-]
REMARK SMILES IDX 7 1 6 2 5 3 4 4 2 5 1 6 3 7 8 8 9 9 10 10 11 11 12 12 13 13
REMARK H PARENT
REMARK Flexibility Score: inf
ROOT
ATOM      1  C   UNL     1       5.876 -34.434  22.930  1.00  0.00     0.000 C 
ENDROOT
BRANCH   1   2
ATOM      2  C   UNL     1       5.759 -35.657  23.862  1.00  0.00     0.000 C 
BRANCH   2   3
ATOM      3  C   UNL     1       5.677 -37.016  23.146  1.00  0.00     0.006 C 
BRANCH   3   4
ATOM      4  C   UNL     1       4.959 -36.934  21.794  1.00  0.00     0.053 C 
BRANCH   4   5
ATOM      5  C   UNL     1       5.137 -38.209  21.031  1.00  0.00     0.041 C 
ATOM      6  O   UNL     1       5.314 -39.295  21.643  1.00  0.00    -0.550 OA
ATOM      7  O   UNL     1       5.060 -38.206  19.644  1.00  0.00    -0.550 OA
ENDBRANCH   4   5
ENDBRANCH   3   4
ENDBRANCH   2   3
ENDBRANCH   1   2
BRANCH   1   8
ATOM      8  C   UNL     1       4.542 -33.759  22.558  1.00  0.00     0.000 C 
BRANCH   8   9
ATOM      9  C   UNL     1       4.349 -33.466  21.058  1.00  0.00     0.006 C 
BRANCH   9  10
ATOM     10  C   UNL     1       4.140 -34.724  20.196  1.00  0.00     0.053 C 
BRANCH  10  11
ATOM     11  C   UNL     1       4.904 -34.676  18.908  1.00  0.00     0.041 C 
ATOM     12  O   UNL     1       6.119 -34.345  18.902  1.00  0.00    -0.550 OA
ATOM     13  O   UNL     1       4.285 -35.034  17.716  1.00  0.00    -0.550 OA
ENDBRANCH  10  11
ENDBRANCH   9  10
ENDBRANCH   8   9
ENDBRANCH   1   8
TORSDOF 8
ENDMDL
MODEL 9
REMARK VINA RESULT:    -2.693      2.831      3.862
REMARK INTER + INTRA:          -4.330
REMARK INTER:                  -3.627
REMARK INTRA:                  -0.704
REMARK UNBOUND:                -0.379
REMARK SMILES O=C([O-])CCCCCCCC(=O)[O-]
REMARK SMILES IDX 7 1 6 2 5 3 4 4 2 5 1 6 3 7 8 8 9 9 10 10 11 11 12 12 13 13
REMARK H PARENT
REMARK Flexibility Score: inf
ROOT
ATOM      1  C   UNL     1       4.999 -37.278  22.643  1.00  0.00     0.000 C 
ENDROOT
BRANCH   1   2
ATOM      2  C   UNL     1       5.862 -36.043  22.970  1.00  0.00     0.000 C 
BRANCH   2   3
ATOM      3  C   UNL     1       5.077 -34.805  23.439  1.00  0.00     0.006 C 
BRANCH   3   4
ATOM      4  C   UNL     1       4.966 -33.725  22.355  1.00  0.00     0.053 C 
BRANCH   4   5
ATOM      5  C   UNL     1       3.595 -33.727  21.756  1.00  0.00     0.041 C 
ATOM      6  O   UNL     1       2.833 -34.717  21.918  1.00  0.00    -0.550 OA
ATOM      7  O   UNL     1       3.138 -32.616  21.058  1.00  0.00    -0.550 OA
ENDBRANCH   4   5
ENDBRANCH   3   4
ENDBRANCH   2   3
ENDBRANCH   1   2
BRANCH   1   8
ATOM      8  C   UNL     1       5.004 -37.712  21.165  1.00  0.00     0.000 C 
BRANCH   8   9
ATOM      9  C   UNL     1       5.449 -36.628  20.164  1.00  0.00     0.006 C 
BRANCH   9  10
ATOM     10  C   UNL     1       4.311 -36.085  19.282  1.00  0.00     0.053 C 
BRANCH  10  11
ATOM     11  C   UNL     1       4.751 -34.958  18.398  1.00  0.00     0.041 C 
ATOM     12  O   UNL     1       4.111 -34.685  17.349  1.00  0.00    -0.550 OA
ATOM     13  O   UNL     1       5.849 -34.182  18.753  1.00  0.00    -0.550 OA
ENDBRANCH  10  11
ENDBRANCH   9  10
ENDBRANCH   8   9
ENDBRANCH   1   8
TORSDOF 8
ENDMDL
