MODEL 1
REMARK VINA RESULT:    -3.087      0.000      0.000
REMARK INTER + INTRA:          -3.677
REMARK INTER:                  -3.628
REMARK INTRA:                  -0.049
REMARK UNBOUND:                -0.049
REMARK SMILES CCCCC(=O)[O-]
REMARK SMILES IDX 4 1 5 2 6 3 7 4 3 5 2 6 1 7
REMARK H PARENT
REMARK Flexibility Score: inf
ROOT
ATOM      1  C   UNL     1      -7.472  -1.951 -24.126  1.00  0.00     0.053 C 
ENDROOT
BRANCH   1   2
ATOM      2  C   UNL     1      -6.510  -1.721 -23.003  1.00  0.00     0.041 C 
ATOM      3  O   UNL     1      -6.507  -0.623 -22.387  1.00  0.00    -0.550 OA
ATOM      4  O   UNL     1      -5.649  -2.737 -22.606  1.00  0.00    -0.550 OA
ENDBRANCH   1   2
BRANCH   1   5
ATOM      5  C   UNL     1      -8.704  -1.051 -23.966  1.00  0.00     0.006 C 
BRANCH   5   6
ATOM      6  C   UNL     1      -8.826  -0.013 -25.091  1.00  0.00    -0.003 C 
ATOM      7  C   UNL     1     -10.213   0.005 -25.733  1.00  0.00     0.004 C 
ENDBRANCH   5   6
ENDBRANCH   1   5
TORSDOF 3
ENDMDL
MODEL 2
REMARK VINA RESULT:    -3.014      1.944      3.264
REMARK INTER + INTRA:          -3.591
REMARK INTER:                  -3.562
REMARK INTRA:                  -0.028
REMARK UNBOUND:                -0.049
REMARK SMILES CCCCC(=O)[O-]
REMARK SMILES IDX 4 1 5 2 6 3 7 4 3 5 2 6 1 7
REMARK H PARENT
REMARK Flexibility Score: inf
ROOT
ATOM      1  C   UNL     1      -7.513  -2.177 -24.018  1.00  0.00     0.053 C 
ENDROOT
BRANCH   1   2
ATOM      2  C   UNL     1      -6.496  -1.860 -22.967  1.00  0.00     0.041 C 
ATOM      3  O   UNL     1      -5.640  -2.722 -22.635  1.00  0.00    -0.550 OA
ATOM      4  O   UNL     1      -6.463  -0.597 -22.388  1.00  0.00    -0.550 OA
ENDBRANCH   1   2
BRANCH   1   5
ATOM      5  C   UNL     1      -7.046  -3.361 -24.874  1.00  0.00     0.006 C 
BRANCH   5   6
ATOM      6  C   UNL     1      -8.217  -4.191 -25.421  1.00  0.00    -0.003 C 
ATOM      7  C   UNL     1      -7.792  -5.588 -25.872  1.00  0.00     0.004 C 
ENDBRANCH   5   6
ENDBRANCH   1   5
TORSDOF 3
ENDMDL
MODEL 3
REMARK VINA RESULT:    -2.958     11.867     13.109
REMARK INTER + INTRA:          -3.525
REMARK INTER:                  -3.433
REMARK INTRA:                  -0.093
REMARK UNBOUND:                -0.049
REMARK SMILES CCCCC(=O)[O-]
REMARK SMILES IDX 4 1 5 2 6 3 7 4 3 5 2 6 1 7
REMARK H PARENT
REMARK Flexibility Score: inf
ROOT
ATOM      1  C   UNL     1     -20.570  -0.116 -27.036  1.00  0.00     0.053 C 
ENDROOT
BRANCH   1   2
ATOM      2  C   UNL     1     -19.438  -0.435 -26.111  1.00  0.00     0.041 C 
ATOM      3  O   UNL     1     -19.467  -0.038 -24.916  1.00  0.00    -0.550 OA
ATOM      4  O   UNL     1     -18.374  -1.211 -26.554  1.00  0.00    -0.550 OA
ENDBRANCH   1   2
BRANCH   1   5
ATOM      5  C   UNL     1     -20.465   1.333 -27.530  1.00  0.00     0.006 C 
BRANCH   5   6
ATOM      6  C   UNL     1     -21.795   2.093 -27.415  1.00  0.00    -0.003 C 
ATOM      7  C   UNL     1     -22.356   2.092 -25.993  1.00  0.00     0.004 C 
ENDBRANCH   5   6
ENDBRANCH   1   5
TORSDOF 3
ENDMDL
MODEL 4
REMARK VINA RESULT:    -2.902     12.115     12.894
REMARK INTER + INTRA:          -3.460
REMARK INTER:                  -3.327
REMARK INTRA:                  -0.133
REMARK UNBOUND:                -0.049
REMARK SMILES CCCCC(=O)[O-]
REMARK SMILES IDX 4 1 5 2 6 3 7 4 3 5 2 6 1 7
REMARK H PARENT
REMARK Flexibility Score: inf
ROOT
ATOM      1  C   UNL     1     -21.011   0.636 -26.023  1.00  0.00     0.053 C 
ENDROOT
BRANCH   1   2
ATOM      2  C   UNL     1     -19.764   0.139 -25.361  1.00  0.00     0.041 C 
ATOM      3  O   UNL     1     -19.752  -0.087 -24.122  1.00  0.00    -0.550 OA
ATOM      4  O   UNL     1     -18.630  -0.122 -26.120  1.00  0.00    -0.550 OA
ENDBRANCH   1   2
BRANCH   1   5
ATOM      5  C   UNL     1     -21.363   2.039 -25.512  1.00  0.00     0.006 C 
BRANCH   5   6
ATOM      6  C   UNL     1     -20.234   3.053 -25.747  1.00  0.00    -0.003 C 
ATOM      7  C   UNL     1     -19.775   3.736 -24.459  1.00  0.00     0.004 C 
ENDBRANCH   5   6
ENDBRANCH   1   5
TORSDOF 3
ENDMDL
MODEL 5
REMARK VINA RESULT:    -2.783     12.048     12.912
REMARK INTER + INTRA:          -3.320
REMARK INTER:                  -3.252
REMARK INTRA:                  -0.068
REMARK UNBOUND:                -0.049
REMARK SMILES CCCCC(=O)[O-]
REMARK SMILES IDX 4 1 5 2 6 3 7 4 3 5 2 6 1 7
REMARK H PARENT
REMARK Flexibility Score: inf
ROOT
ATOM      1  C   UNL     1     -20.226   2.060 -25.249  1.00  0.00     0.053 C 
ENDROOT
BRANCH   1   2
ATOM      2  C   UNL     1     -19.550   0.730 -25.130  1.00  0.00     0.041 C 
ATOM      3  O   UNL     1     -18.728   0.357 -26.007  1.00  0.00    -0.550 OA
ATOM      4  O   UNL     1     -19.793  -0.078 -24.025  1.00  0.00    -0.550 OA
ENDBRANCH   1   2
BRANCH   1   5
ATOM      5  C   UNL     1     -20.928   2.422 -23.934  1.00  0.00     0.006 C 
BRANCH   5   6
ATOM      6  C   UNL     1     -20.101   3.385 -23.069  1.00  0.00    -0.003 C 
ATOM      7  C   UNL     1     -20.324   3.175 -21.572  1.00  0.00     0.004 C 
ENDBRANCH   5   6
ENDBRANCH   1   5
TORSDOF 3
ENDMDL
MODEL 6
REMARK VINA RESULT:    -2.756      9.071      9.728
REMARK INTER + INTRA:          -3.288
REMARK INTER:                  -3.248
REMARK INTRA:                  -0.040
REMARK UNBOUND:                -0.049
REMARK SMILES CCCCC(=O)[O-]
REMARK SMILES IDX 4 1 5 2 6 3 7 4 3 5 2 6 1 7
REMARK H PARENT
REMARK Flexibility Score: inf
ROOT
ATOM      1  C   UNL     1     -10.122  -9.605 -27.185  1.00  0.00     0.053 C 
ENDROOT
BRANCH   1   2
ATOM      2  C   UNL     1     -10.025  -8.922 -25.857  1.00  0.00     0.041 C 
ATOM      3  O   UNL     1     -10.033  -9.598 -24.795  1.00  0.00    -0.550 OA
ATOM      4  O   UNL     1      -9.878  -7.541 -25.793  1.00  0.00    -0.550 OA
ENDBRANCH   1   2
BRANCH   1   5
ATOM      5  C   UNL     1     -11.483  -9.324 -27.832  1.00  0.00     0.006 C 
BRANCH   5   6
ATOM      6  C   UNL     1     -12.329 -10.595 -28.001  1.00  0.00    -0.003 C 
ATOM      7  C   UNL     1     -11.962 -11.688 -26.998  1.00  0.00     0.004 C 
ENDBRANCH   5   6
ENDBRANCH   1   5
TORSDOF 3
ENDMDL
MODEL 7
REMARK VINA RESULT:    -2.691     12.083     13.477
REMARK INTER + INTRA:          -3.212
REMARK INTER:                  -3.182
REMARK INTRA:                  -0.030
REMARK UNBOUND:                -0.049
REMARK SMILES CCCCC(=O)[O-]
REMARK SMILES IDX 4 1 5 2 6 3 7 4 3 5 2 6 1 7
REMARK H PARENT
REMARK Flexibility Score: inf
ROOT
ATOM      1  C   UNL     1     -20.705   1.234 -25.918  1.00  0.00     0.053 C 
ENDROOT
BRANCH   1   2
ATOM      2  C   UNL     1     -19.669   0.300 -25.377  1.00  0.00     0.041 C 
ATOM      3  O   UNL     1     -18.698  -0.054 -26.097  1.00  0.00    -0.550 OA
ATOM      4  O   UNL     1     -19.748  -0.142 -24.061  1.00  0.00    -0.550 OA
ENDBRANCH   1   2
BRANCH   1   5
ATOM      5  C   UNL     1     -21.009   2.342 -24.902  1.00  0.00     0.006 C 
BRANCH   5   6
ATOM      6  C   UNL     1     -22.197   3.219 -25.323  1.00  0.00    -0.003 C 
ATOM      7  C   UNL     1     -23.277   2.435 -26.068  1.00  0.00     0.004 C 
ENDBRANCH   5   6
ENDBRANCH   1   5
TORSDOF 3
ENDMDL
MODEL 8
REMARK VINA RESULT:    -2.646      2.316      3.141
REMARK INTER + INTRA:          -3.158
REMARK INTER:                  -3.124
REMARK INTRA:                  -0.035
REMARK UNBOUND:                -0.049
REMARK SMILES CCCCC(=O)[O-]
REMARK SMILES IDX 4 1 5 2 6 3 7 4 3 5 2 6 1 7
REMARK H PARENT
REMARK Flexibility Score: inf
ROOT
ATOM      1  C   UNL     1      -6.883  -0.668 -22.743  1.00  0.00     0.053 C 
ENDROOT
BRANCH   1   2
ATOM      2  C   UNL     1      -6.635  -2.097 -23.113  1.00  0.00     0.041 C 
ATOM      3  O   UNL     1      -7.387  -2.676 -23.941  1.00  0.00    -0.550 OA
ATOM      4  O   UNL     1      -5.546  -2.775 -22.580  1.00  0.00    -0.550 OA
ENDBRANCH   1   2
BRANCH   1   5
ATOM      5  C   UNL     1      -6.433   0.263 -23.876  1.00  0.00     0.006 C 
BRANCH   5   6
ATOM      6  C   UNL     1      -6.169   1.697 -23.392  1.00  0.00    -0.003 C 
ATOM      7  C   UNL     1      -5.701   1.753 -21.938  1.00  0.00     0.004 C 
ENDBRANCH   5   6
ENDBRANCH   1   5
TORSDOF 3
ENDMDL
MODEL 9
REMARK VINA RESULT:    -2.579     10.630     11.348
REMARK INTER + INTRA:          -3.080
REMARK INTER:                  -3.040
REMARK INTRA:                  -0.040
REMARK UNBOUND:                -0.049
REMARK SMILES CCCCC(=O)[O-]
REMARK SMILES IDX 4 1 5 2 6 3 7 4 3 5 2 6 1 7
REMARK H PARENT
REMARK Flexibility Score: inf
ROOT
ATOM      1  C   UNL     1     -11.038 -10.634 -26.779  1.00  0.00     0.053 C 
ENDROOT
BRANCH   1   2
ATOM      2  C   UNL     1      -9.941 -10.343 -25.804  1.00  0.00     0.041 C 
ATOM      3  O   UNL     1      -9.849  -9.204 -25.275  1.00  0.00    -0.550 OA
ATOM      4  O   UNL     1      -9.047 -11.345 -25.442  1.00  0.00    -0.550 OA
ENDBRANCH   1   2
BRANCH   1   5
ATOM      5  C   UNL     1     -11.129 -12.141 -27.048  1.00  0.00     0.006 C 
BRANCH   5   6
ATOM      6  C   UNL     1     -12.470 -12.740 -26.598  1.00  0.00    -0.003 C 
ATOM      7  C   UNL     1     -12.472 -14.268 -26.621  1.00  0.00     0.004 C 
ENDBRANCH   5   6
ENDBRANCH   1   5
TORSDOF 3
ENDMDL
