MODEL 1
REMARK VINA RESULT:    -3.468      0.000      0.000
REMARK INTER + INTRA:          -9.095
REMARK INTER:                  -6.408
REMARK INTRA:                  -2.687
REMARK UNBOUND:                -2.687
REMARK SMILES CCCCCCCCCCCCCCCCO
REMARK SMILES IDX 9 1 8 2 7 3 6 4 5 5 4 6 3 7 2 8 1 9 10 10 11 11 12 12 13 13
REMARK SMILES IDX 14 14 15 15 16 16 17 17
REMARK H PARENT 17 18
REMARK Flexibility Score: inf
ROOT
ATOM      1  C   UNL     1      -3.011   7.633  40.222  1.00  0.00     0.000 C 
ENDROOT
BRANCH   1   2
ATOM      2  C   UNL     1      -3.244   6.256  39.581  1.00  0.00    -0.000 C 
BRANCH   2   3
ATOM      3  C   UNL     1      -2.122   5.254  39.896  1.00  0.00    -0.000 C 
BRANCH   3   4
ATOM      4  C   UNL     1      -1.459   4.692  38.627  1.00  0.00    -0.000 C 
BRANCH   4   5
ATOM      5  C   UNL     1      -1.983   5.351  37.339  1.00  0.00    -0.000 C 
BRANCH   5   6
ATOM      6  C   UNL     1      -0.916   6.071  36.493  1.00  0.00    -0.000 C 
BRANCH   6   7
ATOM      7  C   UNL     1      -1.395   7.407  35.888  1.00  0.00    -0.000 C 
BRANCH   7   8
ATOM      8  C   UNL     1      -0.226   8.306  35.460  1.00  0.00    -0.003 C 
ATOM      9  C   UNL     1      -0.568   9.781  35.644  1.00  0.00     0.004 C 
ENDBRANCH   7   8
ENDBRANCH   6   7
ENDBRANCH   5   6
ENDBRANCH   4   5
ENDBRANCH   3   4
ENDBRANCH   2   3
ENDBRANCH   1   2
BRANCH   1  10
ATOM     10  C   UNL     1      -2.594   8.666  39.164  1.00  0.00     0.000 C 
BRANCH  10  11
ATOM     11  C   UNL     1      -1.096   9.011  39.228  1.00  0.00     0.000 C 
BRANCH  11  12
ATOM     12  C   UNL     1      -0.512   8.845  40.642  1.00  0.00     0.000 C 
BRANCH  12  13
ATOM     13  C   UNL     1       0.657   7.847  40.683  1.00  0.00     0.000 C 
BRANCH  13  14
ATOM     14  C   UNL     1       1.124   7.420  39.283  1.00  0.00     0.002 C 
BRANCH  14  15
ATOM     15  C   UNL     1       1.894   6.095  39.344  1.00  0.00     0.028 C 
BRANCH  15  16
ATOM     16  C   UNL     1       2.597   5.784  38.018  1.00  0.00     0.156 C 
BRANCH  16  17
ATOM     17  O   UNL     1       2.525   6.879  37.144  1.00  0.00    -0.396 OA
ATOM     18  H   UNL     1       1.952   6.599  36.384  1.00  0.00     0.210 HD
ENDBRANCH  16  17
ENDBRANCH  15  16
ENDBRANCH  14  15
ENDBRANCH  13  14
ENDBRANCH  12  13
ENDBRANCH  11  12
ENDBRANCH  10  11
ENDBRANCH   1  10
TORSDOF 15
ENDMDL
MODEL 2
REMARK VINA RESULT:    -3.411      1.750      4.063
REMARK INTER + INTRA:          -8.990
REMARK INTER:                  -6.261
REMARK INTRA:                  -2.728
REMARK UNBOUND:                -2.687
REMARK SMILES CCCCCCCCCCCCCCCCO
REMARK SMILES IDX 9 1 8 2 7 3 6 4 5 5 4 6 3 7 2 8 1 9 10 10 11 11 12 12 13 13
REMARK SMILES IDX 14 14 15 15 16 16 17 17
REMARK H PARENT 17 18
REMARK Flexibility Score: inf
ROOT
ATOM      1  C   UNL     1      -2.802   8.177  39.976  1.00  0.00     0.000 C 
ENDROOT
BRANCH   1   2
ATOM      2  C   UNL     1      -2.733   6.649  39.832  1.00  0.00    -0.000 C 
BRANCH   2   3
ATOM      3  C   UNL     1      -1.952   6.202  38.586  1.00  0.00    -0.000 C 
BRANCH   3   4
ATOM      4  C   UNL     1      -0.587   5.585  38.936  1.00  0.00    -0.000 C 
BRANCH   4   5
ATOM      5  C   UNL     1       0.587   6.540  38.659  1.00  0.00    -0.000 C 
BRANCH   5   6
ATOM      6  C   UNL     1       0.977   7.454  39.836  1.00  0.00    -0.000 C 
BRANCH   6   7
ATOM      7  C   UNL     1       0.777   6.806  41.222  1.00  0.00    -0.000 C 
BRANCH   7   8
ATOM      8  C   UNL     1       0.469   7.844  42.312  1.00  0.00    -0.003 C 
ATOM      9  C   UNL     1       0.293   9.236  41.713  1.00  0.00     0.004 C 
ENDBRANCH   7   8
ENDBRANCH   6   7
ENDBRANCH   5   6
ENDBRANCH   4   5
ENDBRANCH   3   4
ENDBRANCH   2   3
ENDBRANCH   1   2
BRANCH   1  10
ATOM     10  C   UNL     1      -2.612   8.864  38.615  1.00  0.00     0.000 C 
BRANCH  10  11
ATOM     11  C   UNL     1      -1.501   9.927  38.634  1.00  0.00     0.000 C 
BRANCH  11  12
ATOM     12  C   UNL     1      -0.609   9.873  37.382  1.00  0.00     0.000 C 
BRANCH  12  13
ATOM     13  C   UNL     1      -1.231   9.035  36.252  1.00  0.00     0.000 C 
BRANCH  13  14
ATOM     14  C   UNL     1      -0.182   8.258  35.442  1.00  0.00     0.002 C 
BRANCH  14  15
ATOM     15  C   UNL     1      -0.678   6.843  35.119  1.00  0.00     0.028 C 
BRANCH  15  16
ATOM     16  C   UNL     1      -0.035   6.293  33.842  1.00  0.00     0.156 C 
BRANCH  16  17
ATOM     17  O   UNL     1      -0.466   4.982  33.588  1.00  0.00    -0.396 OA
ATOM     18  H   UNL     1      -0.172   4.432  34.359  1.00  0.00     0.210 HD
ENDBRANCH  16  17
ENDBRANCH  15  16
ENDBRANCH  14  15
ENDBRANCH  13  14
ENDBRANCH  12  13
ENDBRANCH  11  12
ENDBRANCH  10  11
ENDBRANCH   1  10
TORSDOF 15
ENDMDL
MODEL 3
REMARK VINA RESULT:    -3.393      1.790      4.782
REMARK INTER + INTRA:          -8.955
REMARK INTER:                  -6.318
REMARK INTRA:                  -2.637
REMARK UNBOUND:                -2.687
REMARK SMILES CCCCCCCCCCCCCCCCO
REMARK SMILES IDX 9 1 8 2 7 3 6 4 5 5 4 6 3 7 2 8 1 9 10 10 11 11 12 12 13 13
REMARK SMILES IDX 14 14 15 15 16 16 17 17
REMARK H PARENT 17 18
REMARK Flexibility Score: inf
ROOT
ATOM      1  C   UNL     1       0.880   8.469  40.859  1.00  0.00     0.000 C 
ENDROOT
BRANCH   1   2
ATOM      2  C   UNL     1      -0.344   9.331  40.515  1.00  0.00    -0.000 C 
BRANCH   2   3
ATOM      3  C   UNL     1      -0.588   9.443  39.002  1.00  0.00    -0.000 C 
BRANCH   3   4
ATOM      4  C   UNL     1      -2.019   9.043  38.604  1.00  0.00    -0.000 C 
BRANCH   4   5
ATOM      5  C   UNL     1      -2.811   8.427  39.770  1.00  0.00    -0.000 C 
BRANCH   5   6
ATOM      6  C   UNL     1      -3.070   6.913  39.656  1.00  0.00    -0.000 C 
BRANCH   6   7
ATOM      7  C   UNL     1      -2.856   6.142  40.975  1.00  0.00    -0.000 C 
BRANCH   7   8
ATOM      8  C   UNL     1      -2.662   4.636  40.745  1.00  0.00    -0.003 C 
ATOM      9  C   UNL     1      -2.777   3.859  42.054  1.00  0.00     0.004 C 
ENDBRANCH   7   8
ENDBRANCH   6   7
ENDBRANCH   5   6
ENDBRANCH   4   5
ENDBRANCH   3   4
ENDBRANCH   2   3
ENDBRANCH   1   2
BRANCH   1  10
ATOM     10  C   UNL     1       0.492   7.316  41.797  1.00  0.00     0.000 C 
BRANCH  10  11
ATOM     11  C   UNL     1       0.781   5.932  41.190  1.00  0.00     0.000 C 
BRANCH  11  12
ATOM     12  C   UNL     1       1.294   6.018  39.742  1.00  0.00     0.000 C 
BRANCH  12  13
ATOM     13  C   UNL     1       0.263   5.510  38.720  1.00  0.00     0.000 C 
BRANCH  13  14
ATOM     14  C   UNL     1       0.348   6.244  37.374  1.00  0.00     0.002 C 
BRANCH  14  15
ATOM     15  C   UNL     1      -0.994   6.187  36.633  1.00  0.00     0.028 C 
BRANCH  15  16
ATOM     16  C   UNL     1      -0.938   6.932  35.295  1.00  0.00     0.156 C 
BRANCH  16  17
ATOM     17  O   UNL     1      -1.991   7.852  35.188  1.00  0.00    -0.396 OA
ATOM     18  H   UNL     1      -2.810   7.325  34.997  1.00  0.00     0.210 HD
ENDBRANCH  16  17
ENDBRANCH  15  16
ENDBRANCH  14  15
ENDBRANCH  13  14
ENDBRANCH  12  13
ENDBRANCH  11  12
ENDBRANCH  10  11
ENDBRANCH   1  10
TORSDOF 15
ENDMDL
MODEL 4
REMARK VINA RESULT:    -3.373      2.457      4.987
REMARK INTER + INTRA:          -8.919
REMARK INTER:                  -6.290
REMARK INTRA:                  -2.629
REMARK UNBOUND:                -2.687
REMARK SMILES CCCCCCCCCCCCCCCCO
REMARK SMILES IDX 9 1 8 2 7 3 6 4 5 5 4 6 3 7 2 8 1 9 10 10 11 11 12 12 13 13
REMARK SMILES IDX 14 14 15 15 16 16 17 17
REMARK H PARENT 17 18
REMARK Flexibility Score: inf
ROOT
ATOM      1  C   UNL     1       0.202   8.844  36.124  1.00  0.00     0.000 C 
ENDROOT
BRANCH   1   2
ATOM      2  C   UNL     1       0.776  10.044  36.892  1.00  0.00    -0.000 C 
BRANCH   2   3
ATOM      3  C   UNL     1       1.821   9.635  37.942  1.00  0.00    -0.000 C 
BRANCH   3   4
ATOM      4  C   UNL     1       1.260   9.664  39.375  1.00  0.00    -0.000 C 
BRANCH   4   5
ATOM      5  C   UNL     1       1.127   8.261  39.991  1.00  0.00    -0.000 C 
BRANCH   5   6
ATOM      6  C   UNL     1       1.687   7.114  39.128  1.00  0.00    -0.000 C 
BRANCH   6   7
ATOM      7  C   UNL     1       0.825   5.835  39.155  1.00  0.00    -0.000 C 
BRANCH   7   8
ATOM      8  C   UNL     1       0.366   5.412  37.752  1.00  0.00    -0.003 C 
ATOM      9  C   UNL     1      -0.884   4.539  37.819  1.00  0.00     0.004 C 
ENDBRANCH   7   8
ENDBRANCH   6   7
ENDBRANCH   5   6
ENDBRANCH   4   5
ENDBRANCH   3   4
ENDBRANCH   2   3
ENDBRANCH   1   2
BRANCH   1  10
ATOM     10  C   UNL     1      -1.293   8.664  36.426  1.00  0.00     0.000 C 
BRANCH  10  11
ATOM     11  C   UNL     1      -1.874   9.816  37.264  1.00  0.00     0.000 C 
BRANCH  11  12
ATOM     12  C   UNL     1      -2.400   9.345  38.631  1.00  0.00     0.000 C 
BRANCH  12  13
ATOM     13  C   UNL     1      -2.212   7.834  38.846  1.00  0.00     0.000 C 
BRANCH  13  14
ATOM     14  C   UNL     1      -3.195   7.252  39.872  1.00  0.00     0.002 C 
BRANCH  14  15
ATOM     15  C   UNL     1      -2.471   6.331  40.863  1.00  0.00     0.028 C 
BRANCH  15  16
ATOM     16  C   UNL     1      -2.311   6.989  42.237  1.00  0.00     0.156 C 
BRANCH  16  17
ATOM     17  O   UNL     1      -3.310   7.949  42.454  1.00  0.00    -0.396 OA
ATOM     18  H   UNL     1      -3.878   7.958  41.641  1.00  0.00     0.210 HD
ENDBRANCH  16  17
ENDBRANCH  15  16
ENDBRANCH  14  15
ENDBRANCH  13  14
ENDBRANCH  12  13
ENDBRANCH  11  12
ENDBRANCH  10  11
ENDBRANCH   1  10
TORSDOF 15
ENDMDL
MODEL 5
REMARK VINA RESULT:    -3.354      1.584      4.081
REMARK INTER + INTRA:          -8.884
REMARK INTER:                  -6.400
REMARK INTRA:                  -2.483
REMARK UNBOUND:                -2.687
REMARK SMILES CCCCCCCCCCCCCCCCO
REMARK SMILES IDX 9 1 8 2 7 3 6 4 5 5 4 6 3 7 2 8 1 9 10 10 11 11 12 12 13 13
REMARK SMILES IDX 14 14 15 15 16 16 17 17
REMARK H PARENT 17 18
REMARK Flexibility Score: inf
ROOT
ATOM      1  C   UNL     1       0.679   8.507  40.912  1.00  0.00     0.000 C 
ENDROOT
BRANCH   1   2
ATOM      2  C   UNL     1       1.118   7.462  39.875  1.00  0.00    -0.000 C 
BRANCH   2   3
ATOM      3  C   UNL     1       0.441   6.098  40.082  1.00  0.00    -0.000 C 
BRANCH   3   4
ATOM      4  C   UNL     1      -0.199   5.555  38.792  1.00  0.00    -0.000 C 
BRANCH   4   5
ATOM      5  C   UNL     1      -1.506   4.787  39.054  1.00  0.00    -0.000 C 
BRANCH   5   6
ATOM      6  C   UNL     1      -2.439   5.423  40.102  1.00  0.00    -0.000 C 
BRANCH   6   7
ATOM      7  C   UNL     1      -3.222   6.645  39.579  1.00  0.00    -0.000 C 
BRANCH   7   8
ATOM      8  C   UNL     1      -3.049   7.877  40.481  1.00  0.00    -0.003 C 
ATOM      9  C   UNL     1      -2.756   7.468  41.922  1.00  0.00     0.004 C 
ENDBRANCH   7   8
ENDBRANCH   6   7
ENDBRANCH   5   6
ENDBRANCH   4   5
ENDBRANCH   3   4
ENDBRANCH   2   3
ENDBRANCH   1   2
BRANCH   1  10
ATOM     10  C   UNL     1       0.242   9.809  40.224  1.00  0.00     0.000 C 
BRANCH  10  11
ATOM     11  C   UNL     1       0.080   9.654  38.703  1.00  0.00     0.000 C 
BRANCH  11  12
ATOM     12  C   UNL     1      -1.352   9.955  38.227  1.00  0.00     0.000 C 
BRANCH  12  13
ATOM     13  C   UNL     1      -1.621   9.440  36.803  1.00  0.00     0.000 C 
BRANCH  13  14
ATOM     14  C   UNL     1      -0.757   8.225  36.437  1.00  0.00     0.002 C 
BRANCH  14  15
ATOM     15  C   UNL     1      -1.599   7.140  35.754  1.00  0.00     0.028 C 
BRANCH  15  16
ATOM     16  C   UNL     1      -0.775   6.328  34.749  1.00  0.00     0.156 C 
BRANCH  16  17
ATOM     17  O   UNL     1       0.214   7.124  34.153  1.00  0.00    -0.396 OA
ATOM     18  H   UNL     1       0.104   8.039  34.521  1.00  0.00     0.210 HD
ENDBRANCH  16  17
ENDBRANCH  15  16
ENDBRANCH  14  15
ENDBRANCH  13  14
ENDBRANCH  12  13
ENDBRANCH  11  12
ENDBRANCH  10  11
ENDBRANCH   1  10
TORSDOF 15
ENDMDL
MODEL 6
REMARK VINA RESULT:    -3.330      1.920      4.336
REMARK INTER + INTRA:          -8.839
REMARK INTER:                  -6.521
REMARK INTRA:                  -2.318
REMARK UNBOUND:                -2.687
REMARK SMILES CCCCCCCCCCCCCCCCO
REMARK SMILES IDX 9 1 8 2 7 3 6 4 5 5 4 6 3 7 2 8 1 9 10 10 11 11 12 12 13 13
REMARK SMILES IDX 14 14 15 15 16 16 17 17
REMARK H PARENT 17 18
REMARK Flexibility Score: inf
ROOT
ATOM      1  C   UNL     1      -1.986   6.075  39.516  1.00  0.00     0.000 C 
ENDROOT
BRANCH   1   2
ATOM      2  C   UNL     1      -3.087   6.423  40.529  1.00  0.00    -0.000 C 
BRANCH   2   3
ATOM      3  C   UNL     1      -3.012   5.573  41.807  1.00  0.00    -0.000 C 
BRANCH   3   4
ATOM      4  C   UNL     1      -2.140   6.221  42.896  1.00  0.00    -0.000 C 
BRANCH   4   5
ATOM      5  C   UNL     1      -2.273   7.753  42.932  1.00  0.00    -0.000 C 
BRANCH   5   6
ATOM      6  C   UNL     1      -0.944   8.526  42.830  1.00  0.00    -0.000 C 
BRANCH   6   7
ATOM      7  C   UNL     1       0.243   7.666  42.348  1.00  0.00    -0.000 C 
BRANCH   7   8
ATOM      8  C   UNL     1       0.890   8.227  41.073  1.00  0.00    -0.003 C 
ATOM      9  C   UNL     1       0.501   9.686  40.854  1.00  0.00     0.004 C 
ENDBRANCH   7   8
ENDBRANCH   6   7
ENDBRANCH   5   6
ENDBRANCH   4   5
ENDBRANCH   3   4
ENDBRANCH   2   3
ENDBRANCH   1   2
BRANCH   1  10
ATOM     10  C   UNL     1      -1.609   7.304  38.674  1.00  0.00     0.000 C 
BRANCH  10  11
ATOM     11  C   UNL     1      -2.452   8.544  39.019  1.00  0.00     0.000 C 
BRANCH  11  12
ATOM     12  C   UNL     1      -2.198   9.717  38.057  1.00  0.00     0.000 C 
BRANCH  12  13
ATOM     13  C   UNL     1      -1.730   9.250  36.669  1.00  0.00     0.000 C 
BRANCH  13  14
ATOM     14  C   UNL     1      -0.500  10.020  36.166  1.00  0.00     0.002 C 
BRANCH  14  15
ATOM     15  C   UNL     1       0.568  10.122  37.262  1.00  0.00     0.028 C 
BRANCH  15  16
ATOM     16  C   UNL     1       1.752   9.189  36.991  1.00  0.00     0.156 C 
BRANCH  16  17
ATOM     17  O   UNL     1       2.658   9.204  38.062  1.00  0.00    -0.396 OA
ATOM     18  H   UNL     1       3.260   8.425  37.937  1.00  0.00     0.210 HD
ENDBRANCH  16  17
ENDBRANCH  15  16
ENDBRANCH  14  15
ENDBRANCH  13  14
ENDBRANCH  12  13
ENDBRANCH  11  12
ENDBRANCH  10  11
ENDBRANCH   1  10
TORSDOF 15
ENDMDL
MODEL 7
REMARK VINA RESULT:    -3.319      2.151      4.881
REMARK INTER + INTRA:          -8.819
REMARK INTER:                  -6.799
REMARK INTRA:                  -2.020
REMARK UNBOUND:                -2.687
REMARK SMILES CCCCCCCCCCCCCCCCO
REMARK SMILES IDX 9 1 8 2 7 3 6 4 5 5 4 6 3 7 2 8 1 9 10 10 11 11 12 12 13 13
REMARK SMILES IDX 14 14 15 15 16 16 17 17
REMARK H PARENT 17 18
REMARK Flexibility Score: inf
ROOT
ATOM      1  C   UNL     1       1.017   8.838  36.529  1.00  0.00     0.000 C 
ENDROOT
BRANCH   1   2
ATOM      2  C   UNL     1      -0.055   8.396  35.521  1.00  0.00    -0.000 C 
BRANCH   2   3
ATOM      3  C   UNL     1      -1.483   8.717  35.990  1.00  0.00    -0.000 C 
BRANCH   3   4
ATOM      4  C   UNL     1      -1.521   9.844  37.037  1.00  0.00    -0.000 C 
BRANCH   4   5
ATOM      5  C   UNL     1      -2.288   9.448  38.310  1.00  0.00    -0.000 C 
BRANCH   5   6
ATOM      6  C   UNL     1      -1.930   8.064  38.885  1.00  0.00    -0.000 C 
BRANCH   6   7
ATOM      7  C   UNL     1      -2.970   7.516  39.884  1.00  0.00    -0.000 C 
BRANCH   7   8
ATOM      8  C   UNL     1      -3.291   6.034  39.637  1.00  0.00    -0.003 C 
ATOM      9  C   UNL     1      -3.025   5.197  40.884  1.00  0.00     0.004 C 
ENDBRANCH   7   8
ENDBRANCH   6   7
ENDBRANCH   5   6
ENDBRANCH   4   5
ENDBRANCH   3   4
ENDBRANCH   2   3
ENDBRANCH   1   2
BRANCH   1  10
ATOM     10  C   UNL     1       1.781   7.625  37.082  1.00  0.00     0.000 C 
BRANCH  10  11
ATOM     11  C   UNL     1       1.652   7.485  38.609  1.00  0.00     0.000 C 
BRANCH  11  12
ATOM     12  C   UNL     1       1.196   6.079  39.036  1.00  0.00     0.000 C 
BRANCH  12  13
ATOM     13  C   UNL     1       0.696   6.038  40.490  1.00  0.00     0.000 C 
BRANCH  13  14
ATOM     14  C   UNL     1       0.849   7.386  41.209  1.00  0.00     0.002 C 
BRANCH  14  15
ATOM     15  C   UNL     1      -0.070   7.459  42.436  1.00  0.00     0.028 C 
BRANCH  15  16
ATOM     16  C   UNL     1      -0.574   8.884  42.684  1.00  0.00     0.156 C 
BRANCH  16  17
ATOM     17  O   UNL     1       0.411   9.829  42.361  1.00  0.00    -0.396 OA
ATOM     18  H   UNL     1       1.276   9.456  42.673  1.00  0.00     0.210 HD
ENDBRANCH  16  17
ENDBRANCH  15  16
ENDBRANCH  14  15
ENDBRANCH  13  14
ENDBRANCH  12  13
ENDBRANCH  11  12
ENDBRANCH  10  11
ENDBRANCH   1  10
TORSDOF 15
ENDMDL
MODEL 8
REMARK VINA RESULT:    -3.312      1.884      4.682
REMARK INTER + INTRA:          -8.807
REMARK INTER:                  -6.238
REMARK INTRA:                  -2.569
REMARK UNBOUND:                -2.687
REMARK SMILES CCCCCCCCCCCCCCCCO
REMARK SMILES IDX 9 1 8 2 7 3 6 4 5 5 4 6 3 7 2 8 1 9 10 10 11 11 12 12 13 13
REMARK SMILES IDX 14 14 15 15 16 16 17 17
REMARK H PARENT 17 18
REMARK Flexibility Score: inf
ROOT
ATOM      1  C   UNL     1      -0.331   9.438  37.622  1.00  0.00     0.000 C 
ENDROOT
BRANCH   1   2
ATOM      2  C   UNL     1      -1.763   8.892  37.727  1.00  0.00    -0.000 C 
BRANCH   2   3
ATOM      3  C   UNL     1      -2.303   8.908  39.165  1.00  0.00    -0.000 C 
BRANCH   3   4
ATOM      4  C   UNL     1      -3.007   7.594  39.546  1.00  0.00    -0.000 C 
BRANCH   4   5
ATOM      5  C   UNL     1      -2.441   6.966  40.831  1.00  0.00    -0.000 C 
BRANCH   5   6
ATOM      6  C   UNL     1      -2.784   7.719  42.131  1.00  0.00    -0.000 C 
BRANCH   6   7
ATOM      7  C   UNL     1      -1.552   8.062  42.995  1.00  0.00    -0.000 C 
BRANCH   7   8
ATOM      8  C   UNL     1      -0.242   7.989  42.197  1.00  0.00    -0.003 C 
ATOM      9  C   UNL     1       0.241   9.381  41.801  1.00  0.00     0.004 C 
ENDBRANCH   7   8
ENDBRANCH   6   7
ENDBRANCH   5   6
ENDBRANCH   4   5
ENDBRANCH   3   4
ENDBRANCH   2   3
ENDBRANCH   1   2
BRANCH   1  10
ATOM     10  C   UNL     1       0.672   8.300  37.374  1.00  0.00     0.000 C 
BRANCH  10  11
ATOM     11  C   UNL     1       1.215   7.691  38.677  1.00  0.00     0.000 C 
BRANCH  11  12
ATOM     12  C   UNL     1       0.676   6.272  38.935  1.00  0.00     0.000 C 
BRANCH  12  13
ATOM     13  C   UNL     1       0.205   5.578  37.647  1.00  0.00     0.000 C 
BRANCH  13  14
ATOM     14  C   UNL     1      -1.242   5.070  37.740  1.00  0.00     0.002 C 
BRANCH  14  15
ATOM     15  C   UNL     1      -1.892   5.011  36.352  1.00  0.00     0.028 C 
BRANCH  15  16
ATOM     16  C   UNL     1      -1.072   5.775  35.307  1.00  0.00     0.156 C 
BRANCH  16  17
ATOM     17  O   UNL     1      -1.756   6.920  34.872  1.00  0.00    -0.396 OA
ATOM     18  H   UNL     1      -1.229   7.297  34.120  1.00  0.00     0.210 HD
ENDBRANCH  16  17
ENDBRANCH  15  16
ENDBRANCH  14  15
ENDBRANCH  13  14
ENDBRANCH  12  13
ENDBRANCH  11  12
ENDBRANCH  10  11
ENDBRANCH   1  10
TORSDOF 15
ENDMDL
MODEL 9
REMARK VINA RESULT:    -3.304      1.790      4.198
REMARK INTER + INTRA:          -8.792
REMARK INTER:                  -6.341
REMARK INTRA:                  -2.451
REMARK UNBOUND:                -2.687
REMARK SMILES CCCCCCCCCCCCCCCCO
REMARK SMILES IDX 9 1 8 2 7 3 6 4 5 5 4 6 3 7 2 8 1 9 10 10 11 11 12 12 13 13
REMARK SMILES IDX 14 14 15 15 16 16 17 17
REMARK H PARENT 17 18
REMARK Flexibility Score: inf
ROOT
ATOM      1  C   UNL     1       0.636   8.489  40.242  1.00  0.00     0.000 C 
ENDROOT
BRANCH   1   2
ATOM      2  C   UNL     1      -0.494   8.862  41.213  1.00  0.00    -0.000 C 
BRANCH   2   3
ATOM      3  C   UNL     1      -0.766   7.769  42.259  1.00  0.00    -0.000 C 
BRANCH   3   4
ATOM      4  C   UNL     1      -2.144   7.109  42.078  1.00  0.00    -0.000 C 
BRANCH   4   5
ATOM      5  C   UNL     1      -3.008   7.815  41.019  1.00  0.00    -0.000 C 
BRANCH   5   6
ATOM      6  C   UNL     1      -3.209   7.027  39.710  1.00  0.00    -0.000 C 
BRANCH   6   7
ATOM      7  C   UNL     1      -2.566   5.625  39.721  1.00  0.00    -0.000 C 
BRANCH   7   8
ATOM      8  C   UNL     1      -1.793   5.328  38.426  1.00  0.00    -0.003 C 
ATOM      9  C   UNL     1      -0.289   5.286  38.679  1.00  0.00     0.004 C 
ENDBRANCH   7   8
ENDBRANCH   6   7
ENDBRANCH   5   6
ENDBRANCH   4   5
ENDBRANCH   3   4
ENDBRANCH   2   3
ENDBRANCH   1   2
BRANCH   1  10
ATOM     10  C   UNL     1       0.357   9.045  38.838  1.00  0.00     0.000 C 
BRANCH  10  11
ATOM     11  C   UNL     1      -0.796  10.064  38.819  1.00  0.00     0.000 C 
BRANCH  11  12
ATOM     12  C   UNL     1      -1.881   9.709  37.787  1.00  0.00     0.000 C 
BRANCH  12  13
ATOM     13  C   UNL     1      -1.296   9.409  36.397  1.00  0.00     0.000 C 
BRANCH  13  14
ATOM     14  C   UNL     1      -1.604   7.982  35.918  1.00  0.00     0.002 C 
BRANCH  14  15
ATOM     15  C   UNL     1      -0.346   7.314  35.349  1.00  0.00     0.028 C 
BRANCH  15  16
ATOM     16  C   UNL     1      -0.630   5.888  34.863  1.00  0.00     0.156 C 
BRANCH  16  17
ATOM     17  O   UNL     1      -0.349   5.760  33.494  1.00  0.00    -0.396 OA
ATOM     18  H   UNL     1      -1.223   5.726  33.026  1.00  0.00     0.210 HD
ENDBRANCH  16  17
ENDBRANCH  15  16
ENDBRANCH  14  15
ENDBRANCH  13  14
ENDBRANCH  12  13
ENDBRANCH  11  12
ENDBRANCH  10  11
ENDBRANCH   1  10
TORSDOF 15
ENDMDL
