MODEL 1
REMARK VINA RESULT:    -5.047      0.000      0.000
REMARK INTER + INTRA:          -5.164
REMARK INTER:                  -5.490
REMARK INTRA:                   0.325
REMARK UNBOUND:                 0.325
REMARK SMILES C[C@@H]1[C@H](C)CC[C@]2(C(=O)[O-])CC[C@]3(C)C(=CC[C@@H]4[C@@]5(C)CC[C@H](O)C(C)(C)[C@H]5CC[C@@]43C)[C@H]12
REMARK SMILES IDX 7 1 6 2 11 3 33 4 5 5 12 6 15 7 2 8 3 9 13 10 16 11 1 12
REMARK SMILES IDX 4 13 14 14 31 15 17 16 18 17 30 18 32 19 19 20 29 21 28 22
REMARK SMILES IDX 21 23 20 24 25 25 22 26 23 27 26 28 27 29 8 30 9 31 10 32
REMARK SMILES IDX 24 33
REMARK H PARENT 24 34
REMARK Flexibility Score: inf
ROOT
ATOM      1  C   UNL     1      -1.846  -1.625  10.141  1.00  0.00     0.017 C 
ATOM      2  C   UNL     1      -0.843  -0.958  11.125  1.00  0.00     0.014 C 
ATOM      3  C   UNL     1      -2.875  -2.455  10.997  1.00  0.00     0.014 C 
ATOM      4  C   UNL     1      -1.065  -2.450   9.023  1.00  0.00     0.030 C 
ATOM      5  C   UNL     1       0.277  -0.137  10.456  1.00  0.00     0.004 C 
ATOM      6  C   UNL     1      -3.340  -3.805  10.414  1.00  0.00     0.013 C 
ATOM      7  C   UNL     1      -1.505  -3.911   8.814  1.00  0.00    -0.063 C 
ATOM      8  C   UNL     1       0.476  -2.215   8.922  1.00  0.00    -0.003 C 
ATOM      9  C   UNL     1       0.776  -0.702   9.107  1.00  0.00    -0.011 C 
ATOM     10  C   UNL     1      -2.182  -4.715   9.928  1.00  0.00    -0.006 C 
ATOM     11  C   UNL     1      -1.715  -4.265   7.538  1.00  0.00    -0.027 C 
ATOM     12  C   UNL     1       1.353  -3.130   9.795  1.00  0.00     0.008 C 
ATOM     13  C   UNL     1       2.253  -0.349   8.868  1.00  0.00     0.008 C 
ATOM     14  C   UNL     1      -1.182  -4.874  11.125  1.00  0.00     0.017 C 
ATOM     15  C   UNL     1      -2.674  -6.197   9.408  1.00  0.00    -0.020 C 
ATOM     16  C   UNL     1      -3.004  -4.913   7.177  1.00  0.00     0.032 C 
ATOM     17  C   UNL     1      -3.205  -6.260   7.898  1.00  0.00     0.006 C 
ATOM     18  C   UNL     1      -3.721  -6.819  10.380  1.00  0.00     0.008 C 
ATOM     19  C   UNL     1      -1.449  -7.175   9.444  1.00  0.00     0.012 C 
ATOM     20  C   UNL     1      -4.652  -6.907   7.651  1.00  0.00    -0.025 C 
ATOM     21  C   UNL     1      -5.199  -6.461  10.146  1.00  0.00     0.005 C 
ATOM     22  C   UNL     1      -5.696  -6.315   8.669  1.00  0.00     0.003 C 
ATOM     23  C   UNL     1      -4.616  -8.474   7.767  1.00  0.00     0.010 C 
ATOM     24  C   UNL     1      -5.052  -6.603   6.171  1.00  0.00     0.012 C 
ATOM     25  C   UNL     1      -7.191  -6.869   8.478  1.00  0.00    -0.006 C 
ATOM     26  C   UNL     1      -5.868  -9.117   8.405  1.00  0.00     0.033 C 
ATOM     27  C   UNL     1      -7.199  -8.400   8.081  1.00  0.00     0.120 C 
ATOM     28  C   UNL     1      -8.051  -6.698   9.774  1.00  0.00     0.014 C 
ATOM     29  C   UNL     1      -7.958  -6.003   7.428  1.00  0.00     0.014 C 
ENDROOT
BRANCH   1  30
ATOM     30  C   UNL     1      -2.616  -0.483   9.494  1.00  0.00     0.048 C 
ATOM     31  O   UNL     1      -3.865  -0.376   9.654  1.00  0.00    -0.550 OA
ATOM     32  O   UNL     1      -3.986  -0.354   9.662  1.00  0.00    -0.550 OA
ENDBRANCH   1  30
BRANCH  27  33
ATOM     33  O   UNL     1      -7.525  -8.590   6.725  1.00  0.00    -0.393 OA
ATOM     34  H   UNL     1      -7.590  -9.569   6.568  1.00  0.00     0.210 HD
ENDBRANCH  27  33
TORSDOF 2
ENDMDL
MODEL 2
REMARK VINA RESULT:    -4.804      6.985     13.248
REMARK INTER + INTRA:          -4.899
REMARK INTER:                  -5.315
REMARK INTRA:                   0.415
REMARK UNBOUND:                 0.325
REMARK SMILES C[C@@H]1[C@H](C)CC[C@]2(C(=O)[O-])CC[C@]3(C)C(=CC[C@@H]4[C@@]5(C)CC[C@H](O)C(C)(C)[C@H]5CC[C@@]43C)[C@H]12
REMARK SMILES IDX 7 1 6 2 11 3 33 4 5 5 12 6 15 7 2 8 3 9 13 10 16 11 1 12
REMARK SMILES IDX 4 13 14 14 31 15 17 16 18 17 30 18 32 19 19 20 29 21 28 22
REMARK SMILES IDX 21 23 20 24 25 25 22 26 23 27 26 28 27 29 8 30 9 31 10 32
REMARK SMILES IDX 24 33
REMARK H PARENT 24 34
REMARK Flexibility Score: inf
ROOT
ATOM      1  C   UNL     1       1.530   1.917  10.164  1.00  0.00     0.017 C 
ATOM      2  C   UNL     1       0.773   0.879  11.041  1.00  0.00     0.014 C 
ATOM      3  C   UNL     1       2.100   3.028  11.123  1.00  0.00     0.014 C 
ATOM      4  C   UNL     1       0.591   2.444   8.989  1.00  0.00     0.030 C 
ATOM      5  C   UNL     1       0.100  -0.267  10.261  1.00  0.00     0.004 C 
ATOM      6  C   UNL     1       2.072   4.481  10.604  1.00  0.00     0.013 C 
ATOM      7  C   UNL     1       0.467   3.972   8.841  1.00  0.00    -0.063 C 
ATOM      8  C   UNL     1      -0.737   1.658   8.743  1.00  0.00    -0.003 C 
ATOM      9  C   UNL     1      -0.463   0.136   8.878  1.00  0.00    -0.011 C 
ATOM     10  C   UNL     1       0.701   4.917  10.025  1.00  0.00    -0.006 C 
ATOM     11  C   UNL     1       0.632   4.439   7.596  1.00  0.00    -0.027 C 
ATOM     12  C   UNL     1      -1.960   2.140   9.542  1.00  0.00     0.008 C 
ATOM     13  C   UNL     1      -1.675  -0.729   8.498  1.00  0.00     0.008 C 
ATOM     14  C   UNL     1      -0.379   4.636  11.125  1.00  0.00     0.017 C 
ATOM     15  C   UNL     1       0.643   6.498   9.572  1.00  0.00    -0.020 C 
ATOM     16  C   UNL     1       1.610   5.535   7.365  1.00  0.00     0.032 C 
ATOM     17  C   UNL     1       1.233   6.825   8.119  1.00  0.00     0.006 C 
ATOM     18  C   UNL     1       1.298   7.418  10.645  1.00  0.00     0.008 C 
ATOM     19  C   UNL     1      -0.858   6.948   9.507  1.00  0.00     0.012 C 
ATOM     20  C   UNL     1       2.347   7.974   8.017  1.00  0.00    -0.025 C 
ATOM     21  C   UNL     1       2.817   7.646  10.545  1.00  0.00     0.005 C 
ATOM     22  C   UNL     1       3.450   7.765   9.119  1.00  0.00     0.003 C 
ATOM     23  C   UNL     1       1.718   9.408   8.150  1.00  0.00     0.010 C 
ATOM     24  C   UNL     1       2.950   7.911   6.576  1.00  0.00     0.012 C 
ATOM     25  C   UNL     1       4.640   8.843   9.075  1.00  0.00    -0.006 C 
ATOM     26  C   UNL     1       2.582  10.440   8.909  1.00  0.00     0.033 C 
ATOM     27  C   UNL     1       4.106  10.285   8.701  1.00  0.00     0.120 C 
ATOM     28  C   UNL     1       5.393   8.943  10.443  1.00  0.00     0.014 C 
ATOM     29  C   UNL     1       5.758   8.375   8.090  1.00  0.00     0.014 C 
ENDROOT
BRANCH   1  30
ATOM     30  C   UNL     1       2.721   1.174   9.576  1.00  0.00     0.048 C 
ATOM     31  O   UNL     1       3.447   0.441  10.306  1.00  0.00    -0.550 OA
ATOM     32  O   UNL     1       3.525   0.366  10.366  1.00  0.00    -0.550 OA
ENDBRANCH   1  30
BRANCH  27  33
ATOM     33  O   UNL     1       4.446  10.646   7.384  1.00  0.00    -0.393 OA
ATOM     34  H   UNL     1       5.260  11.214   7.431  1.00  0.00     0.210 HD
ENDBRANCH  27  33
TORSDOF 2
ENDMDL
MODEL 3
REMARK VINA RESULT:    -4.618      2.423      8.057
REMARK INTER + INTRA:          -4.697
REMARK INTER:                  -4.709
REMARK INTRA:                   0.012
REMARK UNBOUND:                 0.325
REMARK SMILES C[C@@H]1[C@H](C)CC[C@]2(C(=O)[O-])CC[C@]3(C)C(=CC[C@@H]4[C@@]5(C)CC[C@H](O)C(C)(C)[C@H]5CC[C@@]43C)[C@H]12
REMARK SMILES IDX 7 1 6 2 11 3 33 4 5 5 12 6 15 7 2 8 3 9 13 10 16 11 1 12
REMARK SMILES IDX 4 13 14 14 31 15 17 16 18 17 30 18 32 19 19 20 29 21 28 22
REMARK SMILES IDX 21 23 20 24 25 25 22 26 23 27 26 28 27 29 8 30 9 31 10 32
REMARK SMILES IDX 24 33
REMARK H PARENT 24 34
REMARK Flexibility Score: inf
ROOT
ATOM      1  C   UNL     1      -2.887  -7.753   8.927  1.00  0.00     0.017 C 
ATOM      2  C   UNL     1      -4.047  -8.626   9.484  1.00  0.00     0.014 C 
ATOM      3  C   UNL     1      -1.987  -7.320  10.144  1.00  0.00     0.014 C 
ATOM      4  C   UNL     1      -3.465  -6.557   8.044  1.00  0.00     0.030 C 
ATOM      5  C   UNL     1      -5.067  -9.105   8.432  1.00  0.00     0.004 C 
ATOM      6  C   UNL     1      -1.405  -5.891  10.109  1.00  0.00     0.013 C 
ATOM      7  C   UNL     1      -2.965  -5.143   8.391  1.00  0.00    -0.063 C 
ATOM      8  C   UNL     1      -4.976  -6.635   7.656  1.00  0.00    -0.003 C 
ATOM      9  C   UNL     1      -5.336  -8.100   7.288  1.00  0.00    -0.011 C 
ATOM     10  C   UNL     1      -2.452  -4.792   9.792  1.00  0.00    -0.006 C 
ATOM     11  C   UNL     1      -2.549  -4.413   7.347  1.00  0.00    -0.027 C 
ATOM     12  C   UNL     1      -5.957  -5.988   8.649  1.00  0.00     0.008 C 
ATOM     13  C   UNL     1      -6.764  -8.249   6.741  1.00  0.00     0.008 C 
ATOM     14  C   UNL     1      -3.623  -4.954  10.821  1.00  0.00     0.017 C 
ATOM     15  C   UNL     1      -1.851  -3.261   9.864  1.00  0.00    -0.020 C 
ATOM     16  C   UNL     1      -1.205  -3.779   7.404  1.00  0.00     0.032 C 
ATOM     17  C   UNL     1      -1.089  -2.755   8.549  1.00  0.00     0.006 C 
ATOM     18  C   UNL     1      -0.956  -3.063  11.123  1.00  0.00     0.008 C 
ATOM     19  C   UNL     1      -3.044  -2.261  10.047  1.00  0.00     0.012 C 
ATOM     20  C   UNL     1       0.393  -2.170   8.735  1.00  0.00    -0.025 C 
ATOM     21  C   UNL     1       0.532  -3.434  10.994  1.00  0.00     0.005 C 
ATOM     22  C   UNL     1       1.251  -3.132   9.637  1.00  0.00     0.003 C 
ATOM     23  C   UNL     1       0.375  -0.725   9.354  1.00  0.00     0.010 C 
ATOM     24  C   UNL     1       1.012  -2.009   7.309  1.00  0.00     0.012 C 
ATOM     25  C   UNL     1       2.770  -2.657   9.851  1.00  0.00    -0.006 C 
ATOM     26  C   UNL     1       1.526  -0.414  10.337  1.00  0.00     0.033 C 
ATOM     27  C   UNL     1       2.874  -1.084   9.985  1.00  0.00     0.120 C 
ATOM     28  C   UNL     1       3.412  -3.297  11.125  1.00  0.00     0.014 C 
ATOM     29  C   UNL     1       3.672  -3.191   8.693  1.00  0.00     0.014 C 
ENDROOT
BRANCH   1  30
ATOM     30  C   UNL     1      -2.052  -8.679   8.054  1.00  0.00     0.048 C 
ATOM     31  O   UNL     1      -1.751  -8.350   6.871  1.00  0.00    -0.550 OA
ATOM     32  O   UNL     1      -1.714  -8.330   6.755  1.00  0.00    -0.550 OA
ENDBRANCH   1  30
BRANCH  27  33
ATOM     33  O   UNL     1       3.413  -0.492   8.828  1.00  0.00    -0.393 OA
ATOM     34  H   UNL     1       3.693   0.431   9.067  1.00  0.00     0.210 HD
ENDBRANCH  27  33
TORSDOF 2
ENDMDL
MODEL 4
REMARK VINA RESULT:    -4.472      1.988      7.747
REMARK INTER + INTRA:          -4.539
REMARK INTER:                  -4.561
REMARK INTRA:                   0.022
REMARK UNBOUND:                 0.325
REMARK SMILES C[C@@H]1[C@H](C)CC[C@]2(C(=O)[O-])CC[C@]3(C)C(=CC[C@@H]4[C@@]5(C)CC[C@H](O)C(C)(C)[C@H]5CC[C@@]43C)[C@H]12
REMARK SMILES IDX 7 1 6 2 11 3 33 4 5 5 12 6 15 7 2 8 3 9 13 10 16 11 1 12
REMARK SMILES IDX 4 13 14 14 31 15 17 16 18 17 30 18 32 19 19 20 29 21 28 22
REMARK SMILES IDX 21 23 20 24 25 25 22 26 23 27 26 28 27 29 8 30 9 31 10 32
REMARK SMILES IDX 24 33
REMARK H PARENT 24 34
REMARK Flexibility Score: inf
ROOT
ATOM      1  C   UNL     1      -4.100  -7.150   5.856  1.00  0.00     0.017 C 
ATOM      2  C   UNL     1      -4.303  -8.677   5.636  1.00  0.00     0.014 C 
ATOM      3  C   UNL     1      -2.581  -6.913   6.193  1.00  0.00     0.014 C 
ATOM      4  C   UNL     1      -5.135  -6.602   6.938  1.00  0.00     0.030 C 
ATOM      5  C   UNL     1      -5.753  -9.107   5.341  1.00  0.00     0.004 C 
ATOM      6  C   UNL     1      -2.260  -5.836   7.250  1.00  0.00     0.013 C 
ATOM      7  C   UNL     1      -4.543  -5.786   8.102  1.00  0.00    -0.063 C 
ATOM      8  C   UNL     1      -6.303  -7.557   7.342  1.00  0.00    -0.003 C 
ATOM      9  C   UNL     1      -6.834  -8.281   6.075  1.00  0.00    -0.011 C 
ATOM     10  C   UNL     1      -3.090  -5.965   8.554  1.00  0.00    -0.006 C 
ATOM     11  C   UNL     1      -5.164  -4.626   8.358  1.00  0.00    -0.027 C 
ATOM     12  C   UNL     1      -6.019  -8.503   8.522  1.00  0.00     0.008 C 
ATOM     13  C   UNL     1      -8.090  -9.125   6.347  1.00  0.00     0.008 C 
ATOM     14  C   UNL     1      -2.895  -7.426   9.087  1.00  0.00     0.017 C 
ATOM     15  C   UNL     1      -2.668  -4.883   9.720  1.00  0.00    -0.020 C 
ATOM     16  C   UNL     1      -4.353  -3.381   8.438  1.00  0.00     0.032 C 
ATOM     17  C   UNL     1      -3.322  -3.427   9.582  1.00  0.00     0.006 C 
ATOM     18  C   UNL     1      -1.120  -4.773   9.858  1.00  0.00     0.008 C 
ATOM     19  C   UNL     1      -3.167  -5.418  11.106  1.00  0.00     0.012 C 
ATOM     20  C   UNL     1      -2.328  -2.167   9.597  1.00  0.00    -0.025 C 
ATOM     21  C   UNL     1      -0.400  -3.771   8.939  1.00  0.00     0.005 C 
ATOM     22  C   UNL     1      -1.117  -2.415   8.624  1.00  0.00     0.003 C 
ATOM     23  C   UNL     1      -1.801  -1.860  11.046  1.00  0.00     0.010 C 
ATOM     24  C   UNL     1      -3.160  -0.913   9.176  1.00  0.00     0.012 C 
ATOM     25  C   UNL     1      -0.081  -1.191   8.534  1.00  0.00    -0.006 C 
ATOM     26  C   UNL     1      -0.337  -1.371  11.125  1.00  0.00     0.033 C 
ATOM     27  C   UNL     1       0.115  -0.490   9.938  1.00  0.00     0.120 C 
ATOM     28  C   UNL     1       1.323  -1.647   8.017  1.00  0.00     0.014 C 
ATOM     29  C   UNL     1      -0.544  -0.171   7.446  1.00  0.00     0.014 C 
ENDROOT
BRANCH   1  30
ATOM     30  C   UNL     1      -4.372  -6.497   4.508  1.00  0.00     0.048 C 
ATOM     31  O   UNL     1      -4.316  -5.241   4.380  1.00  0.00    -0.550 OA
ATOM     32  O   UNL     1      -4.314  -5.120   4.354  1.00  0.00    -0.550 OA
ENDBRANCH   1  30
BRANCH  27  33
ATOM     33  O   UNL     1      -0.532   0.758   9.997  1.00  0.00    -0.393 OA
ATOM     34  H   UNL     1      -0.023   1.329  10.631  1.00  0.00     0.210 HD
ENDBRANCH  27  33
TORSDOF 2
ENDMDL
MODEL 5
REMARK VINA RESULT:    -2.923      1.799      2.921
REMARK INTER + INTRA:          -2.854
REMARK INTER:                  -3.199
REMARK INTRA:                   0.345
REMARK UNBOUND:                 0.325
REMARK SMILES C[C@@H]1[C@H](C)CC[C@]2(C(=O)[O-])CC[C@]3(C)C(=CC[C@@H]4[C@@]5(C)CC[C@H](O)C(C)(C)[C@H]5CC[C@@]43C)[C@H]12
REMARK SMILES IDX 7 1 6 2 11 3 33 4 5 5 12 6 15 7 2 8 3 9 13 10 16 11 1 12
REMARK SMILES IDX 4 13 14 14 31 15 17 16 18 17 30 18 32 19 19 20 29 21 28 22
REMARK SMILES IDX 21 23 20 24 25 25 22 26 23 27 26 28 27 29 8 30 9 31 10 32
REMARK SMILES IDX 24 33
REMARK H PARENT 24 34
REMARK Flexibility Score: inf
ROOT
ATOM      1  C   UNL     1      -2.308   0.559   9.891  1.00  0.00     0.017 C 
ATOM      2  C   UNL     1      -1.878   1.546  11.013  1.00  0.00     0.014 C 
ATOM      3  C   UNL     1      -3.038  -0.656  10.576  1.00  0.00     0.014 C 
ATOM      4  C   UNL     1      -1.060   0.178   8.975  1.00  0.00     0.030 C 
ATOM      5  C   UNL     1      -1.099   2.785  10.529  1.00  0.00     0.004 C 
ATOM      6  C   UNL     1      -2.780  -2.054   9.977  1.00  0.00     0.013 C 
ATOM      7  C   UNL     1      -0.803  -1.324   8.754  1.00  0.00    -0.063 C 
ATOM      8  C   UNL     1       0.232   1.039   9.154  1.00  0.00    -0.003 C 
ATOM      9  C   UNL     1      -0.166   2.530   9.323  1.00  0.00    -0.011 C 
ATOM     10  C   UNL     1      -1.280  -2.379   9.757  1.00  0.00    -0.006 C 
ATOM     11  C   UNL     1      -0.602  -1.685   7.478  1.00  0.00    -0.027 C 
ATOM     12  C   UNL     1       1.229   0.541  10.214  1.00  0.00     0.008 C 
ATOM     13  C   UNL     1       1.045   3.476   9.348  1.00  0.00     0.008 C 
ATOM     14  C   UNL     1      -0.549  -2.151  11.125  1.00  0.00     0.017 C 
ATOM     15  C   UNL     1      -1.002  -3.910   9.221  1.00  0.00    -0.020 C 
ATOM     16  C   UNL     1      -1.411  -2.797   6.913  1.00  0.00     0.032 C 
ATOM     17  C   UNL     1      -1.165  -4.131   7.643  1.00  0.00     0.006 C 
ATOM     18  C   UNL     1      -1.857  -4.948  10.008  1.00  0.00     0.008 C 
ATOM     19  C   UNL     1       0.488  -4.288   9.529  1.00  0.00     0.012 C 
ATOM     20  C   UNL     1      -2.136  -5.313   7.160  1.00  0.00    -0.025 C 
ATOM     21  C   UNL     1      -3.277  -5.230   9.487  1.00  0.00     0.005 C 
ATOM     22  C   UNL     1      -3.502  -5.250   7.938  1.00  0.00     0.003 C 
ATOM     23  C   UNL     1      -1.472  -6.726   7.351  1.00  0.00     0.010 C 
ATOM     24  C   UNL     1      -2.339  -5.148   5.620  1.00  0.00     0.012 C 
ATOM     25  C   UNL     1      -4.566  -6.370   7.497  1.00  0.00    -0.006 C 
ATOM     26  C   UNL     1      -2.438  -7.856   7.772  1.00  0.00     0.033 C 
ATOM     27  C   UNL     1      -3.860  -7.748   7.174  1.00  0.00     0.120 C 
ATOM     28  C   UNL     1      -5.645  -6.622   8.600  1.00  0.00     0.014 C 
ATOM     29  C   UNL     1      -5.411  -5.864   6.284  1.00  0.00     0.014 C 
ENDROOT
BRANCH   1  30
ATOM     30  C   UNL     1      -3.347   1.300   9.060  1.00  0.00     0.048 C 
ATOM     31  O   UNL     1      -4.500   1.526   9.526  1.00  0.00    -0.550 OA
ATOM     32  O   UNL     1      -4.615   1.555   9.559  1.00  0.00    -0.550 OA
ENDBRANCH   1  30
BRANCH  27  33
ATOM     33  O   UNL     1      -3.816  -8.006   5.791  1.00  0.00    -0.393 OA
ATOM     34  H   UNL     1      -2.983  -7.596   5.437  1.00  0.00     0.210 HD
ENDBRANCH  27  33
TORSDOF 2
ENDMDL
MODEL 6
REMARK VINA RESULT:    -2.892      6.619     12.971
REMARK INTER + INTRA:          -2.820
REMARK INTER:                  -3.359
REMARK INTRA:                   0.539
REMARK UNBOUND:                 0.325
REMARK SMILES C[C@@H]1[C@H](C)CC[C@]2(C(=O)[O-])CC[C@]3(C)C(=CC[C@@H]4[C@@]5(C)CC[C@H](O)C(C)(C)[C@H]5CC[C@@]43C)[C@H]12
REMARK SMILES IDX 7 1 6 2 11 3 33 4 5 5 12 6 15 7 2 8 3 9 13 10 16 11 1 12
REMARK SMILES IDX 4 13 14 14 31 15 17 16 18 17 30 18 32 19 19 20 29 21 28 22
REMARK SMILES IDX 21 23 20 24 25 25 22 26 23 27 26 28 27 29 8 30 9 31 10 32
REMARK SMILES IDX 24 33
REMARK H PARENT 24 34
REMARK Flexibility Score: inf
ROOT
ATOM      1  C   UNL     1       0.051   2.189   9.535  1.00  0.00     0.017 C 
ATOM      2  C   UNL     1      -0.283   0.810   8.898  1.00  0.00     0.014 C 
ATOM      3  C   UNL     1      -0.180   3.292   8.436  1.00  0.00     0.014 C 
ATOM      4  C   UNL     1       1.507   2.165  10.183  1.00  0.00     0.030 C 
ATOM      5  C   UNL     1      -0.066  -0.405   9.822  1.00  0.00     0.004 C 
ATOM      6  C   UNL     1       0.815   4.471   8.409  1.00  0.00     0.013 C 
ATOM      7  C   UNL     1       2.463   3.299   9.770  1.00  0.00    -0.063 C 
ATOM      8  C   UNL     1       2.187   0.766  10.335  1.00  0.00    -0.003 C 
ATOM      9  C   UNL     1       1.127  -0.271  10.795  1.00  0.00    -0.011 C 
ATOM     10  C   UNL     1       2.304   4.040   8.438  1.00  0.00    -0.006 C 
ATOM     11  C   UNL     1       3.090   3.913  10.783  1.00  0.00    -0.027 C 
ATOM     12  C   UNL     1       3.030   0.297   9.137  1.00  0.00     0.008 C 
ATOM     13  C   UNL     1       1.733  -1.645  11.124  1.00  0.00     0.008 C 
ATOM     14  C   UNL     1       2.519   3.027   7.261  1.00  0.00     0.017 C 
ATOM     15  C   UNL     1       3.362   5.293   8.299  1.00  0.00    -0.020 C 
ATOM     16  C   UNL     1       3.028   5.397  10.871  1.00  0.00     0.032 C 
ATOM     17  C   UNL     1       3.682   6.083   9.656  1.00  0.00     0.006 C 
ATOM     18  C   UNL     1       2.920   6.285   7.183  1.00  0.00     0.008 C 
ATOM     19  C   UNL     1       4.747   4.731   7.825  1.00  0.00     0.012 C 
ATOM     20  C   UNL     1       3.494   7.676   9.644  1.00  0.00    -0.025 C 
ATOM     21  C   UNL     1       1.945   7.406   7.582  1.00  0.00     0.005 C 
ATOM     22  C   UNL     1       2.113   8.058   8.995  1.00  0.00     0.003 C 
ATOM     23  C   UNL     1       4.665   8.394   8.879  1.00  0.00     0.010 C 
ATOM     24  C   UNL     1       3.594   8.167  11.124  1.00  0.00     0.012 C 
ATOM     25  C   UNL     1       1.807   9.635   8.974  1.00  0.00    -0.006 C 
ATOM     26  C   UNL     1       4.252   9.639   8.062  1.00  0.00     0.033 C 
ATOM     27  C   UNL     1       3.116  10.477   8.690  1.00  0.00     0.120 C 
ATOM     28  C   UNL     1       0.742  10.012   7.892  1.00  0.00     0.014 C 
ATOM     29  C   UNL     1       1.125  10.072  10.309  1.00  0.00     0.014 C 
ENDROOT
BRANCH   1  30
ATOM     30  C   UNL     1      -0.992   2.409  10.622  1.00  0.00     0.048 C 
ATOM     31  O   UNL     1      -2.186   2.031  10.454  1.00  0.00    -0.550 OA
ATOM     32  O   UNL     1      -2.305   1.999  10.450  1.00  0.00    -0.550 OA
ENDBRANCH   1  30
BRANCH  27  33
ATOM     33  O   UNL     1       3.585  11.124   9.848  1.00  0.00    -0.393 OA
ATOM     34  H   UNL     1       4.381  11.659   9.590  1.00  0.00     0.210 HD
ENDBRANCH  27  33
TORSDOF 2
ENDMDL
MODEL 7
REMARK VINA RESULT:    -2.646      1.855      7.735
REMARK INTER + INTRA:          -2.553
REMARK INTER:                  -4.543
REMARK INTRA:                   1.990
REMARK UNBOUND:                 0.325
REMARK SMILES C[C@@H]1[C@H](C)CC[C@]2(C(=O)[O-])CC[C@]3(C)C(=CC[C@@H]4[C@@]5(C)CC[C@H](O)C(C)(C)[C@H]5CC[C@@]43C)[C@H]12
REMARK SMILES IDX 7 1 6 2 11 3 33 4 5 5 12 6 15 7 2 8 3 9 13 10 16 11 1 12
REMARK SMILES IDX 4 13 14 14 31 15 17 16 18 17 30 18 32 19 19 20 29 21 28 22
REMARK SMILES IDX 21 23 20 24 25 25 22 26 23 27 26 28 27 29 8 30 9 31 10 32
REMARK SMILES IDX 24 33
REMARK H PARENT 24 34
REMARK Flexibility Score: inf
ROOT
ATOM      1  C   UNL     1      -7.212  -6.197   8.069  1.00  0.00     0.017 C 
ATOM      2  C   UNL     1      -8.011  -7.471   7.671  1.00  0.00     0.014 C 
ATOM      3  C   UNL     1      -5.882  -6.184   7.227  1.00  0.00     0.014 C 
ATOM      4  C   UNL     1      -7.022  -6.131   9.650  1.00  0.00     0.030 C 
ATOM      5  C   UNL     1      -9.333  -7.678   8.435  1.00  0.00     0.004 C 
ATOM      6  C   UNL     1      -4.609  -5.681   7.941  1.00  0.00     0.013 C 
ATOM      7  C   UNL     1      -5.585  -5.919  10.161  1.00  0.00    -0.063 C 
ATOM      8  C   UNL     1      -7.876  -7.124  10.504  1.00  0.00    -0.003 C 
ATOM      9  C   UNL     1      -9.307  -7.211   9.909  1.00  0.00    -0.011 C 
ATOM     10  C   UNL     1      -4.366  -6.329   9.328  1.00  0.00    -0.006 C 
ATOM     11  C   UNL     1      -5.446  -4.961  11.088  1.00  0.00    -0.027 C 
ATOM     12  C   UNL     1      -7.235  -8.495  10.777  1.00  0.00     0.008 C 
ATOM     13  C   UNL     1     -10.268  -8.042  10.773  1.00  0.00     0.008 C 
ATOM     14  C   UNL     1      -4.383  -7.883   9.126  1.00  0.00     0.017 C 
ATOM     15  C   UNL     1      -2.953  -5.872  10.037  1.00  0.00    -0.020 C 
ATOM     16  C   UNL     1      -4.421  -3.903  10.877  1.00  0.00     0.032 C 
ATOM     17  C   UNL     1      -2.992  -4.476  10.822  1.00  0.00     0.006 C 
ATOM     18  C   UNL     1      -1.776  -5.890   9.016  1.00  0.00     0.008 C 
ATOM     19  C   UNL     1      -2.569  -6.933  11.125  1.00  0.00     0.012 C 
ATOM     20  C   UNL     1      -1.881  -3.383  10.440  1.00  0.00    -0.025 C 
ATOM     21  C   UNL     1      -1.546  -4.616   8.184  1.00  0.00     0.005 C 
ATOM     22  C   UNL     1      -1.777  -3.232   8.877  1.00  0.00     0.003 C 
ATOM     23  C   UNL     1      -0.474  -3.750  11.040  1.00  0.00     0.010 C 
ATOM     24  C   UNL     1      -2.293  -2.041  11.125  1.00  0.00     0.012 C 
ATOM     25  C   UNL     1      -0.719  -2.127   8.389  1.00  0.00    -0.006 C 
ATOM     26  C   UNL     1       0.736  -3.397  10.145  1.00  0.00     0.033 C 
ATOM     27  C   UNL     1       0.568  -2.108   9.310  1.00  0.00     0.120 C 
ATOM     28  C   UNL     1      -0.258  -2.367   6.914  1.00  0.00     0.014 C 
ATOM     29  C   UNL     1      -1.396  -0.721   8.325  1.00  0.00     0.014 C 
ENDROOT
BRANCH   1  30
ATOM     30  C   UNL     1      -8.053  -5.017   7.603  1.00  0.00     0.048 C 
ATOM     31  O   UNL     1      -9.302  -5.002   7.792  1.00  0.00    -0.550 OA
ATOM     32  O   UNL     1      -9.424  -4.988   7.805  1.00  0.00    -0.550 OA
ENDBRANCH   1  30
BRANCH  27  33
ATOM     33  O   UNL     1       0.591  -0.985  10.157  1.00  0.00    -0.393 OA
ATOM     34  H   UNL     1       0.840  -1.300  11.065  1.00  0.00     0.210 HD
ENDBRANCH  27  33
TORSDOF 2
ENDMDL
MODEL 8
REMARK VINA RESULT:    -2.102      5.692      9.695
REMARK INTER + INTRA:          -1.960
REMARK INTER:                  -1.981
REMARK INTRA:                   0.021
REMARK UNBOUND:                 0.325
REMARK SMILES C[C@@H]1[C@H](C)CC[C@]2(C(=O)[O-])CC[C@]3(C)C(=CC[C@@H]4[C@@]5(C)CC[C@H](O)C(C)(C)[C@H]5CC[C@@]43C)[C@H]12
REMARK SMILES IDX 7 1 6 2 11 3 33 4 5 5 12 6 15 7 2 8 3 9 13 10 16 11 1 12
REMARK SMILES IDX 4 13 14 14 31 15 17 16 18 17 30 18 32 19 19 20 29 21 28 22
REMARK SMILES IDX 21 23 20 24 25 25 22 26 23 27 26 28 27 29 8 30 9 31 10 32
REMARK SMILES IDX 24 33
REMARK H PARENT 24 34
REMARK Flexibility Score: inf
ROOT
ATOM      1  C   UNL     1       1.730   6.166   8.036  1.00  0.00     0.017 C 
ATOM      2  C   UNL     1       1.783   7.632   8.552  1.00  0.00     0.014 C 
ATOM      3  C   UNL     1       0.769   5.359   8.987  1.00  0.00     0.014 C 
ATOM      4  C   UNL     1       3.203   5.573   7.890  1.00  0.00     0.030 C 
ATOM      5  C   UNL     1       2.722   8.567   7.765  1.00  0.00     0.004 C 
ATOM      6  C   UNL     1       1.170   3.905   9.315  1.00  0.00     0.013 C 
ATOM      7  C   UNL     1       3.470   4.218   8.571  1.00  0.00    -0.063 C 
ATOM      8  C   UNL     1       4.384   6.592   7.985  1.00  0.00    -0.003 C 
ATOM      9  C   UNL     1       4.003   7.890   7.224  1.00  0.00    -0.011 C 
ATOM     10  C   UNL     1       2.644   3.744   9.771  1.00  0.00    -0.006 C 
ATOM     11  C   UNL     1       4.083   3.306   7.804  1.00  0.00    -0.027 C 
ATOM     12  C   UNL     1       4.941   6.844   9.397  1.00  0.00     0.008 C 
ATOM     13  C   UNL     1       5.163   8.894   7.127  1.00  0.00     0.008 C 
ATOM     14  C   UNL     1       2.869   4.729  10.969  1.00  0.00     0.017 C 
ATOM     15  C   UNL     1       3.036   2.211  10.224  1.00  0.00    -0.020 C 
ATOM     16  C   UNL     1       3.479   1.952   7.680  1.00  0.00     0.032 C 
ATOM     17  C   UNL     1       3.416   1.213   9.030  1.00  0.00     0.006 C 
ATOM     18  C   UNL     1       1.930   1.587  11.125  1.00  0.00     0.008 C 
ATOM     19  C   UNL     1       4.318   2.266  11.125  1.00  0.00     0.012 C 
ATOM     20  C   UNL     1       2.630  -0.183   8.958  1.00  0.00    -0.025 C 
ATOM     21  C   UNL     1       0.765   0.872  10.417  1.00  0.00     0.005 C 
ATOM     22  C   UNL     1       1.083   0.051   9.123  1.00  0.00     0.003 C 
ATOM     23  C   UNL     1       3.140  -1.195  10.047  1.00  0.00     0.010 C 
ATOM     24  C   UNL     1       2.971  -0.839   7.581  1.00  0.00     0.012 C 
ATOM     25  C   UNL     1       0.197  -1.285   9.023  1.00  0.00    -0.006 C 
ATOM     26  C   UNL     1       2.051  -2.098  10.671  1.00  0.00     0.033 C 
ATOM     27  C   UNL     1       0.925  -2.517   9.698  1.00  0.00     0.120 C 
ATOM     28  C   UNL     1      -1.202  -1.114   9.700  1.00  0.00     0.014 C 
ATOM     29  C   UNL     1      -0.165  -1.583   7.533  1.00  0.00     0.014 C 
ENDROOT
BRANCH   1  30
ATOM     30  C   UNL     1       1.064   6.229   6.669  1.00  0.00     0.048 C 
ATOM     31  O   UNL     1       1.629   5.732   5.654  1.00  0.00    -0.550 OA
ATOM     32  O   UNL     1       1.673   5.688   5.548  1.00  0.00    -0.550 OA
ENDBRANCH   1  30
BRANCH  27  33
ATOM     33  O   UNL     1       1.430  -3.418   8.743  1.00  0.00    -0.393 OA
ATOM     34  H   UNL     1       1.920  -4.129   9.233  1.00  0.00     0.210 HD
ENDBRANCH  27  33
TORSDOF 2
ENDMDL
