MODEL 1
REMARK VINA RESULT:    -4.667      0.000      0.000
REMARK INTER + INTRA:          -5.711
REMARK INTER:                  -5.622
REMARK INTRA:                  -0.088
REMARK UNBOUND:                -0.088
REMARK SMILES NC(=O)C[C@H]([NH3+])C(=O)[O-]
REMARK SMILES IDX 4 1 5 2 6 3 7 7 8 8 9 9 2 10 3 11 1 12
REMARK H PARENT 6 4 6 5 6 6 1 13 1 14
REMARK Flexibility Score: inf
ROOT
ATOM      1  C   UNL     1     102.817  51.295  47.268  1.00  0.00     0.171 C 
ENDROOT
BRANCH   1   2
ATOM      2  C   UNL     1     101.340  51.515  47.649  1.00  0.00     0.237 C 
BRANCH   2   3
ATOM      3  N   UNL     1     100.465  51.455  46.471  1.00  0.00    -0.350 N 
ATOM      4  H   UNL     1     100.794  50.702  45.823  1.00  0.00     0.345 HD
ATOM      5  H   UNL     1     100.500  52.362  45.951  1.00  0.00     0.345 HD
ATOM      6  H   UNL     1      99.477  51.258  46.752  1.00  0.00     0.345 HD
ENDBRANCH   2   3
BRANCH   2   7
ATOM      7  C   UNL     1     101.188  52.844  48.338  1.00  0.00     0.100 C 
ATOM      8  O   UNL     1     101.639  53.891  47.801  1.00  0.00    -0.544 OA
ATOM      9  O   UNL     1     100.533  52.930  49.561  1.00  0.00    -0.544 OA
ENDBRANCH   2   7
ENDBRANCH   1   2
BRANCH   1  10
ATOM     10  C   UNL     1     103.286  49.917  47.634  1.00  0.00     0.223 C 
ATOM     11  O   UNL     1     104.439  49.535  47.299  1.00  0.00    -0.275 OA
ATOM     12  N   UNL     1     102.422  49.023  48.335  1.00  0.00    -0.369 N 
ATOM     13  H   UNL     1     102.744  48.060  48.579  1.00  0.00     0.159 HD
ATOM     14  H   UNL     1     101.459  49.321  48.611  1.00  0.00     0.159 HD
ENDBRANCH   1  10
TORSDOF 4
ENDMDL
MODEL 2
REMARK VINA RESULT:    -4.612      2.897      4.365
REMARK INTER + INTRA:          -5.644
REMARK INTER:                  -5.409
REMARK INTRA:                  -0.235
REMARK UNBOUND:                -0.088
REMARK SMILES NC(=O)C[C@H]([NH3+])C(=O)[O-]
REMARK SMILES IDX 4 1 5 2 6 3 7 7 8 8 9 9 2 10 3 11 1 12
REMARK H PARENT 6 4 6 5 6 6 1 13 1 14
REMARK Flexibility Score: inf
ROOT
ATOM      1  C   UNL     1     100.595  53.142  49.405  1.00  0.00     0.171 C 
ENDROOT
BRANCH   1   2
ATOM      2  C   UNL     1     101.816  53.347  48.487  1.00  0.00     0.237 C 
BRANCH   2   3
ATOM      3  N   UNL     1     101.820  54.689  47.890  1.00  0.00    -0.350 N 
ATOM      4  H   UNL     1     102.056  55.401  48.620  1.00  0.00     0.345 HD
ATOM      5  H   UNL     1     100.871  54.918  47.514  1.00  0.00     0.345 HD
ATOM      6  H   UNL     1     102.520  54.747  47.114  1.00  0.00     0.345 HD
ENDBRANCH   2   3
BRANCH   2   7
ATOM      7  C   UNL     1     101.817  52.300  47.405  1.00  0.00     0.100 C 
ATOM      8  O   UNL     1     100.853  52.224  46.597  1.00  0.00    -0.544 OA
ATOM      9  O   UNL     1     102.888  51.424  47.279  1.00  0.00    -0.544 OA
ENDBRANCH   2   7
ENDBRANCH   1   2
BRANCH   1  10
ATOM     10  C   UNL     1     100.709  53.945  50.669  1.00  0.00     0.223 C 
ATOM     11  O   UNL     1     101.506  54.918  50.725  1.00  0.00    -0.275 OA
ATOM     12  N   UNL     1      99.940  53.593  51.819  1.00  0.00    -0.369 N 
ATOM     13  H   UNL     1     100.029  54.144  52.701  1.00  0.00     0.159 HD
ATOM     14  H   UNL     1      99.282  52.782  51.791  1.00  0.00     0.159 HD
ENDBRANCH   1  10
TORSDOF 4
ENDMDL
MODEL 3
REMARK VINA RESULT:    -4.592      5.567      6.317
REMARK INTER + INTRA:          -5.620
REMARK INTER:                  -5.405
REMARK INTRA:                  -0.215
REMARK UNBOUND:                -0.088
REMARK SMILES NC(=O)C[C@H]([NH3+])C(=O)[O-]
REMARK SMILES IDX 4 1 5 2 6 3 7 7 8 8 9 9 2 10 3 11 1 12
REMARK H PARENT 6 4 6 5 6 6 1 13 1 14
REMARK Flexibility Score: inf
ROOT
ATOM      1  C   UNL     1      99.439  51.786  52.365  1.00  0.00     0.171 C 
ENDROOT
BRANCH   1   2
ATOM      2  C   UNL     1      99.564  53.148  53.076  1.00  0.00     0.237 C 
BRANCH   2   3
ATOM      3  N   UNL     1      98.257  53.806  53.208  1.00  0.00    -0.350 N 
ATOM      4  H   UNL     1      97.702  53.343  53.964  1.00  0.00     0.345 HD
ATOM      5  H   UNL     1      97.719  53.719  52.316  1.00  0.00     0.345 HD
ATOM      6  H   UNL     1      98.375  54.820  53.440  1.00  0.00     0.345 HD
ENDBRANCH   2   3
BRANCH   2   7
ATOM      7  C   UNL     1     100.512  54.032  52.311  1.00  0.00     0.100 C 
ATOM      8  O   UNL     1     101.269  54.830  52.926  1.00  0.00    -0.544 OA
ATOM      9  O   UNL     1     100.573  53.961  50.925  1.00  0.00    -0.544 OA
ENDBRANCH   2   7
ENDBRANCH   1   2
BRANCH   1  10
ATOM     10  C   UNL     1      98.536  50.849  53.115  1.00  0.00     0.223 C 
ATOM     11  O   UNL     1      97.334  51.166  53.322  1.00  0.00    -0.275 OA
ATOM     12  N   UNL     1      99.039  49.613  53.622  1.00  0.00    -0.369 N 
ATOM     13  H   UNL     1      98.414  48.968  54.154  1.00  0.00     0.159 HD
ATOM     14  H   UNL     1     100.036  49.341  53.468  1.00  0.00     0.159 HD
ENDBRANCH   1  10
TORSDOF 4
ENDMDL
MODEL 4
REMARK VINA RESULT:    -4.469      2.448      3.486
REMARK INTER + INTRA:          -5.471
REMARK INTER:                  -5.240
REMARK INTRA:                  -0.231
REMARK UNBOUND:                -0.088
REMARK SMILES NC(=O)C[C@H]([NH3+])C(=O)[O-]
REMARK SMILES IDX 4 1 5 2 6 3 7 7 8 8 9 9 2 10 3 11 1 12
REMARK H PARENT 6 4 6 5 6 6 1 13 1 14
REMARK Flexibility Score: inf
ROOT
ATOM      1  C   UNL     1     101.276  52.593  48.724  1.00  0.00     0.171 C 
ENDROOT
BRANCH   1   2
ATOM      2  C   UNL     1     101.204  54.075  49.140  1.00  0.00     0.237 C 
BRANCH   2   3
ATOM      3  N   UNL     1     102.442  54.790  48.803  1.00  0.00    -0.350 N 
ATOM      4  H   UNL     1     102.727  54.561  47.822  1.00  0.00     0.345 HD
ATOM      5  H   UNL     1     103.216  54.489  49.439  1.00  0.00     0.345 HD
ATOM      6  H   UNL     1     102.309  55.824  48.889  1.00  0.00     0.345 HD
ENDBRANCH   2   3
BRANCH   2   7
ATOM      7  C   UNL     1     100.939  54.172  50.619  1.00  0.00     0.100 C 
ATOM      8  O   UNL     1     100.129  53.381  51.171  1.00  0.00    -0.544 OA
ATOM      9  O   UNL     1     101.599  55.123  51.388  1.00  0.00    -0.544 OA
ENDBRANCH   2   7
ENDBRANCH   1   2
BRANCH   1  10
ATOM     10  C   UNL     1     101.250  52.434  47.231  1.00  0.00     0.223 C 
ATOM     11  O   UNL     1     101.931  53.206  46.505  1.00  0.00    -0.275 OA
ATOM     12  N   UNL     1     100.433  51.432  46.626  1.00  0.00    -0.369 N 
ATOM     13  H   UNL     1     100.405  51.330  45.588  1.00  0.00     0.159 HD
ATOM     14  H   UNL     1      99.854  50.792  47.215  1.00  0.00     0.159 HD
ENDBRANCH   1  10
TORSDOF 4
ENDMDL
MODEL 5
REMARK VINA RESULT:    -4.292      4.964      5.917
REMARK INTER + INTRA:          -5.258
REMARK INTER:                  -5.152
REMARK INTRA:                  -0.106
REMARK UNBOUND:                -0.088
REMARK SMILES NC(=O)C[C@H]([NH3+])C(=O)[O-]
REMARK SMILES IDX 4 1 5 2 6 3 7 7 8 8 9 9 2 10 3 11 1 12
REMARK H PARENT 6 4 6 5 6 6 1 13 1 14
REMARK Flexibility Score: inf
ROOT
ATOM      1  C   UNL     1     100.044  52.868  53.055  1.00  0.00     0.171 C 
ENDROOT
BRANCH   1   2
ATOM      2  C   UNL     1     100.003  53.693  51.754  1.00  0.00     0.237 C 
BRANCH   2   3
ATOM      3  N   UNL     1     100.006  52.826  50.568  1.00  0.00    -0.350 N 
ATOM      4  H   UNL     1     100.901  52.950  50.040  1.00  0.00     0.345 HD
ATOM      5  H   UNL     1      99.220  53.088  49.929  1.00  0.00     0.345 HD
ATOM      6  H   UNL     1      99.906  51.821  50.842  1.00  0.00     0.345 HD
ENDBRANCH   2   3
BRANCH   2   7
ATOM      7  C   UNL     1     101.179  54.631  51.711  1.00  0.00     0.100 C 
ATOM      8  O   UNL     1     101.760  54.967  52.778  1.00  0.00    -0.544 OA
ATOM      9  O   UNL     1     101.644  55.118  50.496  1.00  0.00    -0.544 OA
ENDBRANCH   2   7
ENDBRANCH   1   2
BRANCH   1  10
ATOM     10  C   UNL     1      98.840  51.982  53.190  1.00  0.00     0.223 C 
ATOM     11  O   UNL     1      98.985  50.735  53.298  1.00  0.00    -0.275 OA
ATOM     12  N   UNL     1      97.527  52.541  53.165  1.00  0.00    -0.369 N 
ATOM     13  H   UNL     1      96.689  51.924  53.247  1.00  0.00     0.159 HD
ATOM     14  H   UNL     1      97.389  53.572  53.065  1.00  0.00     0.159 HD
ENDBRANCH   1  10
TORSDOF 4
ENDMDL
MODEL 6
REMARK VINA RESULT:    -4.182      1.940      3.932
REMARK INTER + INTRA:          -5.126
REMARK INTER:                  -4.986
REMARK INTRA:                  -0.140
REMARK UNBOUND:                -0.088
REMARK SMILES NC(=O)C[C@H]([NH3+])C(=O)[O-]
REMARK SMILES IDX 4 1 5 2 6 3 7 7 8 8 9 9 2 10 3 11 1 12
REMARK H PARENT 6 4 6 5 6 6 1 13 1 14
REMARK Flexibility Score: inf
ROOT
ATOM      1  C   UNL     1     100.904  52.621  48.637  1.00  0.00     0.171 C 
ENDROOT
BRANCH   1   2
ATOM      2  C   UNL     1     101.345  52.244  47.209  1.00  0.00     0.237 C 
BRANCH   2   3
ATOM      3  N   UNL     1     100.220  51.732  46.416  1.00  0.00    -0.350 N 
ATOM      4  H   UNL     1      99.990  50.756  46.715  1.00  0.00     0.345 HD
ATOM      5  H   UNL     1     100.477  51.704  45.403  1.00  0.00     0.345 HD
ATOM      6  H   UNL     1      99.374  52.336  46.539  1.00  0.00     0.345 HD
ENDBRANCH   2   3
BRANCH   2   7
ATOM      7  C   UNL     1     102.442  51.215  47.272  1.00  0.00     0.100 C 
ATOM      8  O   UNL     1     103.592  51.539  47.674  1.00  0.00    -0.544 OA
ATOM      9  O   UNL     1     102.190  49.898  46.907  1.00  0.00    -0.544 OA
ENDBRANCH   2   7
ENDBRANCH   1   2
BRANCH   1  10
ATOM     10  C   UNL     1     101.432  53.966  49.044  1.00  0.00     0.223 C 
ATOM     11  O   UNL     1     101.320  54.349  50.239  1.00  0.00    -0.275 OA
ATOM     12  N   UNL     1     102.033  54.828  48.078  1.00  0.00    -0.369 N 
ATOM     13  H   UNL     1     102.389  55.769  48.359  1.00  0.00     0.159 HD
ATOM     14  H   UNL     1     102.123  54.529  47.081  1.00  0.00     0.159 HD
ENDBRANCH   1  10
TORSDOF 4
ENDMDL
MODEL 7
REMARK VINA RESULT:    -4.176      4.025      5.553
REMARK INTER + INTRA:          -5.118
REMARK INTER:                  -4.858
REMARK INTRA:                  -0.260
REMARK UNBOUND:                -0.088
REMARK SMILES NC(=O)C[C@H]([NH3+])C(=O)[O-]
REMARK SMILES IDX 4 1 5 2 6 3 7 7 8 8 9 9 2 10 3 11 1 12
REMARK H PARENT 6 4 6 5 6 6 1 13 1 14
REMARK Flexibility Score: inf
ROOT
ATOM      1  C   UNL     1     100.861  54.187  52.174  1.00  0.00     0.171 C 
ENDROOT
BRANCH   1   2
ATOM      2  C   UNL     1     100.455  54.143  50.687  1.00  0.00     0.237 C 
BRANCH   2   3
ATOM      3  N   UNL     1      99.955  52.815  50.306  1.00  0.00    -0.350 N 
ATOM      4  H   UNL     1      99.273  52.906  49.518  1.00  0.00     0.345 HD
ATOM      5  H   UNL     1      99.456  52.374  51.112  1.00  0.00     0.345 HD
ATOM      6  H   UNL     1     100.743  52.194  50.008  1.00  0.00     0.345 HD
ENDBRANCH   2   3
BRANCH   2   7
ATOM      7  C   UNL     1     101.633  54.518  49.829  1.00  0.00     0.100 C 
ATOM      8  O   UNL     1     102.616  55.124  50.333  1.00  0.00    -0.544 OA
ATOM      9  O   UNL     1     101.653  54.182  48.481  1.00  0.00    -0.544 OA
ENDBRANCH   2   7
ENDBRANCH   1   2
BRANCH   1  10
ATOM     10  C   UNL     1      99.821  53.555  53.053  1.00  0.00     0.223 C 
ATOM     11  O   UNL     1      98.633  53.974  53.021  1.00  0.00    -0.275 OA
ATOM     12  N   UNL     1     100.175  52.502  53.949  1.00  0.00    -0.369 N 
ATOM     13  H   UNL     1      99.454  52.072  54.569  1.00  0.00     0.159 HD
ATOM     14  H   UNL     1     101.158  52.151  53.994  1.00  0.00     0.159 HD
ENDBRANCH   1  10
TORSDOF 4
ENDMDL
MODEL 8
REMARK VINA RESULT:    -3.806      5.634      6.624
REMARK INTER + INTRA:          -4.673
REMARK INTER:                  -4.570
REMARK INTRA:                  -0.103
REMARK UNBOUND:                -0.088
REMARK SMILES NC(=O)C[C@H]([NH3+])C(=O)[O-]
REMARK SMILES IDX 4 1 5 2 6 3 7 7 8 8 9 9 2 10 3 11 1 12
REMARK H PARENT 6 4 6 5 6 6 1 13 1 14
REMARK Flexibility Score: inf
ROOT
ATOM      1  C   UNL     1     100.031  53.221  53.173  1.00  0.00     0.171 C 
ENDROOT
BRANCH   1   2
ATOM      2  C   UNL     1      98.628  52.777  52.714  1.00  0.00     0.237 C 
BRANCH   2   3
ATOM      3  N   UNL     1      97.583  53.656  53.255  1.00  0.00    -0.350 N 
ATOM      4  H   UNL     1      97.486  53.499  54.285  1.00  0.00     0.345 HD
ATOM      5  H   UNL     1      96.662  53.436  52.809  1.00  0.00     0.345 HD
ATOM      6  H   UNL     1      97.817  54.661  53.081  1.00  0.00     0.345 HD
ENDBRANCH   2   3
BRANCH   2   7
ATOM      7  C   UNL     1      98.381  51.356  53.142  1.00  0.00     0.100 C 
ATOM      8  O   UNL     1      99.348  50.613  53.460  1.00  0.00    -0.544 OA
ATOM      9  O   UNL     1      97.085  50.859  53.209  1.00  0.00    -0.544 OA
ENDBRANCH   2   7
ENDBRANCH   1   2
BRANCH   1  10
ATOM     10  C   UNL     1     100.701  54.092  52.150  1.00  0.00     0.223 C 
ATOM     11  O   UNL     1     101.525  54.972  52.517  1.00  0.00    -0.275 OA
ATOM     12  N   UNL     1     100.387  53.951  50.765  1.00  0.00    -0.369 N 
ATOM     13  H   UNL     1     100.844  54.565  50.055  1.00  0.00     0.159 HD
ATOM     14  H   UNL     1      99.698  53.233  50.446  1.00  0.00     0.159 HD
ENDBRANCH   1  10
TORSDOF 4
ENDMDL
MODEL 9
REMARK VINA RESULT:    -3.412      3.978      5.376
REMARK INTER + INTRA:          -4.198
REMARK INTER:                  -4.024
REMARK INTRA:                  -0.174
REMARK UNBOUND:                -0.088
REMARK SMILES NC(=O)C[C@H]([NH3+])C(=O)[O-]
REMARK SMILES IDX 4 1 5 2 6 3 7 7 8 8 9 9 2 10 3 11 1 12
REMARK H PARENT 6 4 6 5 6 6 1 13 1 14
REMARK Flexibility Score: inf
ROOT
ATOM      1  C   UNL     1     100.550  53.287  50.654  1.00  0.00     0.171 C 
ENDROOT
BRANCH   1   2
ATOM      2  C   UNL     1     100.356  54.276  51.820  1.00  0.00     0.237 C 
BRANCH   2   3
ATOM      3  N   UNL     1     101.645  54.732  52.357  1.00  0.00    -0.350 N 
ATOM      4  H   UNL     1     101.912  55.642  51.916  1.00  0.00     0.345 HD
ATOM      5  H   UNL     1     102.394  54.036  52.134  1.00  0.00     0.345 HD
ATOM      6  H   UNL     1     101.591  54.856  53.395  1.00  0.00     0.345 HD
ENDBRANCH   2   3
BRANCH   2   7
ATOM      7  C   UNL     1      99.545  53.624  52.907  1.00  0.00     0.100 C 
ATOM      8  O   UNL     1     100.066  52.749  53.648  1.00  0.00    -0.544 OA
ATOM      9  O   UNL     1      98.222  53.996  53.112  1.00  0.00    -0.544 OA
ENDBRANCH   2   7
ENDBRANCH   1   2
BRANCH   1  10
ATOM     10  C   UNL     1     101.283  53.919  49.505  1.00  0.00     0.223 C 
ATOM     11  O   UNL     1     101.737  55.088  49.617  1.00  0.00    -0.275 OA
ATOM     12  N   UNL     1     101.441  53.213  48.275  1.00  0.00    -0.369 N 
ATOM     13  H   UNL     1     101.940  53.657  47.473  1.00  0.00     0.159 HD
ATOM     14  H   UNL     1     101.061  52.246  48.163  1.00  0.00     0.159 HD
ENDBRANCH   1  10
TORSDOF 4
ENDMDL
