MODEL 1
REMARK VINA RESULT:     9.441      0.000      0.000
REMARK INTER + INTRA:           9.825
REMARK INTER:                   9.993
REMARK INTRA:                  -0.167
REMARK UNBOUND:                -0.167
REMARK SMILES C=C(C)[C@H]1CC=C(C)CC1
REMARK SMILES IDX 8 1 7 2 6 3 5 4 4 5 10 6 9 7 2 8 1 9 3 10
REMARK H PARENT
REMARK Flexibility Score: inf
ROOT
ATOM      1  C   UNL     1      11.635   7.803  12.834  1.00  0.00     0.039 C 
ATOM      2  C   UNL     1      10.257   8.325  13.131  1.00  0.00    -0.077 C 
ATOM      3  C   UNL     1      10.084   9.606  13.498  1.00  0.00    -0.027 C 
ATOM      4  C   UNL     1       8.694  10.122  13.744  1.00  0.00     0.035 C 
ATOM      5  C   UNL     1       7.744   9.674  12.608  1.00  0.00     0.018 C 
ATOM      6  C   UNL     1       7.942   8.182  12.180  1.00  0.00     0.013 C 
ATOM      7  C   UNL     1       9.035   7.448  12.978  1.00  0.00     0.031 C 
ENDROOT
BRANCH   5   8
ATOM      8  C   UNL     1       6.296   9.962  12.984  1.00  0.00    -0.077 C 
ATOM      9  C   UNL     1       5.947  10.125  14.269  1.00  0.00     0.008 C 
ATOM     10  C   UNL     1       5.227  10.043  11.924  1.00  0.00     0.039 C 
ENDBRANCH   5   8
TORSDOF 1
ENDMDL
MODEL 2
REMARK VINA RESULT:     9.485      0.947      4.512
REMARK INTER + INTRA:           9.872
REMARK INTER:                  10.035
REMARK INTRA:                  -0.163
REMARK UNBOUND:                -0.167
REMARK SMILES C=C(C)[C@H]1CC=C(C)CC1
REMARK SMILES IDX 8 1 7 2 6 3 5 4 4 5 10 6 9 7 2 8 1 9 3 10
REMARK H PARENT
REMARK Flexibility Score: inf
ROOT
ATOM      1  C   UNL     1       4.866  10.029  12.045  1.00  0.00     0.039 C 
ATOM      2  C   UNL     1       6.144   9.411  12.542  1.00  0.00    -0.077 C 
ATOM      3  C   UNL     1       6.583   8.254  12.020  1.00  0.00    -0.027 C 
ATOM      4  C   UNL     1       7.887   7.676  12.495  1.00  0.00     0.035 C 
ATOM      5  C   UNL     1       8.973   8.777  12.554  1.00  0.00     0.018 C 
ATOM      6  C   UNL     1       8.465  10.125  13.163  1.00  0.00     0.013 C 
ATOM      7  C   UNL     1       6.987  10.092  13.595  1.00  0.00     0.031 C 
ENDROOT
BRANCH   5   8
ATOM      8  C   UNL     1      10.208   8.263  13.282  1.00  0.00    -0.077 C 
ATOM      9  C   UNL     1      10.639   7.007  13.086  1.00  0.00     0.008 C 
ATOM     10  C   UNL     1      10.953   9.144  14.253  1.00  0.00     0.039 C 
ENDBRANCH   5   8
TORSDOF 1
ENDMDL
MODEL 3
REMARK VINA RESULT:    10.499      0.876      2.045
REMARK INTER + INTRA:          10.946
REMARK INTER:                  11.118
REMARK INTRA:                  -0.172
REMARK UNBOUND:                -0.167
REMARK SMILES C=C(C)[C@H]1CC=C(C)CC1
REMARK SMILES IDX 8 1 7 2 6 3 5 4 4 5 10 6 9 7 2 8 1 9 3 10
REMARK H PARENT
REMARK Flexibility Score: inf
ROOT
ATOM      1  C   UNL     1      11.063   7.900  13.455  1.00  0.00     0.039 C 
ATOM      2  C   UNL     1       9.718   8.392  12.997  1.00  0.00    -0.077 C 
ATOM      3  C   UNL     1       8.777   7.517  12.604  1.00  0.00    -0.027 C 
ATOM      4  C   UNL     1       7.423   8.024  12.195  1.00  0.00     0.035 C 
ATOM      5  C   UNL     1       6.907   9.066  13.217  1.00  0.00     0.018 C 
ATOM      6  C   UNL     1       8.000  10.087  13.675  1.00  0.00     0.013 C 
ATOM      7  C   UNL     1       9.373   9.863  13.014  1.00  0.00     0.031 C 
ENDROOT
BRANCH   5   8
ATOM      8  C   UNL     1       5.672   9.773  12.674  1.00  0.00    -0.077 C 
ATOM      9  C   UNL     1       5.600  10.119  11.379  1.00  0.00     0.008 C 
ATOM     10  C   UNL     1       4.521  10.121  13.584  1.00  0.00     0.039 C 
ENDBRANCH   5   8
TORSDOF 1
ENDMDL
MODEL 4
REMARK VINA RESULT:    11.681      1.362      2.524
REMARK INTER + INTRA:          12.197
REMARK INTER:                  12.356
REMARK INTRA:                  -0.159
REMARK UNBOUND:                -0.167
REMARK SMILES C=C(C)[C@H]1CC=C(C)CC1
REMARK SMILES IDX 8 1 7 2 6 3 5 4 4 5 10 6 9 7 2 8 1 9 3 10
REMARK H PARENT
REMARK Flexibility Score: inf
ROOT
ATOM      1  C   UNL     1      11.076   9.695  14.161  1.00  0.00     0.039 C 
ATOM      2  C   UNL     1       9.923   9.194  13.338  1.00  0.00    -0.077 C 
ATOM      3  C   UNL     1       9.830   7.891  13.025  1.00  0.00    -0.027 C 
ATOM      4  C   UNL     1       8.645   7.401  12.242  1.00  0.00     0.035 C 
ATOM      5  C   UNL     1       7.336   7.990  12.822  1.00  0.00     0.018 C 
ATOM      6  C   UNL     1       7.440   9.508  13.184  1.00  0.00     0.013 C 
ATOM      7  C   UNL     1       8.820  10.123  12.885  1.00  0.00     0.031 C 
ENDROOT
BRANCH   5   8
ATOM      8  C   UNL     1       6.171   7.716  11.880  1.00  0.00    -0.077 C 
ATOM      9  C   UNL     1       5.377   8.719  11.472  1.00  0.00     0.008 C 
ATOM     10  C   UNL     1       5.870   6.315  11.413  1.00  0.00     0.039 C 
ENDBRANCH   5   8
TORSDOF 1
ENDMDL
MODEL 5
REMARK VINA RESULT:    11.876      1.709      4.307
REMARK INTER + INTRA:          12.403
REMARK INTER:                  12.566
REMARK INTRA:                  -0.163
REMARK UNBOUND:                -0.167
REMARK SMILES C=C(C)[C@H]1CC=C(C)CC1
REMARK SMILES IDX 8 1 7 2 6 3 5 4 4 5 10 6 9 7 2 8 1 9 3 10
REMARK H PARENT
REMARK Flexibility Score: inf
ROOT
ATOM      1  C   UNL     1       4.919   6.501  11.128  1.00  0.00     0.039 C 
ATOM      2  C   UNL     1       6.143   6.950  11.876  1.00  0.00    -0.077 C 
ATOM      3  C   UNL     1       7.258   6.201  11.860  1.00  0.00    -0.027 C 
ATOM      4  C   UNL     1       8.487   6.689  12.575  1.00  0.00     0.035 C 
ATOM      5  C   UNL     1       8.742   8.181  12.248  1.00  0.00     0.018 C 
ATOM      6  C   UNL     1       7.446   9.055  12.268  1.00  0.00     0.013 C 
ATOM      7  C   UNL     1       6.171   8.267  12.618  1.00  0.00     0.031 C 
ENDROOT
BRANCH   5   8
ATOM      8  C   UNL     1       9.815   8.747  13.167  1.00  0.00    -0.077 C 
ATOM      9  C   UNL     1      10.898   8.018  13.479  1.00  0.00     0.008 C 
ATOM     10  C   UNL     1       9.670  10.124  13.764  1.00  0.00     0.039 C 
ENDBRANCH   5   8
TORSDOF 1
ENDMDL
MODEL 6
REMARK VINA RESULT:    12.282      1.289      2.295
REMARK INTER + INTRA:          12.832
REMARK INTER:                  12.991
REMARK INTRA:                  -0.158
REMARK UNBOUND:                -0.167
REMARK SMILES C=C(C)[C@H]1CC=C(C)CC1
REMARK SMILES IDX 8 1 7 2 6 3 5 4 4 5 10 6 9 7 2 8 1 9 3 10
REMARK H PARENT
REMARK Flexibility Score: inf
ROOT
ATOM      1  C   UNL     1      11.356  10.125  13.698  1.00  0.00     0.039 C 
ATOM      2  C   UNL     1      10.045   9.418  13.496  1.00  0.00    -0.077 C 
ATOM      3  C   UNL     1       8.927  10.122  13.255  1.00  0.00    -0.027 C 
ATOM      4  C   UNL     1       7.635   9.395  13.008  1.00  0.00     0.035 C 
ATOM      5  C   UNL     1       7.855   8.229  12.015  1.00  0.00     0.018 C 
ATOM      6  C   UNL     1       9.155   7.406  12.295  1.00  0.00     0.013 C 
ATOM      7  C   UNL     1       9.957   7.909  13.509  1.00  0.00     0.031 C 
ENDROOT
BRANCH   5   8
ATOM      8  C   UNL     1       6.623   7.334  11.968  1.00  0.00    -0.077 C 
ATOM      9  C   UNL     1       6.752   5.999  12.000  1.00  0.00     0.008 C 
ATOM     10  C   UNL     1       5.242   7.930  11.859  1.00  0.00     0.039 C 
ENDBRANCH   5   8
TORSDOF 1
ENDMDL
