MODEL 1
REMARK VINA RESULT:    -3.324      0.000      0.000
REMARK INTER + INTRA:          -3.324
REMARK INTER:                  -3.324
REMARK INTRA:                   0.000
REMARK UNBOUND:                 0.000
REMARK SMILES CC1(C)O[C@]2(C)CC[C@H]1CC2
REMARK SMILES IDX 1 1 2 2 9 3 10 4 11 5 5 6 4 7 7 8 8 9 6 10 3 11
REMARK H PARENT
REMARK Flexibility Score: inf
ROOT
ATOM      1  C   UNL     1     138.010 143.248 141.292  1.00  0.00     0.042 C 
ATOM      2  C   UNL     1     138.787 143.695 142.550  1.00  0.00     0.066 C 
ATOM      3  C   UNL     1     139.144 145.229 142.468  1.00  0.00     0.021 C 
ATOM      4  C   UNL     1     139.964 145.609 143.724  1.00  0.00     0.009 C 
ATOM      5  C   UNL     1     141.147 144.623 143.876  1.00  0.00     0.035 C 
ATOM      6  C   UNL     1     141.172 143.640 142.671  1.00  0.00     0.066 C 
ATOM      7  O   UNL     1     139.963 142.880 142.660  1.00  0.00    -0.369 OA
ATOM      8  C   UNL     1     141.272 144.459 141.352  1.00  0.00     0.035 C 
ATOM      9  C   UNL     1     140.085 145.450 141.260  1.00  0.00     0.009 C 
ATOM     10  C   UNL     1     142.359 142.678 142.791  1.00  0.00     0.042 C 
ATOM     11  C   UNL     1     137.887 143.408 143.771  1.00  0.00     0.042 C 
ENDROOT
TORSDOF 0
ENDMDL
MODEL 2
REMARK VINA RESULT:    -3.320      3.738      5.268
REMARK INTER + INTRA:          -3.320
REMARK INTER:                  -3.320
REMARK INTRA:                   0.000
REMARK UNBOUND:                 0.000
REMARK SMILES CC1(C)O[C@]2(C)CC[C@H]1CC2
REMARK SMILES IDX 1 1 2 2 9 3 10 4 11 5 5 6 4 7 7 8 8 9 6 10 3 11
REMARK H PARENT
REMARK Flexibility Score: inf
ROOT
ATOM      1  C   UNL     1     143.214 143.624 141.342  1.00  0.00     0.042 C 
ATOM      2  C   UNL     1     143.629 142.867 142.622  1.00  0.00     0.066 C 
ATOM      3  C   UNL     1     145.153 142.463 142.562  1.00  0.00     0.021 C 
ATOM      4  C   UNL     1     145.499 141.666 143.842  1.00  0.00     0.009 C 
ATOM      5  C   UNL     1     144.478 140.516 144.016  1.00  0.00     0.035 C 
ATOM      6  C   UNL     1     143.503 140.488 142.804  1.00  0.00     0.066 C 
ATOM      7  O   UNL     1     142.779 141.719 142.756  1.00  0.00    -0.369 OA
ATOM      8  C   UNL     1     144.329 140.331 141.494  1.00  0.00     0.035 C 
ATOM      9  C   UNL     1     145.354 141.486 141.380  1.00  0.00     0.009 C 
ATOM     10  C   UNL     1     142.506 139.333 142.946  1.00  0.00     0.042 C 
ATOM     11  C   UNL     1     143.360 143.806 143.818  1.00  0.00     0.042 C 
ENDROOT
TORSDOF 0
ENDMDL
MODEL 3
REMARK VINA RESULT:    -3.304      3.782      5.301
REMARK INTER + INTRA:          -3.304
REMARK INTER:                  -3.304
REMARK INTRA:                   0.000
REMARK UNBOUND:                 0.000
REMARK SMILES CC1(C)O[C@]2(C)CC[C@H]1CC2
REMARK SMILES IDX 1 1 2 2 9 3 10 4 11 5 5 6 4 7 7 8 8 9 6 10 3 11
REMARK H PARENT
REMARK Flexibility Score: inf
ROOT
ATOM      1  C   UNL     1     138.399 137.982 141.347  1.00  0.00     0.042 C 
ATOM      2  C   UNL     1     137.946 138.772 142.594  1.00  0.00     0.066 C 
ATOM      3  C   UNL     1     136.426 139.175 142.477  1.00  0.00     0.021 C 
ATOM      4  C   UNL     1     136.041 140.006 143.724  1.00  0.00     0.009 C 
ATOM      5  C   UNL     1     137.058 141.159 143.900  1.00  0.00     0.035 C 
ATOM      6  C   UNL     1     138.070 141.154 142.718  1.00  0.00     0.066 C 
ATOM      7  O   UNL     1     138.793 139.923 142.724  1.00  0.00    -0.369 OA
ATOM      8  C   UNL     1     137.285 141.278 141.380  1.00  0.00     0.035 C 
ATOM      9  C   UNL     1     136.262 140.121 141.264  1.00  0.00     0.009 C 
ATOM     10  C   UNL     1     139.063 142.312 142.861  1.00  0.00     0.042 C 
ATOM     11  C   UNL     1     138.177 137.865 143.822  1.00  0.00     0.042 C 
ENDROOT
TORSDOF 0
ENDMDL
MODEL 4
REMARK VINA RESULT:    -3.299      5.455      7.462
REMARK INTER + INTRA:          -3.299
REMARK INTER:                  -3.299
REMARK INTRA:                   0.000
REMARK UNBOUND:                 0.000
REMARK SMILES CC1(C)O[C@]2(C)CC[C@H]1CC2
REMARK SMILES IDX 1 1 2 2 9 3 10 4 11 5 5 6 4 7 7 8 8 9 6 10 3 11
REMARK H PARENT
REMARK Flexibility Score: inf
ROOT
ATOM      1  C   UNL     1     143.625 138.409 141.361  1.00  0.00     0.042 C 
ATOM      2  C   UNL     1     142.888 138.010 142.658  1.00  0.00     0.066 C 
ATOM      3  C   UNL     1     142.489 136.484 142.625  1.00  0.00     0.021 C 
ATOM      4  C   UNL     1     141.711 136.152 143.921  1.00  0.00     0.009 C 
ATOM      5  C   UNL     1     140.560 137.172 144.096  1.00  0.00     0.035 C 
ATOM      6  C   UNL     1     140.511 138.129 142.870  1.00  0.00     0.066 C 
ATOM      7  O   UNL     1     141.738 138.857 142.795  1.00  0.00    -0.369 OA
ATOM      8  C   UNL     1     140.339 137.284 141.576  1.00  0.00     0.035 C 
ATOM      9  C   UNL     1     141.496 136.261 141.460  1.00  0.00     0.009 C 
ATOM     10  C   UNL     1     139.354 139.123 143.015  1.00  0.00     0.042 C 
ATOM     11  C   UNL     1     143.842 138.300 143.836  1.00  0.00     0.042 C 
ENDROOT
TORSDOF 0
ENDMDL
MODEL 5
REMARK VINA RESULT:    -3.220      3.499      5.368
REMARK INTER + INTRA:          -3.220
REMARK INTER:                  -3.220
REMARK INTRA:                   0.000
REMARK UNBOUND:                 0.000
REMARK SMILES CC1(C)O[C@]2(C)CC[C@H]1CC2
REMARK SMILES IDX 1 1 2 2 9 3 10 4 11 5 5 6 4 7 7 8 8 9 6 10 3 11
REMARK H PARENT
REMARK Flexibility Score: inf
ROOT
ATOM      1  C   UNL     1     135.233 139.766 141.272  1.00  0.00     0.042 C 
ATOM      2  C   UNL     1     136.731 139.867 141.633  1.00  0.00     0.066 C 
ATOM      3  C   UNL     1     137.036 139.088 142.970  1.00  0.00     0.021 C 
ATOM      4  C   UNL     1     138.535 139.266 143.310  1.00  0.00     0.009 C 
ATOM      5  C   UNL     1     138.885 140.773 143.284  1.00  0.00     0.035 C 
ATOM      6  C   UNL     1     137.601 141.609 143.017  1.00  0.00     0.066 C 
ATOM      7  O   UNL     1     137.070 141.257 141.738  1.00  0.00    -0.369 OA
ATOM      8  C   UNL     1     136.548 141.283 144.114  1.00  0.00     0.035 C 
ATOM      9  C   UNL     1     136.252 139.763 144.120  1.00  0.00     0.009 C 
ATOM     10  C   UNL     1     137.928 143.106 143.022  1.00  0.00     0.042 C 
ATOM     11  C   UNL     1     137.529 139.266 140.456  1.00  0.00     0.042 C 
ENDROOT
TORSDOF 0
ENDMDL
MODEL 6
REMARK VINA RESULT:    -3.209      4.214      6.001
REMARK INTER + INTRA:          -3.209
REMARK INTER:                  -3.209
REMARK INTRA:                   0.000
REMARK UNBOUND:                 0.000
REMARK SMILES CC1(C)O[C@]2(C)CC[C@H]1CC2
REMARK SMILES IDX 1 1 2 2 9 3 10 4 11 5 5 6 4 7 7 8 8 9 6 10 3 11
REMARK H PARENT
REMARK Flexibility Score: inf
ROOT
ATOM      1  C   UNL     1     146.528 141.855 141.151  1.00  0.00     0.042 C 
ATOM      2  C   UNL     1     145.006 141.812 141.404  1.00  0.00     0.066 C 
ATOM      3  C   UNL     1     144.632 142.637 142.695  1.00  0.00     0.021 C 
ATOM      4  C   UNL     1     143.106 142.517 142.929  1.00  0.00     0.009 C 
ATOM      5  C   UNL     1     142.707 141.021 142.915  1.00  0.00     0.035 C 
ATOM      6  C   UNL     1     143.978 140.137 142.763  1.00  0.00     0.066 C 
ATOM      7  O   UNL     1     144.612 140.437 141.519  1.00  0.00    -0.369 OA
ATOM      8  C   UNL     1     144.960 140.459 143.927  1.00  0.00     0.035 C 
ATOM      9  C   UNL     1     145.306 141.969 143.916  1.00  0.00     0.009 C 
ATOM     10  C   UNL     1     143.601 138.652 142.781  1.00  0.00     0.042 C 
ATOM     11  C   UNL     1     144.316 142.406 140.157  1.00  0.00     0.042 C 
ENDROOT
TORSDOF 0
ENDMDL
MODEL 7
REMARK VINA RESULT:    -3.163      1.290      2.459
REMARK INTER + INTRA:          -3.163
REMARK INTER:                  -3.163
REMARK INTRA:                   0.000
REMARK UNBOUND:                 0.000
REMARK SMILES CC1(C)O[C@]2(C)CC[C@H]1CC2
REMARK SMILES IDX 1 1 2 2 9 3 10 4 11 5 5 6 4 7 7 8 8 9 6 10 3 11
REMARK H PARENT
REMARK Flexibility Score: inf
ROOT
ATOM      1  C   UNL     1     139.898 146.289 141.093  1.00  0.00     0.042 C 
ATOM      2  C   UNL     1     139.997 144.813 141.538  1.00  0.00     0.066 C 
ATOM      3  C   UNL     1     139.105 144.554 142.812  1.00  0.00     0.021 C 
ATOM      4  C   UNL     1     139.282 143.079 143.243  1.00  0.00     0.009 C 
ATOM      5  C   UNL     1     140.792 142.765 143.372  1.00  0.00     0.035 C 
ATOM      6  C   UNL     1     141.622 144.056 143.117  1.00  0.00     0.066 C 
ATOM      7  O   UNL     1     141.378 144.515 141.786  1.00  0.00    -0.369 OA
ATOM      8  C   UNL     1     141.174 145.153 144.125  1.00  0.00     0.035 C 
ATOM      9  C   UNL     1     139.654 145.410 143.978  1.00  0.00     0.009 C 
ATOM     10  C   UNL     1     143.119 143.768 143.273  1.00  0.00     0.042 C 
ATOM     11  C   UNL     1     139.523 143.944 140.353  1.00  0.00     0.042 C 
ENDROOT
TORSDOF 0
ENDMDL
MODEL 8
REMARK VINA RESULT:    -3.123      2.989      5.555
REMARK INTER + INTRA:          -3.123
REMARK INTER:                  -3.123
REMARK INTRA:                   0.000
REMARK UNBOUND:                 0.000
REMARK SMILES CC1(C)O[C@]2(C)CC[C@H]1CC2
REMARK SMILES IDX 1 1 2 2 9 3 10 4 11 5 5 6 4 7 7 8 8 9 6 10 3 11
REMARK H PARENT
REMARK Flexibility Score: inf
ROOT
ATOM      1  C   UNL     1     143.347 139.594 143.922  1.00  0.00     0.042 C 
ATOM      2  C   UNL     1     143.802 140.405 142.690  1.00  0.00     0.066 C 
ATOM      3  C   UNL     1     145.185 141.112 142.966  1.00  0.00     0.021 C 
ATOM      4  C   UNL     1     145.566 141.949 141.722  1.00  0.00     0.009 C 
ATOM      5  C   UNL     1     144.377 142.865 141.344  1.00  0.00     0.035 C 
ATOM      6  C   UNL     1     143.236 142.707 142.389  1.00  0.00     0.066 C 
ATOM      7  O   UNL     1     142.773 141.355 142.378  1.00  0.00    -0.369 OA
ATOM      8  C   UNL     1     143.794 143.043 143.802  1.00  0.00     0.035 C 
ATOM      9  C   UNL     1     144.997 142.122 144.122  1.00  0.00     0.009 C 
ATOM     10  C   UNL     1     142.065 143.633 142.045  1.00  0.00     0.042 C 
ATOM     11  C   UNL     1     143.919 139.419 141.508  1.00  0.00     0.042 C 
ENDROOT
TORSDOF 0
ENDMDL
MODEL 9
REMARK VINA RESULT:    -1.698      4.205      5.182
REMARK INTER + INTRA:          -1.698
REMARK INTER:                  -1.698
REMARK INTRA:                   0.000
REMARK UNBOUND:                 0.000
REMARK SMILES CC1(C)O[C@]2(C)CC[C@H]1CC2
REMARK SMILES IDX 1 1 2 2 9 3 10 4 11 5 5 6 4 7 7 8 8 9 6 10 3 11
REMARK H PARENT
REMARK Flexibility Score: inf
ROOT
ATOM      1  C   UNL     1     135.460 139.661 141.870  1.00  0.00     0.042 C 
ATOM      2  C   UNL     1     136.500 139.973 142.969  1.00  0.00     0.066 C 
ATOM      3  C   UNL     1     137.653 140.887 142.402  1.00  0.00     0.021 C 
ATOM      4  C   UNL     1     138.689 141.124 143.527  1.00  0.00     0.009 C 
ATOM      5  C   UNL     1     139.109 139.760 144.125  1.00  0.00     0.035 C 
ATOM      6  C   UNL     1     138.424 138.606 143.339  1.00  0.00     0.066 C 
ATOM      7  O   UNL     1     137.006 138.727 143.469  1.00  0.00    -0.369 OA
ATOM      8  C   UNL     1     138.810 138.718 141.836  1.00  0.00     0.035 C 
ATOM      9  C   UNL     1     138.396 140.108 141.292  1.00  0.00     0.009 C 
ATOM     10  C   UNL     1     138.857 137.247 143.899  1.00  0.00     0.042 C 
ATOM     11  C   UNL     1     135.754 140.684 144.119  1.00  0.00     0.042 C 
ENDROOT
TORSDOF 0
ENDMDL
