MODEL 1
REMARK VINA RESULT:    -3.228      0.000      0.000
REMARK INTER + INTRA:          -4.221
REMARK INTER:                  -3.983
REMARK INTRA:                  -0.238
REMARK UNBOUND:                -0.238
REMARK SMILES CCCCCC(=O)[O-]
REMARK SMILES IDX 4 1 5 2 6 3 7 4 8 5 3 6 2 7 1 8
REMARK H PARENT
REMARK Flexibility Score: inf
ROOT
ATOM      1  C   UNL     1      12.169  -9.406  -7.277  1.00  0.00     0.006 C 
ENDROOT
BRANCH   1   2
ATOM      2  C   UNL     1      12.339  -9.923  -5.845  1.00  0.00     0.053 C 
BRANCH   2   3
ATOM      3  C   UNL     1      11.656  -9.012  -4.876  1.00  0.00     0.041 C 
ATOM      4  O   UNL     1      12.298  -8.083  -4.319  1.00  0.00    -0.550 OA
ATOM      5  O   UNL     1      10.322  -9.219  -4.549  1.00  0.00    -0.550 OA
ENDBRANCH   2   3
ENDBRANCH   1   2
BRANCH   1   6
ATOM      6  C   UNL     1      11.537 -10.474  -8.177  1.00  0.00     0.000 C 
BRANCH   6   7
ATOM      7  C   UNL     1      10.043 -10.636  -7.873  1.00  0.00    -0.003 C 
ATOM      8  C   UNL     1       9.304  -9.309  -8.020  1.00  0.00     0.004 C 
ENDBRANCH   6   7
ENDBRANCH   1   6
TORSDOF 4
ENDMDL
MODEL 2
REMARK VINA RESULT:    -3.192     12.976     14.110
REMARK INTER + INTRA:          -4.176
REMARK INTER:                  -3.953
REMARK INTRA:                  -0.223
REMARK UNBOUND:                -0.238
REMARK SMILES CCCCCC(=O)[O-]
REMARK SMILES IDX 4 1 5 2 6 3 7 4 8 5 3 6 2 7 1 8
REMARK H PARENT
REMARK Flexibility Score: inf
ROOT
ATOM      1  C   UNL     1       7.675 -15.548   6.791  1.00  0.00     0.006 C 
ENDROOT
BRANCH   1   2
ATOM      2  C   UNL     1       7.717 -15.897   5.301  1.00  0.00     0.053 C 
BRANCH   2   3
ATOM      3  C   UNL     1       6.476 -15.419   4.616  1.00  0.00     0.041 C 
ATOM      4  O   UNL     1       5.437 -16.131   4.621  1.00  0.00    -0.550 OA
ATOM      5  O   UNL     1       6.480 -14.211   3.932  1.00  0.00    -0.550 OA
ENDBRANCH   2   3
ENDBRANCH   1   2
BRANCH   1   6
ATOM      6  C   UNL     1       8.708 -14.468   7.133  1.00  0.00     0.000 C 
BRANCH   6   7
ATOM      7  C   UNL     1       8.102 -13.066   7.003  1.00  0.00    -0.003 C 
ATOM      8  C   UNL     1       8.873 -12.223   5.992  1.00  0.00     0.004 C 
ENDBRANCH   6   7
ENDBRANCH   1   6
TORSDOF 4
ENDMDL
MODEL 3
REMARK VINA RESULT:    -3.187     13.299     14.207
REMARK INTER + INTRA:          -4.170
REMARK INTER:                  -3.947
REMARK INTRA:                  -0.223
REMARK UNBOUND:                -0.238
REMARK SMILES CCCCCC(=O)[O-]
REMARK SMILES IDX 4 1 5 2 6 3 7 4 8 5 3 6 2 7 1 8
REMARK H PARENT
REMARK Flexibility Score: inf
ROOT
ATOM      1  C   UNL     1       3.606 -19.112   2.150  1.00  0.00     0.006 C 
ENDROOT
BRANCH   1   2
ATOM      2  C   UNL     1       4.535 -18.550   1.069  1.00  0.00     0.053 C 
BRANCH   2   3
ATOM      3  C   UNL     1       3.827 -17.511   0.260  1.00  0.00     0.041 C 
ATOM      4  O   UNL     1       3.084 -17.851  -0.698  1.00  0.00    -0.550 OA
ATOM      5  O   UNL     1       4.026 -16.164   0.531  1.00  0.00    -0.550 OA
ENDBRANCH   2   3
ENDBRANCH   1   2
BRANCH   1   6
ATOM      6  C   UNL     1       4.086 -18.711   3.551  1.00  0.00     0.000 C 
BRANCH   6   7
ATOM      7  C   UNL     1       3.523 -17.344   3.955  1.00  0.00    -0.003 C 
ATOM      8  C   UNL     1       4.643 -16.333   4.183  1.00  0.00     0.004 C 
ENDBRANCH   6   7
ENDBRANCH   1   6
TORSDOF 4
ENDMDL
MODEL 4
REMARK VINA RESULT:    -3.173      4.112      5.595
REMARK INTER + INTRA:          -4.153
REMARK INTER:                  -3.904
REMARK INTRA:                  -0.249
REMARK UNBOUND:                -0.238
REMARK SMILES CCCCCC(=O)[O-]
REMARK SMILES IDX 4 1 5 2 6 3 7 4 8 5 3 6 2 7 1 8
REMARK H PARENT
REMARK Flexibility Score: inf
ROOT
ATOM      1  C   UNL     1      14.440  -7.759  -2.395  1.00  0.00     0.006 C 
ENDROOT
BRANCH   1   2
ATOM      2  C   UNL     1      14.690  -7.859  -0.887  1.00  0.00     0.053 C 
BRANCH   2   3
ATOM      3  C   UNL     1      13.688  -8.768  -0.249  1.00  0.00     0.041 C 
ATOM      4  O   UNL     1      13.501  -9.926  -0.708  1.00  0.00    -0.550 OA
ATOM      5  O   UNL     1      12.925  -8.321   0.821  1.00  0.00    -0.550 OA
ENDBRANCH   2   3
ENDBRANCH   1   2
BRANCH   1   6
ATOM      6  C   UNL     1      13.166  -6.957  -2.689  1.00  0.00     0.000 C 
BRANCH   6   7
ATOM      7  C   UNL     1      12.328  -7.637  -3.778  1.00  0.00    -0.003 C 
ATOM      8  C   UNL     1      12.754  -9.089  -3.976  1.00  0.00     0.004 C 
ENDBRANCH   6   7
ENDBRANCH   1   6
TORSDOF 4
ENDMDL
MODEL 5
REMARK VINA RESULT:    -3.136      4.064      6.093
REMARK INTER + INTRA:          -4.107
REMARK INTER:                  -3.891
REMARK INTRA:                  -0.216
REMARK UNBOUND:                -0.238
REMARK SMILES CCCCCC(=O)[O-]
REMARK SMILES IDX 4 1 5 2 6 3 7 4 8 5 3 6 2 7 1 8
REMARK H PARENT
REMARK Flexibility Score: inf
ROOT
ATOM      1  C   UNL     1      14.411  -7.752  -2.418  1.00  0.00     0.006 C 
ENDROOT
BRANCH   1   2
ATOM      2  C   UNL     1      13.183  -6.922  -2.806  1.00  0.00     0.053 C 
BRANCH   2   3
ATOM      3  C   UNL     1      12.112  -7.802  -3.367  1.00  0.00     0.041 C 
ATOM      4  O   UNL     1      11.135  -8.146  -2.651  1.00  0.00    -0.550 OA
ATOM      5  O   UNL     1      12.216  -8.281  -4.666  1.00  0.00    -0.550 OA
ENDBRANCH   2   3
ENDBRANCH   1   2
BRANCH   1   6
ATOM      6  C   UNL     1      14.582  -7.803  -0.895  1.00  0.00     0.000 C 
BRANCH   6   7
ATOM      7  C   UNL     1      13.853  -9.013  -0.300  1.00  0.00    -0.003 C 
ATOM      8  C   UNL     1      12.843  -8.582   0.760  1.00  0.00     0.004 C 
ENDBRANCH   6   7
ENDBRANCH   1   6
TORSDOF 4
ENDMDL
MODEL 6
REMARK VINA RESULT:    -3.124      2.026      2.988
REMARK INTER + INTRA:          -4.092
REMARK INTER:                  -4.045
REMARK INTRA:                  -0.047
REMARK UNBOUND:                -0.238
REMARK SMILES CCCCCC(=O)[O-]
REMARK SMILES IDX 4 1 5 2 6 3 7 4 8 5 3 6 2 7 1 8
REMARK H PARENT
REMARK Flexibility Score: inf
ROOT
ATOM      1  C   UNL     1      12.103  -8.548  -4.570  1.00  0.00     0.006 C 
ENDROOT
BRANCH   1   2
ATOM      2  C   UNL     1      12.970  -8.782  -3.330  1.00  0.00     0.053 C 
BRANCH   2   3
ATOM      3  C   UNL     1      13.444  -7.479  -2.770  1.00  0.00     0.041 C 
ATOM      4  O   UNL     1      14.495  -7.432  -2.078  1.00  0.00    -0.550 OA
ATOM      5  O   UNL     1      12.699  -6.324  -2.969  1.00  0.00    -0.550 OA
ENDBRANCH   2   3
ENDBRANCH   1   2
BRANCH   1   6
ATOM      6  C   UNL     1      12.265  -9.692  -5.579  1.00  0.00     0.000 C 
BRANCH   6   7
ATOM      7  C   UNL     1      11.226  -9.587  -6.701  1.00  0.00    -0.003 C 
ATOM      8  C   UNL     1      11.832  -9.961  -8.051  1.00  0.00     0.004 C 
ENDBRANCH   6   7
ENDBRANCH   1   6
TORSDOF 4
ENDMDL
MODEL 7
REMARK VINA RESULT:    -3.119      4.999      6.230
REMARK INTER + INTRA:          -4.086
REMARK INTER:                  -3.983
REMARK INTRA:                  -0.103
REMARK UNBOUND:                -0.238
REMARK SMILES CCCCCC(=O)[O-]
REMARK SMILES IDX 4 1 5 2 6 3 7 4 8 5 3 6 2 7 1 8
REMARK H PARENT
REMARK Flexibility Score: inf
ROOT
ATOM      1  C   UNL     1       7.601 -14.191  -8.782  1.00  0.00     0.006 C 
ENDROOT
BRANCH   1   2
ATOM      2  C   UNL     1       7.545 -13.137  -7.672  1.00  0.00     0.053 C 
BRANCH   2   3
ATOM      3  C   UNL     1       8.825 -12.366  -7.616  1.00  0.00     0.041 C 
ATOM      4  O   UNL     1       9.889 -12.930  -7.248  1.00  0.00    -0.550 OA
ATOM      5  O   UNL     1       8.836 -11.012  -7.925  1.00  0.00    -0.550 OA
ENDBRANCH   2   3
ENDBRANCH   1   2
BRANCH   1   6
ATOM      6  C   UNL     1       6.489 -15.232  -8.609  1.00  0.00     0.000 C 
BRANCH   6   7
ATOM      7  C   UNL     1       5.194 -14.577  -8.116  1.00  0.00    -0.003 C 
ATOM      8  C   UNL     1       4.640 -15.302  -6.894  1.00  0.00     0.004 C 
ENDBRANCH   6   7
ENDBRANCH   1   6
TORSDOF 4
ENDMDL
MODEL 8
REMARK VINA RESULT:    -3.097      2.632      4.724
REMARK INTER + INTRA:          -4.059
REMARK INTER:                  -4.004
REMARK INTRA:                  -0.055
REMARK UNBOUND:                -0.238
REMARK SMILES CCCCCC(=O)[O-]
REMARK SMILES IDX 4 1 5 2 6 3 7 4 8 5 3 6 2 7 1 8
REMARK H PARENT
REMARK Flexibility Score: inf
ROOT
ATOM      1  C   UNL     1      12.161  -8.436  -4.618  1.00  0.00     0.006 C 
ENDROOT
BRANCH   1   2
ATOM      2  C   UNL     1      12.313  -9.685  -5.492  1.00  0.00     0.053 C 
BRANCH   2   3
ATOM      3  C   UNL     1      11.588  -9.509  -6.787  1.00  0.00     0.041 C 
ATOM      4  O   UNL     1      12.223  -9.515  -7.875  1.00  0.00    -0.550 OA
ATOM      5  O   UNL     1      10.216  -9.291  -6.793  1.00  0.00    -0.550 OA
ENDBRANCH   2   3
ENDBRANCH   1   2
BRANCH   1   6
ATOM      6  C   UNL     1      12.771  -8.659  -3.229  1.00  0.00     0.000 C 
BRANCH   6   7
ATOM      7  C   UNL     1      13.423  -7.375  -2.702  1.00  0.00    -0.003 C 
ATOM      8  C   UNL     1      14.735  -7.677  -1.985  1.00  0.00     0.004 C 
ENDBRANCH   6   7
ENDBRANCH   1   6
TORSDOF 4
ENDMDL
MODEL 9
REMARK VINA RESULT:    -3.070     12.733     13.714
REMARK INTER + INTRA:          -4.026
REMARK INTER:                  -3.976
REMARK INTRA:                  -0.050
REMARK UNBOUND:                -0.238
REMARK SMILES CCCCCC(=O)[O-]
REMARK SMILES IDX 4 1 5 2 6 3 7 4 8 5 3 6 2 7 1 8
REMARK H PARENT
REMARK Flexibility Score: inf
ROOT
ATOM      1  C   UNL     1       3.477 -17.742  -0.454  1.00  0.00     0.006 C 
ENDROOT
BRANCH   1   2
ATOM      2  C   UNL     1       3.941 -18.231  -1.830  1.00  0.00     0.053 C 
BRANCH   2   3
ATOM      3  C   UNL     1       2.787 -18.299  -2.778  1.00  0.00     0.041 C 
ATOM      4  O   UNL     1       2.901 -18.914  -3.871  1.00  0.00    -0.550 OA
ATOM      5  O   UNL     1       1.600 -17.643  -2.478  1.00  0.00    -0.550 OA
ENDBRANCH   2   3
ENDBRANCH   1   2
BRANCH   1   6
ATOM      6  C   UNL     1       4.266 -18.425   0.668  1.00  0.00     0.000 C 
BRANCH   6   7
ATOM      7  C   UNL     1       3.833 -17.903   2.043  1.00  0.00    -0.003 C 
ATOM      8  C   UNL     1       3.894 -19.005   3.096  1.00  0.00     0.004 C 
ENDBRANCH   6   7
ENDBRANCH   1   6
TORSDOF 4
ENDMDL
