MODEL 1
REMARK VINA RESULT:    -7.196      0.000      0.000
REMARK INTER + INTRA:         -11.385
REMARK INTER:                  -9.720
REMARK INTRA:                  -1.665
REMARK UNBOUND:                -1.665
REMARK SMILES CC[C@@H](CC[C@@H](C)[C@H]1CC[C@@H]2[C@H]3CC(=O)C4=CC(=O)CC[C@]4(C)[C@@H]3CC[C@@]21C)C(C)C
REMARK SMILES IDX 4 1 3 2 2 3 1 4 29 5 30 6 31 7 5 8 6 9 7 10 8 11 9 12 27 13
REMARK SMILES IDX 10 14 11 15 26 16 28 17 12 18 25 19 24 20 13 21 22 22 14 23
REMARK SMILES IDX 16 24 21 25 23 26 15 27 17 28 20 29 18 30 19 31
REMARK H PARENT
REMARK Flexibility Score: inf
ROOT
ATOM      1  C   UNL     1     103.208 108.655 121.578  1.00  0.00     0.004 C 
ENDROOT
BRANCH   1   2
ATOM      2  C   UNL     1     103.692 108.722 123.058  1.00  0.00    -0.009 C 
BRANCH   2   3
ATOM      3  C   UNL     1     104.665 109.914 123.311  1.00  0.00     0.000 C 
ATOM      4  C   UNL     1     104.484 110.609 124.662  1.00  0.00     0.004 C 
ENDBRANCH   2   3
BRANCH   2   5
ATOM      5  C   UNL     1     104.292 107.349 123.535  1.00  0.00    -0.014 C 
ATOM      6  C   UNL     1     104.417 106.341 122.376  1.00  0.00     0.007 C 
ATOM      7  C   UNL     1     103.449 106.708 124.655  1.00  0.00     0.007 C 
ENDBRANCH   2   5
ENDBRANCH   1   2
BRANCH   1   8
ATOM      8  C   UNL     1     101.937 109.486 121.287  1.00  0.00     0.004 C 
BRANCH   8   9
ATOM      9  C   UNL     1     102.200 110.865 120.616  1.00  0.00    -0.011 C 
ATOM     10  C   UNL     1     101.663 110.864 119.172  1.00  0.00     0.008 C 
BRANCH   9  11
ATOM     11  C   UNL     1     101.674 112.098 121.448  1.00  0.00    -0.002 C 
ATOM     12  C   UNL     1     101.538 111.770 122.934  1.00  0.00     0.005 C 
ATOM     13  C   UNL     1     102.517 113.422 121.426  1.00  0.00    -0.026 C 
ATOM     14  C   UNL     1     101.384 113.105 123.625  1.00  0.00     0.005 C 
ATOM     15  C   UNL     1     102.190 114.124 122.795  1.00  0.00    -0.001 C 
ATOM     16  C   UNL     1     102.120 114.331 120.226  1.00  0.00     0.007 C 
ATOM     17  C   UNL     1     104.044 113.120 121.373  1.00  0.00     0.012 C 
ATOM     18  C   UNL     1     101.424 115.478 122.682  1.00  0.00     0.004 C 
ATOM     19  C   UNL     1     102.634 115.766 120.398  1.00  0.00     0.005 C 
ATOM     20  C   UNL     1     102.097 116.462 121.685  1.00  0.00     0.003 C 
ATOM     21  C   UNL     1     101.310 116.148 124.077  1.00  0.00     0.085 C 
ATOM     22  C   UNL     1     101.184 117.730 121.416  1.00  0.00    -0.000 C 
ATOM     23  C   UNL     1     100.894 117.588 124.006  1.00  0.00     0.159 C 
ATOM     24  C   UNL     1     100.505 118.187 122.712  1.00  0.00     0.005 C 
ATOM     25  C   UNL     1     100.046 117.466 120.374  1.00  0.00     0.020 C 
ATOM     26  C   UNL     1     102.104 118.878 120.923  1.00  0.00     0.017 C 
ATOM     27  O   UNL     1     100.844 118.268 125.069  1.00  0.00    -0.295 OA
ATOM     28  C   UNL     1      99.483 119.063 122.684  1.00  0.00     0.055 C 
ATOM     29  C   UNL     1      99.155 118.705 120.140  1.00  0.00     0.081 C 
ATOM     30  C   UNL     1      98.847 119.446 121.413  1.00  0.00     0.156 C 
ATOM     31  O   UNL     1      98.029 120.407 121.397  1.00  0.00    -0.295 OA
ENDBRANCH   9  11
ENDBRANCH   8   9
ENDBRANCH   1   8
TORSDOF 6
ENDMDL
MODEL 2
REMARK VINA RESULT:    -7.036      1.965      3.213
REMARK INTER + INTRA:         -11.169
REMARK INTER:                 -10.004
REMARK INTRA:                  -1.165
REMARK UNBOUND:                -1.665
REMARK SMILES CC[C@@H](CC[C@@H](C)[C@H]1CC[C@@H]2[C@H]3CC(=O)C4=CC(=O)CC[C@]4(C)[C@@H]3CC[C@@]21C)C(C)C
REMARK SMILES IDX 4 1 3 2 2 3 1 4 29 5 30 6 31 7 5 8 6 9 7 10 8 11 9 12 27 13
REMARK SMILES IDX 10 14 11 15 26 16 28 17 12 18 25 19 24 20 13 21 22 22 14 23
REMARK SMILES IDX 16 24 21 25 23 26 15 27 17 28 20 29 18 30 19 31
REMARK H PARENT
REMARK Flexibility Score: inf
ROOT
ATOM      1  C   UNL     1     100.601 108.715 119.212  1.00  0.00     0.004 C 
ENDROOT
BRANCH   1   2
ATOM      2  C   UNL     1     100.990 107.345 118.579  1.00  0.00    -0.009 C 
BRANCH   2   3
ATOM      3  C   UNL     1     102.431 106.898 118.970  1.00  0.00     0.000 C 
ATOM      4  C   UNL     1     102.517 105.511 119.612  1.00  0.00     0.004 C 
ENDBRANCH   2   3
BRANCH   2   5
ATOM      5  C   UNL     1     100.763 107.340 117.023  1.00  0.00    -0.014 C 
ATOM      6  C   UNL     1     100.477 105.925 116.486  1.00  0.00     0.007 C 
ATOM      7  C   UNL     1     101.970 107.921 116.261  1.00  0.00     0.007 C 
ENDBRANCH   2   5
ENDBRANCH   1   2
BRANCH   1   8
ATOM      8  C   UNL     1     101.664 109.296 120.171  1.00  0.00     0.004 C 
BRANCH   8   9
ATOM      9  C   UNL     1     102.189 110.709 119.783  1.00  0.00    -0.011 C 
ATOM     10  C   UNL     1     101.806 111.037 118.326  1.00  0.00     0.008 C 
BRANCH   9  11
ATOM     11  C   UNL     1     101.763 111.853 120.783  1.00  0.00    -0.002 C 
ATOM     12  C   UNL     1     101.729 111.364 122.231  1.00  0.00     0.005 C 
ATOM     13  C   UNL     1     102.641 113.153 120.841  1.00  0.00    -0.026 C 
ATOM     14  C   UNL     1     101.668 112.617 123.073  1.00  0.00     0.005 C 
ATOM     15  C   UNL     1     102.439 113.704 122.300  1.00  0.00    -0.001 C 
ATOM     16  C   UNL     1     102.182 114.198 119.782  1.00  0.00     0.007 C 
ATOM     17  C   UNL     1     104.151 112.826 120.636  1.00  0.00     0.012 C 
ATOM     18  C   UNL     1     101.707 115.078 122.396  1.00  0.00     0.004 C 
ATOM     19  C   UNL     1     102.750 115.593 120.070  1.00  0.00     0.005 C 
ATOM     20  C   UNL     1     102.333 116.153 121.463  1.00  0.00     0.003 C 
ATOM     21  C   UNL     1     101.718 115.591 123.860  1.00  0.00     0.085 C 
ATOM     22  C   UNL     1     101.440 117.462 121.407  1.00  0.00    -0.000 C 
ATOM     23  C   UNL     1     101.341 117.039 123.980  1.00  0.00     0.159 C 
ATOM     24  C   UNL     1     100.874 117.786 122.794  1.00  0.00     0.005 C 
ATOM     25  C   UNL     1     100.220 117.340 120.434  1.00  0.00     0.020 C 
ATOM     26  C   UNL     1     102.354 118.638 120.973  1.00  0.00     0.017 C 
ATOM     27  O   UNL     1     101.391 117.597 125.112  1.00  0.00    -0.295 OA
ATOM     28  C   UNL     1      99.880 118.681 122.943  1.00  0.00     0.055 C 
ATOM     29  C   UNL     1      99.351 118.617 120.408  1.00  0.00     0.081 C 
ATOM     30  C   UNL     1      99.161 119.217 121.775  1.00  0.00     0.156 C 
ATOM     31  O   UNL     1      98.374 120.191 121.928  1.00  0.00    -0.295 OA
ENDBRANCH   9  11
ENDBRANCH   8   9
ENDBRANCH   1   8
TORSDOF 6
ENDMDL
MODEL 3
REMARK VINA RESULT:    -7.036      4.997      8.574
REMARK INTER + INTRA:         -11.169
REMARK INTER:                  -9.806
REMARK INTRA:                  -1.363
REMARK UNBOUND:                -1.665
REMARK SMILES CC[C@@H](CC[C@@H](C)[C@H]1CC[C@@H]2[C@H]3CC(=O)C4=CC(=O)CC[C@]4(C)[C@@H]3CC[C@@]21C)C(C)C
REMARK SMILES IDX 4 1 3 2 2 3 1 4 29 5 30 6 31 7 5 8 6 9 7 10 8 11 9 12 27 13
REMARK SMILES IDX 10 14 11 15 26 16 28 17 12 18 25 19 24 20 13 21 22 22 14 23
REMARK SMILES IDX 16 24 21 25 23 26 15 27 17 28 20 29 18 30 19 31
REMARK H PARENT
REMARK Flexibility Score: inf
ROOT
ATOM      1  C   UNL     1     100.160 116.930 123.532  1.00  0.00     0.004 C 
ENDROOT
BRANCH   1   2
ATOM      2  C   UNL     1     100.928 118.231 123.917  1.00  0.00    -0.009 C 
BRANCH   2   3
ATOM      3  C   UNL     1     100.585 118.718 125.358  1.00  0.00     0.000 C 
ATOM      4  C   UNL     1     101.042 117.775 126.474  1.00  0.00     0.004 C 
ENDBRANCH   2   3
BRANCH   2   5
ATOM      5  C   UNL     1     100.730 119.360 122.840  1.00  0.00    -0.014 C 
ATOM      6  C   UNL     1     100.782 120.768 123.464  1.00  0.00     0.007 C 
ATOM      7  C   UNL     1      99.397 119.207 122.081  1.00  0.00     0.007 C 
ENDBRANCH   2   5
ENDBRANCH   1   2
BRANCH   1   8
ATOM      8  C   UNL     1     101.070 115.772 123.060  1.00  0.00     0.004 C 
BRANCH   8   9
ATOM      9  C   UNL     1     102.117 116.166 121.979  1.00  0.00    -0.011 C 
ATOM     10  C   UNL     1     103.449 115.435 122.238  1.00  0.00     0.008 C 
BRANCH   9  11
ATOM     11  C   UNL     1     101.613 115.980 120.495  1.00  0.00    -0.002 C 
ATOM     12  C   UNL     1     100.129 116.313 120.348  1.00  0.00     0.005 C 
ATOM     13  C   UNL     1     102.304 116.824 119.366  1.00  0.00    -0.026 C 
ATOM     14  C   UNL     1      99.893 116.440 118.861  1.00  0.00     0.005 C 
ATOM     15  C   UNL     1     101.203 116.978 118.254  1.00  0.00    -0.001 C 
ATOM     16  C   UNL     1     103.564 116.100 118.805  1.00  0.00     0.007 C 
ATOM     17  C   UNL     1     102.698 118.242 119.878  1.00  0.00     0.012 C 
ATOM     18  C   UNL     1     101.520 116.269 116.901  1.00  0.00     0.004 C 
ATOM     19  C   UNL     1     104.021 116.698 117.468  1.00  0.00     0.005 C 
ATOM     20  C   UNL     1     102.932 116.628 116.357  1.00  0.00     0.003 C 
ATOM     21  C   UNL     1     100.447 116.632 115.841  1.00  0.00     0.085 C 
ATOM     22  C   UNL     1     103.318 115.727 115.111  1.00  0.00    -0.000 C 
ATOM     23  C   UNL     1     100.855 116.271 114.442  1.00  0.00     0.159 C 
ATOM     24  C   UNL     1     102.101 115.514 114.204  1.00  0.00     0.005 C 
ATOM     25  C   UNL     1     103.842 114.306 115.510  1.00  0.00     0.020 C 
ATOM     26  C   UNL     1     104.399 116.486 114.298  1.00  0.00     0.017 C 
ATOM     27  O   UNL     1     100.103 116.589 113.480  1.00  0.00    -0.295 OA
ATOM     28  C   UNL     1     102.113 114.572 113.242  1.00  0.00     0.055 C 
ATOM     29  C   UNL     1     104.195 113.436 114.284  1.00  0.00     0.081 C 
ATOM     30  C   UNL     1     103.197 113.579 113.166  1.00  0.00     0.156 C 
ATOM     31  O   UNL     1     103.285 112.837 112.150  1.00  0.00    -0.295 OA
ENDBRANCH   9  11
ENDBRANCH   8   9
ENDBRANCH   1   8
TORSDOF 6
ENDMDL
MODEL 4
REMARK VINA RESULT:    -7.002      4.377      9.041
REMARK INTER + INTRA:         -11.123
REMARK INTER:                  -9.826
REMARK INTRA:                  -1.297
REMARK UNBOUND:                -1.665
REMARK SMILES CC[C@@H](CC[C@@H](C)[C@H]1CC[C@@H]2[C@H]3CC(=O)C4=CC(=O)CC[C@]4(C)[C@@H]3CC[C@@]21C)C(C)C
REMARK SMILES IDX 4 1 3 2 2 3 1 4 29 5 30 6 31 7 5 8 6 9 7 10 8 11 9 12 27 13
REMARK SMILES IDX 10 14 11 15 26 16 28 17 12 18 25 19 24 20 13 21 22 22 14 23
REMARK SMILES IDX 16 24 21 25 23 26 15 27 17 28 20 29 18 30 19 31
REMARK H PARENT
REMARK Flexibility Score: inf
ROOT
ATOM      1  C   UNL     1     103.257 114.495 124.277  1.00  0.00     0.004 C 
ENDROOT
BRANCH   1   2
ATOM      2  C   UNL     1     102.136 115.554 124.503  1.00  0.00    -0.009 C 
BRANCH   2   3
ATOM      3  C   UNL     1     101.660 116.209 123.171  1.00  0.00     0.000 C 
ATOM      4  C   UNL     1     102.398 115.719 121.922  1.00  0.00     0.004 C 
ENDBRANCH   2   3
BRANCH   2   5
ATOM      5  C   UNL     1     102.556 116.622 125.578  1.00  0.00    -0.014 C 
ATOM      6  C   UNL     1     103.300 115.982 126.766  1.00  0.00     0.007 C 
ATOM      7  C   UNL     1     101.344 117.404 126.121  1.00  0.00     0.007 C 
ENDBRANCH   2   5
ENDBRANCH   1   2
BRANCH   1   8
ATOM      8  C   UNL     1     102.867 113.058 124.693  1.00  0.00     0.004 C 
BRANCH   8   9
ATOM      9  C   UNL     1     103.593 111.931 123.904  1.00  0.00    -0.011 C 
ATOM     10  C   UNL     1     104.090 110.840 124.871  1.00  0.00     0.008 C 
BRANCH   9  11
ATOM     11  C   UNL     1     102.750 111.332 122.712  1.00  0.00    -0.002 C 
ATOM     12  C   UNL     1     101.528 112.190 122.387  1.00  0.00     0.005 C 
ATOM     13  C   UNL     1     103.459 111.142 121.324  1.00  0.00    -0.026 C 
ATOM     14  C   UNL     1     101.048 111.707 121.039  1.00  0.00     0.005 C 
ATOM     15  C   UNL     1     102.299 111.244 120.268  1.00  0.00    -0.001 C 
ATOM     16  C   UNL     1     104.173 109.761 121.234  1.00  0.00     0.007 C 
ATOM     17  C   UNL     1     104.485 112.282 121.051  1.00  0.00     0.012 C 
ATOM     18  C   UNL     1     102.007 109.936 119.470  1.00  0.00     0.004 C 
ATOM     19  C   UNL     1     104.531 109.393 119.789  1.00  0.00     0.005 C 
ATOM     20  C   UNL     1     103.292 109.319 118.847  1.00  0.00     0.003 C 
ATOM     21  C   UNL     1     100.967 110.209 118.352  1.00  0.00     0.085 C 
ATOM     22  C   UNL     1     103.009 107.882 118.242  1.00  0.00    -0.000 C 
ATOM     23  C   UNL     1     100.886 109.103 117.340  1.00  0.00     0.159 C 
ATOM     24  C   UNL     1     101.643 107.851 117.545  1.00  0.00     0.005 C 
ATOM     25  C   UNL     1     102.996 106.745 119.318  1.00  0.00     0.020 C 
ATOM     26  C   UNL     1     104.100 107.596 117.176  1.00  0.00     0.017 C 
ATOM     27  O   UNL     1     100.134 109.242 116.336  1.00  0.00    -0.295 OA
ATOM     28  C   UNL     1     101.071 106.683 117.198  1.00  0.00     0.055 C 
ATOM     29  C   UNL     1     102.700 105.356 118.713  1.00  0.00     0.081 C 
ATOM     30  C   UNL     1     101.626 105.400 117.659  1.00  0.00     0.156 C 
ATOM     31  O   UNL     1     101.190 104.325 117.164  1.00  0.00    -0.295 OA
ENDBRANCH   9  11
ENDBRANCH   8   9
ENDBRANCH   1   8
TORSDOF 6
ENDMDL
MODEL 5
REMARK VINA RESULT:    -6.892      4.702      8.025
REMARK INTER + INTRA:         -10.975
REMARK INTER:                  -9.809
REMARK INTRA:                  -1.166
REMARK UNBOUND:                -1.665
REMARK SMILES CC[C@@H](CC[C@@H](C)[C@H]1CC[C@@H]2[C@H]3CC(=O)C4=CC(=O)CC[C@]4(C)[C@@H]3CC[C@@]21C)C(C)C
REMARK SMILES IDX 4 1 3 2 2 3 1 4 29 5 30 6 31 7 5 8 6 9 7 10 8 11 9 12 27 13
REMARK SMILES IDX 10 14 11 15 26 16 28 17 12 18 25 19 24 20 13 21 22 22 14 23
REMARK SMILES IDX 16 24 21 25 23 26 15 27 17 28 20 29 18 30 19 31
REMARK H PARENT
REMARK Flexibility Score: inf
ROOT
ATOM      1  C   UNL     1     101.673 117.122 123.599  1.00  0.00     0.004 C 
ENDROOT
BRANCH   1   2
ATOM      2  C   UNL     1     101.674 116.530 125.042  1.00  0.00    -0.009 C 
BRANCH   2   3
ATOM      3  C   UNL     1     101.471 117.626 126.133  1.00  0.00     0.000 C 
ATOM      4  C   UNL     1     100.410 118.675 125.792  1.00  0.00     0.004 C 
ENDBRANCH   2   3
BRANCH   2   5
ATOM      5  C   UNL     1     102.951 115.652 125.306  1.00  0.00    -0.014 C 
ATOM      6  C   UNL     1     102.593 114.175 125.559  1.00  0.00     0.007 C 
ATOM      7  C   UNL     1     103.771 116.170 126.504  1.00  0.00     0.007 C 
ENDBRANCH   2   5
ENDBRANCH   1   2
BRANCH   1   8
ATOM      8  C   UNL     1     100.788 116.348 122.596  1.00  0.00     0.004 C 
BRANCH   8   9
ATOM      9  C   UNL     1     101.573 115.549 121.517  1.00  0.00    -0.011 C 
ATOM     10  C   UNL     1     101.736 114.080 121.956  1.00  0.00     0.008 C 
BRANCH   9  11
ATOM     11  C   UNL     1     100.978 115.673 120.061  1.00  0.00    -0.002 C 
ATOM     12  C   UNL     1     100.102 116.915 119.905  1.00  0.00     0.005 C 
ATOM     13  C   UNL     1     101.978 115.760 118.855  1.00  0.00    -0.026 C 
ATOM     14  C   UNL     1      99.914 117.087 118.416  1.00  0.00     0.005 C 
ATOM     15  C   UNL     1     101.198 116.559 117.748  1.00  0.00    -0.001 C 
ATOM     16  C   UNL     1     102.377 114.344 118.342  1.00  0.00     0.007 C 
ATOM     17  C   UNL     1     103.259 116.560 119.238  1.00  0.00     0.012 C 
ATOM     18  C   UNL     1     100.861 115.750 116.457  1.00  0.00     0.004 C 
ATOM     19  C   UNL     1     103.026 114.399 116.954  1.00  0.00     0.005 C 
ATOM     20  C   UNL     1     102.103 115.025 115.866  1.00  0.00     0.003 C 
ATOM     21  C   UNL     1     100.246 116.686 115.383  1.00  0.00     0.085 C 
ATOM     22  C   UNL     1     101.694 114.035 114.699  1.00  0.00    -0.000 C 
ATOM     23  C   UNL     1     100.208 116.068 114.016  1.00  0.00     0.159 C 
ATOM     24  C   UNL     1     100.595 114.655 113.828  1.00  0.00     0.005 C 
ATOM     25  C   UNL     1     101.147 112.661 115.212  1.00  0.00     0.020 C 
ATOM     26  C   UNL     1     102.946 113.812 113.809  1.00  0.00     0.017 C 
ATOM     27  O   UNL     1      99.805 116.759 113.039  1.00  0.00    -0.295 OA
ATOM     28  C   UNL     1      99.903 113.904 112.951  1.00  0.00     0.055 C 
ATOM     29  C   UNL     1     100.735 111.717 114.061  1.00  0.00     0.081 C 
ATOM     30  C   UNL     1     100.024 112.437 112.948  1.00  0.00     0.156 C 
ATOM     31  O   UNL     1      99.518 111.778 111.997  1.00  0.00    -0.295 OA
ENDBRANCH   9  11
ENDBRANCH   8   9
ENDBRANCH   1   8
TORSDOF 6
ENDMDL
MODEL 6
REMARK VINA RESULT:    -6.881      5.782      9.399
REMARK INTER + INTRA:         -10.959
REMARK INTER:                  -9.727
REMARK INTRA:                  -1.232
REMARK UNBOUND:                -1.665
REMARK SMILES CC[C@@H](CC[C@@H](C)[C@H]1CC[C@@H]2[C@H]3CC(=O)C4=CC(=O)CC[C@]4(C)[C@@H]3CC[C@@]21C)C(C)C
REMARK SMILES IDX 4 1 3 2 2 3 1 4 29 5 30 6 31 7 5 8 6 9 7 10 8 11 9 12 27 13
REMARK SMILES IDX 10 14 11 15 26 16 28 17 12 18 25 19 24 20 13 21 22 22 14 23
REMARK SMILES IDX 16 24 21 25 23 26 15 27 17 28 20 29 18 30 19 31
REMARK H PARENT
REMARK Flexibility Score: inf
ROOT
ATOM      1  C   UNL     1     102.905 110.163 122.250  1.00  0.00     0.004 C 
ENDROOT
BRANCH   1   2
ATOM      2  C   UNL     1     103.000 111.620 122.799  1.00  0.00    -0.009 C 
BRANCH   2   3
ATOM      3  C   UNL     1     103.557 111.670 124.254  1.00  0.00     0.000 C 
ATOM      4  C   UNL     1     104.346 110.428 124.678  1.00  0.00     0.004 C 
ENDBRANCH   2   3
BRANCH   2   5
ATOM      5  C   UNL     1     101.633 112.383 122.655  1.00  0.00    -0.014 C 
ATOM      6  C   UNL     1     101.646 113.371 121.472  1.00  0.00     0.007 C 
ATOM      7  C   UNL     1     101.264 113.156 123.936  1.00  0.00     0.007 C 
ENDBRANCH   2   5
ENDBRANCH   1   2
BRANCH   1   8
ATOM      8  C   UNL     1     103.088 110.049 120.720  1.00  0.00     0.004 C 
BRANCH   8   9
ATOM      9  C   UNL     1     101.877 109.431 119.964  1.00  0.00    -0.011 C 
ATOM     10  C   UNL     1     100.587 109.613 120.788  1.00  0.00     0.008 C 
BRANCH   9  11
ATOM     11  C   UNL     1     101.713 109.942 118.480  1.00  0.00    -0.002 C 
ATOM     12  C   UNL     1     102.745 111.012 118.126  1.00  0.00     0.005 C 
ATOM     13  C   UNL     1     101.839 108.895 117.317  1.00  0.00    -0.026 C 
ATOM     14  C   UNL     1     102.699 111.129 116.621  1.00  0.00     0.005 C 
ATOM     15  C   UNL     1     102.342 109.730 116.083  1.00  0.00    -0.001 C 
ATOM     16  C   UNL     1     100.471 108.217 117.010  1.00  0.00     0.007 C 
ATOM     17  C   UNL     1     102.903 107.805 117.648  1.00  0.00     0.012 C 
ATOM     18  C   UNL     1     101.337 109.832 114.894  1.00  0.00     0.004 C 
ATOM     19  C   UNL     1     100.479 107.498 115.655  1.00  0.00     0.005 C 
ATOM     20  C   UNL     1     100.789 108.444 114.457  1.00  0.00     0.003 C 
ATOM     21  C   UNL     1     102.007 110.531 113.683  1.00  0.00     0.085 C 
ATOM     22  C   UNL     1      99.607 108.592 113.411  1.00  0.00    -0.000 C 
ATOM     23  C   UNL     1     101.234 110.368 112.407  1.00  0.00     0.159 C 
ATOM     24  C   UNL     1      99.905 109.724 112.420  1.00  0.00     0.005 C 
ATOM     25  C   UNL     1      98.227 108.918 114.073  1.00  0.00     0.020 C 
ATOM     26  C   UNL     1      99.516 107.264 112.612  1.00  0.00     0.017 C 
ATOM     27  O   UNL     1     101.716 110.823 111.332  1.00  0.00    -0.295 OA
ATOM     28  C   UNL     1      98.939 110.212 111.619  1.00  0.00     0.055 C 
ATOM     29  C   UNL     1      97.093 109.078 113.038  1.00  0.00     0.081 C 
ATOM     30  C   UNL     1      97.530 109.831 111.811  1.00  0.00     0.156 C 
ATOM     31  O   UNL     1      96.680 110.147 110.933  1.00  0.00    -0.295 OA
ENDBRANCH   9  11
ENDBRANCH   8   9
ENDBRANCH   1   8
TORSDOF 6
ENDMDL
MODEL 7
REMARK VINA RESULT:    -6.777      4.256      8.990
REMARK INTER + INTRA:         -10.818
REMARK INTER:                  -9.776
REMARK INTRA:                  -1.043
REMARK UNBOUND:                -1.665
REMARK SMILES CC[C@@H](CC[C@@H](C)[C@H]1CC[C@@H]2[C@H]3CC(=O)C4=CC(=O)CC[C@]4(C)[C@@H]3CC[C@@]21C)C(C)C
REMARK SMILES IDX 4 1 3 2 2 3 1 4 29 5 30 6 31 7 5 8 6 9 7 10 8 11 9 12 27 13
REMARK SMILES IDX 10 14 11 15 26 16 28 17 12 18 25 19 24 20 13 21 22 22 14 23
REMARK SMILES IDX 16 24 21 25 23 26 15 27 17 28 20 29 18 30 19 31
REMARK H PARENT
REMARK Flexibility Score: inf
ROOT
ATOM      1  C   UNL     1     101.433 115.732 123.864  1.00  0.00     0.004 C 
ENDROOT
BRANCH   1   2
ATOM      2  C   UNL     1     101.809 116.817 124.919  1.00  0.00    -0.009 C 
BRANCH   2   3
ATOM      3  C   UNL     1     102.298 116.194 126.261  1.00  0.00     0.000 C 
ATOM      4  C   UNL     1     103.803 116.325 126.513  1.00  0.00     0.004 C 
ENDBRANCH   2   3
BRANCH   2   5
ATOM      5  C   UNL     1     100.642 117.850 125.128  1.00  0.00    -0.014 C 
ATOM      6  C   UNL     1     100.659 118.964 124.064  1.00  0.00     0.007 C 
ATOM      7  C   UNL     1     100.690 118.502 126.523  1.00  0.00     0.007 C 
ENDBRANCH   2   5
ENDBRANCH   1   2
BRANCH   1   8
ATOM      8  C   UNL     1     102.643 114.968 123.281  1.00  0.00     0.004 C 
BRANCH   8   9
ATOM      9  C   UNL     1     102.434 113.433 123.132  1.00  0.00    -0.011 C 
ATOM     10  C   UNL     1     101.307 112.957 124.070  1.00  0.00     0.008 C 
BRANCH   9  11
ATOM     11  C   UNL     1     102.215 112.952 121.646  1.00  0.00    -0.002 C 
ATOM     12  C   UNL     1     102.087 114.127 120.677  1.00  0.00     0.005 C 
ATOM     13  C   UNL     1     103.311 112.039 120.992  1.00  0.00    -0.026 C 
ATOM     14  C   UNL     1     102.247 113.528 119.299  1.00  0.00     0.005 C 
ATOM     15  C   UNL     1     103.204 112.330 119.450  1.00  0.00    -0.001 C 
ATOM     16  C   UNL     1     103.052 110.533 121.293  1.00  0.00     0.007 C 
ATOM     17  C   UNL     1     104.739 112.433 121.476  1.00  0.00     0.012 C 
ATOM     18  C   UNL     1     102.730 111.127 118.577  1.00  0.00     0.004 C 
ATOM     19  C   UNL     1     103.859 109.615 120.367  1.00  0.00     0.005 C 
ATOM     20  C   UNL     1     103.542 109.831 118.857  1.00  0.00     0.003 C 
ATOM     21  C   UNL     1     102.825 111.486 117.071  1.00  0.00     0.085 C 
ATOM     22  C   UNL     1     102.899 108.577 118.132  1.00  0.00    -0.000 C 
ATOM     23  C   UNL     1     102.713 110.290 116.172  1.00  0.00     0.159 C 
ATOM     24  C   UNL     1     102.393 108.963 116.738  1.00  0.00     0.005 C 
ATOM     25  C   UNL     1     101.681 107.970 118.906  1.00  0.00     0.020 C 
ATOM     26  C   UNL     1     104.010 107.508 117.963  1.00  0.00     0.017 C 
ATOM     27  O   UNL     1     102.857 110.439 114.927  1.00  0.00    -0.295 OA
ATOM     28  C   UNL     1     101.574 108.145 116.049  1.00  0.00     0.055 C 
ATOM     29  C   UNL     1     101.055 106.761 118.176  1.00  0.00     0.081 C 
ATOM     30  C   UNL     1     100.969 106.965 116.687  1.00  0.00     0.156 C 
ATOM     31  O   UNL     1     100.368 106.116 115.973  1.00  0.00    -0.295 OA
ENDBRANCH   9  11
ENDBRANCH   8   9
ENDBRANCH   1   8
TORSDOF 6
ENDMDL
MODEL 8
REMARK VINA RESULT:    -6.706      7.147     11.723
REMARK INTER + INTRA:         -10.723
REMARK INTER:                  -8.926
REMARK INTRA:                  -1.796
REMARK UNBOUND:                -1.665
REMARK SMILES CC[C@@H](CC[C@@H](C)[C@H]1CC[C@@H]2[C@H]3CC(=O)C4=CC(=O)CC[C@]4(C)[C@@H]3CC[C@@]21C)C(C)C
REMARK SMILES IDX 4 1 3 2 2 3 1 4 29 5 30 6 31 7 5 8 6 9 7 10 8 11 9 12 27 13
REMARK SMILES IDX 10 14 11 15 26 16 28 17 12 18 25 19 24 20 13 21 22 22 14 23
REMARK SMILES IDX 16 24 21 25 23 26 15 27 17 28 20 29 18 30 19 31
REMARK H PARENT
REMARK Flexibility Score: inf
ROOT
ATOM      1  C   UNL     1      98.390 111.202 110.801  1.00  0.00     0.004 C 
ENDROOT
BRANCH   1   2
ATOM      2  C   UNL     1      97.326 110.205 110.249  1.00  0.00    -0.009 C 
BRANCH   2   3
ATOM      3  C   UNL     1      96.068 110.111 111.166  1.00  0.00     0.000 C 
ATOM      4  C   UNL     1      94.896 110.995 110.732  1.00  0.00     0.004 C 
ENDBRANCH   2   3
BRANCH   2   5
ATOM      5  C   UNL     1      97.953 108.796 109.947  1.00  0.00    -0.014 C 
ATOM      6  C   UNL     1      97.322 107.686 110.810  1.00  0.00     0.007 C 
ATOM      7  C   UNL     1      99.479 108.783 110.169  1.00  0.00     0.007 C 
ENDBRANCH   2   5
ENDBRANCH   1   2
BRANCH   1   8
ATOM      8  C   UNL     1      98.250 111.507 112.310  1.00  0.00     0.004 C 
BRANCH   8   9
ATOM      9  C   UNL     1      99.579 111.432 113.115  1.00  0.00    -0.011 C 
ATOM     10  C   UNL     1      99.874 112.790 113.783  1.00  0.00     0.008 C 
BRANCH   9  11
ATOM     11  C   UNL     1      99.645 110.236 114.142  1.00  0.00    -0.002 C 
ATOM     12  C   UNL     1      98.667 109.118 113.782  1.00  0.00     0.005 C 
ATOM     13  C   UNL     1     101.016 109.495 114.332  1.00  0.00    -0.026 C 
ATOM     14  C   UNL     1      99.095 107.931 114.613  1.00  0.00     0.005 C 
ATOM     15  C   UNL     1     100.622 108.040 114.781  1.00  0.00    -0.001 C 
ATOM     16  C   UNL     1     101.895 110.192 115.412  1.00  0.00     0.007 C 
ATOM     17  C   UNL     1     101.803 109.407 112.990  1.00  0.00     0.012 C 
ATOM     18  C   UNL     1     101.051 107.653 116.231  1.00  0.00     0.004 C 
ATOM     19  C   UNL     1     103.041 109.291 115.887  1.00  0.00     0.005 C 
ATOM     20  C   UNL     1     102.552 107.947 116.507  1.00  0.00     0.003 C 
ATOM     21  C   UNL     1     100.759 106.152 116.493  1.00  0.00     0.085 C 
ATOM     22  C   UNL     1     102.906 107.762 118.041  1.00  0.00    -0.000 C 
ATOM     23  C   UNL     1     101.440 105.626 117.723  1.00  0.00     0.159 C 
ATOM     24  C   UNL     1     102.172 106.545 118.618  1.00  0.00     0.005 C 
ATOM     25  C   UNL     1     102.510 108.993 118.923  1.00  0.00     0.020 C 
ATOM     26  C   UNL     1     104.431 107.498 118.145  1.00  0.00     0.017 C 
ATOM     27  O   UNL     1     101.347 104.398 118.001  1.00  0.00    -0.295 OA
ATOM     28  C   UNL     1     102.100 106.349 119.948  1.00  0.00     0.055 C 
ATOM     29  C   UNL     1     102.844 108.786 120.417  1.00  0.00     0.081 C 
ATOM     30  C   UNL     1     102.531 107.393 120.893  1.00  0.00     0.156 C 
ATOM     31  O   UNL     1     102.635 107.111 122.118  1.00  0.00    -0.295 OA
ENDBRANCH   9  11
ENDBRANCH   8   9
ENDBRANCH   1   8
TORSDOF 6
ENDMDL
MODEL 9
REMARK VINA RESULT:    -6.635      4.173      9.416
REMARK INTER + INTRA:         -10.627
REMARK INTER:                  -9.561
REMARK INTRA:                  -1.067
REMARK UNBOUND:                -1.665
REMARK SMILES CC[C@@H](CC[C@@H](C)[C@H]1CC[C@@H]2[C@H]3CC(=O)C4=CC(=O)CC[C@]4(C)[C@@H]3CC[C@@]21C)C(C)C
REMARK SMILES IDX 4 1 3 2 2 3 1 4 29 5 30 6 31 7 5 8 6 9 7 10 8 11 9 12 27 13
REMARK SMILES IDX 10 14 11 15 26 16 28 17 12 18 25 19 24 20 13 21 22 22 14 23
REMARK SMILES IDX 16 24 21 25 23 26 15 27 17 28 20 29 18 30 19 31
REMARK H PARENT
REMARK Flexibility Score: inf
ROOT
ATOM      1  C   UNL     1     101.937 116.518 123.417  1.00  0.00     0.004 C 
ENDROOT
BRANCH   1   2
ATOM      2  C   UNL     1     100.891 117.396 124.170  1.00  0.00    -0.009 C 
BRANCH   2   3
ATOM      3  C   UNL     1     100.894 118.875 123.678  1.00  0.00     0.000 C 
ATOM      4  C   UNL     1      99.736 119.239 122.746  1.00  0.00     0.004 C 
ENDBRANCH   2   3
BRANCH   2   5
ATOM      5  C   UNL     1     101.056 117.283 125.730  1.00  0.00    -0.014 C 
ATOM      6  C   UNL     1     100.928 118.652 126.424  1.00  0.00     0.007 C 
ATOM      7  C   UNL     1     102.409 116.657 126.124  1.00  0.00     0.007 C 
ENDBRANCH   2   5
ENDBRANCH   1   2
BRANCH   1   8
ATOM      8  C   UNL     1     101.326 115.333 122.635  1.00  0.00     0.004 C 
BRANCH   8   9
ATOM      9  C   UNL     1     101.999 113.957 122.907  1.00  0.00    -0.011 C 
ATOM     10  C   UNL     1     101.316 113.258 124.099  1.00  0.00     0.008 C 
BRANCH   9  11
ATOM     11  C   UNL     1     102.090 113.021 121.640  1.00  0.00    -0.002 C 
ATOM     12  C   UNL     1     102.120 113.821 120.339  1.00  0.00     0.005 C 
ATOM     13  C   UNL     1     103.320 112.053 121.519  1.00  0.00    -0.026 C 
ATOM     14  C   UNL     1     102.565 112.841 119.278  1.00  0.00     0.005 C 
ATOM     15  C   UNL     1     103.508 111.841 119.973  1.00  0.00    -0.001 C 
ATOM     16  C   UNL     1     103.051 110.698 122.238  1.00  0.00     0.007 C 
ATOM     17  C   UNL     1     104.612 112.705 122.095  1.00  0.00     0.012 C 
ATOM     18  C   UNL     1     103.250 110.389 119.464  1.00  0.00     0.004 C 
ATOM     19  C   UNL     1     104.051 109.615 121.814  1.00  0.00     0.005 C 
ATOM     20  C   UNL     1     104.030 109.323 120.284  1.00  0.00     0.003 C 
ATOM     21  C   UNL     1     103.629 110.271 117.964  1.00  0.00     0.085 C 
ATOM     22  C   UNL     1     103.578 107.853 119.900  1.00  0.00    -0.000 C 
ATOM     23  C   UNL     1     103.730 108.849 117.493  1.00  0.00     0.159 C 
ATOM     24  C   UNL     1     103.345 107.740 118.389  1.00  0.00     0.005 C 
ATOM     25  C   UNL     1     102.250 107.408 120.600  1.00  0.00     0.020 C 
ATOM     26  C   UNL     1     104.733 106.889 120.283  1.00  0.00     0.017 C 
ATOM     27  O   UNL     1     104.111 108.618 116.312  1.00  0.00    -0.295 OA
ATOM     28  C   UNL     1     102.701 106.678 117.867  1.00  0.00     0.055 C 
ATOM     29  C   UNL     1     101.816 105.981 120.200  1.00  0.00     0.081 C 
ATOM     30  C   UNL     1     102.018 105.705 118.734  1.00  0.00     0.156 C 
ATOM     31  O   UNL     1     101.594 104.625 118.236  1.00  0.00    -0.295 OA
ENDBRANCH   9  11
ENDBRANCH   8   9
ENDBRANCH   1   8
TORSDOF 6
ENDMDL
