MODEL 1
REMARK VINA RESULT:    -6.477      0.000      0.000
REMARK INTER + INTRA:          -7.847
REMARK INTER:                  -7.613
REMARK INTRA:                  -0.234
REMARK UNBOUND:                -0.234
REMARK SMILES O=c1c(O)c(-c2ccc(O)c(O)c2)oc2cc(O)ccc12
REMARK SMILES IDX 5 1 3 2 2 3 1 4 21 5 15 6 14 7 16 8 17 9 19 10 20 11 6 12
REMARK SMILES IDX 7 13 8 14 9 15 13 16 11 17 10 18 12 20 4 22 18 24
REMARK H PARENT 10 19 12 21 4 23 18 25
REMARK Flexibility Score: inf
ROOT
ATOM      1  C   UNL     1      29.007 -22.622 -32.766  1.00  0.00     0.180 A 
ATOM      2  C   UNL     1      30.079 -23.534 -32.678  1.00  0.00     0.208 A 
ATOM      3  C   UNL     1      30.804 -23.612 -31.478  1.00  0.00     0.235 A 
ATOM      4  O   UNL     1      31.774 -24.413 -31.377  1.00  0.00    -0.285 OA
ATOM      5  C   UNL     1      30.433 -22.801 -30.393  1.00  0.00     0.069 A 
ATOM      6  C   UNL     1      29.333 -21.930 -30.554  1.00  0.00     0.142 A 
ATOM      7  O   UNL     1      28.679 -21.880 -31.709  1.00  0.00    -0.452 OA
ATOM      8  C   UNL     1      28.926 -21.113 -29.494  1.00  0.00     0.094 A 
ATOM      9  C   UNL     1      29.607 -21.150 -28.273  1.00  0.00     0.119 A 
ATOM     10  C   UNL     1      30.701 -22.012 -28.110  1.00  0.00     0.047 A 
ATOM     11  C   UNL     1      31.114 -22.834 -29.162  1.00  0.00     0.020 A 
ENDROOT
BRANCH   1  12
ATOM     12  C   UNL     1      28.207 -22.467 -34.002  1.00  0.00     0.025 A 
ATOM     13  C   UNL     1      26.905 -22.988 -34.102  1.00  0.00     0.016 A 
ATOM     14  C   UNL     1      26.178 -22.851 -35.287  1.00  0.00     0.051 A 
ATOM     15  C   UNL     1      26.745 -22.205 -36.393  1.00  0.00     0.157 A 
ATOM     16  C   UNL     1      28.778 -21.839 -35.121  1.00  0.00     0.062 A 
ATOM     17  C   UNL     1      28.053 -21.700 -36.309  1.00  0.00     0.158 A 
BRANCH  15  18
ATOM     18  O   UNL     1      26.016 -22.069 -37.574  1.00  0.00    -0.504 OA
ATOM     19  H   UNL     1      26.202 -22.650 -38.383  1.00  0.00     0.293 HD
ENDBRANCH  15  18
BRANCH  17  20
ATOM     20  O   UNL     1      28.649 -21.058 -37.395  1.00  0.00    -0.504 OA
ATOM     21  H   UNL     1      29.615 -21.224 -37.654  1.00  0.00     0.293 HD
ENDBRANCH  17  20
ENDBRANCH   1  12
BRANCH   2  22
ATOM     22  O   UNL     1      30.394 -24.363 -33.756  1.00  0.00    -0.502 OA
ATOM     23  H   UNL     1      31.249 -24.906 -33.791  1.00  0.00     0.293 HD
ENDBRANCH   2  22
BRANCH   9  24
ATOM     24  O   UNL     1      29.189 -20.329 -27.228  1.00  0.00    -0.508 OA
ATOM     25  H   UNL     1      28.776 -19.421 -27.401  1.00  0.00     0.293 HD
ENDBRANCH   9  24
TORSDOF 5
ENDMDL
MODEL 2
REMARK VINA RESULT:    -6.231      1.656      6.904
REMARK INTER + INTRA:          -7.558
REMARK INTER:                  -7.278
REMARK INTRA:                  -0.280
REMARK UNBOUND:                -0.234
REMARK SMILES O=c1c(O)c(-c2ccc(O)c(O)c2)oc2cc(O)ccc12
REMARK SMILES IDX 5 1 3 2 2 3 1 4 21 5 15 6 14 7 16 8 17 9 19 10 20 11 6 12
REMARK SMILES IDX 7 13 8 14 9 15 13 16 11 17 10 18 12 20 4 22 18 24
REMARK H PARENT 10 19 12 21 4 23 18 25
REMARK Flexibility Score: inf
ROOT
ATOM      1  C   UNL     1      28.906 -22.280 -31.945  1.00  0.00     0.180 A 
ATOM      2  C   UNL     1      27.725 -23.020 -32.167  1.00  0.00     0.208 A 
ATOM      3  C   UNL     1      27.186 -23.059 -33.462  1.00  0.00     0.235 A 
ATOM      4  O   UNL     1      26.125 -23.705 -33.685  1.00  0.00    -0.285 OA
ATOM      5  C   UNL     1      27.842 -22.384 -34.505  1.00  0.00     0.069 A 
ATOM      6  C   UNL     1      29.031 -21.685 -34.204  1.00  0.00     0.142 A 
ATOM      7  O   UNL     1      29.504 -21.665 -32.963  1.00  0.00    -0.452 OA
ATOM      8  C   UNL     1      29.719 -21.007 -35.216  1.00  0.00     0.094 A 
ATOM      9  C   UNL     1      29.233 -21.015 -36.528  1.00  0.00     0.119 A 
ATOM     10  C   UNL     1      28.051 -21.706 -36.829  1.00  0.00     0.047 A 
ATOM     11  C   UNL     1      27.356 -22.388 -35.825  1.00  0.00     0.020 A 
ENDROOT
BRANCH   1  12
ATOM     12  C   UNL     1      29.526 -22.175 -30.605  1.00  0.00     0.025 A 
ATOM     13  C   UNL     1      30.623 -22.974 -30.240  1.00  0.00     0.016 A 
ATOM     14  C   UNL     1      31.177 -22.874 -28.961  1.00  0.00     0.051 A 
ATOM     15  C   UNL     1      30.634 -21.986 -28.023  1.00  0.00     0.157 A 
ATOM     16  C   UNL     1      28.972 -21.301 -29.654  1.00  0.00     0.062 A 
ATOM     17  C   UNL     1      29.525 -21.199 -28.372  1.00  0.00     0.158 A 
BRANCH  15  18
ATOM     18  O   UNL     1      31.189 -21.888 -26.749  1.00  0.00    -0.504 OA
ATOM     19  H   UNL     1      30.628 -21.640 -25.942  1.00  0.00     0.293 HD
ENDBRANCH  15  18
BRANCH  17  20
ATOM     20  O   UNL     1      28.956 -20.309 -27.460  1.00  0.00    -0.504 OA
ATOM     21  H   UNL     1      28.080 -20.508 -26.990  1.00  0.00     0.293 HD
ENDBRANCH  17  20
ENDBRANCH   1  12
BRANCH   2  22
ATOM     22  O   UNL     1      27.122 -23.722 -31.122  1.00  0.00    -0.502 OA
ATOM     23  H   UNL     1      26.264 -23.410 -30.682  1.00  0.00     0.293 HD
ENDBRANCH   2  22
BRANCH   9  24
ATOM     24  O   UNL     1      29.930 -20.335 -37.524  1.00  0.00    -0.508 OA
ATOM     25  H   UNL     1      30.721 -20.754 -37.997  1.00  0.00     0.293 HD
ENDBRANCH   9  24
TORSDOF 5
ENDMDL
MODEL 3
REMARK VINA RESULT:    -6.226      1.662      6.713
REMARK INTER + INTRA:          -7.552
REMARK INTER:                  -7.292
REMARK INTRA:                  -0.259
REMARK UNBOUND:                -0.234
REMARK SMILES O=c1c(O)c(-c2ccc(O)c(O)c2)oc2cc(O)ccc12
REMARK SMILES IDX 5 1 3 2 2 3 1 4 21 5 15 6 14 7 16 8 17 9 19 10 20 11 6 12
REMARK SMILES IDX 7 13 8 14 9 15 13 16 11 17 10 18 12 20 4 22 18 24
REMARK H PARENT 10 19 12 21 4 23 18 25
REMARK Flexibility Score: inf
ROOT
ATOM      1  C   UNL     1      29.074 -22.201 -31.985  1.00  0.00     0.180 A 
ATOM      2  C   UNL     1      30.163 -21.740 -32.755  1.00  0.00     0.208 A 
ATOM      3  C   UNL     1      30.007 -21.626 -34.145  1.00  0.00     0.235 A 
ATOM      4  O   UNL     1      30.969 -21.227 -34.858  1.00  0.00    -0.285 OA
ATOM      5  C   UNL     1      28.772 -21.952 -34.731  1.00  0.00     0.069 A 
ATOM      6  C   UNL     1      27.725 -22.384 -33.887  1.00  0.00     0.142 A 
ATOM      7  O   UNL     1      27.917 -22.486 -32.577  1.00  0.00    -0.452 OA
ATOM      8  C   UNL     1      26.478 -22.708 -34.431  1.00  0.00     0.094 A 
ATOM      9  C   UNL     1      26.261 -22.610 -35.809  1.00  0.00     0.119 A 
ATOM     10  C   UNL     1      27.299 -22.183 -36.650  1.00  0.00     0.047 A 
ATOM     11  C   UNL     1      28.549 -21.855 -36.117  1.00  0.00     0.020 A 
ENDROOT
BRANCH   1  12
ATOM     12  C   UNL     1      29.166 -22.365 -30.516  1.00  0.00     0.025 A 
ATOM     13  C   UNL     1      29.256 -23.638 -29.926  1.00  0.00     0.016 A 
ATOM     14  C   UNL     1      29.317 -23.769 -28.536  1.00  0.00     0.051 A 
ATOM     15  C   UNL     1      29.275 -22.635 -27.716  1.00  0.00     0.157 A 
ATOM     16  C   UNL     1      29.102 -21.232 -29.689  1.00  0.00     0.062 A 
ATOM     17  C   UNL     1      29.164 -21.361 -28.296  1.00  0.00     0.158 A 
BRANCH  15  18
ATOM     18  O   UNL     1      29.337 -22.769 -26.330  1.00  0.00    -0.504 OA
ATOM     19  H   UNL     1      28.915 -23.557 -25.853  1.00  0.00     0.293 HD
ENDBRANCH  15  18
BRANCH  17  20
ATOM     20  O   UNL     1      29.112 -20.211 -27.508  1.00  0.00    -0.504 OA
ATOM     21  H   UNL     1      28.378 -19.520 -27.612  1.00  0.00     0.293 HD
ENDBRANCH  17  20
ENDBRANCH   1  12
BRANCH   2  22
ATOM     22  O   UNL     1      31.362 -21.377 -32.140  1.00  0.00    -0.502 OA
ATOM     23  H   UNL     1      31.408 -21.085 -31.170  1.00  0.00     0.293 HD
ENDBRANCH   2  22
BRANCH   9  24
ATOM     24  O   UNL     1      25.013 -22.937 -36.334  1.00  0.00    -0.508 OA
ATOM     25  H   UNL     1      24.247 -22.276 -36.330  1.00  0.00     0.293 HD
ENDBRANCH   9  24
TORSDOF 5
ENDMDL
MODEL 4
REMARK VINA RESULT:    -6.122      1.556      2.179
REMARK INTER + INTRA:          -7.430
REMARK INTER:                  -7.377
REMARK INTRA:                  -0.052
REMARK UNBOUND:                -0.234
REMARK SMILES O=c1c(O)c(-c2ccc(O)c(O)c2)oc2cc(O)ccc12
REMARK SMILES IDX 5 1 3 2 2 3 1 4 21 5 15 6 14 7 16 8 17 9 19 10 20 11 6 12
REMARK SMILES IDX 7 13 8 14 9 15 13 16 11 17 10 18 12 20 4 22 18 24
REMARK H PARENT 10 19 12 21 4 23 18 25
REMARK Flexibility Score: inf
ROOT
ATOM      1  C   UNL     1      28.847 -22.509 -32.782  1.00  0.00     0.180 A 
ATOM      2  C   UNL     1      28.547 -23.856 -32.492  1.00  0.00     0.208 A 
ATOM      3  C   UNL     1      28.495 -24.263 -31.150  1.00  0.00     0.235 A 
ATOM      4  O   UNL     1      28.239 -25.465 -30.864  1.00  0.00    -0.285 OA
ATOM      5  C   UNL     1      28.722 -23.321 -30.133  1.00  0.00     0.069 A 
ATOM      6  C   UNL     1      28.994 -21.987 -30.506  1.00  0.00     0.142 A 
ATOM      7  O   UNL     1      29.042 -21.644 -31.789  1.00  0.00    -0.452 OA
ATOM      8  C   UNL     1      29.216 -21.016 -29.523  1.00  0.00     0.094 A 
ATOM      9  C   UNL     1      29.173 -21.362 -28.169  1.00  0.00     0.119 A 
ATOM     10  C   UNL     1      28.905 -22.686 -27.794  1.00  0.00     0.047 A 
ATOM     11  C   UNL     1      28.681 -23.663 -28.769  1.00  0.00     0.020 A 
ENDROOT
BRANCH   1  12
ATOM     12  C   UNL     1      28.938 -22.006 -34.172  1.00  0.00     0.025 A 
ATOM     13  C   UNL     1      30.091 -21.354 -34.641  1.00  0.00     0.016 A 
ATOM     14  C   UNL     1      30.144 -20.867 -35.950  1.00  0.00     0.051 A 
ATOM     15  C   UNL     1      29.043 -21.012 -36.804  1.00  0.00     0.157 A 
ATOM     16  C   UNL     1      27.829 -22.130 -35.025  1.00  0.00     0.062 A 
ATOM     17  C   UNL     1      27.879 -21.644 -36.337  1.00  0.00     0.158 A 
BRANCH  15  18
ATOM     18  O   UNL     1      29.100 -20.526 -38.109  1.00  0.00    -0.504 OA
ATOM     19  H   UNL     1      28.368 -20.723 -38.781  1.00  0.00     0.293 HD
ENDBRANCH  15  18
BRANCH  17  20
ATOM     20  O   UNL     1      26.763 -21.798 -37.159  1.00  0.00    -0.504 OA
ATOM     21  H   UNL     1      26.846 -22.034 -38.141  1.00  0.00     0.293 HD
ENDBRANCH  17  20
ENDBRANCH   1  12
BRANCH   2  22
ATOM     22  O   UNL     1      28.277 -24.759 -33.522  1.00  0.00    -0.502 OA
ATOM     23  H   UNL     1      28.515 -25.742 -33.457  1.00  0.00     0.293 HD
ENDBRANCH   2  22
BRANCH   9  24
ATOM     24  O   UNL     1      29.398 -20.384 -27.202  1.00  0.00    -0.508 OA
ATOM     25  H   UNL     1      29.459 -19.403 -27.446  1.00  0.00     0.293 HD
ENDBRANCH   9  24
TORSDOF 5
ENDMDL
MODEL 5
REMARK VINA RESULT:    -5.987      2.370      3.440
REMARK INTER + INTRA:          -7.270
REMARK INTER:                  -7.176
REMARK INTRA:                  -0.094
REMARK UNBOUND:                -0.234
REMARK SMILES O=c1c(O)c(-c2ccc(O)c(O)c2)oc2cc(O)ccc12
REMARK SMILES IDX 5 1 3 2 2 3 1 4 21 5 15 6 14 7 16 8 17 9 19 10 20 11 6 12
REMARK SMILES IDX 7 13 8 14 9 15 13 16 11 17 10 18 12 20 4 22 18 24
REMARK H PARENT 10 19 12 21 4 23 18 25
REMARK Flexibility Score: inf
ROOT
ATOM      1  C   UNL     1      28.463 -22.389 -31.617  1.00  0.00     0.180 A 
ATOM      2  C   UNL     1      28.836 -21.354 -30.734  1.00  0.00     0.208 A 
ATOM      3  C   UNL     1      28.875 -21.622 -29.357  1.00  0.00     0.235 A 
ATOM      4  O   UNL     1      29.195 -20.709 -28.545  1.00  0.00    -0.285 OA
ATOM      5  C   UNL     1      28.565 -22.911 -28.894  1.00  0.00     0.069 A 
ATOM      6  C   UNL     1      28.223 -23.898 -29.845  1.00  0.00     0.142 A 
ATOM      7  O   UNL     1      28.190 -23.601 -31.139  1.00  0.00    -0.452 OA
ATOM      8  C   UNL     1      27.916 -25.196 -29.425  1.00  0.00     0.094 A 
ATOM      9  C   UNL     1      27.942 -25.523 -28.066  1.00  0.00     0.119 A 
ATOM     10  C   UNL     1      28.279 -24.546 -27.119  1.00  0.00     0.047 A 
ATOM     11  C   UNL     1      28.589 -23.245 -27.528  1.00  0.00     0.020 A 
ENDROOT
BRANCH   1  12
ATOM     12  C   UNL     1      28.381 -22.181 -33.080  1.00  0.00     0.025 A 
ATOM     13  C   UNL     1      29.497 -21.758 -33.824  1.00  0.00     0.016 A 
ATOM     14  C   UNL     1      29.389 -21.545 -35.201  1.00  0.00     0.051 A 
ATOM     15  C   UNL     1      28.164 -21.738 -35.853  1.00  0.00     0.157 A 
ATOM     16  C   UNL     1      27.150 -22.352 -33.735  1.00  0.00     0.062 A 
ATOM     17  C   UNL     1      27.039 -22.140 -35.114  1.00  0.00     0.158 A 
BRANCH  15  18
ATOM     18  O   UNL     1      28.060 -21.526 -37.226  1.00  0.00    -0.504 OA
ATOM     19  H   UNL     1      27.644 -22.216 -37.840  1.00  0.00     0.293 HD
ENDBRANCH  15  18
BRANCH  17  20
ATOM     20  O   UNL     1      25.803 -22.334 -35.731  1.00  0.00    -0.504 OA
ATOM     21  H   UNL     1      25.674 -23.009 -36.476  1.00  0.00     0.293 HD
ENDBRANCH  17  20
ENDBRANCH   1  12
BRANCH   2  22
ATOM     22  O   UNL     1      29.189 -20.096 -31.226  1.00  0.00    -0.502 OA
ATOM     23  H   UNL     1      28.497 -19.411 -31.508  1.00  0.00     0.293 HD
ENDBRANCH   2  22
BRANCH   9  24
ATOM     24  O   UNL     1      27.633 -26.821 -27.665  1.00  0.00    -0.508 OA
ATOM     25  H   UNL     1      26.794 -27.027 -27.136  1.00  0.00     0.293 HD
ENDBRANCH   9  24
TORSDOF 5
ENDMDL
MODEL 6
REMARK VINA RESULT:    -5.968      3.719      6.228
REMARK INTER + INTRA:          -7.249
REMARK INTER:                  -7.011
REMARK INTRA:                  -0.237
REMARK UNBOUND:                -0.234
REMARK SMILES O=c1c(O)c(-c2ccc(O)c(O)c2)oc2cc(O)ccc12
REMARK SMILES IDX 5 1 3 2 2 3 1 4 21 5 15 6 14 7 16 8 17 9 19 10 20 11 6 12
REMARK SMILES IDX 7 13 8 14 9 15 13 16 11 17 10 18 12 20 4 22 18 24
REMARK H PARENT 10 19 12 21 4 23 18 25
REMARK Flexibility Score: inf
ROOT
ATOM      1  C   UNL     1      26.729 -24.697 -35.675  1.00  0.00     0.180 A 
ATOM      2  C   UNL     1      27.343 -24.712 -34.406  1.00  0.00     0.208 A 
ATOM      3  C   UNL     1      28.312 -23.740 -34.112  1.00  0.00     0.235 A 
ATOM      4  O   UNL     1      28.885 -23.739 -32.987  1.00  0.00    -0.285 OA
ATOM      5  C   UNL     1      28.630 -22.768 -35.075  1.00  0.00     0.069 A 
ATOM      6  C   UNL     1      27.952 -22.808 -36.313  1.00  0.00     0.142 A 
ATOM      7  O   UNL     1      27.048 -23.750 -36.555  1.00  0.00    -0.452 OA
ATOM      8  C   UNL     1      28.233 -21.852 -37.295  1.00  0.00     0.094 A 
ATOM      9  C   UNL     1      29.186 -20.856 -37.058  1.00  0.00     0.119 A 
ATOM     10  C   UNL     1      29.862 -20.814 -35.831  1.00  0.00     0.047 A 
ATOM     11  C   UNL     1      29.588 -21.764 -34.842  1.00  0.00     0.020 A 
ENDROOT
BRANCH   1  12
ATOM     12  C   UNL     1      25.712 -25.699 -36.067  1.00  0.00     0.025 A 
ATOM     13  C   UNL     1      26.058 -27.040 -36.307  1.00  0.00     0.016 A 
ATOM     14  C   UNL     1      25.085 -27.962 -36.699  1.00  0.00     0.051 A 
ATOM     15  C   UNL     1      23.755 -27.557 -36.871  1.00  0.00     0.157 A 
ATOM     16  C   UNL     1      24.381 -25.293 -36.261  1.00  0.00     0.062 A 
ATOM     17  C   UNL     1      23.403 -26.215 -36.653  1.00  0.00     0.158 A 
BRANCH  15  18
ATOM     18  O   UNL     1      22.786 -28.480 -37.261  1.00  0.00    -0.504 OA
ATOM     19  H   UNL     1      21.859 -28.189 -37.545  1.00  0.00     0.293 HD
ENDBRANCH  15  18
BRANCH  17  20
ATOM     20  O   UNL     1      22.090 -25.778 -36.822  1.00  0.00    -0.504 OA
ATOM     21  H   UNL     1      21.309 -26.423 -36.861  1.00  0.00     0.293 HD
ENDBRANCH  17  20
ENDBRANCH   1  12
BRANCH   2  22
ATOM     22  O   UNL     1      26.972 -25.660 -33.450  1.00  0.00    -0.502 OA
ATOM     23  H   UNL     1      26.431 -26.484 -33.686  1.00  0.00     0.293 HD
ENDBRANCH   2  22
BRANCH   9  24
ATOM     24  O   UNL     1      29.454 -19.911 -38.047  1.00  0.00    -0.508 OA
ATOM     25  H   UNL     1      30.375 -19.503 -38.153  1.00  0.00     0.293 HD
ENDBRANCH   9  24
TORSDOF 5
ENDMDL
MODEL 7
REMARK VINA RESULT:    -5.767      3.762      6.736
REMARK INTER + INTRA:          -7.011
REMARK INTER:                  -6.722
REMARK INTRA:                  -0.289
REMARK UNBOUND:                -0.234
REMARK SMILES O=c1c(O)c(-c2ccc(O)c(O)c2)oc2cc(O)ccc12
REMARK SMILES IDX 5 1 3 2 2 3 1 4 21 5 15 6 14 7 16 8 17 9 19 10 20 11 6 12
REMARK SMILES IDX 7 13 8 14 9 15 13 16 11 17 10 18 12 20 4 22 18 24
REMARK H PARENT 10 19 12 21 4 23 18 25
REMARK Flexibility Score: inf
ROOT
ATOM      1  C   UNL     1      29.490 -22.103 -26.705  1.00  0.00     0.180 A 
ATOM      2  C   UNL     1      30.350 -21.507 -25.758  1.00  0.00     0.208 A 
ATOM      3  C   UNL     1      30.008 -21.574 -24.399  1.00  0.00     0.235 A 
ATOM      4  O   UNL     1      30.754 -21.039 -23.533  1.00  0.00    -0.285 OA
ATOM      5  C   UNL     1      28.836 -22.245 -24.013  1.00  0.00     0.069 A 
ATOM      6  C   UNL     1      28.041 -22.835 -25.021  1.00  0.00     0.142 A 
ATOM      7  O   UNL     1      28.396 -22.742 -26.297  1.00  0.00    -0.452 OA
ATOM      8  C   UNL     1      26.871 -23.521 -24.677  1.00  0.00     0.094 A 
ATOM      9  C   UNL     1      26.481 -23.623 -23.338  1.00  0.00     0.119 A 
ATOM     10  C   UNL     1      27.267 -23.038 -22.335  1.00  0.00     0.047 A 
ATOM     11  C   UNL     1      28.438 -22.351 -22.668  1.00  0.00     0.020 A 
ENDROOT
BRANCH   1  12
ATOM     12  C   UNL     1      29.773 -22.060 -28.158  1.00  0.00     0.025 A 
ATOM     13  C   UNL     1      30.691 -22.942 -28.752  1.00  0.00     0.016 A 
ATOM     14  C   UNL     1      30.959 -22.867 -30.122  1.00  0.00     0.051 A 
ATOM     15  C   UNL     1      30.325 -21.902 -30.914  1.00  0.00     0.157 A 
ATOM     16  C   UNL     1      29.156 -21.080 -28.953  1.00  0.00     0.062 A 
ATOM     17  C   UNL     1      29.422 -21.002 -30.325  1.00  0.00     0.158 A 
BRANCH  15  18
ATOM     18  O   UNL     1      30.594 -21.830 -32.280  1.00  0.00    -0.504 OA
ATOM     19  H   UNL     1      30.874 -20.962 -32.721  1.00  0.00     0.293 HD
ENDBRANCH  15  18
BRANCH  17  20
ATOM     20  O   UNL     1      28.779 -20.025 -31.085  1.00  0.00    -0.504 OA
ATOM     21  H   UNL     1      29.242 -19.166 -31.359  1.00  0.00     0.293 HD
ENDBRANCH  17  20
ENDBRANCH   1  12
BRANCH   2  22
ATOM     22  O   UNL     1      31.534 -20.890 -26.166  1.00  0.00    -0.502 OA
ATOM     23  H   UNL     1      31.671 -20.551 -27.112  1.00  0.00     0.293 HD
ENDBRANCH   2  22
BRANCH   9  24
ATOM     24  O   UNL     1      25.313 -24.310 -23.013  1.00  0.00    -0.508 OA
ATOM     25  H   UNL     1      24.595 -24.490 -23.704  1.00  0.00     0.293 HD
ENDBRANCH   9  24
TORSDOF 5
ENDMDL
MODEL 8
REMARK VINA RESULT:    -5.757      1.981      7.145
REMARK INTER + INTRA:          -7.000
REMARK INTER:                  -6.697
REMARK INTRA:                  -0.302
REMARK UNBOUND:                -0.234
REMARK SMILES O=c1c(O)c(-c2ccc(O)c(O)c2)oc2cc(O)ccc12
REMARK SMILES IDX 5 1 3 2 2 3 1 4 21 5 15 6 14 7 16 8 17 9 19 10 20 11 6 12
REMARK SMILES IDX 7 13 8 14 9 15 13 16 11 17 10 18 12 20 4 22 18 24
REMARK H PARENT 10 19 12 21 4 23 18 25
REMARK Flexibility Score: inf
ROOT
ATOM      1  C   UNL     1      28.958 -22.267 -30.128  1.00  0.00     0.180 A 
ATOM      2  C   UNL     1      27.855 -23.147 -30.125  1.00  0.00     0.208 A 
ATOM      3  C   UNL     1      27.210 -23.426 -31.340  1.00  0.00     0.235 A 
ATOM      4  O   UNL     1      26.215 -24.202 -31.363  1.00  0.00    -0.285 OA
ATOM      5  C   UNL     1      27.687 -22.843 -32.526  1.00  0.00     0.069 A 
ATOM      6  C   UNL     1      28.811 -21.991 -32.447  1.00  0.00     0.142 A 
ATOM      7  O   UNL     1      29.387 -21.746 -31.276  1.00  0.00    -0.452 OA
ATOM      8  C   UNL     1      29.322 -21.399 -33.606  1.00  0.00     0.094 A 
ATOM      9  C   UNL     1      28.724 -21.643 -34.846  1.00  0.00     0.119 A 
ATOM     10  C   UNL     1      27.607 -22.487 -34.928  1.00  0.00     0.047 A 
ATOM     11  C   UNL     1      27.089 -23.085 -33.776  1.00  0.00     0.020 A 
ENDROOT
BRANCH   1  12
ATOM     12  C   UNL     1      29.679 -21.909 -28.886  1.00  0.00     0.025 A 
ATOM     13  C   UNL     1      29.173 -20.946 -27.996  1.00  0.00     0.016 A 
ATOM     14  C   UNL     1      29.883 -20.607 -26.842  1.00  0.00     0.051 A 
ATOM     15  C   UNL     1      31.116 -21.213 -26.566  1.00  0.00     0.157 A 
ATOM     16  C   UNL     1      30.925 -22.499 -28.616  1.00  0.00     0.062 A 
ATOM     17  C   UNL     1      31.639 -22.162 -27.460  1.00  0.00     0.158 A 
BRANCH  15  18
ATOM     18  O   UNL     1      31.822 -20.874 -25.413  1.00  0.00    -0.504 OA
ATOM     19  H   UNL     1      31.450 -21.058 -24.489  1.00  0.00     0.293 HD
ENDBRANCH  15  18
BRANCH  17  20
ATOM     20  O   UNL     1      32.867 -22.779 -27.219  1.00  0.00    -0.504 OA
ATOM     21  H   UNL     1      33.263 -23.458 -27.859  1.00  0.00     0.293 HD
ENDBRANCH  17  20
ENDBRANCH   1  12
BRANCH   2  22
ATOM     22  O   UNL     1      27.434 -23.751 -28.939  1.00  0.00    -0.502 OA
ATOM     23  H   UNL     1      27.116 -23.214 -28.140  1.00  0.00     0.293 HD
ENDBRANCH   2  22
BRANCH   9  24
ATOM     24  O   UNL     1      29.245 -21.044 -35.991  1.00  0.00    -0.508 OA
ATOM     25  H   UNL     1      29.653 -20.118 -35.965  1.00  0.00     0.293 HD
ENDBRANCH   9  24
TORSDOF 5
ENDMDL
MODEL 9
REMARK VINA RESULT:    -5.756      1.169      2.880
REMARK INTER + INTRA:          -6.999
REMARK INTER:                  -6.678
REMARK INTRA:                  -0.321
REMARK UNBOUND:                -0.234
REMARK SMILES O=c1c(O)c(-c2ccc(O)c(O)c2)oc2cc(O)ccc12
REMARK SMILES IDX 5 1 3 2 2 3 1 4 21 5 15 6 14 7 16 8 17 9 19 10 20 11 6 12
REMARK SMILES IDX 7 13 8 14 9 15 13 16 11 17 10 18 12 20 4 22 18 24
REMARK H PARENT 10 19 12 21 4 23 18 25
REMARK Flexibility Score: inf
ROOT
ATOM      1  C   UNL     1      28.640 -22.579 -32.722  1.00  0.00     0.180 A 
ATOM      2  C   UNL     1      28.315 -21.673 -31.691  1.00  0.00     0.208 A 
ATOM      3  C   UNL     1      28.992 -21.772 -30.465  1.00  0.00     0.235 A 
ATOM      4  O   UNL     1      28.711 -20.980 -29.524  1.00  0.00    -0.285 OA
ATOM      5  C   UNL     1      29.985 -22.751 -30.302  1.00  0.00     0.069 A 
ATOM      6  C   UNL     1      30.268 -23.605 -31.390  1.00  0.00     0.142 A 
ATOM      7  O   UNL     1      29.598 -23.484 -32.531  1.00  0.00    -0.452 OA
ATOM      8  C   UNL     1      31.257 -24.587 -31.271  1.00  0.00     0.094 A 
ATOM      9  C   UNL     1      31.968 -24.731 -30.075  1.00  0.00     0.119 A 
ATOM     10  C   UNL     1      31.689 -23.886 -28.992  1.00  0.00     0.047 A 
ATOM     11  C   UNL     1      30.703 -22.900 -29.101  1.00  0.00     0.020 A 
ENDROOT
BRANCH   1  12
ATOM     12  C   UNL     1      27.959 -22.551 -34.036  1.00  0.00     0.025 A 
ATOM     13  C   UNL     1      26.736 -23.214 -34.242  1.00  0.00     0.016 A 
ATOM     14  C   UNL     1      26.123 -23.193 -35.498  1.00  0.00     0.051 A 
ATOM     15  C   UNL     1      26.729 -22.523 -36.569  1.00  0.00     0.157 A 
ATOM     16  C   UNL     1      28.572 -21.899 -35.118  1.00  0.00     0.062 A 
ATOM     17  C   UNL     1      27.961 -21.876 -36.377  1.00  0.00     0.158 A 
BRANCH  15  18
ATOM     18  O   UNL     1      26.115 -22.504 -37.820  1.00  0.00    -0.504 OA
ATOM     19  H   UNL     1      26.520 -22.979 -38.618  1.00  0.00     0.293 HD
ENDBRANCH  15  18
BRANCH  17  20
ATOM     20  O   UNL     1      28.594 -21.207 -37.425  1.00  0.00    -0.504 OA
ATOM     21  H   UNL     1      29.380 -20.586 -37.269  1.00  0.00     0.293 HD
ENDBRANCH  17  20
ENDBRANCH   1  12
BRANCH   2  22
ATOM     22  O   UNL     1      27.358 -20.678 -31.899  1.00  0.00    -0.502 OA
ATOM     23  H   UNL     1      26.836 -20.600 -32.765  1.00  0.00     0.293 HD
ENDBRANCH   2  22
BRANCH   9  24
ATOM     24  O   UNL     1      32.949 -25.714 -29.972  1.00  0.00    -0.508 OA
ATOM     25  H   UNL     1      33.094 -26.397 -30.706  1.00  0.00     0.293 HD
ENDBRANCH   9  24
TORSDOF 5
ENDMDL
