MODEL 1
REMARK VINA RESULT:    -4.624      0.000      0.000
REMARK INTER + INTRA:          -4.988
REMARK INTER:                  -4.894
REMARK INTRA:                  -0.094
REMARK UNBOUND:                -0.094
REMARK SMILES C=C(C)[C@@H]1CC=C(C)C(=O)C1
REMARK SMILES IDX 8 1 7 2 6 3 5 4 4 5 11 6 9 7 10 8 2 9 1 10 3 11
REMARK H PARENT
REMARK Flexibility Score: inf
ROOT
ATOM      1  C   UNL     1      25.845  54.236  -0.453  1.00  0.00     0.048 C 
ATOM      2  C   UNL     1      24.880  53.115  -0.180  1.00  0.00    -0.012 C 
ATOM      3  C   UNL     1      23.835  52.918  -1.002  1.00  0.00    -0.019 C 
ATOM      4  C   UNL     1      22.849  51.801  -0.785  1.00  0.00     0.036 C 
ATOM      5  C   UNL     1      22.670  51.502   0.715  1.00  0.00     0.025 C 
ATOM      6  C   UNL     1      24.033  51.211   1.368  1.00  0.00     0.089 C 
ATOM      7  C   UNL     1      25.012  52.311   1.060  1.00  0.00     0.158 C 
ATOM      8  O   UNL     1      25.972  52.519   1.851  1.00  0.00    -0.295 OA
ENDROOT
BRANCH   5   9
ATOM      9  C   UNL     1      21.682  50.367   0.949  1.00  0.00    -0.077 C 
ATOM     10  C   UNL     1      21.694  49.261   0.184  1.00  0.00     0.008 C 
ATOM     11  C   UNL     1      20.663  50.466   2.054  1.00  0.00     0.039 C 
ENDBRANCH   5   9
TORSDOF 1
ENDMDL
MODEL 2
REMARK VINA RESULT:    -4.546      1.805      4.334
REMARK INTER + INTRA:          -4.905
REMARK INTER:                  -4.808
REMARK INTRA:                  -0.097
REMARK UNBOUND:                -0.094
REMARK SMILES C=C(C)[C@@H]1CC=C(C)C(=O)C1
REMARK SMILES IDX 8 1 7 2 6 3 5 4 4 5 11 6 9 7 10 8 2 9 1 10 3 11
REMARK H PARENT
REMARK Flexibility Score: inf
ROOT
ATOM      1  C   UNL     1      22.055  49.381  -1.166  1.00  0.00     0.048 C 
ATOM      2  C   UNL     1      22.833  50.574  -0.682  1.00  0.00    -0.012 C 
ATOM      3  C   UNL     1      22.994  51.639  -1.487  1.00  0.00    -0.019 C 
ATOM      4  C   UNL     1      23.749  52.865  -1.045  1.00  0.00     0.036 C 
ATOM      5  C   UNL     1      24.888  52.497  -0.077  1.00  0.00     0.025 C 
ATOM      6  C   UNL     1      24.338  51.692   1.114  1.00  0.00     0.089 C 
ATOM      7  C   UNL     1      23.524  50.523   0.630  1.00  0.00     0.158 C 
ATOM      8  O   UNL     1      23.403  49.510   1.371  1.00  0.00    -0.295 OA
ENDROOT
BRANCH   5   9
ATOM      9  C   UNL     1      25.654  53.730   0.385  1.00  0.00    -0.077 C 
ATOM     10  C   UNL     1      26.018  53.887   1.669  1.00  0.00     0.008 C 
ATOM     11  C   UNL     1      26.019  54.807  -0.604  1.00  0.00     0.039 C 
ENDBRANCH   5   9
TORSDOF 1
ENDMDL
MODEL 3
REMARK VINA RESULT:    -4.365      1.720      2.873
REMARK INTER + INTRA:          -4.714
REMARK INTER:                  -4.617
REMARK INTRA:                  -0.096
REMARK UNBOUND:                -0.094
REMARK SMILES C=C(C)[C@@H]1CC=C(C)C(=O)C1
REMARK SMILES IDX 8 1 7 2 6 3 5 4 4 5 11 6 9 7 10 8 2 9 1 10 3 11
REMARK H PARENT
REMARK Flexibility Score: inf
ROOT
ATOM      1  C   UNL     1      26.081  53.035   1.895  1.00  0.00     0.048 C 
ATOM      2  C   UNL     1      25.042  52.451   0.978  1.00  0.00    -0.012 C 
ATOM      3  C   UNL     1      24.511  51.246   1.252  1.00  0.00    -0.019 C 
ATOM      4  C   UNL     1      23.455  50.623   0.378  1.00  0.00     0.036 C 
ATOM      5  C   UNL     1      23.649  51.023  -1.097  1.00  0.00     0.025 C 
ATOM      6  C   UNL     1      23.688  52.556  -1.234  1.00  0.00     0.089 C 
ATOM      7  C   UNL     1      24.697  53.145  -0.286  1.00  0.00     0.158 C 
ATOM      8  O   UNL     1      25.221  54.258  -0.562  1.00  0.00    -0.295 OA
ENDROOT
BRANCH   5   9
ATOM      9  C   UNL     1      22.580  50.407  -1.991  1.00  0.00    -0.077 C 
ATOM     10  C   UNL     1      21.801  49.402  -1.558  1.00  0.00     0.008 C 
ATOM     11  C   UNL     1      22.379  50.923  -3.393  1.00  0.00     0.039 C 
ENDBRANCH   5   9
TORSDOF 1
ENDMDL
MODEL 4
REMARK VINA RESULT:    -4.316      2.978      4.737
REMARK INTER + INTRA:          -4.662
REMARK INTER:                  -4.570
REMARK INTRA:                  -0.091
REMARK UNBOUND:                -0.094
REMARK SMILES C=C(C)[C@@H]1CC=C(C)C(=O)C1
REMARK SMILES IDX 8 1 7 2 6 3 5 4 4 5 11 6 9 7 10 8 2 9 1 10 3 11
REMARK H PARENT
REMARK Flexibility Score: inf
ROOT
ATOM      1  C   UNL     1      21.063  48.840  -4.240  1.00  0.00     0.048 C 
ATOM      2  C   UNL     1      21.686  49.459  -3.019  1.00  0.00    -0.012 C 
ATOM      3  C   UNL     1      21.512  48.883  -1.816  1.00  0.00    -0.019 C 
ATOM      4  C   UNL     1      22.128  49.451  -0.564  1.00  0.00     0.036 C 
ATOM      5  C   UNL     1      22.220  50.987  -0.638  1.00  0.00     0.025 C 
ATOM      6  C   UNL     1      22.980  51.415  -1.907  1.00  0.00     0.089 C 
ATOM      7  C   UNL     1      22.384  50.764  -3.125  1.00  0.00     0.158 C 
ATOM      8  O   UNL     1      22.517  51.322  -4.247  1.00  0.00    -0.295 OA
ENDROOT
BRANCH   5   9
ATOM      9  C   UNL     1      22.851  51.573   0.618  1.00  0.00    -0.077 C 
ATOM     10  C   UNL     1      22.210  51.546   1.800  1.00  0.00     0.008 C 
ATOM     11  C   UNL     1      24.220  52.200   0.555  1.00  0.00     0.039 C 
ENDBRANCH   5   9
TORSDOF 1
ENDMDL
MODEL 5
REMARK VINA RESULT:    -4.257      1.584      2.090
REMARK INTER + INTRA:          -4.599
REMARK INTER:                  -4.502
REMARK INTRA:                  -0.097
REMARK UNBOUND:                -0.094
REMARK SMILES C=C(C)[C@@H]1CC=C(C)C(=O)C1
REMARK SMILES IDX 8 1 7 2 6 3 5 4 4 5 11 6 9 7 10 8 2 9 1 10 3 11
REMARK H PARENT
REMARK Flexibility Score: inf
ROOT
ATOM      1  C   UNL     1      25.472  53.497   1.039  1.00  0.00     0.048 C 
ATOM      2  C   UNL     1      24.688  52.414   0.350  1.00  0.00    -0.012 C 
ATOM      3  C   UNL     1      24.110  52.661  -0.839  1.00  0.00    -0.019 C 
ATOM      4  C   UNL     1      23.329  51.607  -1.580  1.00  0.00     0.036 C 
ATOM      5  C   UNL     1      22.620  50.652  -0.602  1.00  0.00     0.025 C 
ATOM      6  C   UNL     1      23.637  50.041   0.379  1.00  0.00     0.089 C 
ATOM      7  C   UNL     1      24.451  51.121   1.037  1.00  0.00     0.158 C 
ATOM      8  O   UNL     1      24.963  50.902   2.168  1.00  0.00    -0.295 OA
ENDROOT
BRANCH   5   9
ATOM      9  C   UNL     1      21.835  49.575  -1.339  1.00  0.00    -0.077 C 
ATOM     10  C   UNL     1      21.284  48.539  -0.683  1.00  0.00     0.008 C 
ATOM     11  C   UNL     1      21.660  49.656  -2.833  1.00  0.00     0.039 C 
ENDBRANCH   5   9
TORSDOF 1
ENDMDL
MODEL 6
REMARK VINA RESULT:    -4.227      3.041      4.447
REMARK INTER + INTRA:          -4.568
REMARK INTER:                  -4.478
REMARK INTRA:                  -0.090
REMARK UNBOUND:                -0.094
REMARK SMILES C=C(C)[C@@H]1CC=C(C)C(=O)C1
REMARK SMILES IDX 8 1 7 2 6 3 5 4 4 5 11 6 9 7 10 8 2 9 1 10 3 11
REMARK H PARENT
REMARK Flexibility Score: inf
ROOT
ATOM      1  C   UNL     1      21.676  49.392  -4.433  1.00  0.00     0.048 C 
ATOM      2  C   UNL     1      21.994  50.007  -3.098  1.00  0.00    -0.012 C 
ATOM      3  C   UNL     1      22.675  51.164  -3.041  1.00  0.00    -0.019 C 
ATOM      4  C   UNL     1      23.005  51.832  -1.731  1.00  0.00     0.036 C 
ATOM      5  C   UNL     1      23.230  50.790  -0.619  1.00  0.00     0.025 C 
ATOM      6  C   UNL     1      22.011  49.857  -0.507  1.00  0.00     0.089 C 
ATOM      7  C   UNL     1      21.666  49.275  -1.850  1.00  0.00     0.158 C 
ATOM      8  O   UNL     1      21.058  48.171  -1.903  1.00  0.00    -0.295 OA
ENDROOT
BRANCH   5   9
ATOM      9  C   UNL     1      23.555  51.453   0.713  1.00  0.00    -0.077 C 
ATOM     10  C   UNL     1      24.775  51.957   0.965  1.00  0.00     0.008 C 
ATOM     11  C   UNL     1      22.500  51.554   1.784  1.00  0.00     0.039 C 
ENDBRANCH   5   9
TORSDOF 1
ENDMDL
MODEL 7
REMARK VINA RESULT:    -4.227      2.097      3.155
REMARK INTER + INTRA:          -4.568
REMARK INTER:                  -4.472
REMARK INTRA:                  -0.096
REMARK UNBOUND:                -0.094
REMARK SMILES C=C(C)[C@@H]1CC=C(C)C(=O)C1
REMARK SMILES IDX 8 1 7 2 6 3 5 4 4 5 11 6 9 7 10 8 2 9 1 10 3 11
REMARK H PARENT
REMARK Flexibility Score: inf
ROOT
ATOM      1  C   UNL     1      22.787  50.912  -3.305  1.00  0.00     0.048 C 
ATOM      2  C   UNL     1      22.576  50.645  -1.840  1.00  0.00    -0.012 C 
ATOM      3  C   UNL     1      21.943  49.524  -1.450  1.00  0.00    -0.019 C 
ATOM      4  C   UNL     1      21.721  49.199   0.003  1.00  0.00     0.036 C 
ATOM      5  C   UNL     1      21.526  50.481   0.835  1.00  0.00     0.025 C 
ATOM      6  C   UNL     1      22.714  51.438   0.627  1.00  0.00     0.089 C 
ATOM      7  C   UNL     1      22.953  51.672  -0.839  1.00  0.00     0.158 C 
ATOM      8  O   UNL     1      23.514  52.740  -1.207  1.00  0.00    -0.295 OA
ENDROOT
BRANCH   5   9
ATOM      9  C   UNL     1      21.310  50.166   2.310  1.00  0.00    -0.077 C 
ATOM     10  C   UNL     1      22.286  50.353   3.215  1.00  0.00     0.008 C 
ATOM     11  C   UNL     1      19.982  49.634   2.782  1.00  0.00     0.039 C 
ENDBRANCH   5   9
TORSDOF 1
ENDMDL
MODEL 8
REMARK VINA RESULT:    -4.143      3.088      4.552
REMARK INTER + INTRA:          -4.479
REMARK INTER:                  -4.385
REMARK INTRA:                  -0.094
REMARK UNBOUND:                -0.094
REMARK SMILES C=C(C)[C@@H]1CC=C(C)C(=O)C1
REMARK SMILES IDX 8 1 7 2 6 3 5 4 4 5 11 6 9 7 10 8 2 9 1 10 3 11
REMARK H PARENT
REMARK Flexibility Score: inf
ROOT
ATOM      1  C   UNL     1      22.165  51.478   1.673  1.00  0.00     0.048 C 
ATOM      2  C   UNL     1      22.359  51.005   0.258  1.00  0.00    -0.012 C 
ATOM      3  C   UNL     1      22.945  51.813  -0.642  1.00  0.00    -0.019 C 
ATOM      4  C   UNL     1      23.179  51.383  -2.066  1.00  0.00     0.036 C 
ATOM      5  C   UNL     1      22.070  50.429  -2.547  1.00  0.00     0.025 C 
ATOM      6  C   UNL     1      21.945  49.230  -1.590  1.00  0.00     0.089 C 
ATOM      7  C   UNL     1      21.794  49.701  -0.169  1.00  0.00     0.158 C 
ATOM      8  O   UNL     1      21.212  48.958   0.666  1.00  0.00    -0.295 OA
ENDROOT
BRANCH   5   9
ATOM      9  C   UNL     1      22.300  49.978  -3.984  1.00  0.00    -0.077 C 
ATOM     10  C   UNL     1      21.316  49.415  -4.707  1.00  0.00     0.008 C 
ATOM     11  C   UNL     1      23.651  50.158  -4.625  1.00  0.00     0.039 C 
ENDBRANCH   5   9
TORSDOF 1
ENDMDL
MODEL 9
REMARK VINA RESULT:    -4.110      2.384      3.920
REMARK INTER + INTRA:          -4.444
REMARK INTER:                  -4.349
REMARK INTRA:                  -0.095
REMARK UNBOUND:                -0.094
REMARK SMILES C=C(C)[C@@H]1CC=C(C)C(=O)C1
REMARK SMILES IDX 8 1 7 2 6 3 5 4 4 5 11 6 9 7 10 8 2 9 1 10 3 11
REMARK H PARENT
REMARK Flexibility Score: inf
ROOT
ATOM      1  C   UNL     1      23.943  50.875   1.855  1.00  0.00     0.048 C 
ATOM      2  C   UNL     1      23.300  50.775   0.499  1.00  0.00    -0.012 C 
ATOM      3  C   UNL     1      22.534  49.712   0.200  1.00  0.00    -0.019 C 
ATOM      4  C   UNL     1      21.853  49.570  -1.137  1.00  0.00     0.036 C 
ATOM      5  C   UNL     1      22.693  50.209  -2.258  1.00  0.00     0.025 C 
ATOM      6  C   UNL     1      23.009  51.677  -1.918  1.00  0.00     0.089 C 
ATOM      7  C   UNL     1      23.613  51.783  -0.544  1.00  0.00     0.158 C 
ATOM      8  O   UNL     1      24.360  52.762  -0.275  1.00  0.00    -0.295 OA
ENDROOT
BRANCH   5   9
ATOM      9  C   UNL     1      22.011  50.081  -3.614  1.00  0.00    -0.077 C 
ATOM     10  C   UNL     1      21.173  49.065  -3.882  1.00  0.00     0.008 C 
ATOM     11  C   UNL     1      22.268  51.105  -4.689  1.00  0.00     0.039 C 
ENDBRANCH   5   9
TORSDOF 1
ENDMDL
