MODEL 1
REMARK VINA RESULT:    -3.291      0.000      0.000
REMARK INTER + INTRA:          -7.790
REMARK INTER:                  -5.600
REMARK INTRA:                  -2.190
REMARK UNBOUND:                -2.190
REMARK SMILES CCCCCCCCCCCCCC(=O)[O-]
REMARK SMILES IDX 8 1 9 2 10 3 11 4 12 5 13 6 14 7 15 8 16 9 7 10 6 11 5 12
REMARK SMILES IDX 4 13 3 14 2 15 1 16
REMARK H PARENT
REMARK Flexibility Score: inf
ROOT
ATOM      1  C   UNL     1      -5.130  -2.646  37.154  1.00  0.00     0.000 C 
ENDROOT
BRANCH   1   2
ATOM      2  C   UNL     1      -5.319  -3.358  35.807  1.00  0.00     0.000 C 
BRANCH   2   3
ATOM      3  C   UNL     1      -3.974  -3.823  35.236  1.00  0.00     0.000 C 
BRANCH   3   4
ATOM      4  C   UNL     1      -3.434  -2.816  34.210  1.00  0.00     0.000 C 
BRANCH   4   5
ATOM      5  C   UNL     1      -2.136  -2.136  34.673  1.00  0.00     0.006 C 
BRANCH   5   6
ATOM      6  C   UNL     1      -1.588  -2.734  35.975  1.00  0.00     0.053 C 
BRANCH   6   7
ATOM      7  C   UNL     1      -0.212  -2.214  36.250  1.00  0.00     0.041 C 
ATOM      8  O   UNL     1       0.785  -2.975  36.145  1.00  0.00    -0.550 OA
ATOM      9  O   UNL     1      -0.027  -0.877  36.576  1.00  0.00    -0.550 OA
ENDBRANCH   6   7
ENDBRANCH   5   6
ENDBRANCH   4   5
ENDBRANCH   3   4
ENDBRANCH   2   3
ENDBRANCH   1   2
BRANCH   1  10
ATOM     10  C   UNL     1      -6.172  -1.532  37.335  1.00  0.00     0.000 C 
BRANCH  10  11
ATOM     11  C   UNL     1      -5.530  -0.162  37.613  1.00  0.00    -0.000 C 
BRANCH  11  12
ATOM     12  C   UNL     1      -4.036  -0.126  37.250  1.00  0.00    -0.000 C 
BRANCH  12  13
ATOM     13  C   UNL     1      -3.735   0.772  36.036  1.00  0.00    -0.000 C 
BRANCH  13  14
ATOM     14  C   UNL     1      -4.965   1.183  35.206  1.00  0.00    -0.000 C 
BRANCH  14  15
ATOM     15  C   UNL     1      -5.065   0.432  33.871  1.00  0.00    -0.003 C 
ATOM     16  C   UNL     1      -6.356  -0.378  33.791  1.00  0.00     0.004 C 
ENDBRANCH  14  15
ENDBRANCH  13  14
ENDBRANCH  12  13
ENDBRANCH  11  12
ENDBRANCH  10  11
ENDBRANCH   1  10
TORSDOF 12
ENDMDL
MODEL 2
REMARK VINA RESULT:    -3.220      3.065      5.232
REMARK INTER + INTRA:          -7.669
REMARK INTER:                  -5.402
REMARK INTRA:                  -2.267
REMARK UNBOUND:                -2.190
REMARK SMILES CCCCCCCCCCCCCC(=O)[O-]
REMARK SMILES IDX 8 1 9 2 10 3 11 4 12 5 13 6 14 7 15 8 16 9 7 10 6 11 5 12
REMARK SMILES IDX 4 13 3 14 2 15 1 16
REMARK H PARENT
REMARK Flexibility Score: inf
ROOT
ATOM      1  C   UNL     1      -5.007  -2.029  37.710  1.00  0.00     0.000 C 
ENDROOT
BRANCH   1   2
ATOM      2  C   UNL     1      -5.054  -0.496  37.687  1.00  0.00     0.000 C 
BRANCH   2   3
ATOM      3  C   UNL     1      -5.510   0.022  36.318  1.00  0.00     0.000 C 
BRANCH   3   4
ATOM      4  C   UNL     1      -4.398   0.835  35.639  1.00  0.00     0.000 C 
BRANCH   4   5
ATOM      5  C   UNL     1      -4.344   0.612  34.120  1.00  0.00     0.006 C 
BRANCH   5   6
ATOM      6  C   UNL     1      -5.717   0.278  33.522  1.00  0.00     0.053 C 
BRANCH   6   7
ATOM      7  C   UNL     1      -6.042   1.217  32.403  1.00  0.00     0.041 C 
ATOM      8  O   UNL     1      -7.238   1.395  32.053  1.00  0.00    -0.550 OA
ATOM      9  O   UNL     1      -5.028   1.931  31.779  1.00  0.00    -0.550 OA
ENDBRANCH   6   7
ENDBRANCH   5   6
ENDBRANCH   4   5
ENDBRANCH   3   4
ENDBRANCH   2   3
ENDBRANCH   1   2
BRANCH   1  10
ATOM     10  C   UNL     1      -5.764  -2.619  36.511  1.00  0.00     0.000 C 
BRANCH  10  11
ATOM     11  C   UNL     1      -4.912  -3.612  35.702  1.00  0.00    -0.000 C 
BRANCH  11  12
ATOM     12  C   UNL     1      -4.629  -3.118  34.273  1.00  0.00    -0.000 C 
BRANCH  12  13
ATOM     13  C   UNL     1      -3.172  -2.664  34.073  1.00  0.00    -0.000 C 
BRANCH  13  14
ATOM     14  C   UNL     1      -2.288  -2.730  35.331  1.00  0.00    -0.000 C 
BRANCH  14  15
ATOM     15  C   UNL     1      -1.445  -1.463  35.538  1.00  0.00    -0.003 C 
ATOM     16  C   UNL     1      -1.409  -1.060  37.009  1.00  0.00     0.004 C 
ENDBRANCH  14  15
ENDBRANCH  13  14
ENDBRANCH  12  13
ENDBRANCH  11  12
ENDBRANCH  10  11
ENDBRANCH   1  10
TORSDOF 12
ENDMDL
MODEL 3
REMARK VINA RESULT:    -3.218      1.588      3.505
REMARK INTER + INTRA:          -7.666
REMARK INTER:                  -5.870
REMARK INTRA:                  -1.796
REMARK UNBOUND:                -2.190
REMARK SMILES CCCCCCCCCCCCCC(=O)[O-]
REMARK SMILES IDX 8 1 9 2 10 3 11 4 12 5 13 6 14 7 15 8 16 9 7 10 6 11 5 12
REMARK SMILES IDX 4 13 3 14 2 15 1 16
REMARK H PARENT
REMARK Flexibility Score: inf
ROOT
ATOM      1  C   UNL     1      -3.894  -0.524  34.156  1.00  0.00     0.000 C 
ENDROOT
BRANCH   1   2
ATOM      2  C   UNL     1      -2.689  -1.466  34.038  1.00  0.00     0.000 C 
BRANCH   2   3
ATOM      3  C   UNL     1      -1.781  -1.358  35.270  1.00  0.00     0.000 C 
BRANCH   3   4
ATOM      4  C   UNL     1      -1.522  -2.741  35.885  1.00  0.00     0.000 C 
BRANCH   4   5
ATOM      5  C   UNL     1      -0.109  -2.872  36.474  1.00  0.00     0.006 C 
BRANCH   5   6
ATOM      6  C   UNL     1       0.822  -1.735  36.033  1.00  0.00     0.053 C 
BRANCH   6   7
ATOM      7  C   UNL     1       2.094  -2.289  35.473  1.00  0.00     0.041 C 
ATOM      8  O   UNL     1       2.071  -3.308  34.734  1.00  0.00    -0.550 OA
ATOM      9  O   UNL     1       3.301  -1.651  35.727  1.00  0.00    -0.550 OA
ENDBRANCH   6   7
ENDBRANCH   5   6
ENDBRANCH   4   5
ENDBRANCH   3   4
ENDBRANCH   2   3
ENDBRANCH   1   2
BRANCH   1  10
ATOM     10  C   UNL     1      -5.200  -1.319  34.296  1.00  0.00     0.000 C 
BRANCH  10  11
ATOM     11  C   UNL     1      -4.964  -2.838  34.370  1.00  0.00    -0.000 C 
BRANCH  11  12
ATOM     12  C   UNL     1      -5.289  -3.418  35.757  1.00  0.00    -0.000 C 
BRANCH  12  13
ATOM     13  C   UNL     1      -5.802  -2.356  36.747  1.00  0.00    -0.000 C 
BRANCH  13  14
ATOM     14  C   UNL     1      -4.952  -2.183  38.019  1.00  0.00    -0.000 C 
BRANCH  14  15
ATOM     15  C   UNL     1      -4.141  -0.880  38.025  1.00  0.00    -0.003 C 
ATOM     16  C   UNL     1      -5.020   0.317  37.675  1.00  0.00     0.004 C 
ENDBRANCH  14  15
ENDBRANCH  13  14
ENDBRANCH  12  13
ENDBRANCH  11  12
ENDBRANCH  10  11
ENDBRANCH   1  10
TORSDOF 12
ENDMDL
MODEL 4
REMARK VINA RESULT:    -3.175      1.274      1.867
REMARK INTER + INTRA:          -7.593
REMARK INTER:                  -5.696
REMARK INTRA:                  -1.897
REMARK UNBOUND:                -2.190
REMARK SMILES CCCCCCCCCCCCCC(=O)[O-]
REMARK SMILES IDX 8 1 9 2 10 3 11 4 12 5 13 6 14 7 15 8 16 9 7 10 6 11 5 12
REMARK SMILES IDX 4 13 3 14 2 15 1 16
REMARK H PARENT
REMARK Flexibility Score: inf
ROOT
ATOM      1  C   UNL     1      -5.374  -3.205  35.675  1.00  0.00     0.000 C 
ENDROOT
BRANCH   1   2
ATOM      2  C   UNL     1      -4.869  -2.462  34.432  1.00  0.00     0.000 C 
BRANCH   2   3
ATOM      3  C   UNL     1      -3.420  -2.849  34.108  1.00  0.00     0.000 C 
BRANCH   3   4
ATOM      4  C   UNL     1      -2.607  -3.057  35.394  1.00  0.00     0.000 C 
BRANCH   4   5
ATOM      5  C   UNL     1      -1.317  -2.222  35.420  1.00  0.00     0.006 C 
BRANCH   5   6
ATOM      6  C   UNL     1      -0.208  -2.874  36.256  1.00  0.00     0.053 C 
BRANCH   6   7
ATOM      7  C   UNL     1       1.139  -2.465  35.748  1.00  0.00     0.041 C 
ATOM      8  O   UNL     1       1.809  -3.249  35.026  1.00  0.00    -0.550 OA
ATOM      9  O   UNL     1       1.632  -1.198  36.032  1.00  0.00    -0.550 OA
ENDBRANCH   6   7
ENDBRANCH   5   6
ENDBRANCH   4   5
ENDBRANCH   3   4
ENDBRANCH   2   3
ENDBRANCH   1   2
BRANCH   1  10
ATOM     10  C   UNL     1      -5.840  -2.216  36.754  1.00  0.00     0.000 C 
BRANCH  10  11
ATOM     11  C   UNL     1      -4.998  -2.301  38.039  1.00  0.00    -0.000 C 
BRANCH  11  12
ATOM     12  C   UNL     1      -4.584  -0.917  38.565  1.00  0.00    -0.000 C 
BRANCH  12  13
ATOM     13  C   UNL     1      -3.213  -0.459  38.036  1.00  0.00    -0.000 C 
BRANCH  13  14
ATOM     14  C   UNL     1      -3.224   0.867  37.254  1.00  0.00    -0.000 C 
BRANCH  14  15
ATOM     15  C   UNL     1      -3.518   0.679  35.759  1.00  0.00    -0.003 C 
ATOM     16  C   UNL     1      -4.926   1.152  35.412  1.00  0.00     0.004 C 
ENDBRANCH  14  15
ENDBRANCH  13  14
ENDBRANCH  12  13
ENDBRANCH  11  12
ENDBRANCH  10  11
ENDBRANCH   1  10
TORSDOF 12
ENDMDL
MODEL 5
REMARK VINA RESULT:    -3.174      1.159      1.923
REMARK INTER + INTRA:          -7.590
REMARK INTER:                  -5.524
REMARK INTRA:                  -2.066
REMARK UNBOUND:                -2.190
REMARK SMILES CCCCCCCCCCCCCC(=O)[O-]
REMARK SMILES IDX 8 1 9 2 10 3 11 4 12 5 13 6 14 7 15 8 16 9 7 10 6 11 5 12
REMARK SMILES IDX 4 13 3 14 2 15 1 16
REMARK H PARENT
REMARK Flexibility Score: inf
ROOT
ATOM      1  C   UNL     1      -5.914  -0.762  38.320  1.00  0.00     0.000 C 
ENDROOT
BRANCH   1   2
ATOM      2  C   UNL     1      -6.409  -1.551  37.101  1.00  0.00     0.000 C 
BRANCH   2   3
ATOM      3  C   UNL     1      -5.509  -2.761  36.824  1.00  0.00     0.000 C 
BRANCH   3   4
ATOM      4  C   UNL     1      -5.367  -3.007  35.315  1.00  0.00     0.000 C 
BRANCH   4   5
ATOM      5  C   UNL     1      -3.910  -3.248  34.888  1.00  0.00     0.006 C 
BRANCH   5   6
ATOM      6  C   UNL     1      -2.956  -3.363  36.083  1.00  0.00     0.053 C 
BRANCH   6   7
ATOM      7  C   UNL     1      -1.651  -2.699  35.776  1.00  0.00     0.041 C 
ATOM      8  O   UNL     1      -1.587  -1.807  34.890  1.00  0.00    -0.550 OA
ATOM      9  O   UNL     1      -0.514  -3.031  36.501  1.00  0.00    -0.550 OA
ENDBRANCH   6   7
ENDBRANCH   5   6
ENDBRANCH   4   5
ENDBRANCH   3   4
ENDBRANCH   2   3
ENDBRANCH   1   2
BRANCH   1  10
ATOM     10  C   UNL     1      -4.629  -1.382  38.889  1.00  0.00     0.000 C 
BRANCH  10  11
ATOM     11  C   UNL     1      -3.366  -0.602  38.487  1.00  0.00    -0.000 C 
BRANCH  11  12
ATOM     12  C   UNL     1      -3.690   0.785  37.907  1.00  0.00    -0.000 C 
BRANCH  12  13
ATOM     13  C   UNL     1      -3.339   0.908  36.413  1.00  0.00    -0.000 C 
BRANCH  13  14
ATOM     14  C   UNL     1      -4.541   1.107  35.473  1.00  0.00    -0.000 C 
BRANCH  14  15
ATOM     15  C   UNL     1      -4.380   0.377  34.132  1.00  0.00    -0.003 C 
ATOM     16  C   UNL     1      -5.725   0.215  33.429  1.00  0.00     0.004 C 
ENDBRANCH  14  15
ENDBRANCH  13  14
ENDBRANCH  12  13
ENDBRANCH  11  12
ENDBRANCH  10  11
ENDBRANCH   1  10
TORSDOF 12
ENDMDL
MODEL 6
REMARK VINA RESULT:    -3.084      1.241      3.681
REMARK INTER + INTRA:          -7.437
REMARK INTER:                  -5.289
REMARK INTRA:                  -2.149
REMARK UNBOUND:                -2.190
REMARK SMILES CCCCCCCCCCCCCC(=O)[O-]
REMARK SMILES IDX 8 1 9 2 10 3 11 4 12 5 13 6 14 7 15 8 16 9 7 10 6 11 5 12
REMARK SMILES IDX 4 13 3 14 2 15 1 16
REMARK H PARENT
REMARK Flexibility Score: inf
ROOT
ATOM      1  C   UNL     1      -5.445   0.449  34.312  1.00  0.00     0.000 C 
ENDROOT
BRANCH   1   2
ATOM      2  C   UNL     1      -3.949   0.660  34.579  1.00  0.00     0.000 C 
BRANCH   2   3
ATOM      3  C   UNL     1      -3.721   1.359  35.924  1.00  0.00     0.000 C 
BRANCH   3   4
ATOM      4  C   UNL     1      -2.670   0.614  36.760  1.00  0.00     0.000 C 
BRANCH   4   5
ATOM      5  C   UNL     1      -1.691  -0.196  35.896  1.00  0.00     0.006 C 
BRANCH   5   6
ATOM      6  C   UNL     1      -0.648  -0.948  36.732  1.00  0.00     0.053 C 
BRANCH   6   7
ATOM      7  C   UNL     1      -0.569  -2.380  36.303  1.00  0.00     0.041 C 
ATOM      8  O   UNL     1      -1.621  -3.036  36.088  1.00  0.00    -0.550 OA
ATOM      9  O   UNL     1       0.669  -2.975  36.095  1.00  0.00    -0.550 OA
ENDBRANCH   6   7
ENDBRANCH   5   6
ENDBRANCH   4   5
ENDBRANCH   3   4
ENDBRANCH   2   3
ENDBRANCH   1   2
BRANCH   1  10
ATOM     10  C   UNL     1      -5.744  -1.027  34.006  1.00  0.00     0.000 C 
BRANCH  10  11
ATOM     11  C   UNL     1      -4.579  -1.958  34.380  1.00  0.00    -0.000 C 
BRANCH  11  12
ATOM     12  C   UNL     1      -5.048  -3.220  35.122  1.00  0.00    -0.000 C 
BRANCH  12  13
ATOM     13  C   UNL     1      -5.704  -2.909  36.479  1.00  0.00    -0.000 C 
BRANCH  13  14
ATOM     14  C   UNL     1      -4.799  -2.187  37.494  1.00  0.00    -0.000 C 
BRANCH  14  15
ATOM     15  C   UNL     1      -5.535  -1.094  38.282  1.00  0.00    -0.003 C 
ATOM     16  C   UNL     1      -6.816  -0.671  37.570  1.00  0.00     0.004 C 
ENDBRANCH  14  15
ENDBRANCH  13  14
ENDBRANCH  12  13
ENDBRANCH  11  12
ENDBRANCH  10  11
ENDBRANCH   1  10
TORSDOF 12
ENDMDL
MODEL 7
REMARK VINA RESULT:    -3.060      2.657      5.343
REMARK INTER + INTRA:          -7.396
REMARK INTER:                  -5.716
REMARK INTRA:                  -1.680
REMARK UNBOUND:                -2.190
REMARK SMILES CCCCCCCCCCCCCC(=O)[O-]
REMARK SMILES IDX 8 1 9 2 10 3 11 4 12 5 13 6 14 7 15 8 16 9 7 10 6 11 5 12
REMARK SMILES IDX 4 13 3 14 2 15 1 16
REMARK H PARENT
REMARK Flexibility Score: inf
ROOT
ATOM      1  C   UNL     1      -1.777  -0.166  37.041  1.00  0.00     0.000 C 
ENDROOT
BRANCH   1   2
ATOM      2  C   UNL     1      -2.772  -0.628  38.113  1.00  0.00     0.000 C 
BRANCH   2   3
ATOM      3  C   UNL     1      -4.215  -0.548  37.597  1.00  0.00     0.000 C 
BRANCH   3   4
ATOM      4  C   UNL     1      -4.982  -1.840  37.910  1.00  0.00     0.000 C 
BRANCH   4   5
ATOM      5  C   UNL     1      -5.907  -2.273  36.761  1.00  0.00     0.006 C 
BRANCH   5   6
ATOM      6  C   UNL     1      -5.236  -3.269  35.807  1.00  0.00     0.053 C 
BRANCH   6   7
ATOM      7  C   UNL     1      -5.002  -2.636  34.471  1.00  0.00     0.041 C 
ATOM      8  O   UNL     1      -5.456  -1.488  34.226  1.00  0.00    -0.550 OA
ATOM      9  O   UNL     1      -4.242  -3.295  33.513  1.00  0.00    -0.550 OA
ENDBRANCH   6   7
ENDBRANCH   5   6
ENDBRANCH   4   5
ENDBRANCH   3   4
ENDBRANCH   2   3
ENDBRANCH   1   2
BRANCH   1  10
ATOM     10  C   UNL     1      -1.994  -0.930  35.726  1.00  0.00     0.000 C 
BRANCH  10  11
ATOM     11  C   UNL     1      -1.587  -2.410  35.826  1.00  0.00    -0.000 C 
BRANCH  11  12
ATOM     12  C   UNL     1      -0.223  -2.602  36.510  1.00  0.00    -0.000 C 
BRANCH  12  13
ATOM     13  C   UNL     1       0.961  -2.223  35.602  1.00  0.00    -0.000 C 
BRANCH  13  14
ATOM     14  C   UNL     1       1.774  -1.001  36.064  1.00  0.00    -0.000 C 
BRANCH  14  15
ATOM     15  C   UNL     1       1.718   0.167  35.068  1.00  0.00    -0.003 C 
ATOM     16  C   UNL     1       1.073  -0.263  33.753  1.00  0.00     0.004 C 
ENDBRANCH  14  15
ENDBRANCH  13  14
ENDBRANCH  12  13
ENDBRANCH  11  12
ENDBRANCH  10  11
ENDBRANCH   1  10
TORSDOF 12
ENDMDL
MODEL 8
REMARK VINA RESULT:    -3.005      2.536      4.753
REMARK INTER + INTRA:          -7.302
REMARK INTER:                  -5.221
REMARK INTRA:                  -2.081
REMARK UNBOUND:                -2.190
REMARK SMILES CCCCCCCCCCCCCC(=O)[O-]
REMARK SMILES IDX 8 1 9 2 10 3 11 4 12 5 13 6 14 7 15 8 16 9 7 10 6 11 5 12
REMARK SMILES IDX 4 13 3 14 2 15 1 16
REMARK H PARENT
REMARK Flexibility Score: inf
ROOT
ATOM      1  C   UNL     1      -4.159  -3.749  35.354  1.00  0.00     0.000 C 
ENDROOT
BRANCH   1   2
ATOM      2  C   UNL     1      -5.384  -3.107  36.017  1.00  0.00     0.000 C 
BRANCH   2   3
ATOM      3  C   UNL     1      -5.039  -2.569  37.411  1.00  0.00     0.000 C 
BRANCH   3   4
ATOM      4  C   UNL     1      -5.341  -1.067  37.511  1.00  0.00     0.000 C 
BRANCH   4   5
ATOM      5  C   UNL     1      -6.090  -0.531  36.281  1.00  0.00     0.006 C 
BRANCH   5   6
ATOM      6  C   UNL     1      -5.348   0.623  35.594  1.00  0.00     0.053 C 
BRANCH   6   7
ATOM      7  C   UNL     1      -5.276   0.392  34.118  1.00  0.00     0.041 C 
ATOM      8  O   UNL     1      -6.207  -0.212  33.524  1.00  0.00    -0.550 OA
ATOM      9  O   UNL     1      -4.202   0.887  33.389  1.00  0.00    -0.550 OA
ENDBRANCH   6   7
ENDBRANCH   5   6
ENDBRANCH   4   5
ENDBRANCH   3   4
ENDBRANCH   2   3
ENDBRANCH   1   2
BRANCH   1  10
ATOM     10  C   UNL     1      -3.635  -2.872  34.206  1.00  0.00     0.000 C 
BRANCH  10  11
ATOM     11  C   UNL     1      -2.423  -2.020  34.617  1.00  0.00    -0.000 C 
BRANCH  11  12
ATOM     12  C   UNL     1      -1.604  -2.666  35.747  1.00  0.00    -0.000 C 
BRANCH  12  13
ATOM     13  C   UNL     1      -1.122  -1.648  36.796  1.00  0.00    -0.000 C 
BRANCH  13  14
ATOM     14  C   UNL     1      -1.888  -0.313  36.812  1.00  0.00    -0.000 C 
BRANCH  14  15
ATOM     15  C   UNL     1      -2.020   0.286  38.220  1.00  0.00    -0.003 C 
ATOM     16  C   UNL     1      -2.004   1.811  38.173  1.00  0.00     0.004 C 
ENDBRANCH  14  15
ENDBRANCH  13  14
ENDBRANCH  12  13
ENDBRANCH  11  12
ENDBRANCH  10  11
ENDBRANCH   1  10
TORSDOF 12
ENDMDL
MODEL 9
REMARK VINA RESULT:    -2.980      1.590      3.111
REMARK INTER + INTRA:          -7.261
REMARK INTER:                  -5.550
REMARK INTRA:                  -1.711
REMARK UNBOUND:                -2.190
REMARK SMILES CCCCCCCCCCCCCC(=O)[O-]
REMARK SMILES IDX 8 1 9 2 10 3 11 4 12 5 13 6 14 7 15 8 16 9 7 10 6 11 5 12
REMARK SMILES IDX 4 13 3 14 2 15 1 16
REMARK H PARENT
REMARK Flexibility Score: inf
ROOT
ATOM      1  C   UNL     1      -2.479  -0.485  38.000  1.00  0.00     0.000 C 
ENDROOT
BRANCH   1   2
ATOM      2  C   UNL     1      -1.550  -0.229  36.806  1.00  0.00     0.000 C 
BRANCH   2   3
ATOM      3  C   UNL     1      -1.952  -1.088  35.600  1.00  0.00     0.000 C 
BRANCH   3   4
ATOM      4  C   UNL     1      -1.474  -2.536  35.772  1.00  0.00     0.000 C 
BRANCH   4   5
ATOM      5  C   UNL     1      -0.117  -2.631  36.488  1.00  0.00     0.006 C 
BRANCH   5   6
ATOM      6  C   UNL     1       1.065  -2.668  35.510  1.00  0.00     0.053 C 
BRANCH   6   7
ATOM      7  C   UNL     1       1.720  -1.325  35.431  1.00  0.00     0.041 C 
ATOM      8  O   UNL     1       1.594  -0.618  34.397  1.00  0.00    -0.550 OA
ATOM      9  O   UNL     1       2.429  -0.832  36.519  1.00  0.00    -0.550 OA
ENDBRANCH   6   7
ENDBRANCH   5   6
ENDBRANCH   4   5
ENDBRANCH   3   4
ENDBRANCH   2   3
ENDBRANCH   1   2
BRANCH   1  10
ATOM     10  C   UNL     1      -3.834   0.211  37.799  1.00  0.00     0.000 C 
BRANCH  10  11
ATOM     11  C   UNL     1      -5.005  -0.592  38.391  1.00  0.00    -0.000 C 
BRANCH  11  12
ATOM     12  C   UNL     1      -4.949  -2.082  38.013  1.00  0.00    -0.000 C 
BRANCH  12  13
ATOM     13  C   UNL     1      -5.737  -2.405  36.730  1.00  0.00    -0.000 C 
BRANCH  13  14
ATOM     14  C   UNL     1      -5.043  -3.382  35.765  1.00  0.00    -0.000 C 
BRANCH  14  15
ATOM     15  C   UNL     1      -4.982  -2.858  34.323  1.00  0.00    -0.003 C 
ATOM     16  C   UNL     1      -5.371  -1.384  34.257  1.00  0.00     0.004 C 
ENDBRANCH  14  15
ENDBRANCH  13  14
ENDBRANCH  12  13
ENDBRANCH  11  12
ENDBRANCH  10  11
ENDBRANCH   1  10
TORSDOF 12
ENDMDL
