MODEL 1
REMARK VINA RESULT:    -3.501      0.000      0.000
REMARK INTER + INTRA:          -5.103
REMARK INTER:                  -4.729
REMARK INTRA:                  -0.374
REMARK UNBOUND:                -0.374
REMARK SMILES CCCCCCCC(=O)[O-]
REMARK SMILES IDX 5 1 6 2 7 3 8 4 9 5 10 6 4 7 3 8 2 9 1 10
REMARK H PARENT
REMARK Flexibility Score: inf
ROOT
ATOM      1  C   UNL     1     174.599 174.575 151.156  1.00  0.00     0.000 C 
ENDROOT
BRANCH   1   2
ATOM      2  C   UNL     1     176.103 174.904 151.147  1.00  0.00     0.006 C 
BRANCH   2   3
ATOM      3  C   UNL     1     176.983 173.676 150.886  1.00  0.00     0.053 C 
BRANCH   3   4
ATOM      4  C   UNL     1     176.956 172.754 152.063  1.00  0.00     0.041 C 
ATOM      5  O   UNL     1     177.571 173.055 153.119  1.00  0.00    -0.550 OA
ATOM      6  O   UNL     1     176.210 171.583 152.013  1.00  0.00    -0.550 OA
ENDBRANCH   3   4
ENDBRANCH   2   3
ENDBRANCH   1   2
BRANCH   1   7
ATOM      7  C   UNL     1     173.674 175.752 150.798  1.00  0.00     0.000 C 
BRANCH   7   8
ATOM      8  C   UNL     1     174.437 177.065 150.565  1.00  0.00    -0.000 C 
BRANCH   8   9
ATOM      9  C   UNL     1     174.051 178.117 151.610  1.00  0.00    -0.003 C 
ATOM     10  C   UNL     1     175.030 178.118 152.780  1.00  0.00     0.004 C 
ENDBRANCH   8   9
ENDBRANCH   7   8
ENDBRANCH   1   7
TORSDOF 6
ENDMDL
MODEL 2
REMARK VINA RESULT:    -3.476      0.990      1.696
REMARK INTER + INTRA:          -5.070
REMARK INTER:                  -4.626
REMARK INTRA:                  -0.444
REMARK UNBOUND:                -0.374
REMARK SMILES CCCCCCCC(=O)[O-]
REMARK SMILES IDX 5 1 6 2 7 3 8 4 9 5 10 6 4 7 3 8 2 9 1 10
REMARK H PARENT
REMARK Flexibility Score: inf
ROOT
ATOM      1  C   UNL     1     174.628 175.707 151.089  1.00  0.00     0.000 C 
ENDROOT
BRANCH   1   2
ATOM      2  C   UNL     1     175.936 175.045 151.555  1.00  0.00     0.006 C 
BRANCH   2   3
ATOM      3  C   UNL     1     175.724 174.032 152.687  1.00  0.00     0.053 C 
BRANCH   3   4
ATOM      4  C   UNL     1     176.713 172.915 152.581  1.00  0.00     0.041 C 
ATOM      5  O   UNL     1     176.622 172.074 151.649  1.00  0.00    -0.550 OA
ATOM      6  O   UNL     1     177.766 172.829 153.483  1.00  0.00    -0.550 OA
ENDBRANCH   3   4
ENDBRANCH   2   3
ENDBRANCH   1   2
BRANCH   1   7
ATOM      7  C   UNL     1     174.747 177.199 150.729  1.00  0.00     0.000 C 
BRANCH   7   8
ATOM      8  C   UNL     1     175.432 178.027 151.826  1.00  0.00    -0.000 C 
BRANCH   8   9
ATOM      9  C   UNL     1     174.547 178.125 153.074  1.00  0.00    -0.003 C 
ATOM     10  C   UNL     1     175.289 177.643 154.316  1.00  0.00     0.004 C 
ENDBRANCH   8   9
ENDBRANCH   7   8
ENDBRANCH   1   7
TORSDOF 6
ENDMDL
MODEL 3
REMARK VINA RESULT:    -3.466     12.079     13.635
REMARK INTER + INTRA:          -5.056
REMARK INTER:                  -4.878
REMARK INTRA:                  -0.178
REMARK UNBOUND:                -0.374
REMARK SMILES CCCCCCCC(=O)[O-]
REMARK SMILES IDX 5 1 6 2 7 3 8 4 9 5 10 6 4 7 3 8 2 9 1 10
REMARK H PARENT
REMARK Flexibility Score: inf
ROOT
ATOM      1  C   UNL     1     163.098 177.595 151.743  1.00  0.00     0.000 C 
ENDROOT
BRANCH   1   2
ATOM      2  C   UNL     1     161.968 177.270 150.749  1.00  0.00     0.006 C 
BRANCH   2   3
ATOM      3  C   UNL     1     160.593 177.748 151.229  1.00  0.00     0.053 C 
BRANCH   3   4
ATOM      4  C   UNL     1     160.156 176.965 152.428  1.00  0.00     0.041 C 
ATOM      5  O   UNL     1     159.921 175.732 152.329  1.00  0.00    -0.550 OA
ATOM      6  O   UNL     1     160.057 177.587 153.666  1.00  0.00    -0.550 OA
ENDBRANCH   3   4
ENDBRANCH   2   3
ENDBRANCH   1   2
BRANCH   1   7
ATOM      7  C   UNL     1     164.400 178.108 151.102  1.00  0.00     0.000 C 
BRANCH   7   8
ATOM      8  C   UNL     1     165.383 176.979 150.759  1.00  0.00    -0.000 C 
BRANCH   8   9
ATOM      9  C   UNL     1     166.575 177.513 149.955  1.00  0.00    -0.003 C 
ATOM     10  C   UNL     1     167.328 176.380 149.266  1.00  0.00     0.004 C 
ENDBRANCH   8   9
ENDBRANCH   7   8
ENDBRANCH   1   7
TORSDOF 6
ENDMDL
MODEL 4
REMARK VINA RESULT:    -3.412     13.523     14.899
REMARK INTER + INTRA:          -4.983
REMARK INTER:                  -4.541
REMARK INTRA:                  -0.442
REMARK UNBOUND:                -0.374
REMARK SMILES CCCCCCCC(=O)[O-]
REMARK SMILES IDX 5 1 6 2 7 3 8 4 9 5 10 6 4 7 3 8 2 9 1 10
REMARK H PARENT
REMARK Flexibility Score: inf
ROOT
ATOM      1  C   UNL     1     160.057 176.363 151.857  1.00  0.00     0.000 C 
ENDROOT
BRANCH   1   2
ATOM      2  C   UNL     1     159.355 174.994 151.903  1.00  0.00     0.006 C 
BRANCH   2   3
ATOM      3  C   UNL     1     160.339 173.819 151.942  1.00  0.00     0.053 C 
BRANCH   3   4
ATOM      4  C   UNL     1     160.077 172.958 153.138  1.00  0.00     0.041 C 
ATOM      5  O   UNL     1     160.585 173.249 154.252  1.00  0.00    -0.550 OA
ATOM      6  O   UNL     1     159.231 171.861 153.034  1.00  0.00    -0.550 OA
ENDBRANCH   3   4
ENDBRANCH   2   3
ENDBRANCH   1   2
BRANCH   1   7
ATOM      7  C   UNL     1     160.841 176.649 150.563  1.00  0.00     0.000 C 
BRANCH   7   8
ATOM      8  C   UNL     1     162.216 177.281 150.822  1.00  0.00    -0.000 C 
BRANCH   8   9
ATOM      9  C   UNL     1     163.115 176.330 151.623  1.00  0.00    -0.003 C 
ATOM     10  C   UNL     1     163.644 175.201 150.744  1.00  0.00     0.004 C 
ENDBRANCH   8   9
ENDBRANCH   7   8
ENDBRANCH   1   7
TORSDOF 6
ENDMDL
MODEL 5
REMARK VINA RESULT:    -3.401     11.230     12.479
REMARK INTER + INTRA:          -4.968
REMARK INTER:                  -4.743
REMARK INTRA:                  -0.226
REMARK UNBOUND:                -0.374
REMARK SMILES CCCCCCCC(=O)[O-]
REMARK SMILES IDX 5 1 6 2 7 3 8 4 9 5 10 6 4 7 3 8 2 9 1 10
REMARK H PARENT
REMARK Flexibility Score: inf
ROOT
ATOM      1  C   UNL     1     163.318 177.674 151.133  1.00  0.00     0.000 C 
ENDROOT
BRANCH   1   2
ATOM      2  C   UNL     1     164.584 176.818 151.318  1.00  0.00     0.006 C 
BRANCH   2   3
ATOM      3  C   UNL     1     165.876 177.641 151.259  1.00  0.00     0.053 C 
BRANCH   3   4
ATOM      4  C   UNL     1     166.488 177.752 152.620  1.00  0.00     0.041 C 
ATOM      5  O   UNL     1     167.720 177.552 152.780  1.00  0.00    -0.550 OA
ATOM      6  O   UNL     1     165.706 178.124 153.706  1.00  0.00    -0.550 OA
ENDBRANCH   3   4
ENDBRANCH   2   3
ENDBRANCH   1   2
BRANCH   1   7
ATOM      7  C   UNL     1     162.058 176.891 150.723  1.00  0.00     0.000 C 
BRANCH   7   8
ATOM      8  C   UNL     1     160.782 177.745 150.764  1.00  0.00    -0.000 C 
BRANCH   8   9
ATOM      9  C   UNL     1     160.201 177.798 152.182  1.00  0.00    -0.003 C 
ATOM     10  C   UNL     1     160.253 176.428 152.851  1.00  0.00     0.004 C 
ENDBRANCH   8   9
ENDBRANCH   7   8
ENDBRANCH   1   7
TORSDOF 6
ENDMDL
MODEL 6
REMARK VINA RESULT:    -3.397      1.817      2.645
REMARK INTER + INTRA:          -4.963
REMARK INTER:                  -4.720
REMARK INTRA:                  -0.243
REMARK UNBOUND:                -0.374
REMARK SMILES CCCCCCCC(=O)[O-]
REMARK SMILES IDX 5 1 6 2 7 3 8 4 9 5 10 6 4 7 3 8 2 9 1 10
REMARK H PARENT
REMARK Flexibility Score: inf
ROOT
ATOM      1  C   UNL     1     175.287 177.550 151.339  1.00  0.00     0.000 C 
ENDROOT
BRANCH   1   2
ATOM      2  C   UNL     1     175.532 176.209 152.053  1.00  0.00     0.006 C 
BRANCH   2   3
ATOM      3  C   UNL     1     175.530 175.012 151.094  1.00  0.00     0.053 C 
BRANCH   3   4
ATOM      4  C   UNL     1     176.763 174.187 151.285  1.00  0.00     0.041 C 
ATOM      5  O   UNL     1     177.549 173.990 150.322  1.00  0.00    -0.550 OA
ATOM      6  O   UNL     1     177.072 173.677 152.540  1.00  0.00    -0.550 OA
ENDBRANCH   3   4
ENDBRANCH   2   3
ENDBRANCH   1   2
BRANCH   1   7
ATOM      7  C   UNL     1     173.815 177.849 151.003  1.00  0.00     0.000 C 
BRANCH   7   8
ATOM      8  C   UNL     1     172.960 178.123 152.250  1.00  0.00    -0.000 C 
BRANCH   8   9
ATOM      9  C   UNL     1     171.466 178.078 151.912  1.00  0.00    -0.003 C 
ATOM     10  C   UNL     1     170.960 176.641 151.839  1.00  0.00     0.004 C 
ENDBRANCH   8   9
ENDBRANCH   7   8
ENDBRANCH   1   7
TORSDOF 6
ENDMDL
MODEL 7
REMARK VINA RESULT:    -3.377     15.534     17.766
REMARK INTER + INTRA:          -4.935
REMARK INTER:                  -4.594
REMARK INTRA:                  -0.342
REMARK UNBOUND:                -0.374
REMARK SMILES CCCCCCCC(=O)[O-]
REMARK SMILES IDX 5 1 6 2 7 3 8 4 9 5 10 6 4 7 3 8 2 9 1 10
REMARK H PARENT
REMARK Flexibility Score: inf
ROOT
ATOM      1  C   UNL     1     177.819 160.521 161.449  1.00  0.00     0.000 C 
ENDROOT
BRANCH   1   2
ATOM      2  C   UNL     1     176.508 160.849 162.187  1.00  0.00     0.006 C 
BRANCH   2   3
ATOM      3  C   UNL     1     176.524 160.416 163.657  1.00  0.00     0.053 C 
BRANCH   3   4
ATOM      4  C   UNL     1     176.361 158.932 163.767  1.00  0.00     0.041 C 
ATOM      5  O   UNL     1     177.316 158.217 164.168  1.00  0.00    -0.550 OA
ATOM      6  O   UNL     1     175.138 158.344 163.474  1.00  0.00    -0.550 OA
ENDBRANCH   3   4
ENDBRANCH   2   3
ENDBRANCH   1   2
BRANCH   1   7
ATOM      7  C   UNL     1     177.774 160.721 159.924  1.00  0.00     0.000 C 
BRANCH   7   8
ATOM      8  C   UNL     1     176.603 161.604 159.469  1.00  0.00    -0.000 C 
BRANCH   8   9
ATOM      9  C   UNL     1     177.104 162.809 158.663  1.00  0.00    -0.003 C 
ATOM     10  C   UNL     1     178.044 163.676 159.495  1.00  0.00     0.004 C 
ENDBRANCH   8   9
ENDBRANCH   7   8
ENDBRANCH   1   7
TORSDOF 6
ENDMDL
MODEL 8
REMARK VINA RESULT:    -3.321      2.467      3.118
REMARK INTER + INTRA:          -4.861
REMARK INTER:                  -4.543
REMARK INTRA:                  -0.317
REMARK UNBOUND:                -0.374
REMARK SMILES CCCCCCCC(=O)[O-]
REMARK SMILES IDX 5 1 6 2 7 3 8 4 9 5 10 6 4 7 3 8 2 9 1 10
REMARK H PARENT
REMARK Flexibility Score: inf
ROOT
ATOM      1  C   UNL     1     176.450 174.092 150.994  1.00  0.00     0.000 C 
ENDROOT
BRANCH   1   2
ATOM      2  C   UNL     1     175.519 172.876 151.152  1.00  0.00     0.006 C 
BRANCH   2   3
ATOM      3  C   UNL     1     175.577 171.918 149.957  1.00  0.00     0.053 C 
BRANCH   3   4
ATOM      4  C   UNL     1     174.203 171.451 149.595  1.00  0.00     0.041 C 
ATOM      5  O   UNL     1     173.921 170.224 149.628  1.00  0.00    -0.550 OA
ATOM      6  O   UNL     1     173.218 172.374 149.269  1.00  0.00    -0.550 OA
ENDBRANCH   3   4
ENDBRANCH   2   3
ENDBRANCH   1   2
BRANCH   1   7
ATOM      7  C   UNL     1     175.755 175.461 151.105  1.00  0.00     0.000 C 
BRANCH   7   8
ATOM      8  C   UNL     1     174.225 175.366 151.013  1.00  0.00    -0.000 C 
BRANCH   8   9
ATOM      9  C   UNL     1     173.607 176.734 150.701  1.00  0.00    -0.003 C 
ATOM     10  C   UNL     1     174.675 177.738 150.278  1.00  0.00     0.004 C 
ENDBRANCH   8   9
ENDBRANCH   7   8
ENDBRANCH   1   7
TORSDOF 6
ENDMDL
MODEL 9
REMARK VINA RESULT:    -3.284     10.380     11.766
REMARK INTER + INTRA:          -4.811
REMARK INTER:                  -4.544
REMARK INTRA:                  -0.266
REMARK UNBOUND:                -0.374
REMARK SMILES CCCCCCCC(=O)[O-]
REMARK SMILES IDX 5 1 6 2 7 3 8 4 9 5 10 6 4 7 3 8 2 9 1 10
REMARK H PARENT
REMARK Flexibility Score: inf
ROOT
ATOM      1  C   UNL     1     164.502 176.845 151.476  1.00  0.00     0.000 C 
ENDROOT
BRANCH   1   2
ATOM      2  C   UNL     1     165.341 178.118 151.270  1.00  0.00     0.006 C 
BRANCH   2   3
ATOM      3  C   UNL     1     166.107 178.122 149.942  1.00  0.00     0.053 C 
BRANCH   3   4
ATOM      4  C   UNL     1     167.183 177.082 149.956  1.00  0.00     0.041 C 
ATOM      5  O   UNL     1     167.210 176.185 149.073  1.00  0.00    -0.550 OA
ATOM      6  O   UNL     1     168.186 177.134 150.915  1.00  0.00    -0.550 OA
ENDBRANCH   3   4
ENDBRANCH   2   3
ENDBRANCH   1   2
BRANCH   1   7
ATOM      7  C   UNL     1     163.026 176.964 151.054  1.00  0.00     0.000 C 
BRANCH   7   8
ATOM      8  C   UNL     1     162.170 177.727 152.075  1.00  0.00    -0.000 C 
BRANCH   8   9
ATOM      9  C   UNL     1     160.702 177.772 151.637  1.00  0.00    -0.003 C 
ATOM     10  C   UNL     1     160.553 177.388 150.168  1.00  0.00     0.004 C 
ENDBRANCH   8   9
ENDBRANCH   7   8
ENDBRANCH   1   7
TORSDOF 6
ENDMDL
