MODEL 1
REMARK VINA RESULT:    -2.308      0.000      0.000
REMARK INTER + INTRA:          -2.510
REMARK INTER:                  -2.510
REMARK INTRA:                   0.000
REMARK UNBOUND:                 0.000
REMARK SMILES [NH3+]CC(=O)[O-]
REMARK SMILES IDX 2 1 1 2 3 6 4 7 5 8
REMARK H PARENT 1 3 1 4 1 5
REMARK Flexibility Score: inf
ROOT
ATOM      1  C   UNL     1       0.881   1.667  11.926  1.00  0.00     0.312 C 
ENDROOT
BRANCH   1   2
ATOM      2  N   UNL     1       1.308   0.359  11.432  1.00  0.00    -0.353 N 
ATOM      3  H   UNL     1       1.512   0.430  10.409  1.00  0.00     0.344 HD
ATOM      4  H   UNL     1       0.548  -0.346  11.579  1.00  0.00     0.344 HD
ATOM      5  H   UNL     1       2.176   0.053  11.931  1.00  0.00     0.344 HD
ENDBRANCH   1   2
BRANCH   1   6
ATOM      6  C   UNL     1       1.513   2.764  11.126  1.00  0.00     0.096 C 
ATOM      7  O   UNL     1       2.004   3.768  11.706  1.00  0.00    -0.544 OA
ATOM      8  O   UNL     1       1.604   2.654   9.745  1.00  0.00    -0.544 OA
ENDBRANCH   1   6
TORSDOF 2
ENDMDL
MODEL 2
REMARK VINA RESULT:    -2.258      0.181      1.452
REMARK INTER + INTRA:          -2.456
REMARK INTER:                  -2.456
REMARK INTRA:                   0.000
REMARK UNBOUND:                 0.000
REMARK SMILES [NH3+]CC(=O)[O-]
REMARK SMILES IDX 2 1 1 2 3 6 4 7 5 8
REMARK H PARENT 1 3 1 4 1 5
REMARK Flexibility Score: inf
ROOT
ATOM      1  C   UNL     1       0.908   1.658  11.855  1.00  0.00     0.312 C 
ENDROOT
BRANCH   1   2
ATOM      2  N   UNL     1       1.310   0.311  11.455  1.00  0.00    -0.353 N 
ATOM      3  H   UNL     1       0.596  -0.374  11.794  1.00  0.00     0.344 HD
ATOM      4  H   UNL     1       2.237   0.072  11.878  1.00  0.00     0.344 HD
ATOM      5  H   UNL     1       1.370   0.250  10.412  1.00  0.00     0.344 HD
ENDBRANCH   1   2
BRANCH   1   6
ATOM      6  C   UNL     1       1.504   2.681  10.939  1.00  0.00     0.096 C 
ATOM      7  O   UNL     1       1.517   2.486   9.695  1.00  0.00    -0.544 OA
ATOM      8  O   UNL     1       1.999   3.872  11.454  1.00  0.00    -0.544 OA
ENDBRANCH   1   6
TORSDOF 2
ENDMDL
MODEL 3
REMARK VINA RESULT:    -2.226      2.466      2.628
REMARK INTER + INTRA:          -2.421
REMARK INTER:                  -2.421
REMARK INTRA:                   0.000
REMARK UNBOUND:                 0.000
REMARK SMILES [NH3+]CC(=O)[O-]
REMARK SMILES IDX 2 1 1 2 3 6 4 7 5 8
REMARK H PARENT 1 3 1 4 1 5
REMARK Flexibility Score: inf
ROOT
ATOM      1  C   UNL     1       1.558   2.011  10.270  1.00  0.00     0.312 C 
ENDROOT
BRANCH   1   2
ATOM      2  N   UNL     1       1.065   3.376  10.445  1.00  0.00    -0.353 N 
ATOM      3  H   UNL     1       1.851   4.046  10.283  1.00  0.00     0.344 HD
ATOM      4  H   UNL     1       0.703   3.505  11.419  1.00  0.00     0.344 HD
ATOM      5  H   UNL     1       0.303   3.574   9.755  1.00  0.00     0.344 HD
ENDBRANCH   1   2
BRANCH   1   6
ATOM      6  C   UNL     1       1.250   1.180  11.477  1.00  0.00     0.096 C 
ATOM      7  O   UNL     1       0.483   1.623  12.372  1.00  0.00    -0.544 OA
ATOM      8  O   UNL     1       1.770  -0.103  11.589  1.00  0.00    -0.544 OA
ENDBRANCH   1   6
TORSDOF 2
ENDMDL
MODEL 4
REMARK VINA RESULT:    -2.193      2.364      2.800
REMARK INTER + INTRA:          -2.385
REMARK INTER:                  -2.385
REMARK INTRA:                   0.000
REMARK UNBOUND:                 0.000
REMARK SMILES [NH3+]CC(=O)[O-]
REMARK SMILES IDX 2 1 1 2 3 6 4 7 5 8
REMARK H PARENT 1 3 1 4 1 5
REMARK Flexibility Score: inf
ROOT
ATOM      1  C   UNL     1       1.588   2.453  10.181  1.00  0.00     0.312 C 
ENDROOT
BRANCH   1   2
ATOM      2  N   UNL     1       1.907   3.775  10.717  1.00  0.00    -0.353 N 
ATOM      3  H   UNL     1       1.808   3.754  11.758  1.00  0.00     0.344 HD
ATOM      4  H   UNL     1       1.248   4.489  10.327  1.00  0.00     0.344 HD
ATOM      5  H   UNL     1       2.892   4.032  10.475  1.00  0.00     0.344 HD
ENDBRANCH   1   2
BRANCH   1   6
ATOM      6  C   UNL     1       1.268   1.497  11.288  1.00  0.00     0.096 C 
ATOM      7  O   UNL     1       1.715   0.321  11.259  1.00  0.00    -0.544 OA
ATOM      8  O   UNL     1       0.518   1.922  12.378  1.00  0.00    -0.544 OA
ENDBRANCH   1   6
TORSDOF 2
ENDMDL
MODEL 5
REMARK VINA RESULT:    -2.179      9.550      9.826
REMARK INTER + INTRA:          -2.370
REMARK INTER:                  -2.370
REMARK INTRA:                   0.000
REMARK UNBOUND:                 0.000
REMARK SMILES [NH3+]CC(=O)[O-]
REMARK SMILES IDX 2 1 1 2 3 6 4 7 5 8
REMARK H PARENT 1 3 1 4 1 5
REMARK Flexibility Score: inf
ROOT
ATOM      1  C   UNL     1      -4.493   9.336  12.649  1.00  0.00     0.312 C 
ENDROOT
BRANCH   1   2
ATOM      2  N   UNL     1      -4.539   8.888  11.259  1.00  0.00    -0.353 N 
ATOM      3  H   UNL     1      -5.136   9.546  10.708  1.00  0.00     0.344 HD
ATOM      4  H   UNL     1      -4.953   7.928  11.205  1.00  0.00     0.344 HD
ATOM      5  H   UNL     1      -3.575   8.882  10.852  1.00  0.00     0.344 HD
ENDBRANCH   1   2
BRANCH   1   6
ATOM      6  C   UNL     1      -5.520   8.619  13.470  1.00  0.00     0.096 C 
ATOM      7  O   UNL     1      -6.730   8.631  13.121  1.00  0.00    -0.544 OA
ATOM      8  O   UNL     1      -5.134   7.897  14.592  1.00  0.00    -0.544 OA
ENDBRANCH   1   6
TORSDOF 2
ENDMDL
MODEL 6
REMARK VINA RESULT:    -2.115     13.971     14.045
REMARK INTER + INTRA:          -2.300
REMARK INTER:                  -2.300
REMARK INTRA:                   0.000
REMARK UNBOUND:                 0.000
REMARK SMILES [NH3+]CC(=O)[O-]
REMARK SMILES IDX 2 1 1 2 3 6 4 7 5 8
REMARK H PARENT 1 3 1 4 1 5
REMARK Flexibility Score: inf
ROOT
ATOM      1  C   UNL     1       6.724  -9.384   5.202  1.00  0.00     0.312 C 
ENDROOT
BRANCH   1   2
ATOM      2  N   UNL     1       5.319  -9.677   5.474  1.00  0.00    -0.353 N 
ATOM      3  H   UNL     1       4.731  -8.884   5.127  1.00  0.00     0.344 HD
ATOM      4  H   UNL     1       5.167  -9.787   6.503  1.00  0.00     0.344 HD
ATOM      5  H   UNL     1       5.032 -10.553   4.978  1.00  0.00     0.344 HD
ENDBRANCH   1   2
BRANCH   1   6
ATOM      6  C   UNL     1       7.527  -9.429   6.466  1.00  0.00     0.096 C 
ATOM      7  O   UNL     1       8.623  -8.816   6.542  1.00  0.00    -0.544 OA
ATOM      8  O   UNL     1       7.038 -10.107   7.575  1.00  0.00    -0.544 OA
ENDBRANCH   1   6
TORSDOF 2
ENDMDL
MODEL 7
REMARK VINA RESULT:    -2.100     13.879     14.150
REMARK INTER + INTRA:          -2.284
REMARK INTER:                  -2.284
REMARK INTRA:                   0.000
REMARK UNBOUND:                 0.000
REMARK SMILES [NH3+]CC(=O)[O-]
REMARK SMILES IDX 2 1 1 2 3 6 4 7 5 8
REMARK H PARENT 1 3 1 4 1 5
REMARK Flexibility Score: inf
ROOT
ATOM      1  C   UNL     1       6.849  -9.835   6.066  1.00  0.00     0.312 C 
ENDROOT
BRANCH   1   2
ATOM      2  N   UNL     1       5.671  -9.339   5.357  1.00  0.00    -0.353 N 
ATOM      3  H   UNL     1       5.652  -9.751   4.396  1.00  0.00     0.344 HD
ATOM      4  H   UNL     1       5.711  -8.296   5.279  1.00  0.00     0.344 HD
ATOM      5  H   UNL     1       4.801  -9.623   5.865  1.00  0.00     0.344 HD
ENDBRANCH   1   2
BRANCH   1   6
ATOM      6  C   UNL     1       8.063  -9.041   5.692  1.00  0.00     0.096 C 
ATOM      7  O   UNL     1       8.428  -8.970   4.489  1.00  0.00    -0.544 OA
ATOM      8  O   UNL     1       8.761  -8.338   6.666  1.00  0.00    -0.544 OA
ENDBRANCH   1   6
TORSDOF 2
ENDMDL
MODEL 8
REMARK VINA RESULT:    -2.042     15.636     15.875
REMARK INTER + INTRA:          -2.221
REMARK INTER:                  -2.221
REMARK INTRA:                   0.000
REMARK UNBOUND:                 0.000
REMARK SMILES [NH3+]CC(=O)[O-]
REMARK SMILES IDX 2 1 1 2 3 6 4 7 5 8
REMARK H PARENT 1 3 1 4 1 5
REMARK Flexibility Score: inf
ROOT
ATOM      1  C   UNL     1      11.975  -7.385   2.647  1.00  0.00     0.312 C 
ENDROOT
BRANCH   1   2
ATOM      2  N   UNL     1      11.518  -6.269   1.821  1.00  0.00    -0.353 N 
ATOM      3  H   UNL     1      11.972  -5.388   2.156  1.00  0.00     0.344 HD
ATOM      4  H   UNL     1      10.479  -6.166   1.898  1.00  0.00     0.344 HD
ATOM      5  H   UNL     1      11.785  -6.429   0.822  1.00  0.00     0.344 HD
ENDBRANCH   1   2
BRANCH   1   6
ATOM      6  C   UNL     1      11.041  -7.607   3.797  1.00  0.00     0.096 C 
ATOM      7  O   UNL     1      11.465  -7.530   4.980  1.00  0.00    -0.544 OA
ATOM      8  O   UNL     1       9.694  -7.850   3.562  1.00  0.00    -0.544 OA
ENDBRANCH   1   6
TORSDOF 2
ENDMDL
MODEL 9
REMARK VINA RESULT:    -1.956      9.871      9.993
REMARK INTER + INTRA:          -2.128
REMARK INTER:                  -2.128
REMARK INTRA:                   0.000
REMARK UNBOUND:                 0.000
REMARK SMILES [NH3+]CC(=O)[O-]
REMARK SMILES IDX 2 1 1 2 3 6 4 7 5 8
REMARK H PARENT 1 3 1 4 1 5
REMARK Flexibility Score: inf
ROOT
ATOM      1  C   UNL     1      -5.541   8.965  12.611  1.00  0.00     0.312 C 
ENDROOT
BRANCH   1   2
ATOM      2  N   UNL     1      -6.990   8.935  12.800  1.00  0.00    -0.353 N 
ATOM      3  H   UNL     1      -7.383   8.106  12.297  1.00  0.00     0.344 HD
ATOM      4  H   UNL     1      -7.421   9.805  12.409  1.00  0.00     0.344 HD
ATOM      5  H   UNL     1      -7.218   8.853  13.818  1.00  0.00     0.344 HD
ENDBRANCH   1   2
BRANCH   1   6
ATOM      6  C   UNL     1      -4.835   8.795  13.921  1.00  0.00     0.096 C 
ATOM      7  O   UNL     1      -5.096   7.808  14.657  1.00  0.00    -0.544 OA
ATOM      8  O   UNL     1      -3.852   9.699  14.304  1.00  0.00    -0.544 OA
ENDBRANCH   1   6
TORSDOF 2
ENDMDL
