MODEL 1
REMARK VINA RESULT:    -6.997      0.000      0.000
REMARK INTER + INTRA:         -11.765
REMARK INTER:                 -10.474
REMARK INTRA:                  -1.292
REMARK UNBOUND:                -1.292
REMARK SMILES O=c1c(O[C@H]2O[C@@H](CO)[C@@H](O)[C@H](O)[C@H]2O)c(-c2cc(O)c(O)c(O)c2)oc2cc(O)cc(O)c12
REMARK SMILES IDX 4 1 3 2 16 3 26 4 2 5 27 6 1 7 34 8 28 9 32 10 29 11 31 12
REMARK SMILES IDX 17 13 18 14 19 15 25 16 21 17 23 18 20 19 22 21 24 23 33 25
REMARK SMILES IDX 30 27 5 29 14 30 6 31 12 32 7 33 10 34 15 35 13 37 8 39 9 40
REMARK SMILES IDX 11 42
REMARK H PARENT 20 20 22 22 24 24 33 26 30 28 15 36 13 38 9 41 11 43
REMARK Flexibility Score: inf
ROOT
ATOM      1  O   UNL     1      15.618 -35.706   0.939  1.00  0.00    -0.454 OA
ENDROOT
BRANCH   1   2
ATOM      2  C   UNL     1      14.417 -35.310   0.318  1.00  0.00     0.214 A 
ATOM      3  C   UNL     1      14.306 -35.451  -1.081  1.00  0.00     0.181 A 
ATOM      4  O   UNL     1      13.203 -35.054  -1.703  1.00  0.00    -0.452 OA
ATOM      5  C   UNL     1      13.320 -34.759   1.024  1.00  0.00     0.239 A 
ATOM      6  C   UNL     1      12.153 -34.539  -1.083  1.00  0.00     0.146 A 
ATOM      7  O   UNL     1      13.412 -34.567   2.263  1.00  0.00    -0.285 OA
ATOM      8  C   UNL     1      12.141 -34.399   0.326  1.00  0.00     0.111 A 
ATOM      9  C   UNL     1      11.064 -34.123  -1.853  1.00  0.00     0.094 A 
ATOM     10  C   UNL     1      10.973 -33.862   0.940  1.00  0.00     0.134 A 
ATOM     11  C   UNL     1       9.951 -33.547  -1.243  1.00  0.00     0.123 A 
ATOM     12  C   UNL     1       9.913 -33.415   0.145  1.00  0.00     0.093 A 
BRANCH   3  13
ATOM     13  C   UNL     1      15.420 -35.962  -1.918  1.00  0.00     0.029 A 
ATOM     14  C   UNL     1      16.348 -35.055  -2.454  1.00  0.00     0.062 A 
ATOM     15  C   UNL     1      17.422 -35.495  -3.234  1.00  0.00     0.162 A 
ATOM     16  C   UNL     1      15.555 -37.325  -2.219  1.00  0.00     0.062 A 
ATOM     17  C   UNL     1      17.565 -36.877  -3.505  1.00  0.00     0.200 A 
ATOM     18  C   UNL     1      16.627 -37.783  -2.991  1.00  0.00     0.162 A 
BRANCH  15  19
ATOM     19  O   UNL     1      18.320 -34.536  -3.709  1.00  0.00    -0.504 OA
ATOM     20  H   UNL     1      18.046 -33.622  -4.042  1.00  0.00     0.293 HD
ENDBRANCH  15  19
BRANCH  17  21
ATOM     21  O   UNL     1      18.610 -37.384  -4.278  1.00  0.00    -0.502 OA
ATOM     22  H   UNL     1      19.364 -37.945  -3.909  1.00  0.00     0.293 HD
ENDBRANCH  17  21
BRANCH  18  23
ATOM     23  O   UNL     1      16.765 -39.144  -3.256  1.00  0.00    -0.504 OA
ATOM     24  H   UNL     1      17.364 -39.485  -4.001  1.00  0.00     0.293 HD
ENDBRANCH  18  23
ENDBRANCH   3  13
BRANCH  10  25
ATOM     25  O   UNL     1      10.801 -33.762   2.325  1.00  0.00    -0.507 OA
ATOM     26  H   UNL     1      10.224 -34.388   2.872  1.00  0.00     0.293 HD
ENDBRANCH  10  25
BRANCH  11  27
ATOM     27  O   UNL     1       8.875 -33.104  -2.004  1.00  0.00    -0.508 OA
ATOM     28  H   UNL     1       8.961 -32.954  -3.001  1.00  0.00     0.293 HD
ENDBRANCH  11  27
ENDBRANCH   1   2
BRANCH   1  29
ATOM     29  C   UNL     1      15.814 -36.011   2.324  1.00  0.00     0.339 C 
ATOM     30  C   UNL     1      16.780 -34.995   2.961  1.00  0.00     0.214 C 
ATOM     31  O   UNL     1      16.227 -37.360   2.521  1.00  0.00    -0.332 OA
ATOM     32  C   UNL     1      18.204 -35.214   2.443  1.00  0.00     0.180 C 
ATOM     33  C   UNL     1      17.557 -37.650   2.105  1.00  0.00     0.179 C 
ATOM     34  C   UNL     1      18.604 -36.671   2.694  1.00  0.00     0.177 C 
BRANCH  30  35
ATOM     35  O   UNL     1      16.368 -33.687   2.661  1.00  0.00    -0.384 OA
ATOM     36  H   UNL     1      17.189 -33.131   2.623  1.00  0.00     0.211 HD
ENDBRANCH  30  35
BRANCH  32  37
ATOM     37  O   UNL     1      19.093 -34.366   3.125  1.00  0.00    -0.387 OA
ATOM     38  H   UNL     1      20.009 -34.698   2.940  1.00  0.00     0.211 HD
ENDBRANCH  32  37
BRANCH  33  39
ATOM     39  C   UNL     1      17.669 -37.853   0.581  1.00  0.00     0.191 C 
BRANCH  39  40
ATOM     40  O   UNL     1      18.522 -38.933   0.303  1.00  0.00    -0.394 OA
ATOM     41  H   UNL     1      19.421 -38.559   0.114  1.00  0.00     0.210 HD
ENDBRANCH  39  40
ENDBRANCH  33  39
BRANCH  34  42
ATOM     42  O   UNL     1      19.872 -36.927   2.143  1.00  0.00    -0.387 OA
ATOM     43  H   UNL     1      20.067 -36.194   1.505  1.00  0.00     0.211 HD
ENDBRANCH  34  42
ENDBRANCH   1  29
TORSDOF 13
ENDMDL
MODEL 2
REMARK VINA RESULT:    -6.903      1.418      1.713
REMARK INTER + INTRA:         -11.624
REMARK INTER:                 -10.692
REMARK INTRA:                  -0.932
REMARK UNBOUND:                -1.292
REMARK SMILES O=c1c(O[C@H]2O[C@@H](CO)[C@@H](O)[C@H](O)[C@H]2O)c(-c2cc(O)c(O)c(O)c2)oc2cc(O)cc(O)c12
REMARK SMILES IDX 4 1 3 2 16 3 26 4 2 5 27 6 1 7 34 8 28 9 32 10 29 11 31 12
REMARK SMILES IDX 17 13 18 14 19 15 25 16 21 17 23 18 20 19 22 21 24 23 33 25
REMARK SMILES IDX 30 27 5 29 14 30 6 31 12 32 7 33 10 34 15 35 13 37 8 39 9 40
REMARK SMILES IDX 11 42
REMARK H PARENT 20 20 22 22 24 24 33 26 30 28 15 36 13 38 9 41 11 43
REMARK Flexibility Score: inf
ROOT
ATOM      1  O   UNL     1      14.710 -35.492   0.210  1.00  0.00    -0.454 OA
ENDROOT
BRANCH   1   2
ATOM      2  C   UNL     1      13.734 -35.371  -0.800  1.00  0.00     0.214 A 
ATOM      3  C   UNL     1      14.079 -35.749  -2.115  1.00  0.00     0.181 A 
ATOM      4  O   UNL     1      13.197 -35.614  -3.097  1.00  0.00    -0.452 OA
ATOM      5  C   UNL     1      12.430 -34.871  -0.568  1.00  0.00     0.239 A 
ATOM      6  C   UNL     1      11.967 -35.156  -2.924  1.00  0.00     0.146 A 
ATOM      7  O   UNL     1      12.114 -34.472   0.581  1.00  0.00    -0.285 OA
ATOM      8  C   UNL     1      11.504 -34.795  -1.637  1.00  0.00     0.111 A 
ATOM      9  C   UNL     1      11.143 -35.024  -4.045  1.00  0.00     0.094 A 
ATOM     10  C   UNL     1      10.161 -34.333  -1.509  1.00  0.00     0.134 A 
ATOM     11  C   UNL     1       9.852 -34.518  -3.913  1.00  0.00     0.123 A 
ATOM     12  C   UNL     1       9.371 -34.170  -2.650  1.00  0.00     0.093 A 
BRANCH   3  13
ATOM     13  C   UNL     1      15.437 -36.228  -2.472  1.00  0.00     0.029 A 
ATOM     14  C   UNL     1      16.397 -35.304  -2.915  1.00  0.00     0.062 A 
ATOM     15  C   UNL     1      17.693 -35.711  -3.246  1.00  0.00     0.162 A 
ATOM     16  C   UNL     1      15.782 -37.586  -2.414  1.00  0.00     0.062 A 
ATOM     17  C   UNL     1      18.038 -37.080  -3.154  1.00  0.00     0.200 A 
ATOM     18  C   UNL     1      17.076 -38.008  -2.735  1.00  0.00     0.162 A 
BRANCH  15  19
ATOM     19  O   UNL     1      18.601 -34.730  -3.651  1.00  0.00    -0.504 OA
ATOM     20  H   UNL     1      19.245 -34.263  -3.027  1.00  0.00     0.293 HD
ENDBRANCH  15  19
BRANCH  17  21
ATOM     21  O   UNL     1      19.312 -37.555  -3.472  1.00  0.00    -0.502 OA
ATOM     22  H   UNL     1      20.165 -37.046  -3.291  1.00  0.00     0.293 HD
ENDBRANCH  17  21
BRANCH  18  23
ATOM     23  O   UNL     1      17.412 -39.358  -2.642  1.00  0.00    -0.504 OA
ATOM     24  H   UNL     1      18.376 -39.663  -2.551  1.00  0.00     0.293 HD
ENDBRANCH  18  23
ENDBRANCH   3  13
BRANCH  10  25
ATOM     25  O   UNL     1       9.557 -34.036  -0.282  1.00  0.00    -0.507 OA
ATOM     26  H   UNL     1      10.065 -33.892   0.581  1.00  0.00     0.293 HD
ENDBRANCH  10  25
BRANCH  11  27
ATOM     27  O   UNL     1       9.035 -34.357  -5.026  1.00  0.00    -0.508 OA
ATOM     28  H   UNL     1       8.548 -35.141  -5.441  1.00  0.00     0.293 HD
ENDBRANCH  11  27
ENDBRANCH   1   2
BRANCH   1  29
ATOM     29  C   UNL     1      14.483 -35.606   1.619  1.00  0.00     0.339 C 
ATOM     30  C   UNL     1      15.357 -34.594   2.382  1.00  0.00     0.214 C 
ATOM     31  O   UNL     1      14.657 -36.941   2.082  1.00  0.00    -0.332 OA
ATOM     32  C   UNL     1      16.830 -35.007   2.322  1.00  0.00     0.180 C 
ATOM     33  C   UNL     1      16.003 -37.402   2.100  1.00  0.00     0.179 C 
ATOM     34  C   UNL     1      16.964 -36.441   2.845  1.00  0.00     0.177 C 
BRANCH  30  35
ATOM     35  O   UNL     1      15.207 -33.313   1.826  1.00  0.00    -0.384 OA
ATOM     36  H   UNL     1      15.572 -33.357   0.904  1.00  0.00     0.211 HD
ENDBRANCH  30  35
BRANCH  32  37
ATOM     37  O   UNL     1      17.598 -34.148   3.125  1.00  0.00    -0.387 OA
ATOM     38  H   UNL     1      17.765 -34.623   3.979  1.00  0.00     0.211 HD
ENDBRANCH  32  37
BRANCH  33  39
ATOM     39  C   UNL     1      16.498 -37.835   0.706  1.00  0.00     0.191 C 
BRANCH  39  40
ATOM     40  O   UNL     1      17.538 -38.771   0.836  1.00  0.00    -0.394 OA
ATOM     41  H   UNL     1      17.364 -39.294   1.662  1.00  0.00     0.210 HD
ENDBRANCH  39  40
ENDBRANCH  33  39
BRANCH  34  42
ATOM     42  O   UNL     1      18.292 -36.883   2.713  1.00  0.00    -0.387 OA
ATOM     43  H   UNL     1      18.452 -37.547   3.432  1.00  0.00     0.211 HD
ENDBRANCH  34  42
ENDBRANCH   1  29
TORSDOF 13
ENDMDL
MODEL 3
REMARK VINA RESULT:    -6.767      2.727      5.571
REMARK INTER + INTRA:         -11.420
REMARK INTER:                  -9.972
REMARK INTRA:                  -1.448
REMARK UNBOUND:                -1.292
REMARK SMILES O=c1c(O[C@H]2O[C@@H](CO)[C@@H](O)[C@H](O)[C@H]2O)c(-c2cc(O)c(O)c(O)c2)oc2cc(O)cc(O)c12
REMARK SMILES IDX 4 1 3 2 16 3 26 4 2 5 27 6 1 7 34 8 28 9 32 10 29 11 31 12
REMARK SMILES IDX 17 13 18 14 19 15 25 16 21 17 23 18 20 19 22 21 24 23 33 25
REMARK SMILES IDX 30 27 5 29 14 30 6 31 12 32 7 33 10 34 15 35 13 37 8 39 9 40
REMARK SMILES IDX 11 42
REMARK H PARENT 20 20 22 22 24 24 33 26 30 28 15 36 13 38 9 41 11 43
REMARK Flexibility Score: inf
ROOT
ATOM      1  O   UNL     1      13.239 -37.146  -2.555  1.00  0.00    -0.454 OA
ENDROOT
BRANCH   1   2
ATOM      2  C   UNL     1      13.313 -36.104  -1.610  1.00  0.00     0.214 A 
ATOM      3  C   UNL     1      14.580 -35.565  -1.302  1.00  0.00     0.181 A 
ATOM      4  O   UNL     1      14.691 -34.608  -0.390  1.00  0.00    -0.452 OA
ATOM      5  C   UNL     1      12.183 -35.581  -0.937  1.00  0.00     0.239 A 
ATOM      6  C   UNL     1      13.661 -34.087   0.259  1.00  0.00     0.146 A 
ATOM      7  O   UNL     1      11.049 -36.081  -1.148  1.00  0.00    -0.285 OA
ATOM      8  C   UNL     1      12.341 -34.521  -0.010  1.00  0.00     0.111 A 
ATOM      9  C   UNL     1      13.910 -33.109   1.225  1.00  0.00     0.094 A 
ATOM     10  C   UNL     1      11.271 -33.905   0.701  1.00  0.00     0.134 A 
ATOM     11  C   UNL     1      12.859 -32.556   1.953  1.00  0.00     0.123 A 
ATOM     12  C   UNL     1      11.549 -32.959   1.693  1.00  0.00     0.093 A 
BRANCH   3  13
ATOM     13  C   UNL     1      15.831 -36.084  -1.909  1.00  0.00     0.029 A 
ATOM     14  C   UNL     1      16.627 -35.225  -2.683  1.00  0.00     0.062 A 
ATOM     15  C   UNL     1      17.822 -35.669  -3.258  1.00  0.00     0.162 A 
ATOM     16  C   UNL     1      16.226 -37.421  -1.760  1.00  0.00     0.062 A 
ATOM     17  C   UNL     1      18.225 -37.013  -3.076  1.00  0.00     0.200 A 
ATOM     18  C   UNL     1      17.421 -37.880  -2.323  1.00  0.00     0.162 A 
BRANCH  15  19
ATOM     19  O   UNL     1      18.575 -34.748  -3.991  1.00  0.00    -0.504 OA
ATOM     20  H   UNL     1      18.178 -34.087  -4.645  1.00  0.00     0.293 HD
ENDBRANCH  15  19
BRANCH  17  21
ATOM     21  O   UNL     1      19.403 -37.523  -3.624  1.00  0.00    -0.502 OA
ATOM     22  H   UNL     1      19.568 -37.622  -4.615  1.00  0.00     0.293 HD
ENDBRANCH  17  21
BRANCH  18  23
ATOM     23  O   UNL     1      17.816 -39.204  -2.140  1.00  0.00    -0.504 OA
ATOM     24  H   UNL     1      18.722 -39.442  -1.748  1.00  0.00     0.293 HD
ENDBRANCH  18  23
ENDBRANCH   3  13
BRANCH  10  25
ATOM     25  O   UNL     1       9.920 -34.178   0.459  1.00  0.00    -0.507 OA
ATOM     26  H   UNL     1       9.174 -33.978   1.114  1.00  0.00     0.293 HD
ENDBRANCH  10  25
BRANCH  11  27
ATOM     27  O   UNL     1      13.100 -31.603   2.936  1.00  0.00    -0.508 OA
ATOM     28  H   UNL     1      12.477 -31.491   3.726  1.00  0.00     0.293 HD
ENDBRANCH  11  27
ENDBRANCH   1   2
BRANCH   1  29
ATOM     29  C   UNL     1      13.325 -37.027  -3.979  1.00  0.00     0.339 C 
ATOM     30  C   UNL     1      11.930 -37.183  -4.611  1.00  0.00     0.214 C 
ATOM     31  O   UNL     1      14.283 -37.924  -4.535  1.00  0.00    -0.332 OA
ATOM     32  C   UNL     1      11.451 -38.633  -4.501  1.00  0.00     0.180 C 
ATOM     33  C   UNL     1      13.906 -39.296  -4.513  1.00  0.00     0.179 C 
ATOM     34  C   UNL     1      12.506 -39.551  -5.125  1.00  0.00     0.177 C 
BRANCH  30  35
ATOM     35  O   UNL     1      11.013 -36.337  -3.967  1.00  0.00    -0.384 OA
ATOM     36  H   UNL     1      11.242 -36.349  -3.001  1.00  0.00     0.211 HD
ENDBRANCH  30  35
BRANCH  32  37
ATOM     37  O   UNL     1      10.237 -38.787  -5.190  1.00  0.00    -0.387 OA
ATOM     38  H   UNL     1      10.200 -39.726  -5.504  1.00  0.00     0.211 HD
ENDBRANCH  32  37
BRANCH  33  39
ATOM     39  C   UNL     1      14.120 -39.945  -3.131  1.00  0.00     0.191 C 
BRANCH  39  40
ATOM     40  O   UNL     1      14.494 -41.290  -3.286  1.00  0.00    -0.394 OA
ATOM     41  H   UNL     1      14.466 -41.495  -4.257  1.00  0.00     0.210 HD
ENDBRANCH  39  40
ENDBRANCH  33  39
BRANCH  34  42
ATOM     42  O   UNL     1      12.139 -40.898  -4.954  1.00  0.00    -0.387 OA
ATOM     43  H   UNL     1      12.951 -41.445  -5.113  1.00  0.00     0.211 HD
ENDBRANCH  34  42
ENDBRANCH   1  29
TORSDOF 13
ENDMDL
MODEL 4
REMARK VINA RESULT:    -6.680      2.714      3.861
REMARK INTER + INTRA:         -11.292
REMARK INTER:                  -9.540
REMARK INTRA:                  -1.752
REMARK UNBOUND:                -1.292
REMARK SMILES O=c1c(O[C@H]2O[C@@H](CO)[C@@H](O)[C@H](O)[C@H]2O)c(-c2cc(O)c(O)c(O)c2)oc2cc(O)cc(O)c12
REMARK SMILES IDX 4 1 3 2 16 3 26 4 2 5 27 6 1 7 34 8 28 9 32 10 29 11 31 12
REMARK SMILES IDX 17 13 18 14 19 15 25 16 21 17 23 18 20 19 22 21 24 23 33 25
REMARK SMILES IDX 30 27 5 29 14 30 6 31 12 32 7 33 10 34 15 35 13 37 8 39 9 40
REMARK SMILES IDX 11 42
REMARK H PARENT 20 20 22 22 24 24 33 26 30 28 15 36 13 38 9 41 11 43
REMARK Flexibility Score: inf
ROOT
ATOM      1  O   UNL     1      14.016 -36.251  -0.291  1.00  0.00    -0.454 OA
ENDROOT
BRANCH   1   2
ATOM      2  C   UNL     1      13.353 -36.831  -1.391  1.00  0.00     0.214 A 
ATOM      3  C   UNL     1      14.107 -37.605  -2.298  1.00  0.00     0.181 A 
ATOM      4  O   UNL     1      13.523 -38.136  -3.364  1.00  0.00    -0.452 OA
ATOM      5  C   UNL     1      11.970 -36.663  -1.644  1.00  0.00     0.239 A 
ATOM      6  C   UNL     1      12.233 -38.007  -3.637  1.00  0.00     0.146 A 
ATOM      7  O   UNL     1      11.285 -35.931  -0.886  1.00  0.00    -0.285 OA
ATOM      8  C   UNL     1      11.377 -37.293  -2.766  1.00  0.00     0.111 A 
ATOM      9  C   UNL     1      11.742 -38.582  -4.812  1.00  0.00     0.094 A 
ATOM     10  C   UNL     1       9.993 -37.210  -3.099  1.00  0.00     0.134 A 
ATOM     11  C   UNL     1      10.399 -38.445  -5.153  1.00  0.00     0.123 A 
ATOM     12  C   UNL     1       9.534 -37.757  -4.301  1.00  0.00     0.093 A 
BRANCH   3  13
ATOM     13  C   UNL     1      15.572 -37.792  -2.153  1.00  0.00     0.029 A 
ATOM     14  C   UNL     1      16.442 -37.073  -2.988  1.00  0.00     0.062 A 
ATOM     15  C   UNL     1      17.829 -37.207  -2.874  1.00  0.00     0.162 A 
ATOM     16  C   UNL     1      16.115 -38.695  -1.229  1.00  0.00     0.062 A 
ATOM     17  C   UNL     1      18.366 -38.099  -1.916  1.00  0.00     0.200 A 
ATOM     18  C   UNL     1      17.500 -38.836  -1.097  1.00  0.00     0.162 A 
BRANCH  15  19
ATOM     19  O   UNL     1      18.631 -36.437  -3.720  1.00  0.00    -0.504 OA
ATOM     20  H   UNL     1      19.216 -35.675  -3.405  1.00  0.00     0.293 HD
ENDBRANCH  15  19
BRANCH  17  21
ATOM     21  O   UNL     1      19.740 -38.284  -1.751  1.00  0.00    -0.502 OA
ATOM     22  H   UNL     1      20.149 -39.066  -1.261  1.00  0.00     0.293 HD
ENDBRANCH  17  21
BRANCH  18  23
ATOM     23  O   UNL     1      18.025 -39.716  -0.151  1.00  0.00    -0.504 OA
ATOM     24  H   UNL     1      19.012 -39.953  -0.133  1.00  0.00     0.293 HD
ENDBRANCH  18  23
ENDBRANCH   3  13
BRANCH  10  25
ATOM     25  O   UNL     1       9.032 -36.616  -2.275  1.00  0.00    -0.507 OA
ATOM     26  H   UNL     1       8.880 -36.867  -1.306  1.00  0.00     0.293 HD
ENDBRANCH  10  25
BRANCH  11  27
ATOM     27  O   UNL     1       9.907 -38.989  -6.335  1.00  0.00    -0.508 OA
ATOM     28  H   UNL     1       9.451 -38.412  -7.031  1.00  0.00     0.293 HD
ENDBRANCH  11  27
ENDBRANCH   1   2
BRANCH   1  29
ATOM     29  C   UNL     1      14.017 -36.720   1.061  1.00  0.00     0.339 C 
ATOM     30  C   UNL     1      13.393 -35.664   1.992  1.00  0.00     0.214 C 
ATOM     31  O   UNL     1      15.315 -37.128   1.485  1.00  0.00    -0.332 OA
ATOM     32  C   UNL     1      14.326 -34.459   2.135  1.00  0.00     0.180 C 
ATOM     33  C   UNL     1      16.243 -36.068   1.684  1.00  0.00     0.179 C 
ATOM     34  C   UNL     1      15.699 -34.949   2.607  1.00  0.00     0.177 C 
BRANCH  30  35
ATOM     35  O   UNL     1      12.157 -35.242   1.478  1.00  0.00    -0.384 OA
ATOM     36  H   UNL     1      12.316 -34.970   0.537  1.00  0.00     0.211 HD
ENDBRANCH  30  35
BRANCH  32  37
ATOM     37  O   UNL     1      13.804 -33.563   3.082  1.00  0.00    -0.387 OA
ATOM     38  H   UNL     1      14.570 -33.221   3.610  1.00  0.00     0.211 HD
ENDBRANCH  32  37
BRANCH  33  39
ATOM     39  C   UNL     1      16.850 -35.558   0.362  1.00  0.00     0.191 C 
BRANCH  39  40
ATOM     40  O   UNL     1      18.236 -35.381   0.508  1.00  0.00    -0.394 OA
ATOM     41  H   UNL     1      18.580 -35.018  -0.349  1.00  0.00     0.210 HD
ENDBRANCH  39  40
ENDBRANCH  33  39
BRANCH  34  42
ATOM     42  O   UNL     1      16.606 -33.875   2.657  1.00  0.00    -0.387 OA
ATOM     43  H   UNL     1      16.254 -33.168   2.057  1.00  0.00     0.211 HD
ENDBRANCH  34  42
ENDBRANCH   1  29
TORSDOF 13
ENDMDL
MODEL 5
REMARK VINA RESULT:    -6.552      4.019      7.073
REMARK INTER + INTRA:         -11.100
REMARK INTER:                  -9.307
REMARK INTRA:                  -1.792
REMARK UNBOUND:                -1.292
REMARK SMILES O=c1c(O[C@H]2O[C@@H](CO)[C@@H](O)[C@H](O)[C@H]2O)c(-c2cc(O)c(O)c(O)c2)oc2cc(O)cc(O)c12
REMARK SMILES IDX 4 1 3 2 16 3 26 4 2 5 27 6 1 7 34 8 28 9 32 10 29 11 31 12
REMARK SMILES IDX 17 13 18 14 19 15 25 16 21 17 23 18 20 19 22 21 24 23 33 25
REMARK SMILES IDX 30 27 5 29 14 30 6 31 12 32 7 33 10 34 15 35 13 37 8 39 9 40
REMARK SMILES IDX 11 42
REMARK H PARENT 20 20 22 22 24 24 33 26 30 28 15 36 13 38 9 41 11 43
REMARK Flexibility Score: inf
ROOT
ATOM      1  O   UNL     1      12.346 -36.470  -3.477  1.00  0.00    -0.454 OA
ENDROOT
BRANCH   1   2
ATOM      2  C   UNL     1      12.291 -37.749  -4.065  1.00  0.00     0.214 A 
ATOM      3  C   UNL     1      13.384 -38.620  -3.881  1.00  0.00     0.181 A 
ATOM      4  O   UNL     1      13.383 -39.819  -4.451  1.00  0.00    -0.452 OA
ATOM      5  C   UNL     1      11.201 -38.199  -4.849  1.00  0.00     0.239 A 
ATOM      6  C   UNL     1      12.384 -40.282  -5.187  1.00  0.00     0.146 A 
ATOM      7  O   UNL     1      10.239 -37.424  -5.079  1.00  0.00    -0.285 OA
ATOM      8  C   UNL     1      11.218 -39.507  -5.394  1.00  0.00     0.111 A 
ATOM      9  C   UNL     1      12.516 -41.546  -5.766  1.00  0.00     0.094 A 
ATOM     10  C   UNL     1      10.165 -40.069  -6.174  1.00  0.00     0.134 A 
ATOM     11  C   UNL     1      11.502 -42.059  -6.573  1.00  0.00     0.123 A 
ATOM     12  C   UNL     1      10.338 -41.318  -6.777  1.00  0.00     0.093 A 
BRANCH   3  13
ATOM     13  C   UNL     1      14.599 -38.221  -3.126  1.00  0.00     0.029 A 
ATOM     14  C   UNL     1      15.731 -37.780  -3.830  1.00  0.00     0.062 A 
ATOM     15  C   UNL     1      16.889 -37.379  -3.158  1.00  0.00     0.162 A 
ATOM     16  C   UNL     1      14.662 -38.305  -1.728  1.00  0.00     0.062 A 
ATOM     17  C   UNL     1      16.930 -37.439  -1.745  1.00  0.00     0.200 A 
ATOM     18  C   UNL     1      15.811 -37.901  -1.040  1.00  0.00     0.162 A 
BRANCH  15  19
ATOM     19  O   UNL     1      17.964 -36.925  -3.926  1.00  0.00    -0.504 OA
ATOM     20  H   UNL     1      18.620 -37.534  -4.396  1.00  0.00     0.293 HD
ENDBRANCH  15  19
BRANCH  17  21
ATOM     21  O   UNL     1      18.055 -37.057  -1.012  1.00  0.00    -0.502 OA
ATOM     22  H   UNL     1      18.818 -37.678  -0.786  1.00  0.00     0.293 HD
ENDBRANCH  17  21
BRANCH  18  23
ATOM     23  O   UNL     1      15.847 -37.961   0.352  1.00  0.00    -0.504 OA
ATOM     24  H   UNL     1      15.099 -37.578   0.922  1.00  0.00     0.293 HD
ENDBRANCH  18  23
ENDBRANCH   3  13
BRANCH  10  25
ATOM     25  O   UNL     1       8.929 -39.445  -6.371  1.00  0.00    -0.507 OA
ATOM     26  H   UNL     1       8.344 -39.588  -7.186  1.00  0.00     0.293 HD
ENDBRANCH  10  25
BRANCH  11  27
ATOM     27  O   UNL     1      11.637 -43.304  -7.176  1.00  0.00    -0.508 OA
ATOM     28  H   UNL     1      10.880 -43.976  -7.173  1.00  0.00     0.293 HD
ENDBRANCH  11  27
ENDBRANCH   1   2
BRANCH   1  29
ATOM     29  C   UNL     1      11.716 -36.051  -2.261  1.00  0.00     0.339 C 
ATOM     30  C   UNL     1      10.712 -34.919  -2.545  1.00  0.00     0.214 C 
ATOM     31  O   UNL     1      12.666 -35.704  -1.258  1.00  0.00    -0.332 OA
ATOM     32  C   UNL     1      11.450 -33.629  -2.912  1.00  0.00     0.180 C 
ATOM     33  C   UNL     1      13.375 -34.493  -1.494  1.00  0.00     0.179 C 
ATOM     34  C   UNL     1      12.444 -33.293  -1.796  1.00  0.00     0.177 C 
BRANCH  30  35
ATOM     35  O   UNL     1       9.858 -35.286  -3.598  1.00  0.00    -0.384 OA
ATOM     36  H   UNL     1       8.963 -34.918  -3.382  1.00  0.00     0.211 HD
ENDBRANCH  30  35
BRANCH  32  37
ATOM     37  O   UNL     1      10.529 -32.576  -3.045  1.00  0.00    -0.387 OA
ATOM     38  H   UNL     1      10.548 -32.294  -3.995  1.00  0.00     0.211 HD
ENDBRANCH  32  37
BRANCH  33  39
ATOM     39  C   UNL     1      14.526 -34.670  -2.503  1.00  0.00     0.191 C 
BRANCH  39  40
ATOM     40  O   UNL     1      15.737 -34.252  -1.927  1.00  0.00    -0.394 OA
ATOM     41  H   UNL     1      16.382 -35.001  -2.017  1.00  0.00     0.210 HD
ENDBRANCH  39  40
ENDBRANCH  33  39
BRANCH  34  42
ATOM     42  O   UNL     1      13.205 -32.164  -2.149  1.00  0.00    -0.387 OA
ATOM     43  H   UNL     1      14.051 -32.494  -2.546  1.00  0.00     0.211 HD
ENDBRANCH  34  42
ENDBRANCH   1  29
TORSDOF 13
ENDMDL
MODEL 6
REMARK VINA RESULT:    -6.487      3.134      5.977
REMARK INTER + INTRA:         -11.002
REMARK INTER:                  -9.604
REMARK INTRA:                  -1.397
REMARK UNBOUND:                -1.292
REMARK SMILES O=c1c(O[C@H]2O[C@@H](CO)[C@@H](O)[C@H](O)[C@H]2O)c(-c2cc(O)c(O)c(O)c2)oc2cc(O)cc(O)c12
REMARK SMILES IDX 4 1 3 2 16 3 26 4 2 5 27 6 1 7 34 8 28 9 32 10 29 11 31 12
REMARK SMILES IDX 17 13 18 14 19 15 25 16 21 17 23 18 20 19 22 21 24 23 33 25
REMARK SMILES IDX 30 27 5 29 14 30 6 31 12 32 7 33 10 34 15 35 13 37 8 39 9 40
REMARK SMILES IDX 11 42
REMARK H PARENT 20 20 22 22 24 24 33 26 30 28 15 36 13 38 9 41 11 43
REMARK Flexibility Score: inf
ROOT
ATOM      1  O   UNL     1      15.114 -37.809  -1.633  1.00  0.00    -0.454 OA
ENDROOT
BRANCH   1   2
ATOM      2  C   UNL     1      14.055 -37.954  -2.551  1.00  0.00     0.214 A 
ATOM      3  C   UNL     1      13.113 -36.910  -2.659  1.00  0.00     0.181 A 
ATOM      4  O   UNL     1      12.082 -37.028  -3.486  1.00  0.00    -0.452 OA
ATOM      5  C   UNL     1      13.875 -39.103  -3.359  1.00  0.00     0.239 A 
ATOM      6  C   UNL     1      11.878 -38.081  -4.262  1.00  0.00     0.146 A 
ATOM      7  O   UNL     1      14.665 -40.074  -3.242  1.00  0.00    -0.285 OA
ATOM      8  C   UNL     1      12.790 -39.163  -4.268  1.00  0.00     0.111 A 
ATOM      9  C   UNL     1      10.734 -38.104  -5.064  1.00  0.00     0.094 A 
ATOM     10  C   UNL     1      12.532 -40.258  -5.143  1.00  0.00     0.134 A 
ATOM     11  C   UNL     1      10.465 -39.206  -5.872  1.00  0.00     0.123 A 
ATOM     12  C   UNL     1      11.359 -40.277  -5.904  1.00  0.00     0.093 A 
BRANCH   3  13
ATOM     13  C   UNL     1      13.179 -35.691  -1.814  1.00  0.00     0.029 A 
ATOM     14  C   UNL     1      13.164 -35.822  -0.417  1.00  0.00     0.062 A 
ATOM     15  C   UNL     1      13.241 -34.702   0.416  1.00  0.00     0.162 A 
ATOM     16  C   UNL     1      13.222 -34.406  -2.372  1.00  0.00     0.062 A 
ATOM     17  C   UNL     1      13.315 -33.411  -0.159  1.00  0.00     0.200 A 
ATOM     18  C   UNL     1      13.307 -33.275  -1.554  1.00  0.00     0.162 A 
BRANCH  15  19
ATOM     19  O   UNL     1      13.249 -34.914   1.797  1.00  0.00    -0.504 OA
ATOM     20  H   UNL     1      13.776 -34.352   2.452  1.00  0.00     0.293 HD
ENDBRANCH  15  19
BRANCH  17  21
ATOM     21  O   UNL     1      13.391 -32.250   0.612  1.00  0.00    -0.502 OA
ATOM     22  H   UNL     1      14.168 -31.607   0.587  1.00  0.00     0.293 HD
ENDBRANCH  17  21
BRANCH  18  23
ATOM     23  O   UNL     1      13.381 -32.005  -2.125  1.00  0.00    -0.504 OA
ATOM     24  H   UNL     1      13.062 -31.826  -3.072  1.00  0.00     0.293 HD
ENDBRANCH  18  23
ENDBRANCH   3  13
BRANCH  10  25
ATOM     25  O   UNL     1      13.403 -41.340  -5.310  1.00  0.00    -0.507 OA
ATOM     26  H   UNL     1      13.434 -41.921  -6.139  1.00  0.00     0.293 HD
ENDBRANCH  10  25
BRANCH  11  27
ATOM     27  O   UNL     1       9.314 -39.251  -6.652  1.00  0.00    -0.508 OA
ATOM     28  H   UNL     1       8.466 -38.777  -6.367  1.00  0.00     0.293 HD
ENDBRANCH  11  27
ENDBRANCH   1   2
BRANCH   1  29
ATOM     29  C   UNL     1      16.328 -37.076  -1.826  1.00  0.00     0.339 C 
ATOM     30  C   UNL     1      17.477 -38.034  -2.190  1.00  0.00     0.214 C 
ATOM     31  O   UNL     1      16.637 -36.248  -0.708  1.00  0.00    -0.332 OA
ATOM     32  C   UNL     1      17.874 -38.878  -0.976  1.00  0.00     0.180 C 
ATOM     33  C   UNL     1      17.056 -36.945   0.459  1.00  0.00     0.179 C 
ATOM     34  C   UNL     1      18.211 -37.942   0.189  1.00  0.00     0.177 C 
BRANCH  30  35
ATOM     35  O   UNL     1      17.084 -38.879  -3.240  1.00  0.00    -0.384 OA
ATOM     36  H   UNL     1      17.639 -38.635  -4.026  1.00  0.00     0.211 HD
ENDBRANCH  30  35
BRANCH  32  37
ATOM     37  O   UNL     1      19.002 -39.655  -1.286  1.00  0.00    -0.387 OA
ATOM     38  H   UNL     1      19.477 -39.829  -0.433  1.00  0.00     0.211 HD
ENDBRANCH  32  37
BRANCH  33  39
ATOM     39  C   UNL     1      15.874 -37.544   1.246  1.00  0.00     0.191 C 
BRANCH  39  40
ATOM     40  O   UNL     1      15.542 -36.708   2.325  1.00  0.00    -0.394 OA
ATOM     41  H   UNL     1      14.851 -37.176   2.861  1.00  0.00     0.210 HD
ENDBRANCH  39  40
ENDBRANCH  33  39
BRANCH  34  42
ATOM     42  O   UNL     1      18.487 -38.691   1.347  1.00  0.00    -0.387 OA
ATOM     43  H   UNL     1      18.912 -39.537   1.054  1.00  0.00     0.211 HD
ENDBRANCH  34  42
ENDBRANCH   1  29
TORSDOF 13
ENDMDL
MODEL 7
REMARK VINA RESULT:    -6.484      2.233      7.999
REMARK INTER + INTRA:         -10.997
REMARK INTER:                  -9.546
REMARK INTRA:                  -1.451
REMARK UNBOUND:                -1.292
REMARK SMILES O=c1c(O[C@H]2O[C@@H](CO)[C@@H](O)[C@H](O)[C@H]2O)c(-c2cc(O)c(O)c(O)c2)oc2cc(O)cc(O)c12
REMARK SMILES IDX 4 1 3 2 16 3 26 4 2 5 27 6 1 7 34 8 28 9 32 10 29 11 31 12
REMARK SMILES IDX 17 13 18 14 19 15 25 16 21 17 23 18 20 19 22 21 24 23 33 25
REMARK SMILES IDX 30 27 5 29 14 30 6 31 12 32 7 33 10 34 15 35 13 37 8 39 9 40
REMARK SMILES IDX 11 42
REMARK H PARENT 20 20 22 22 24 24 33 26 30 28 15 36 13 38 9 41 11 43
REMARK Flexibility Score: inf
ROOT
ATOM      1  O   UNL     1      13.167 -35.363  -1.475  1.00  0.00    -0.454 OA
ENDROOT
BRANCH   1   2
ATOM      2  C   UNL     1      14.155 -36.000  -0.698  1.00  0.00     0.214 A 
ATOM      3  C   UNL     1      14.249 -35.668   0.670  1.00  0.00     0.181 A 
ATOM      4  O   UNL     1      15.191 -36.221   1.424  1.00  0.00    -0.452 OA
ATOM      5  C   UNL     1      15.072 -36.942  -1.222  1.00  0.00     0.239 A 
ATOM      6  C   UNL     1      16.065 -37.109   0.977  1.00  0.00     0.146 A 
ATOM      7  O   UNL     1      15.050 -37.213  -2.449  1.00  0.00    -0.285 OA
ATOM      8  C   UNL     1      16.027 -37.547  -0.368  1.00  0.00     0.111 A 
ATOM      9  C   UNL     1      17.034 -37.591   1.860  1.00  0.00     0.094 A 
ATOM     10  C   UNL     1      16.977 -38.524  -0.786  1.00  0.00     0.134 A 
ATOM     11  C   UNL     1      17.992 -38.503   1.423  1.00  0.00     0.123 A 
ATOM     12  C   UNL     1      17.963 -38.960   0.105  1.00  0.00     0.093 A 
BRANCH   3  13
ATOM     13  C   UNL     1      13.374 -34.649   1.302  1.00  0.00     0.029 A 
ATOM     14  C   UNL     1      12.074 -35.008   1.694  1.00  0.00     0.062 A 
ATOM     15  C   UNL     1      11.223 -34.084   2.307  1.00  0.00     0.162 A 
ATOM     16  C   UNL     1      13.795 -33.325   1.487  1.00  0.00     0.062 A 
ATOM     17  C   UNL     1      11.670 -32.758   2.517  1.00  0.00     0.200 A 
ATOM     18  C   UNL     1      12.958 -32.390   2.106  1.00  0.00     0.162 A 
BRANCH  15  19
ATOM     19  O   UNL     1       9.955 -34.523   2.695  1.00  0.00    -0.504 OA
ATOM     20  H   UNL     1       9.238 -33.917   3.072  1.00  0.00     0.293 HD
ENDBRANCH  15  19
BRANCH  17  21
ATOM     21  O   UNL     1      10.872 -31.785   3.120  1.00  0.00    -0.502 OA
ATOM     22  H   UNL     1      10.716 -31.721   4.115  1.00  0.00     0.293 HD
ENDBRANCH  17  21
BRANCH  18  23
ATOM     23  O   UNL     1      13.403 -31.085   2.311  1.00  0.00    -0.504 OA
ATOM     24  H   UNL     1      13.776 -30.523   1.553  1.00  0.00     0.293 HD
ENDBRANCH  18  23
ENDBRANCH   3  13
BRANCH  10  25
ATOM     25  O   UNL     1      16.983 -39.106  -2.058  1.00  0.00    -0.507 OA
ATOM     26  H   UNL     1      16.510 -39.971  -2.289  1.00  0.00     0.293 HD
ENDBRANCH  10  25
BRANCH  11  27
ATOM     27  O   UNL     1      18.978 -38.966   2.287  1.00  0.00    -0.508 OA
ATOM     28  H   UNL     1      18.803 -39.072   3.278  1.00  0.00     0.293 HD
ENDBRANCH  11  27
ENDBRANCH   1   2
BRANCH   1  29
ATOM     29  C   UNL     1      13.360 -34.654  -2.704  1.00  0.00     0.339 C 
ATOM     30  C   UNL     1      12.588 -33.322  -2.677  1.00  0.00     0.214 C 
ATOM     31  O   UNL     1      13.040 -35.452  -3.839  1.00  0.00    -0.332 OA
ATOM     32  C   UNL     1      11.080 -33.577  -2.759  1.00  0.00     0.180 C 
ATOM     33  C   UNL     1      11.652 -35.710  -4.021  1.00  0.00     0.179 C 
ATOM     34  C   UNL     1      10.789 -34.424  -4.002  1.00  0.00     0.177 C 
BRANCH  30  35
ATOM     35  O   UNL     1      12.881 -32.620  -1.497  1.00  0.00    -0.384 OA
ATOM     36  H   UNL     1      12.652 -31.669  -1.666  1.00  0.00     0.211 HD
ENDBRANCH  30  35
BRANCH  32  37
ATOM     37  O   UNL     1      10.397 -32.355  -2.861  1.00  0.00    -0.387 OA
ATOM     38  H   UNL     1       9.699 -32.354  -2.156  1.00  0.00     0.211 HD
ENDBRANCH  32  37
BRANCH  33  39
ATOM     39  C   UNL     1      11.134 -36.833  -3.101  1.00  0.00     0.191 C 
BRANCH  39  40
ATOM     40  O   UNL     1      12.107 -37.838  -2.977  1.00  0.00    -0.394 OA
ATOM     41  H   UNL     1      11.674 -38.700  -3.211  1.00  0.00     0.210 HD
ENDBRANCH  39  40
ENDBRANCH  33  39
BRANCH  34  42
ATOM     42  O   UNL     1       9.423 -34.754  -4.053  1.00  0.00    -0.387 OA
ATOM     43  H   UNL     1       8.925 -33.916  -4.237  1.00  0.00     0.211 HD
ENDBRANCH  34  42
ENDBRANCH   1  29
TORSDOF 13
ENDMDL
MODEL 8
REMARK VINA RESULT:    -6.446      3.948      6.494
REMARK INTER + INTRA:         -10.941
REMARK INTER:                 -10.302
REMARK INTRA:                  -0.640
REMARK UNBOUND:                -1.292
REMARK SMILES O=c1c(O[C@H]2O[C@@H](CO)[C@@H](O)[C@H](O)[C@H]2O)c(-c2cc(O)c(O)c(O)c2)oc2cc(O)cc(O)c12
REMARK SMILES IDX 4 1 3 2 16 3 26 4 2 5 27 6 1 7 34 8 28 9 32 10 29 11 31 12
REMARK SMILES IDX 17 13 18 14 19 15 25 16 21 17 23 18 20 19 22 21 24 23 33 25
REMARK SMILES IDX 30 27 5 29 14 30 6 31 12 32 7 33 10 34 15 35 13 37 8 39 9 40
REMARK SMILES IDX 11 42
REMARK H PARENT 20 20 22 22 24 24 33 26 30 28 15 36 13 38 9 41 11 43
REMARK Flexibility Score: inf
ROOT
ATOM      1  O   UNL     1      14.664 -38.049  -3.033  1.00  0.00    -0.454 OA
ENDROOT
BRANCH   1   2
ATOM      2  C   UNL     1      13.607 -38.435  -3.882  1.00  0.00     0.214 A 
ATOM      3  C   UNL     1      12.644 -37.468  -4.237  1.00  0.00     0.181 A 
ATOM      4  O   UNL     1      11.615 -37.805  -5.004  1.00  0.00    -0.452 OA
ATOM      5  C   UNL     1      13.450 -39.750  -4.381  1.00  0.00     0.239 A 
ATOM      6  C   UNL     1      11.432 -39.021  -5.496  1.00  0.00     0.146 A 
ATOM      7  O   UNL     1      14.260 -40.647  -4.035  1.00  0.00    -0.285 OA
ATOM      8  C   UNL     1      12.366 -40.053  -5.241  1.00  0.00     0.111 A 
ATOM      9  C   UNL     1      10.288 -39.262  -6.261  1.00  0.00     0.094 A 
ATOM     10  C   UNL     1      12.128 -41.334  -5.820  1.00  0.00     0.134 A 
ATOM     11  C   UNL     1      10.040 -40.534  -6.773  1.00  0.00     0.123 A 
ATOM     12  C   UNL     1      10.956 -41.562  -6.546  1.00  0.00     0.093 A 
BRANCH   3  13
ATOM     13  C   UNL     1      12.687 -36.078  -3.718  1.00  0.00     0.029 A 
ATOM     14  C   UNL     1      11.535 -35.279  -3.798  1.00  0.00     0.062 A 
ATOM     15  C   UNL     1      11.527 -33.970  -3.307  1.00  0.00     0.162 A 
ATOM     16  C   UNL     1      13.857 -35.525  -3.180  1.00  0.00     0.062 A 
ATOM     17  C   UNL     1      12.706 -33.433  -2.737  1.00  0.00     0.200 A 
ATOM     18  C   UNL     1      13.864 -34.220  -2.677  1.00  0.00     0.162 A 
BRANCH  15  19
ATOM     19  O   UNL     1      10.335 -33.247  -3.396  1.00  0.00    -0.504 OA
ATOM     20  H   UNL     1      10.053 -32.538  -2.732  1.00  0.00     0.293 HD
ENDBRANCH  15  19
BRANCH  17  21
ATOM     21  O   UNL     1      12.769 -32.134  -2.231  1.00  0.00    -0.502 OA
ATOM     22  H   UNL     1      12.093 -31.414  -2.438  1.00  0.00     0.293 HD
ENDBRANCH  17  21
BRANCH  18  23
ATOM     23  O   UNL     1      15.028 -33.695  -2.116  1.00  0.00    -0.504 OA
ATOM     24  H   UNL     1      15.066 -33.398  -1.146  1.00  0.00     0.293 HD
ENDBRANCH  18  23
ENDBRANCH   3  13
BRANCH  10  25
ATOM     25  O   UNL     1      13.021 -42.406  -5.721  1.00  0.00    -0.507 OA
ATOM     26  H   UNL     1      12.873 -43.216  -5.132  1.00  0.00     0.293 HD
ENDBRANCH  10  25
BRANCH  11  27
ATOM     27  O   UNL     1       8.890 -40.791  -7.511  1.00  0.00    -0.508 OA
ATOM     28  H   UNL     1       8.918 -40.871  -8.519  1.00  0.00     0.293 HD
ENDBRANCH  11  27
ENDBRANCH   1   2
BRANCH   1  29
ATOM     29  C   UNL     1      15.230 -38.808  -1.959  1.00  0.00     0.339 C 
ATOM     30  C   UNL     1      14.871 -38.165  -0.607  1.00  0.00     0.214 C 
ATOM     31  O   UNL     1      16.632 -39.001  -2.121  1.00  0.00    -0.332 OA
ATOM     32  C   UNL     1      15.630 -36.849  -0.422  1.00  0.00     0.180 C 
ATOM     33  C   UNL     1      17.426 -37.836  -1.927  1.00  0.00     0.179 C 
ATOM     34  C   UNL     1      17.129 -37.114  -0.589  1.00  0.00     0.177 C 
BRANCH  30  35
ATOM     35  O   UNL     1      13.489 -37.923  -0.541  1.00  0.00    -0.384 OA
ATOM     36  H   UNL     1      13.126 -38.527   0.158  1.00  0.00     0.211 HD
ENDBRANCH  30  35
BRANCH  32  37
ATOM     37  O   UNL     1      15.390 -36.339   0.865  1.00  0.00    -0.387 OA
ATOM     38  H   UNL     1      15.885 -36.917   1.501  1.00  0.00     0.211 HD
ENDBRANCH  32  37
BRANCH  33  39
ATOM     39  C   UNL     1      17.425 -36.909  -3.159  1.00  0.00     0.191 C 
BRANCH  39  40
ATOM     40  O   UNL     1      17.524 -37.672  -4.334  1.00  0.00    -0.394 OA
ATOM     41  H   UNL     1      16.815 -38.365  -4.298  1.00  0.00     0.210 HD
ENDBRANCH  39  40
ENDBRANCH  33  39
BRANCH  34  42
ATOM     42  O   UNL     1      17.846 -35.906  -0.519  1.00  0.00    -0.387 OA
ATOM     43  H   UNL     1      18.770 -36.130  -0.237  1.00  0.00     0.211 HD
ENDBRANCH  34  42
ENDBRANCH   1  29
TORSDOF 13
ENDMDL
MODEL 9
REMARK VINA RESULT:    -6.402      2.761      7.182
REMARK INTER + INTRA:         -10.876
REMARK INTER:                  -9.026
REMARK INTRA:                  -1.850
REMARK UNBOUND:                -1.292
REMARK SMILES O=c1c(O[C@H]2O[C@@H](CO)[C@@H](O)[C@H](O)[C@H]2O)c(-c2cc(O)c(O)c(O)c2)oc2cc(O)cc(O)c12
REMARK SMILES IDX 4 1 3 2 16 3 26 4 2 5 27 6 1 7 34 8 28 9 32 10 29 11 31 12
REMARK SMILES IDX 17 13 18 14 19 15 25 16 21 17 23 18 20 19 22 21 24 23 33 25
REMARK SMILES IDX 30 27 5 29 14 30 6 31 12 32 7 33 10 34 15 35 13 37 8 39 9 40
REMARK SMILES IDX 11 42
REMARK H PARENT 20 20 22 22 24 24 33 26 30 28 15 36 13 38 9 41 11 43
REMARK Flexibility Score: inf
ROOT
ATOM      1  O   UNL     1      13.098 -35.615  -1.809  1.00  0.00    -0.454 OA
ENDROOT
BRANCH   1   2
ATOM      2  C   UNL     1      14.207 -36.210  -1.175  1.00  0.00     0.214 A 
ATOM      3  C   UNL     1      14.572 -37.519  -1.554  1.00  0.00     0.181 A 
ATOM      4  O   UNL     1      15.588 -38.125  -0.953  1.00  0.00    -0.452 OA
ATOM      5  C   UNL     1      14.963 -35.571  -0.164  1.00  0.00     0.239 A 
ATOM      6  C   UNL     1      16.324 -37.563  -0.006  1.00  0.00     0.146 A 
ATOM      7  O   UNL     1      14.624 -34.427   0.235  1.00  0.00    -0.285 OA
ATOM      8  C   UNL     1      16.073 -36.235   0.413  1.00  0.00     0.111 A 
ATOM      9  C   UNL     1      17.345 -38.317   0.578  1.00  0.00     0.094 A 
ATOM     10  C   UNL     1      16.915 -35.674   1.417  1.00  0.00     0.134 A 
ATOM     11  C   UNL     1      18.123 -37.776   1.598  1.00  0.00     0.123 A 
ATOM     12  C   UNL     1      17.902 -36.463   2.016  1.00  0.00     0.093 A 
BRANCH   3  13
ATOM     13  C   UNL     1      13.808 -38.297  -2.561  1.00  0.00     0.029 A 
ATOM     14  C   UNL     1      12.911 -39.286  -2.129  1.00  0.00     0.062 A 
ATOM     15  C   UNL     1      12.159 -40.030  -3.043  1.00  0.00     0.162 A 
ATOM     16  C   UNL     1      13.981 -38.096  -3.938  1.00  0.00     0.062 A 
ATOM     17  C   UNL     1      12.320 -39.798  -4.429  1.00  0.00     0.200 A 
ATOM     18  C   UNL     1      13.232 -38.826  -4.865  1.00  0.00     0.162 A 
BRANCH  15  19
ATOM     19  O   UNL     1      11.266 -40.978  -2.536  1.00  0.00    -0.504 OA
ATOM     20  H   UNL     1      11.424 -41.976  -2.565  1.00  0.00     0.293 HD
ENDBRANCH  15  19
BRANCH  17  21
ATOM     21  O   UNL     1      11.605 -40.505  -5.396  1.00  0.00    -0.502 OA
ATOM     22  H   UNL     1      10.603 -40.452  -5.509  1.00  0.00     0.293 HD
ENDBRANCH  17  21
BRANCH  18  23
ATOM     23  O   UNL     1      13.393 -38.593  -6.231  1.00  0.00    -0.504 OA
ATOM     24  H   UNL     1      14.055 -39.124  -6.788  1.00  0.00     0.293 HD
ENDBRANCH  18  23
ENDBRANCH   3  13
BRANCH  10  25
ATOM     25  O   UNL     1      16.830 -34.346   1.848  1.00  0.00    -0.507 OA
ATOM     26  H   UNL     1      16.056 -33.729   1.636  1.00  0.00     0.293 HD
ENDBRANCH  10  25
BRANCH  11  27
ATOM     27  O   UNL     1      19.122 -38.529   2.205  1.00  0.00    -0.508 OA
ATOM     28  H   UNL     1      20.088 -38.461   1.908  1.00  0.00     0.293 HD
ENDBRANCH  11  27
ENDBRANCH   1   2
BRANCH   1  29
ATOM     29  C   UNL     1      13.121 -34.716  -2.923  1.00  0.00     0.339 C 
ATOM     30  C   UNL     1      12.482 -33.370  -2.534  1.00  0.00     0.214 C 
ATOM     31  O   UNL     1      12.529 -35.289  -4.085  1.00  0.00    -0.332 OA
ATOM     32  C   UNL     1      10.969 -33.526  -2.359  1.00  0.00     0.180 C 
ATOM     33  C   UNL     1      11.115 -35.437  -4.031  1.00  0.00     0.179 C 
ATOM     34  C   UNL     1      10.383 -34.129  -3.639  1.00  0.00     0.177 C 
BRANCH  30  35
ATOM     35  O   UNL     1      13.046 -32.898  -1.338  1.00  0.00    -0.384 OA
ATOM     36  H   UNL     1      13.320 -31.958  -1.502  1.00  0.00     0.211 HD
ENDBRANCH  30  35
BRANCH  32  37
ATOM     37  O   UNL     1      10.385 -32.270  -2.129  1.00  0.00    -0.387 OA
ATOM     38  H   UNL     1      10.893 -31.846  -1.390  1.00  0.00     0.211 HD
ENDBRANCH  32  37
BRANCH  33  39
ATOM     39  C   UNL     1      10.682 -36.673  -3.217  1.00  0.00     0.191 C 
BRANCH  39  40
ATOM     40  O   UNL     1       9.653 -37.352  -3.890  1.00  0.00    -0.394 OA
ATOM     41  H   UNL     1       9.871 -38.320  -3.865  1.00  0.00     0.210 HD
ENDBRANCH  39  40
ENDBRANCH  33  39
BRANCH  34  42
ATOM     42  O   UNL     1       9.008 -34.374  -3.473  1.00  0.00    -0.387 OA
ATOM     43  H   UNL     1       8.837 -35.302  -3.777  1.00  0.00     0.211 HD
ENDBRANCH  34  42
ENDBRANCH   1  29
TORSDOF 13
ENDMDL
