MODEL 1
REMARK VINA RESULT:    -3.879      0.000      0.000
REMARK INTER + INTRA:          -5.115
REMARK INTER:                  -5.013
REMARK INTRA:                  -0.102
REMARK UNBOUND:                -0.102
REMARK SMILES CCCCCCC(=O)[O-]
REMARK SMILES IDX 5 1 6 2 7 3 8 4 9 5 4 6 3 7 2 8 1 9
REMARK H PARENT
REMARK Flexibility Score: inf
ROOT
ATOM      1  C   UNL     1       5.015 -35.085  20.785  1.00  0.00     0.006 C 
ENDROOT
BRANCH   1   2
ATOM      2  C   UNL     1       5.185 -36.287  19.852  1.00  0.00     0.053 C 
BRANCH   2   3
ATOM      3  C   UNL     1       3.888 -36.624  19.187  1.00  0.00     0.041 C 
ATOM      4  O   UNL     1       2.875 -36.903  19.880  1.00  0.00    -0.550 OA
ATOM      5  O   UNL     1       3.786 -36.581  17.802  1.00  0.00    -0.550 OA
ENDBRANCH   2   3
ENDBRANCH   1   2
BRANCH   1   6
ATOM      6  C   UNL     1       5.913 -35.216  22.024  1.00  0.00     0.000 C 
BRANCH   6   7
ATOM      7  C   UNL     1       5.362 -34.430  23.232  1.00  0.00    -0.000 C 
BRANCH   7   8
ATOM      8  C   UNL     1       6.085 -34.744  24.552  1.00  0.00    -0.003 C 
ATOM      9  C   UNL     1       5.678 -36.086  25.154  1.00  0.00     0.004 C 
ENDBRANCH   7   8
ENDBRANCH   6   7
ENDBRANCH   1   6
TORSDOF 5
ENDMDL
MODEL 2
REMARK VINA RESULT:    -3.843      0.552      1.263
REMARK INTER + INTRA:          -5.069
REMARK INTER:                  -4.941
REMARK INTRA:                  -0.128
REMARK UNBOUND:                -0.102
REMARK SMILES CCCCCCC(=O)[O-]
REMARK SMILES IDX 5 1 6 2 7 3 8 4 9 5 4 6 3 7 2 8 1 9
REMARK H PARENT
REMARK Flexibility Score: inf
ROOT
ATOM      1  C   UNL     1       5.599 -35.175  20.154  1.00  0.00     0.006 C 
ENDROOT
BRANCH   1   2
ATOM      2  C   UNL     1       5.174 -36.613  19.846  1.00  0.00     0.053 C 
BRANCH   2   3
ATOM      3  C   UNL     1       3.870 -36.630  19.114  1.00  0.00     0.041 C 
ATOM      4  O   UNL     1       3.842 -36.463  17.866  1.00  0.00    -0.550 OA
ATOM      5  O   UNL     1       2.690 -36.881  19.802  1.00  0.00    -0.550 OA
ENDBRANCH   2   3
ENDBRANCH   1   2
BRANCH   1   6
ATOM      6  C   UNL     1       5.148 -34.755  21.561  1.00  0.00     0.000 C 
BRANCH   6   7
ATOM      7  C   UNL     1       6.067 -35.322  22.663  1.00  0.00    -0.000 C 
BRANCH   7   8
ATOM      8  C   UNL     1       5.713 -34.824  24.075  1.00  0.00    -0.003 C 
ATOM      9  C   UNL     1       5.736 -35.933  25.124  1.00  0.00     0.004 C 
ENDBRANCH   7   8
ENDBRANCH   6   7
ENDBRANCH   1   6
TORSDOF 5
ENDMDL
MODEL 3
REMARK VINA RESULT:    -3.790      1.209      1.366
REMARK INTER + INTRA:          -4.999
REMARK INTER:                  -4.875
REMARK INTRA:                  -0.125
REMARK UNBOUND:                -0.102
REMARK SMILES CCCCCCC(=O)[O-]
REMARK SMILES IDX 5 1 6 2 7 3 8 4 9 5 4 6 3 7 2 8 1 9
REMARK H PARENT
REMARK Flexibility Score: inf
ROOT
ATOM      1  C   UNL     1       5.017 -34.676  21.483  1.00  0.00     0.006 C 
ENDROOT
BRANCH   1   2
ATOM      2  C   UNL     1       5.551 -35.141  20.125  1.00  0.00     0.053 C 
BRANCH   2   3
ATOM      3  C   UNL     1       4.996 -36.484  19.774  1.00  0.00     0.041 C 
ATOM      4  O   UNL     1       5.693 -37.520  19.937  1.00  0.00    -0.550 OA
ATOM      5  O   UNL     1       3.690 -36.597  19.312  1.00  0.00    -0.550 OA
ENDBRANCH   2   3
ENDBRANCH   1   2
BRANCH   1   6
ATOM      6  C   UNL     1       6.007 -35.010  22.609  1.00  0.00     0.000 C 
BRANCH   6   7
ATOM      7  C   UNL     1       5.459 -34.632  24.001  1.00  0.00    -0.000 C 
BRANCH   7   8
ATOM      8  C   UNL     1       6.125 -35.400  25.155  1.00  0.00    -0.003 C 
ATOM      9  C   UNL     1       5.405 -36.700  25.503  1.00  0.00     0.004 C 
ENDBRANCH   7   8
ENDBRANCH   6   7
ENDBRANCH   1   6
TORSDOF 5
ENDMDL
MODEL 4
REMARK VINA RESULT:    -3.657      2.960      6.042
REMARK INTER + INTRA:          -4.828
REMARK INTER:                  -4.709
REMARK INTRA:                  -0.119
REMARK UNBOUND:                -0.102
REMARK SMILES CCCCCCC(=O)[O-]
REMARK SMILES IDX 5 1 6 2 7 3 8 4 9 5 4 6 3 7 2 8 1 9
REMARK H PARENT
REMARK Flexibility Score: inf
ROOT
ATOM      1  C   UNL     1       3.743 -36.551  19.274  1.00  0.00     0.006 C 
ENDROOT
BRANCH   1   2
ATOM      2  C   UNL     1       5.129 -36.742  19.894  1.00  0.00     0.053 C 
BRANCH   2   3
ATOM      3  C   UNL     1       5.629 -35.456  20.471  1.00  0.00     0.041 C 
ATOM      4  O   UNL     1       5.988 -34.518  19.711  1.00  0.00    -0.550 OA
ATOM      5  O   UNL     1       5.651 -35.274  21.848  1.00  0.00    -0.550 OA
ENDBRANCH   2   3
ENDBRANCH   1   2
BRANCH   1   6
ATOM      6  C   UNL     1       3.823 -36.521  17.740  1.00  0.00     0.000 C 
BRANCH   6   7
ATOM      7  C   UNL     1       2.428 -36.539  17.081  1.00  0.00    -0.000 C 
BRANCH   7   8
ATOM      8  C   UNL     1       2.359 -35.747  15.764  1.00  0.00    -0.003 C 
ATOM      9  C   UNL     1       3.499 -36.081  14.805  1.00  0.00     0.004 C 
ENDBRANCH   7   8
ENDBRANCH   6   7
ENDBRANCH   1   6
TORSDOF 5
ENDMDL
MODEL 5
REMARK VINA RESULT:    -3.516      2.470      3.779
REMARK INTER + INTRA:          -4.646
REMARK INTER:                  -4.492
REMARK INTRA:                  -0.155
REMARK UNBOUND:                -0.102
REMARK SMILES CCCCCCC(=O)[O-]
REMARK SMILES IDX 5 1 6 2 7 3 8 4 9 5 4 6 3 7 2 8 1 9
REMARK H PARENT
REMARK Flexibility Score: inf
ROOT
ATOM      1  C   UNL     1       2.841 -36.829  18.160  1.00  0.00     0.006 C 
ENDROOT
BRANCH   1   2
ATOM      2  C   UNL     1       3.697 -36.087  17.131  1.00  0.00     0.053 C 
BRANCH   2   3
ATOM      3  C   UNL     1       3.136 -36.263  15.755  1.00  0.00     0.041 C 
ATOM      4  O   UNL     1       2.018 -35.766  15.459  1.00  0.00    -0.550 OA
ATOM      5  O   UNL     1       3.872 -36.933  14.786  1.00  0.00    -0.550 OA
ENDBRANCH   2   3
ENDBRANCH   1   2
BRANCH   1   6
ATOM      6  C   UNL     1       3.490 -36.788  19.551  1.00  0.00     0.000 C 
BRANCH   6   7
ATOM      7  C   UNL     1       4.872 -36.102  19.532  1.00  0.00    -0.000 C 
BRANCH   7   8
ATOM      8  C   UNL     1       4.987 -34.919  20.508  1.00  0.00    -0.003 C 
ATOM      9  C   UNL     1       5.788 -35.255  21.763  1.00  0.00     0.004 C 
ENDBRANCH   7   8
ENDBRANCH   6   7
ENDBRANCH   1   6
TORSDOF 5
ENDMDL
MODEL 6
REMARK VINA RESULT:    -3.388      3.249      5.150
REMARK INTER + INTRA:          -4.480
REMARK INTER:                  -4.319
REMARK INTRA:                  -0.161
REMARK UNBOUND:                -0.102
REMARK SMILES CCCCCCC(=O)[O-]
REMARK SMILES IDX 5 1 6 2 7 3 8 4 9 5 4 6 3 7 2 8 1 9
REMARK H PARENT
REMARK Flexibility Score: inf
ROOT
ATOM      1  C   UNL     1       5.503 -34.647  21.744  1.00  0.00     0.006 C 
ENDROOT
BRANCH   1   2
ATOM      2  C   UNL     1       5.962 -35.788  22.656  1.00  0.00     0.053 C 
BRANCH   2   3
ATOM      3  C   UNL     1       5.849 -35.390  24.094  1.00  0.00     0.041 C 
ATOM      4  O   UNL     1       5.765 -34.174  24.410  1.00  0.00    -0.550 OA
ATOM      5  O   UNL     1       5.784 -36.365  25.082  1.00  0.00    -0.550 OA
ENDBRANCH   2   3
ENDBRANCH   1   2
BRANCH   1   6
ATOM      6  C   UNL     1       5.743 -34.991  20.267  1.00  0.00     0.000 C 
BRANCH   6   7
ATOM      7  C   UNL     1       5.320 -36.435  19.926  1.00  0.00    -0.000 C 
BRANCH   7   8
ATOM      8  C   UNL     1       3.824 -36.576  19.597  1.00  0.00    -0.003 C 
ATOM      9  C   UNL     1       3.547 -36.672  18.099  1.00  0.00     0.004 C 
ENDBRANCH   7   8
ENDBRANCH   6   7
ENDBRANCH   1   6
TORSDOF 5
ENDMDL
MODEL 7
REMARK VINA RESULT:    -3.335      1.116      1.711
REMARK INTER + INTRA:          -4.413
REMARK INTER:                  -4.290
REMARK INTRA:                  -0.122
REMARK UNBOUND:                -0.102
REMARK SMILES CCCCCCC(=O)[O-]
REMARK SMILES IDX 5 1 6 2 7 3 8 4 9 5 4 6 3 7 2 8 1 9
REMARK H PARENT
REMARK Flexibility Score: inf
ROOT
ATOM      1  C   UNL     1       4.784 -36.002  19.565  1.00  0.00     0.006 C 
ENDROOT
BRANCH   1   2
ATOM      2  C   UNL     1       3.597 -36.969  19.569  1.00  0.00     0.053 C 
BRANCH   2   3
ATOM      3  C   UNL     1       2.852 -36.892  18.274  1.00  0.00     0.041 C 
ATOM      4  O   UNL     1       1.608 -37.085  18.246  1.00  0.00    -0.550 OA
ATOM      5  O   UNL     1       3.524 -36.558  17.105  1.00  0.00    -0.550 OA
ENDBRANCH   2   3
ENDBRANCH   1   2
BRANCH   1   6
ATOM      6  C   UNL     1       4.707 -35.029  20.751  1.00  0.00     0.000 C 
BRANCH   6   7
ATOM      7  C   UNL     1       6.055 -34.900  21.491  1.00  0.00    -0.000 C 
BRANCH   7   8
ATOM      8  C   UNL     1       6.038 -35.498  22.908  1.00  0.00    -0.003 C 
ATOM      9  C   UNL     1       5.633 -34.488  23.979  1.00  0.00     0.004 C 
ENDBRANCH   7   8
ENDBRANCH   6   7
ENDBRANCH   1   6
TORSDOF 5
ENDMDL
MODEL 8
REMARK VINA RESULT:    -3.303      3.294      4.791
REMARK INTER + INTRA:          -4.371
REMARK INTER:                  -4.188
REMARK INTRA:                  -0.183
REMARK UNBOUND:                -0.102
REMARK SMILES CCCCCCC(=O)[O-]
REMARK SMILES IDX 5 1 6 2 7 3 8 4 9 5 4 6 3 7 2 8 1 9
REMARK H PARENT
REMARK Flexibility Score: inf
ROOT
ATOM      1  C   UNL     1       3.500 -36.647  17.275  1.00  0.00     0.006 C 
ENDROOT
BRANCH   1   2
ATOM      2  C   UNL     1       2.710 -36.121  16.074  1.00  0.00     0.053 C 
BRANCH   2   3
ATOM      3  C   UNL     1       3.490 -36.305  14.811  1.00  0.00     0.041 C 
ATOM      4  O   UNL     1       3.499 -35.401  13.934  1.00  0.00    -0.550 OA
ATOM      5  O   UNL     1       4.249 -37.454  14.624  1.00  0.00    -0.550 OA
ENDBRANCH   2   3
ENDBRANCH   1   2
BRANCH   1   6
ATOM      6  C   UNL     1       2.580 -36.875  18.484  1.00  0.00     0.000 C 
BRANCH   6   7
ATOM      7  C   UNL     1       3.340 -36.786  19.823  1.00  0.00    -0.000 C 
BRANCH   7   8
ATOM      8  C   UNL     1       4.846 -36.519  19.659  1.00  0.00    -0.003 C 
ATOM      9  C   UNL     1       5.299 -35.218  20.316  1.00  0.00     0.004 C 
ENDBRANCH   7   8
ENDBRANCH   6   7
ENDBRANCH   1   6
TORSDOF 5
ENDMDL
MODEL 9
REMARK VINA RESULT:    -3.253      2.654      5.727
REMARK INTER + INTRA:          -4.306
REMARK INTER:                  -4.140
REMARK INTRA:                  -0.166
REMARK UNBOUND:                -0.102
REMARK SMILES CCCCCCC(=O)[O-]
REMARK SMILES IDX 5 1 6 2 7 3 8 4 9 5 4 6 3 7 2 8 1 9
REMARK H PARENT
REMARK Flexibility Score: inf
ROOT
ATOM      1  C   UNL     1       4.676 -35.812  19.128  1.00  0.00     0.006 C 
ENDROOT
BRANCH   1   2
ATOM      2  C   UNL     1       5.400 -36.210  20.417  1.00  0.00     0.053 C 
BRANCH   2   3
ATOM      3  C   UNL     1       5.215 -35.162  21.468  1.00  0.00     0.041 C 
ATOM      4  O   UNL     1       4.212 -34.402  21.435  1.00  0.00    -0.550 OA
ATOM      5  O   UNL     1       6.125 -35.057  22.513  1.00  0.00    -0.550 OA
ENDBRANCH   2   3
ENDBRANCH   1   2
BRANCH   1   6
ATOM      6  C   UNL     1       3.442 -36.696  18.892  1.00  0.00     0.000 C 
BRANCH   6   7
ATOM      7  C   UNL     1       3.115 -36.857  17.393  1.00  0.00    -0.000 C 
BRANCH   7   8
ATOM      8  C   UNL     1       3.540 -35.651  16.537  1.00  0.00    -0.003 C 
ATOM      9  C   UNL     1       3.471 -35.927  15.038  1.00  0.00     0.004 C 
ENDBRANCH   7   8
ENDBRANCH   6   7
ENDBRANCH   1   6
TORSDOF 5
ENDMDL
