MODEL 1
REMARK VINA RESULT:    -3.514      0.000      0.000
REMARK INTER + INTRA:          -6.015
REMARK INTER:                  -5.363
REMARK INTRA:                  -0.652
REMARK UNBOUND:                -0.652
REMARK SMILES O=C([O-])CCCCCCCCC(=O)[O-]
REMARK SMILES IDX 7 1 6 2 5 3 4 4 2 5 1 6 3 7 8 8 9 9 10 10 11 11 12 12 13 13
REMARK SMILES IDX 14 14
REMARK H PARENT
REMARK Flexibility Score: inf
ROOT
ATOM      1  C   UNL     1      13.944  38.473   7.776  1.00  0.00     0.000 C 
ENDROOT
BRANCH   1   2
ATOM      2  C   UNL     1      14.426  38.825   9.193  1.00  0.00     0.000 C 
BRANCH   2   3
ATOM      3  C   UNL     1      14.062  37.746  10.227  1.00  0.00     0.006 C 
BRANCH   3   4
ATOM      4  C   UNL     1      15.194  37.506  11.235  1.00  0.00     0.053 C 
BRANCH   4   5
ATOM      5  C   UNL     1      14.777  37.850  12.632  1.00  0.00     0.041 C 
ATOM      6  O   UNL     1      13.705  38.479  12.837  1.00  0.00    -0.550 OA
ATOM      7  O   UNL     1      15.557  37.450  13.709  1.00  0.00    -0.550 OA
ENDBRANCH   4   5
ENDBRANCH   3   4
ENDBRANCH   2   3
ENDBRANCH   1   2
BRANCH   1   8
ATOM      8  C   UNL     1      14.993  38.785   6.698  1.00  0.00     0.000 C 
BRANCH   8   9
ATOM      9  C   UNL     1      16.322  39.213   7.332  1.00  0.00     0.000 C 
BRANCH   9  10
ATOM     10  C   UNL     1      16.640  40.681   7.005  1.00  0.00     0.006 C 
BRANCH  10  11
ATOM     11  C   UNL     1      16.988  41.492   8.260  1.00  0.00     0.053 C 
BRANCH  11  12
ATOM     12  C   UNL     1      15.993  42.583   8.512  1.00  0.00     0.041 C 
ATOM     13  O   UNL     1      14.761  42.361   8.374  1.00  0.00    -0.550 OA
ATOM     14  O   UNL     1      16.428  43.855   8.866  1.00  0.00    -0.550 OA
ENDBRANCH  11  12
ENDBRANCH  10  11
ENDBRANCH   9  10
ENDBRANCH   8   9
ENDBRANCH   1   8
TORSDOF 9
ENDMDL
MODEL 2
REMARK VINA RESULT:    -3.437      0.847      5.217
REMARK INTER + INTRA:          -5.898
REMARK INTER:                  -5.284
REMARK INTRA:                  -0.614
REMARK UNBOUND:                -0.652
REMARK SMILES O=C([O-])CCCCCCCCC(=O)[O-]
REMARK SMILES IDX 7 1 6 2 5 3 4 4 2 5 1 6 3 7 8 8 9 9 10 10 11 11 12 12 13 13
REMARK SMILES IDX 14 14
REMARK H PARENT
REMARK Flexibility Score: inf
ROOT
ATOM      1  C   UNL     1      14.822  38.924   6.753  1.00  0.00     0.000 C 
ENDROOT
BRANCH   1   2
ATOM      2  C   UNL     1      16.277  39.071   7.226  1.00  0.00     0.000 C 
BRANCH   2   3
ATOM      3  C   UNL     1      16.814  40.503   7.052  1.00  0.00     0.006 C 
BRANCH   3   4
ATOM      4  C   UNL     1      15.746  41.561   7.356  1.00  0.00     0.053 C 
BRANCH   4   5
ATOM      5  C   UNL     1      15.968  42.207   8.690  1.00  0.00     0.041 C 
ATOM      6  O   UNL     1      16.547  41.574   9.612  1.00  0.00    -0.550 OA
ATOM      7  O   UNL     1      15.561  43.517   8.904  1.00  0.00    -0.550 OA
ENDBRANCH   4   5
ENDBRANCH   3   4
ENDBRANCH   2   3
ENDBRANCH   1   2
BRANCH   1   8
ATOM      8  C   UNL     1      13.890  38.398   7.856  1.00  0.00     0.000 C 
BRANCH   8   9
ATOM      9  C   UNL     1      14.437  38.742   9.247  1.00  0.00     0.000 C 
BRANCH   9  10
ATOM     10  C   UNL     1      13.998  37.698  10.285  1.00  0.00     0.006 C 
BRANCH  10  11
ATOM     11  C   UNL     1      15.035  37.518  11.401  1.00  0.00     0.053 C 
BRANCH  11  12
ATOM     12  C   UNL     1      14.640  38.242  12.652  1.00  0.00     0.041 C 
ATOM     13  O   UNL     1      13.429  38.507  12.874  1.00  0.00    -0.550 OA
ATOM     14  O   UNL     1      15.612  38.655  13.555  1.00  0.00    -0.550 OA
ENDBRANCH  11  12
ENDBRANCH  10  11
ENDBRANCH   9  10
ENDBRANCH   8   9
ENDBRANCH   1   8
TORSDOF 9
ENDMDL
MODEL 3
REMARK VINA RESULT:    -3.378      1.366      1.977
REMARK INTER + INTRA:          -5.808
REMARK INTER:                  -5.287
REMARK INTRA:                  -0.520
REMARK UNBOUND:                -0.652
REMARK SMILES O=C([O-])CCCCCCCCC(=O)[O-]
REMARK SMILES IDX 7 1 6 2 5 3 4 4 2 5 1 6 3 7 8 8 9 9 10 10 11 11 12 12 13 13
REMARK SMILES IDX 14 14
REMARK H PARENT
REMARK Flexibility Score: inf
ROOT
ATOM      1  C   UNL     1      14.148  38.815   9.136  1.00  0.00     0.000 C 
ENDROOT
BRANCH   1   2
ATOM      2  C   UNL     1      14.109  37.724  10.218  1.00  0.00     0.000 C 
BRANCH   2   3
ATOM      3  C   UNL     1      14.901  38.112  11.479  1.00  0.00     0.006 C 
BRANCH   3   4
ATOM      4  C   UNL     1      16.331  37.557  11.457  1.00  0.00     0.053 C 
BRANCH   4   5
ATOM      5  C   UNL     1      16.432  36.255  12.190  1.00  0.00     0.041 C 
ATOM      6  O   UNL     1      16.378  36.230  13.448  1.00  0.00    -0.550 OA
ATOM      7  O   UNL     1      16.558  35.066  11.484  1.00  0.00    -0.550 OA
ENDBRANCH   4   5
ENDBRANCH   3   4
ENDBRANCH   2   3
ENDBRANCH   1   2
BRANCH   1   8
ATOM      8  C   UNL     1      13.786  38.281   7.742  1.00  0.00     0.000 C 
BRANCH   8   9
ATOM      9  C   UNL     1      14.785  38.774   6.688  1.00  0.00     0.000 C 
BRANCH   9  10
ATOM     10  C   UNL     1      16.098  39.229   7.343  1.00  0.00     0.006 C 
BRANCH  10  11
ATOM     11  C   UNL     1      16.430  40.692   7.024  1.00  0.00     0.053 C 
BRANCH  11  12
ATOM     12  C   UNL     1      15.998  41.614   8.122  1.00  0.00     0.041 C 
ATOM     13  O   UNL     1      14.971  42.329   7.983  1.00  0.00    -0.550 OA
ATOM     14  O   UNL     1      16.750  41.711   9.287  1.00  0.00    -0.550 OA
ENDBRANCH  11  12
ENDBRANCH  10  11
ENDBRANCH   9  10
ENDBRANCH   8   9
ENDBRANCH   1   8
TORSDOF 9
ENDMDL
MODEL 4
REMARK VINA RESULT:    -3.198     10.723     12.434
REMARK INTER + INTRA:          -5.532
REMARK INTER:                  -5.227
REMARK INTRA:                  -0.305
REMARK UNBOUND:                -0.652
REMARK SMILES O=C([O-])CCCCCCCCC(=O)[O-]
REMARK SMILES IDX 7 1 6 2 5 3 4 4 2 5 1 6 3 7 8 8 9 9 10 10 11 11 12 12 13 13
REMARK SMILES IDX 14 14
REMARK H PARENT
REMARK Flexibility Score: inf
ROOT
ATOM      1  C   UNL     1      14.900  44.833   0.590  1.00  0.00     0.000 C 
ENDROOT
BRANCH   1   2
ATOM      2  C   UNL     1      14.218  43.585   1.173  1.00  0.00     0.000 C 
BRANCH   2   3
ATOM      3  C   UNL     1      12.707  43.546   0.883  1.00  0.00     0.006 C 
BRANCH   3   4
ATOM      4  C   UNL     1      12.409  43.480  -0.620  1.00  0.00     0.053 C 
BRANCH   4   5
ATOM      5  C   UNL     1      11.738  44.727  -1.108  1.00  0.00     0.041 C 
ATOM      6  O   UNL     1      12.154  45.857  -0.740  1.00  0.00    -0.550 OA
ATOM      7  O   UNL     1      10.671  44.642  -1.993  1.00  0.00    -0.550 OA
ENDBRANCH   4   5
ENDBRANCH   3   4
ENDBRANCH   2   3
ENDBRANCH   1   2
BRANCH   1   8
ATOM      8  C   UNL     1      16.431  44.775   0.692  1.00  0.00     0.000 C 
BRANCH   8   9
ATOM      9  C   UNL     1      17.088  45.530  -0.470  1.00  0.00     0.000 C 
BRANCH   9  10
ATOM     10  C   UNL     1      16.753  47.029  -0.413  1.00  0.00     0.006 C 
BRANCH  10  11
ATOM     11  C   UNL     1      16.853  47.699  -1.789  1.00  0.00     0.053 C 
BRANCH  11  12
ATOM     12  C   UNL     1      15.513  47.822  -2.448  1.00  0.00     0.041 C 
ATOM     13  O   UNL     1      14.460  47.743  -1.762  1.00  0.00    -0.550 OA
ATOM     14  O   UNL     1      15.426  47.990  -3.825  1.00  0.00    -0.550 OA
ENDBRANCH  11  12
ENDBRANCH  10  11
ENDBRANCH   9  10
ENDBRANCH   8   9
ENDBRANCH   1   8
TORSDOF 9
ENDMDL
MODEL 5
REMARK VINA RESULT:    -3.173      1.515      5.809
REMARK INTER + INTRA:          -5.494
REMARK INTER:                  -4.922
REMARK INTRA:                  -0.572
REMARK UNBOUND:                -0.652
REMARK SMILES O=C([O-])CCCCCCCCC(=O)[O-]
REMARK SMILES IDX 7 1 6 2 5 3 4 4 2 5 1 6 3 7 8 8 9 9 10 10 11 11 12 12 13 13
REMARK SMILES IDX 14 14
REMARK H PARENT
REMARK Flexibility Score: inf
ROOT
ATOM      1  C   UNL     1      13.883  38.371   7.744  1.00  0.00     0.000 C 
ENDROOT
BRANCH   1   2
ATOM      2  C   UNL     1      14.864  38.985   6.733  1.00  0.00     0.000 C 
BRANCH   2   3
ATOM      3  C   UNL     1      16.208  39.375   7.373  1.00  0.00     0.006 C 
BRANCH   3   4
ATOM      4  C   UNL     1      16.533  40.861   7.175  1.00  0.00     0.053 C 
BRANCH   4   5
ATOM      5  C   UNL     1      16.038  41.695   8.316  1.00  0.00     0.041 C 
ATOM      6  O   UNL     1      16.685  41.738   9.396  1.00  0.00    -0.550 OA
ATOM      7  O   UNL     1      14.880  42.448   8.177  1.00  0.00    -0.550 OA
ENDBRANCH   4   5
ENDBRANCH   3   4
ENDBRANCH   2   3
ENDBRANCH   1   2
BRANCH   1   8
ATOM      8  C   UNL     1      14.096  38.896   9.172  1.00  0.00     0.000 C 
BRANCH   8   9
ATOM      9  C   UNL     1      14.243  37.739  10.167  1.00  0.00     0.000 C 
BRANCH   9  10
ATOM     10  C   UNL     1      15.628  37.757  10.832  1.00  0.00     0.006 C 
BRANCH  10  11
ATOM     11  C   UNL     1      15.581  37.262  12.284  1.00  0.00     0.053 C 
BRANCH  11  12
ATOM     12  C   UNL     1      16.416  36.035  12.482  1.00  0.00     0.041 C 
ATOM     13  O   UNL     1      17.123  35.910  13.517  1.00  0.00    -0.550 OA
ATOM     14  O   UNL     1      16.443  35.045  11.507  1.00  0.00    -0.550 OA
ENDBRANCH  11  12
ENDBRANCH  10  11
ENDBRANCH   9  10
ENDBRANCH   8   9
ENDBRANCH   1   8
TORSDOF 9
ENDMDL
MODEL 6
REMARK VINA RESULT:    -3.152      1.383      2.441
REMARK INTER + INTRA:          -5.462
REMARK INTER:                  -5.095
REMARK INTRA:                  -0.367
REMARK UNBOUND:                -0.652
REMARK SMILES O=C([O-])CCCCCCCCC(=O)[O-]
REMARK SMILES IDX 7 1 6 2 5 3 4 4 2 5 1 6 3 7 8 8 9 9 10 10 11 11 12 12 13 13
REMARK SMILES IDX 14 14
REMARK H PARENT
REMARK Flexibility Score: inf
ROOT
ATOM      1  C   UNL     1      14.122  37.760  10.390  1.00  0.00     0.000 C 
ENDROOT
BRANCH   1   2
ATOM      2  C   UNL     1      15.277  37.149  11.199  1.00  0.00     0.000 C 
BRANCH   2   3
ATOM      3  C   UNL     1      15.762  38.072  12.331  1.00  0.00     0.006 C 
BRANCH   3   4
ATOM      4  C   UNL     1      14.959  37.873  13.622  1.00  0.00     0.053 C 
BRANCH   4   5
ATOM      5  C   UNL     1      13.977  38.983  13.843  1.00  0.00     0.041 C 
ATOM      6  O   UNL     1      14.383  40.141  14.125  1.00  0.00    -0.550 OA
ATOM      7  O   UNL     1      12.616  38.745  13.709  1.00  0.00    -0.550 OA
ENDBRANCH   4   5
ENDBRANCH   3   4
ENDBRANCH   2   3
ENDBRANCH   1   2
BRANCH   1   8
ATOM      8  C   UNL     1      14.594  38.841   9.406  1.00  0.00     0.000 C 
BRANCH   8   9
ATOM      9  C   UNL     1      14.013  38.602   8.008  1.00  0.00     0.000 C 
BRANCH   9  10
ATOM     10  C   UNL     1      15.077  38.827   6.922  1.00  0.00     0.006 C 
BRANCH  10  11
ATOM     11  C   UNL     1      16.307  39.570   7.460  1.00  0.00     0.053 C 
BRANCH  11  12
ATOM     12  C   UNL     1      16.134  41.056   7.395  1.00  0.00     0.041 C 
ATOM     13  O   UNL     1      15.274  41.560   6.626  1.00  0.00    -0.550 OA
ATOM     14  O   UNL     1      16.946  41.887   8.157  1.00  0.00    -0.550 OA
ENDBRANCH  11  12
ENDBRANCH  10  11
ENDBRANCH   9  10
ENDBRANCH   8   9
ENDBRANCH   1   8
TORSDOF 9
ENDMDL
MODEL 7
REMARK VINA RESULT:    -3.114     10.783     13.169
REMARK INTER + INTRA:          -5.405
REMARK INTER:                  -5.086
REMARK INTRA:                  -0.319
REMARK UNBOUND:                -0.652
REMARK SMILES O=C([O-])CCCCCCCCC(=O)[O-]
REMARK SMILES IDX 7 1 6 2 5 3 4 4 2 5 1 6 3 7 8 8 9 9 10 10 11 11 12 12 13 13
REMARK SMILES IDX 14 14
REMARK H PARENT
REMARK Flexibility Score: inf
ROOT
ATOM      1  C   UNL     1      16.363  44.750   0.549  1.00  0.00     0.000 C 
ENDROOT
BRANCH   1   2
ATOM      2  C   UNL     1      17.047  45.618  -0.518  1.00  0.00     0.000 C 
BRANCH   2   3
ATOM      3  C   UNL     1      16.883  47.125  -0.251  1.00  0.00     0.006 C 
BRANCH   3   4
ATOM      4  C   UNL     1      16.993  47.955  -1.536  1.00  0.00     0.053 C 
BRANCH   4   5
ATOM      5  C   UNL     1      15.762  47.838  -2.381  1.00  0.00     0.041 C 
ATOM      6  O   UNL     1      15.857  47.785  -3.636  1.00  0.00    -0.550 OA
ATOM      7  O   UNL     1      14.512  47.759  -1.782  1.00  0.00    -0.550 OA
ENDBRANCH   4   5
ENDBRANCH   3   4
ENDBRANCH   2   3
ENDBRANCH   1   2
BRANCH   1   8
ATOM      8  C   UNL     1      14.832  44.867   0.518  1.00  0.00     0.000 C 
BRANCH   8   9
ATOM      9  C   UNL     1      14.174  43.632   1.145  1.00  0.00     0.000 C 
BRANCH   9  10
ATOM     10  C   UNL     1      12.671  43.588   0.829  1.00  0.00     0.006 C 
BRANCH  10  11
ATOM     11  C   UNL     1      12.395  43.545  -0.680  1.00  0.00     0.053 C 
BRANCH  11  12
ATOM     12  C   UNL     1      11.677  44.772  -1.150  1.00  0.00     0.041 C 
ATOM     13  O   UNL     1      10.703  44.672  -1.942  1.00  0.00    -0.550 OA
ATOM     14  O   UNL     1      12.105  46.030  -0.743  1.00  0.00    -0.550 OA
ENDBRANCH  11  12
ENDBRANCH  10  11
ENDBRANCH   9  10
ENDBRANCH   8   9
ENDBRANCH   1   8
TORSDOF 9
ENDMDL
MODEL 8
REMARK VINA RESULT:    -3.105      2.018      4.942
REMARK INTER + INTRA:          -5.391
REMARK INTER:                  -4.726
REMARK INTRA:                  -0.665
REMARK UNBOUND:                -0.652
REMARK SMILES O=C([O-])CCCCCCCCC(=O)[O-]
REMARK SMILES IDX 7 1 6 2 5 3 4 4 2 5 1 6 3 7 8 8 9 9 10 10 11 11 12 12 13 13
REMARK SMILES IDX 14 14
REMARK H PARENT
REMARK Flexibility Score: inf
ROOT
ATOM      1  C   UNL     1      14.297  38.802   9.281  1.00  0.00     0.000 C 
ENDROOT
BRANCH   1   2
ATOM      2  C   UNL     1      13.928  38.428   7.836  1.00  0.00     0.000 C 
BRANCH   2   3
ATOM      3  C   UNL     1      14.918  39.000   6.806  1.00  0.00     0.006 C 
BRANCH   3   4
ATOM      4  C   UNL     1      16.144  39.637   7.474  1.00  0.00     0.053 C 
BRANCH   4   5
ATOM      5  C   UNL     1      16.193  41.117   7.249  1.00  0.00     0.041 C 
ATOM      6  O   UNL     1      17.125  41.624   6.571  1.00  0.00    -0.550 OA
ATOM      7  O   UNL     1      15.194  41.933   7.765  1.00  0.00    -0.550 OA
ENDBRANCH   4   5
ENDBRANCH   3   4
ENDBRANCH   2   3
ENDBRANCH   1   2
BRANCH   1   8
ATOM      8  C   UNL     1      14.034  37.660  10.274  1.00  0.00     0.000 C 
BRANCH   8   9
ATOM      9  C   UNL     1      15.243  37.440  11.191  1.00  0.00     0.000 C 
BRANCH   9  10
ATOM     10  C   UNL     1      15.232  38.430  12.366  1.00  0.00     0.006 C 
BRANCH  10  11
ATOM     11  C   UNL     1      16.594  39.108  12.567  1.00  0.00     0.053 C 
BRANCH  11  12
ATOM     12  C   UNL     1      16.607  40.504  12.024  1.00  0.00     0.041 C 
ATOM     13  O   UNL     1      16.848  40.707  10.804  1.00  0.00    -0.550 OA
ATOM     14  O   UNL     1      16.389  41.584  12.871  1.00  0.00    -0.550 OA
ENDBRANCH  11  12
ENDBRANCH  10  11
ENDBRANCH   9  10
ENDBRANCH   8   9
ENDBRANCH   1   8
TORSDOF 9
ENDMDL
MODEL 9
REMARK VINA RESULT:    -2.845      2.679      3.604
REMARK INTER + INTRA:          -4.994
REMARK INTER:                  -4.344
REMARK INTRA:                  -0.650
REMARK UNBOUND:                -0.652
REMARK SMILES O=C([O-])CCCCCCCCC(=O)[O-]
REMARK SMILES IDX 7 1 6 2 5 3 4 4 2 5 1 6 3 7 8 8 9 9 10 10 11 11 12 12 13 13
REMARK SMILES IDX 14 14
REMARK H PARENT
REMARK Flexibility Score: inf
ROOT
ATOM      1  C   UNL     1      16.450  38.769  10.406  1.00  0.00     0.000 C 
ENDROOT
BRANCH   1   2
ATOM      2  C   UNL     1      15.106  38.302  10.986  1.00  0.00     0.000 C 
BRANCH   2   3
ATOM      3  C   UNL     1      15.230  37.797  12.435  1.00  0.00     0.006 C 
BRANCH   3   4
ATOM      4  C   UNL     1      16.624  37.228  12.731  1.00  0.00     0.053 C 
BRANCH   4   5
ATOM      5  C   UNL     1      16.641  35.732  12.658  1.00  0.00     0.041 C 
ATOM      6  O   UNL     1      16.741  35.047  13.710  1.00  0.00    -0.550 OA
ATOM      7  O   UNL     1      16.517  35.094  11.430  1.00  0.00    -0.550 OA
ENDBRANCH   4   5
ENDBRANCH   3   4
ENDBRANCH   2   3
ENDBRANCH   1   2
BRANCH   1   8
ATOM      8  C   UNL     1      16.750  40.243  10.715  1.00  0.00     0.000 C 
BRANCH   8   9
ATOM      9  C   UNL     1      16.373  41.141   9.531  1.00  0.00     0.000 C 
BRANCH   9  10
ATOM     10  C   UNL     1      16.643  40.432   8.194  1.00  0.00     0.006 C 
BRANCH  10  11
ATOM     11  C   UNL     1      15.397  40.382   7.301  1.00  0.00     0.053 C 
BRANCH  11  12
ATOM     12  C   UNL     1      15.006  38.975   6.968  1.00  0.00     0.041 C 
ATOM     13  O   UNL     1      15.703  38.296   6.168  1.00  0.00    -0.550 OA
ATOM     14  O   UNL     1      13.852  38.425   7.513  1.00  0.00    -0.550 OA
ENDBRANCH  11  12
ENDBRANCH  10  11
ENDBRANCH   9  10
ENDBRANCH   8   9
ENDBRANCH   1   8
TORSDOF 9
ENDMDL
