MODEL 1
REMARK VINA RESULT:    -6.882      0.000      0.000
REMARK INTER + INTRA:         -11.523
REMARK INTER:                 -10.101
REMARK INTRA:                  -1.423
REMARK UNBOUND:                -1.423
REMARK SMILES Cc1cc2c(C(C)C)c(O)c(O)c(C=O)c2c(O)c1-c1c(C)cc2c(C(C)C)c(O)c(O)c(C=O)c2c1O
REMARK SMILES IDX 1 1 2 2 3 3 4 4 16 5 13 6 11 7 9 8 5 9 17 10 19 11 20 12
REMARK SMILES IDX 37 13 21 14 36 15 23 16 22 17 24 18 33 19 25 20 31 21 29 22
REMARK SMILES IDX 38 23 34 25 35 26 26 27 27 28 28 29 32 30 30 32 18 34 6 36
REMARK SMILES IDX 7 37 8 38 14 39 15 40 10 41 12 43
REMARK H PARENT 38 24 32 31 30 33 18 35 10 42 12 44
REMARK Flexibility Score: inf
ROOT
ATOM      1  C   UNL     1     -24.061   0.995   1.649  1.00  0.00     0.045 C 
ATOM      2  C   UNL     1     -24.146   1.785   2.933  1.00  0.00    -0.039 A 
ATOM      3  C   UNL     1     -23.228   1.534   3.953  1.00  0.00     0.013 A 
ATOM      4  C   UNL     1     -23.250   2.245   5.173  1.00  0.00    -0.006 A 
ATOM      5  C   UNL     1     -24.312   3.173   5.408  1.00  0.00     0.039 A 
ATOM      6  C   UNL     1     -24.416   3.787   6.693  1.00  0.00     0.072 A 
ATOM      7  C   UNL     1     -23.519   3.426   7.720  1.00  0.00     0.169 A 
ATOM      8  C   UNL     1     -22.479   2.524   7.472  1.00  0.00     0.162 A 
ATOM      9  C   UNL     1     -22.258   2.015   6.175  1.00  0.00     0.008 A 
ATOM     10  C   UNL     1     -25.255   3.421   4.364  1.00  0.00     0.132 A 
ATOM     11  C   UNL     1     -25.158   2.737   3.133  1.00  0.00     0.031 A 
ENDROOT
BRANCH  11  12
ATOM     12  C   UNL     1     -26.149   2.993   2.054  1.00  0.00     0.031 A 
ATOM     13  C   UNL     1     -27.332   2.226   1.982  1.00  0.00     0.132 A 
ATOM     14  C   UNL     1     -25.909   4.002   1.106  1.00  0.00    -0.039 A 
ATOM     15  C   UNL     1     -28.308   2.498   0.978  1.00  0.00     0.039 A 
ATOM     16  C   UNL     1     -26.798   4.170   0.044  1.00  0.00     0.013 A 
ATOM     17  C   UNL     1     -24.666   4.855   1.172  1.00  0.00     0.045 C 
ATOM     18  C   UNL     1     -27.968   3.388  -0.081  1.00  0.00    -0.006 A 
ATOM     19  C   UNL     1     -29.595   1.890   0.981  1.00  0.00     0.072 A 
ATOM     20  C   UNL     1     -28.817   3.500  -1.223  1.00  0.00     0.008 A 
ATOM     21  C   UNL     1     -30.487   2.117  -0.083  1.00  0.00     0.169 A 
ATOM     22  C   UNL     1     -30.114   2.943  -1.162  1.00  0.00     0.162 A 
BRANCH  13  23
ATOM     23  O   UNL     1     -27.520   1.167   2.878  1.00  0.00    -0.507 OA
ATOM     24  H   UNL     1     -28.381   1.003   3.384  1.00  0.00     0.293 HD
ENDBRANCH  13  23
BRANCH  19  25
ATOM     25  C   UNL     1     -30.096   1.123   2.148  1.00  0.00     0.264 C 
ATOM     26  O   UNL     1     -30.229  -0.130   2.094  1.00  0.00    -0.298 OA
ENDBRANCH  19  25
BRANCH  20  27
ATOM     27  C   UNL     1     -28.352   4.224  -2.499  1.00  0.00     0.017 C 
ATOM     28  C   UNL     1     -29.071   5.567  -2.665  1.00  0.00     0.012 C 
ATOM     29  C   UNL     1     -28.468   3.365  -3.774  1.00  0.00     0.012 C 
ENDBRANCH  20  27
BRANCH  21  30
ATOM     30  O   UNL     1     -31.747   1.507  -0.037  1.00  0.00    -0.504 OA
ATOM     31  H   UNL     1     -32.623   1.986  -0.187  1.00  0.00     0.293 HD
ENDBRANCH  21  30
BRANCH  22  32
ATOM     32  O   UNL     1     -31.029   3.261  -2.170  1.00  0.00    -0.504 OA
ATOM     33  H   UNL     1     -31.116   4.168  -2.605  1.00  0.00     0.293 HD
ENDBRANCH  22  32
ENDBRANCH  11  12
BRANCH  10  34
ATOM     34  O   UNL     1     -26.294   4.340   4.550  1.00  0.00    -0.507 OA
ATOM     35  H   UNL     1     -26.900   4.670   3.809  1.00  0.00     0.293 HD
ENDBRANCH  10  34
BRANCH   9  36
ATOM     36  C   UNL     1     -20.975   1.217   5.879  1.00  0.00     0.017 C 
ATOM     37  C   UNL     1     -20.999  -0.141   6.589  1.00  0.00     0.012 C 
ATOM     38  C   UNL     1     -19.677   1.987   6.190  1.00  0.00     0.012 C 
ENDBRANCH   9  36
BRANCH   6  39
ATOM     39  C   UNL     1     -25.455   4.789   7.001  1.00  0.00     0.264 C 
ATOM     40  O   UNL     1     -25.177   6.017   7.011  1.00  0.00    -0.298 OA
ENDBRANCH   6  39
BRANCH   8  41
ATOM     41  O   UNL     1     -21.653   2.128   8.526  1.00  0.00    -0.504 OA
ATOM     42  H   UNL     1     -20.689   1.843   8.397  1.00  0.00     0.293 HD
ENDBRANCH   8  41
BRANCH   7  43
ATOM     43  O   UNL     1     -23.616   3.974   9.005  1.00  0.00    -0.504 OA
ATOM     44  H   UNL     1     -23.769   4.957   9.193  1.00  0.00     0.293 HD
ENDBRANCH   7  43
TORSDOF 11
ENDMDL
MODEL 2
REMARK VINA RESULT:    -6.801      0.378      9.087
REMARK INTER + INTRA:         -11.405
REMARK INTER:                  -9.929
REMARK INTRA:                  -1.476
REMARK UNBOUND:                -1.423
REMARK SMILES Cc1cc2c(C(C)C)c(O)c(O)c(C=O)c2c(O)c1-c1c(C)cc2c(C(C)C)c(O)c(O)c(C=O)c2c1O
REMARK SMILES IDX 1 1 2 2 3 3 4 4 16 5 13 6 11 7 9 8 5 9 17 10 19 11 20 12
REMARK SMILES IDX 37 13 21 14 36 15 23 16 22 17 24 18 33 19 25 20 31 21 29 22
REMARK SMILES IDX 38 23 34 25 35 26 26 27 27 28 28 29 32 30 30 32 18 34 6 36
REMARK SMILES IDX 7 37 8 38 14 39 15 40 10 41 12 43
REMARK H PARENT 38 24 32 31 30 33 18 35 10 42 12 44
REMARK Flexibility Score: inf
ROOT
ATOM      1  C   UNL     1     -24.606   4.725   1.199  1.00  0.00     0.045 C 
ATOM      2  C   UNL     1     -25.857   3.882   1.120  1.00  0.00    -0.039 A 
ATOM      3  C   UNL     1     -26.772   4.111   0.092  1.00  0.00     0.013 A 
ATOM      4  C   UNL     1     -27.954   3.349  -0.040  1.00  0.00    -0.006 A 
ATOM      5  C   UNL     1     -28.271   2.390   0.971  1.00  0.00     0.039 A 
ATOM      6  C   UNL     1     -29.532   1.721   0.913  1.00  0.00     0.072 A 
ATOM      7  C   UNL     1     -30.462   2.060  -0.092  1.00  0.00     0.169 A 
ATOM      8  C   UNL     1     -30.134   2.993  -1.080  1.00  0.00     0.162 A 
ATOM      9  C   UNL     1     -28.843   3.559  -1.139  1.00  0.00     0.008 A 
ATOM     10  C   UNL     1     -27.335   2.165   2.026  1.00  0.00     0.132 A 
ATOM     11  C   UNL     1     -26.132   2.901   2.085  1.00  0.00     0.031 A 
ENDROOT
BRANCH  11  12
ATOM     12  C   UNL     1     -25.166   2.669   3.192  1.00  0.00     0.031 A 
ATOM     13  C   UNL     1     -25.297   3.375   4.407  1.00  0.00     0.132 A 
ATOM     14  C   UNL     1     -24.122   1.742   3.029  1.00  0.00    -0.039 A 
ATOM     15  C   UNL     1     -24.402   3.122   5.489  1.00  0.00     0.039 A 
ATOM     16  C   UNL     1     -23.166   1.601   4.037  1.00  0.00     0.013 A 
ATOM     17  C   UNL     1     -23.970   0.954   1.751  1.00  0.00     0.045 C 
ATOM     18  C   UNL     1     -23.245   2.327   5.245  1.00  0.00    -0.006 A 
ATOM     19  C   UNL     1     -24.609   3.659   6.791  1.00  0.00     0.072 A 
ATOM     20  C   UNL     1     -22.211   2.250   6.225  1.00  0.00     0.008 A 
ATOM     21  C   UNL     1     -23.647   3.460   7.798  1.00  0.00     0.169 A 
ATOM     22  C   UNL     1     -22.471   2.732   7.528  1.00  0.00     0.162 A 
BRANCH  13  23
ATOM     23  O   UNL     1     -26.287   4.357   4.527  1.00  0.00    -0.507 OA
ATOM     24  H   UNL     1     -26.302   5.055   5.260  1.00  0.00     0.293 HD
ENDBRANCH  13  23
BRANCH  19  25
ATOM     25  C   UNL     1     -25.883   4.316   7.175  1.00  0.00     0.264 C 
ATOM     26  O   UNL     1     -25.955   5.567   7.304  1.00  0.00    -0.298 OA
ENDBRANCH  19  25
BRANCH  20  27
ATOM     27  C   UNL     1     -20.835   1.643   5.894  1.00  0.00     0.017 C 
ATOM     28  C   UNL     1     -20.645   0.293   6.594  1.00  0.00     0.012 C 
ATOM     29  C   UNL     1     -19.656   2.593   6.177  1.00  0.00     0.012 C 
ENDBRANCH  20  27
BRANCH  21  30
ATOM     30  O   UNL     1     -23.892   3.997   9.068  1.00  0.00    -0.504 OA
ATOM     31  H   UNL     1     -23.551   3.606   9.934  1.00  0.00     0.293 HD
ENDBRANCH  21  30
BRANCH  22  32
ATOM     32  O   UNL     1     -21.562   2.436   8.548  1.00  0.00    -0.504 OA
ATOM     33  H   UNL     1     -21.544   2.881   9.454  1.00  0.00     0.293 HD
ENDBRANCH  22  32
ENDBRANCH  11  12
BRANCH  10  34
ATOM     34  O   UNL     1     -27.601   1.217   3.021  1.00  0.00    -0.507 OA
ATOM     35  H   UNL     1     -28.515   1.058   3.423  1.00  0.00     0.293 HD
ENDBRANCH  10  34
BRANCH   9  36
ATOM     36  C   UNL     1     -28.434   4.395  -2.366  1.00  0.00     0.017 C 
ATOM     37  C   UNL     1     -29.193   5.726  -2.398  1.00  0.00     0.012 C 
ATOM     38  C   UNL     1     -28.567   3.644  -3.705  1.00  0.00     0.012 C 
ENDBRANCH   9  36
BRANCH   6  39
ATOM     39  C   UNL     1     -29.915   0.686   1.893  1.00  0.00     0.264 C 
ATOM     40  O   UNL     1     -30.692   0.963   2.844  1.00  0.00    -0.298 OA
ENDBRANCH   6  39
BRANCH   8  41
ATOM     41  O   UNL     1     -31.100   3.362  -2.019  1.00  0.00    -0.504 OA
ATOM     42  H   UNL     1     -31.343   4.326  -2.214  1.00  0.00     0.293 HD
ENDBRANCH   8  41
BRANCH   7  43
ATOM     43  O   UNL     1     -31.724   1.456  -0.156  1.00  0.00    -0.504 OA
ATOM     44  H   UNL     1     -31.922   0.517   0.163  1.00  0.00     0.293 HD
ENDBRANCH   7  43
TORSDOF 11
ENDMDL
MODEL 3
REMARK VINA RESULT:    -6.631      7.183     10.153
REMARK INTER + INTRA:         -11.155
REMARK INTER:                  -9.987
REMARK INTRA:                  -1.168
REMARK UNBOUND:                -1.423
REMARK SMILES Cc1cc2c(C(C)C)c(O)c(O)c(C=O)c2c(O)c1-c1c(C)cc2c(C(C)C)c(O)c(O)c(C=O)c2c1O
REMARK SMILES IDX 1 1 2 2 3 3 4 4 16 5 13 6 11 7 9 8 5 9 17 10 19 11 20 12
REMARK SMILES IDX 37 13 21 14 36 15 23 16 22 17 24 18 33 19 25 20 31 21 29 22
REMARK SMILES IDX 38 23 34 25 35 26 26 27 27 28 28 29 32 30 30 32 18 34 6 36
REMARK SMILES IDX 7 37 8 38 14 39 15 40 10 41 12 43
REMARK H PARENT 38 24 32 31 30 33 18 35 10 42 12 44
REMARK Flexibility Score: inf
ROOT
ATOM      1  C   UNL     1     -31.232   6.884  -0.738  1.00  0.00     0.045 C 
ATOM      2  C   UNL     1     -30.279   6.588  -1.871  1.00  0.00    -0.039 A 
ATOM      3  C   UNL     1     -29.525   7.625  -2.421  1.00  0.00     0.013 A 
ATOM      4  C   UNL     1     -28.611   7.409  -3.475  1.00  0.00    -0.006 A 
ATOM      5  C   UNL     1     -28.537   6.110  -4.066  1.00  0.00     0.039 A 
ATOM      6  C   UNL     1     -27.717   5.926  -5.221  1.00  0.00     0.072 A 
ATOM      7  C   UNL     1     -27.052   7.029  -5.794  1.00  0.00     0.169 A 
ATOM      8  C   UNL     1     -27.126   8.292  -5.200  1.00  0.00     0.162 A 
ATOM      9  C   UNL     1     -27.803   8.476  -3.976  1.00  0.00     0.008 A 
ATOM     10  C   UNL     1     -29.316   5.052  -3.505  1.00  0.00     0.132 A 
ATOM     11  C   UNL     1     -30.169   5.295  -2.407  1.00  0.00     0.031 A 
ENDROOT
BRANCH  11  12
ATOM     12  C   UNL     1     -30.986   4.191  -1.834  1.00  0.00     0.031 A 
ATOM     13  C   UNL     1     -32.291   3.954  -2.315  1.00  0.00     0.132 A 
ATOM     14  C   UNL     1     -30.456   3.382  -0.815  1.00  0.00    -0.039 A 
ATOM     15  C   UNL     1     -33.061   2.867  -1.803  1.00  0.00     0.039 A 
ATOM     16  C   UNL     1     -31.263   2.412  -0.220  1.00  0.00     0.013 A 
ATOM     17  C   UNL     1     -29.054   3.596  -0.299  1.00  0.00     0.045 C 
ATOM     18  C   UNL     1     -32.588   2.180  -0.648  1.00  0.00    -0.006 A 
ATOM     19  C   UNL     1     -34.297   2.467  -2.386  1.00  0.00     0.072 A 
ATOM     20  C   UNL     1     -33.436   1.256   0.033  1.00  0.00     0.008 A 
ATOM     21  C   UNL     1     -35.066   1.453  -1.786  1.00  0.00     0.169 A 
ATOM     22  C   UNL     1     -34.624   0.827  -0.603  1.00  0.00     0.162 A 
BRANCH  13  23
ATOM     23  O   UNL     1     -32.841   4.819  -3.267  1.00  0.00    -0.507 OA
ATOM     24  H   UNL     1     -32.824   4.644  -4.264  1.00  0.00     0.293 HD
ENDBRANCH  13  23
BRANCH  19  25
ATOM     25  C   UNL     1     -34.750   2.990  -3.698  1.00  0.00     0.264 C 
ATOM     26  O   UNL     1     -35.710   3.802  -3.778  1.00  0.00    -0.298 OA
ENDBRANCH  19  25
BRANCH  20  27
ATOM     27  C   UNL     1     -33.075   0.712   1.427  1.00  0.00     0.017 C 
ATOM     28  C   UNL     1     -32.657  -0.760   1.353  1.00  0.00     0.012 C 
ATOM     29  C   UNL     1     -34.178   0.931   2.480  1.00  0.00     0.012 C 
ENDBRANCH  20  27
BRANCH  21  30
ATOM     30  O   UNL     1     -36.271   1.082  -2.396  1.00  0.00    -0.504 OA
ATOM     31  H   UNL     1     -36.811   1.674  -3.010  1.00  0.00     0.293 HD
ENDBRANCH  21  30
BRANCH  22  32
ATOM     32  O   UNL     1     -35.324  -0.254  -0.060  1.00  0.00    -0.504 OA
ATOM     33  H   UNL     1     -35.519  -0.380   0.922  1.00  0.00     0.293 HD
ENDBRANCH  22  32
ENDBRANCH  11  12
BRANCH  10  34
ATOM     34  O   UNL     1     -29.252   3.761  -4.042  1.00  0.00    -0.507 OA
ATOM     35  H   UNL     1     -28.676   3.503  -4.833  1.00  0.00     0.293 HD
ENDBRANCH  10  34
BRANCH   9  36
ATOM     36  C   UNL     1     -27.669   9.815  -3.227  1.00  0.00     0.017 C 
ATOM     37  C   UNL     1     -27.702   9.599  -1.710  1.00  0.00     0.012 C 
ATOM     38  C   UNL     1     -28.697  10.877  -3.662  1.00  0.00     0.012 C 
ENDBRANCH   9  36
BRANCH   6  39
ATOM     39  C   UNL     1     -27.553   4.606  -5.862  1.00  0.00     0.264 C 
ATOM     40  O   UNL     1     -28.161   4.334  -6.930  1.00  0.00    -0.298 OA
ENDBRANCH   6  39
BRANCH   8  41
ATOM     41  O   UNL     1     -26.518   9.380  -5.831  1.00  0.00    -0.504 OA
ATOM     42  H   UNL     1     -25.516   9.526  -5.839  1.00  0.00     0.293 HD
ENDBRANCH   8  41
BRANCH   7  43
ATOM     43  O   UNL     1     -26.274   6.895  -6.952  1.00  0.00    -0.504 OA
ATOM     44  H   UNL     1     -25.684   6.098  -7.151  1.00  0.00     0.293 HD
ENDBRANCH   7  43
TORSDOF 11
ENDMDL
MODEL 4
REMARK VINA RESULT:    -6.585      5.573      8.934
REMARK INTER + INTRA:         -11.088
REMARK INTER:                 -10.034
REMARK INTRA:                  -1.054
REMARK UNBOUND:                -1.423
REMARK SMILES Cc1cc2c(C(C)C)c(O)c(O)c(C=O)c2c(O)c1-c1c(C)cc2c(C(C)C)c(O)c(O)c(C=O)c2c1O
REMARK SMILES IDX 1 1 2 2 3 3 4 4 16 5 13 6 11 7 9 8 5 9 17 10 19 11 20 12
REMARK SMILES IDX 37 13 21 14 36 15 23 16 22 17 24 18 33 19 25 20 31 21 29 22
REMARK SMILES IDX 38 23 34 25 35 26 26 27 27 28 28 29 32 30 30 32 18 34 6 36
REMARK SMILES IDX 7 37 8 38 14 39 15 40 10 41 12 43
REMARK H PARENT 38 24 32 31 30 33 18 35 10 42 12 44
REMARK Flexibility Score: inf
ROOT
ATOM      1  C   UNL     1     -33.162   3.825  -2.532  1.00  0.00     0.045 C 
ATOM      2  C   UNL     1     -32.497   3.057  -1.415  1.00  0.00    -0.039 A 
ATOM      3  C   UNL     1     -33.181   2.006  -0.805  1.00  0.00     0.013 A 
ATOM      4  C   UNL     1     -32.609   1.245   0.239  1.00  0.00    -0.006 A 
ATOM      5  C   UNL     1     -31.334   1.636   0.755  1.00  0.00     0.039 A 
ATOM      6  C   UNL     1     -30.819   0.956   1.900  1.00  0.00     0.072 A 
ATOM      7  C   UNL     1     -31.594  -0.035   2.538  1.00  0.00     0.169 A 
ATOM      8  C   UNL     1     -32.835  -0.413   2.016  1.00  0.00     0.162 A 
ATOM      9  C   UNL     1     -33.304   0.132   0.802  1.00  0.00     0.008 A 
ATOM     10  C   UNL     1     -30.640   2.719   0.132  1.00  0.00     0.132 A 
ATOM     11  C   UNL     1     -31.219   3.411  -0.953  1.00  0.00     0.031 A 
ENDROOT
BRANCH  11  12
ATOM     12  C   UNL     1     -30.496   4.544  -1.590  1.00  0.00     0.031 A 
ATOM     13  C   UNL     1     -29.552   4.297  -2.610  1.00  0.00     0.132 A 
ATOM     14  C   UNL     1     -30.755   5.862  -1.178  1.00  0.00    -0.039 A 
ATOM     15  C   UNL     1     -28.890   5.383  -3.257  1.00  0.00     0.039 A 
ATOM     16  C   UNL     1     -30.004   6.908  -1.714  1.00  0.00     0.013 A 
ATOM     17  C   UNL     1     -31.777   6.158  -0.108  1.00  0.00     0.045 C 
ATOM     18  C   UNL     1     -29.020   6.689  -2.703  1.00  0.00    -0.006 A 
ATOM     19  C   UNL     1     -28.081   5.202  -4.415  1.00  0.00     0.072 A 
ATOM     20  C   UNL     1     -28.190   7.751  -3.171  1.00  0.00     0.008 A 
ATOM     21  C   UNL     1     -27.372   6.289  -4.958  1.00  0.00     0.169 A 
ATOM     22  C   UNL     1     -27.451   7.563  -4.362  1.00  0.00     0.162 A 
BRANCH  13  23
ATOM     23  O   UNL     1     -29.238   2.977  -2.952  1.00  0.00    -0.507 OA
ATOM     24  H   UNL     1     -28.668   2.722  -3.748  1.00  0.00     0.293 HD
ENDBRANCH  13  23
BRANCH  19  25
ATOM     25  C   UNL     1     -28.063   3.923  -5.165  1.00  0.00     0.264 C 
ATOM     26  O   UNL     1     -28.856   3.721  -6.124  1.00  0.00    -0.298 OA
ENDBRANCH  19  25
BRANCH  20  27
ATOM     27  C   UNL     1     -28.099   9.090  -2.417  1.00  0.00     0.017 C 
ATOM     28  C   UNL     1     -28.032   8.867  -0.903  1.00  0.00     0.012 C 
ATOM     29  C   UNL     1     -29.214  10.086  -2.789  1.00  0.00     0.012 C 
ENDBRANCH  20  27
BRANCH  21  30
ATOM     30  O   UNL     1     -26.595   6.071  -6.103  1.00  0.00    -0.504 OA
ATOM     31  H   UNL     1     -26.392   6.770  -6.802  1.00  0.00     0.293 HD
ENDBRANCH  21  30
BRANCH  22  32
ATOM     32  O   UNL     1     -26.839   8.671  -4.954  1.00  0.00    -0.504 OA
ATOM     33  H   UNL     1     -27.329   9.438  -5.390  1.00  0.00     0.293 HD
ENDBRANCH  22  32
ENDBRANCH  11  12
BRANCH  10  34
ATOM     34  O   UNL     1     -29.380   3.114   0.595  1.00  0.00    -0.507 OA
ATOM     35  H   UNL     1     -28.595   2.486   0.709  1.00  0.00     0.293 HD
ENDBRANCH  10  34
BRANCH   9  36
ATOM     36  C   UNL     1     -34.552  -0.471   0.131  1.00  0.00     0.017 C 
ATOM     37  C   UNL     1     -35.807  -0.206   0.970  1.00  0.00     0.012 C 
ATOM     38  C   UNL     1     -34.415  -1.966  -0.213  1.00  0.00     0.012 C 
ENDBRANCH   9  36
BRANCH   6  39
ATOM     39  C   UNL     1     -29.492   1.269   2.465  1.00  0.00     0.264 C 
ATOM     40  O   UNL     1     -29.391   1.926   3.535  1.00  0.00    -0.298 OA
ENDBRANCH   6  39
BRANCH   8  41
ATOM     41  O   UNL     1     -33.612  -1.343   2.710  1.00  0.00    -0.504 OA
ATOM     42  H   UNL     1     -34.588  -1.191   2.935  1.00  0.00     0.293 HD
ENDBRANCH   8  41
BRANCH   7  43
ATOM     43  O   UNL     1     -31.141  -0.693   3.688  1.00  0.00    -0.504 OA
ATOM     44  H   UNL     1     -30.448  -0.317   4.322  1.00  0.00     0.293 HD
ENDBRANCH   7  43
TORSDOF 11
ENDMDL
MODEL 5
REMARK VINA RESULT:    -6.551      6.465      9.295
REMARK INTER + INTRA:         -11.038
REMARK INTER:                 -10.228
REMARK INTRA:                  -0.810
REMARK UNBOUND:                -1.423
REMARK SMILES Cc1cc2c(C(C)C)c(O)c(O)c(C=O)c2c(O)c1-c1c(C)cc2c(C(C)C)c(O)c(O)c(C=O)c2c1O
REMARK SMILES IDX 1 1 2 2 3 3 4 4 16 5 13 6 11 7 9 8 5 9 17 10 19 11 20 12
REMARK SMILES IDX 37 13 21 14 36 15 23 16 22 17 24 18 33 19 25 20 31 21 29 22
REMARK SMILES IDX 38 23 34 25 35 26 26 27 27 28 28 29 32 30 30 32 18 34 6 36
REMARK SMILES IDX 7 37 8 38 14 39 15 40 10 41 12 43
REMARK H PARENT 38 24 32 31 30 33 18 35 10 42 12 44
REMARK Flexibility Score: inf
ROOT
ATOM      1  C   UNL     1     -28.395   3.291   0.218  1.00  0.00     0.045 C 
ATOM      2  C   UNL     1     -29.838   2.925  -0.035  1.00  0.00    -0.039 A 
ATOM      3  C   UNL     1     -30.407   1.863   0.667  1.00  0.00     0.013 A 
ATOM      4  C   UNL     1     -31.753   1.478   0.481  1.00  0.00    -0.006 A 
ATOM      5  C   UNL     1     -32.520   2.129  -0.534  1.00  0.00     0.039 A 
ATOM      6  C   UNL     1     -33.834   1.647  -0.819  1.00  0.00     0.072 A 
ATOM      7  C   UNL     1     -34.326   0.509  -0.147  1.00  0.00     0.169 A 
ATOM      8  C   UNL     1     -33.569  -0.111   0.851  1.00  0.00     0.162 A 
ATOM      9  C   UNL     1     -32.332   0.430   1.260  1.00  0.00     0.008 A 
ATOM     10  C   UNL     1     -31.930   3.211  -1.257  1.00  0.00     0.132 A 
ATOM     11  C   UNL     1     -30.602   3.609  -0.994  1.00  0.00     0.031 A 
ENDROOT
BRANCH  11  12
ATOM     12  C   UNL     1     -29.990   4.730  -1.757  1.00  0.00     0.031 A 
ATOM     13  C   UNL     1     -29.119   4.461  -2.834  1.00  0.00     0.132 A 
ATOM     14  C   UNL     1     -30.283   6.059  -1.406  1.00  0.00    -0.039 A 
ATOM     15  C   UNL     1     -28.567   5.531  -3.599  1.00  0.00     0.039 A 
ATOM     16  C   UNL     1     -29.631   7.101  -2.066  1.00  0.00     0.013 A 
ATOM     17  C   UNL     1     -31.231   6.377  -0.276  1.00  0.00     0.045 C 
ATOM     18  C   UNL     1     -28.720   6.863  -3.118  1.00  0.00    -0.006 A 
ATOM     19  C   UNL     1     -27.844   5.312  -4.806  1.00  0.00     0.072 A 
ATOM     20  C   UNL     1     -27.985   7.930  -3.718  1.00  0.00     0.008 A 
ATOM     21  C   UNL     1     -27.237   6.392  -5.472  1.00  0.00     0.169 A 
ATOM     22  C   UNL     1     -27.334   7.698  -4.951  1.00  0.00     0.162 A 
BRANCH  13  23
ATOM     23  O   UNL     1     -28.766   3.137  -3.118  1.00  0.00    -0.507 OA
ATOM     24  H   UNL     1     -29.279   2.542  -3.756  1.00  0.00     0.293 HD
ENDBRANCH  13  23
BRANCH  19  25
ATOM     25  C   UNL     1     -27.821   3.988  -5.476  1.00  0.00     0.264 C 
ATOM     26  O   UNL     1     -28.709   3.666  -6.310  1.00  0.00    -0.298 OA
ENDBRANCH  19  25
BRANCH  20  27
ATOM     27  C   UNL     1     -27.903   9.318  -3.058  1.00  0.00     0.017 C 
ATOM     28  C   UNL     1     -27.781   9.199  -1.536  1.00  0.00     0.012 C 
ATOM     29  C   UNL     1     -29.055  10.261  -3.457  1.00  0.00     0.012 C 
ENDBRANCH  20  27
BRANCH  21  30
ATOM     30  O   UNL     1     -26.544   6.135  -6.662  1.00  0.00    -0.504 OA
ATOM     31  H   UNL     1     -26.829   6.460  -7.575  1.00  0.00     0.293 HD
ENDBRANCH  21  30
BRANCH  22  32
ATOM     32  O   UNL     1     -26.829   8.791  -5.660  1.00  0.00    -0.504 OA
ATOM     33  H   UNL     1     -26.763   9.732  -5.300  1.00  0.00     0.293 HD
ENDBRANCH  22  32
ENDBRANCH  11  12
BRANCH  10  34
ATOM     34  O   UNL     1     -32.659   3.888  -2.242  1.00  0.00    -0.507 OA
ATOM     35  H   UNL     1     -32.444   3.854  -3.231  1.00  0.00     0.293 HD
ENDBRANCH  10  34
BRANCH   9  36
ATOM     36  C   UNL     1     -31.634  -0.130   2.514  1.00  0.00     0.017 C 
ATOM     37  C   UNL     1     -31.065  -1.527   2.245  1.00  0.00     0.012 C 
ATOM     38  C   UNL     1     -32.518  -0.119   3.776  1.00  0.00     0.012 C 
ENDBRANCH   9  36
BRANCH   6  39
ATOM     39  C   UNL     1     -34.706   2.292  -1.820  1.00  0.00     0.264 C 
ATOM     40  O   UNL     1     -34.891   1.758  -2.945  1.00  0.00    -0.298 OA
ENDBRANCH   6  39
BRANCH   8  41
ATOM     41  O   UNL     1     -34.050  -1.280   1.446  1.00  0.00    -0.504 OA
ATOM     42  H   UNL     1     -33.449  -2.045   1.729  1.00  0.00     0.293 HD
ENDBRANCH   8  41
BRANCH   7  43
ATOM     43  O   UNL     1     -35.593  -0.019  -0.429  1.00  0.00    -0.504 OA
ATOM     44  H   UNL     1     -36.193   0.312  -1.174  1.00  0.00     0.293 HD
ENDBRANCH   7  43
TORSDOF 11
ENDMDL
MODEL 6
REMARK VINA RESULT:    -6.488      2.403      9.155
REMARK INTER + INTRA:         -10.945
REMARK INTER:                  -9.573
REMARK INTRA:                  -1.372
REMARK UNBOUND:                -1.423
REMARK SMILES Cc1cc2c(C(C)C)c(O)c(O)c(C=O)c2c(O)c1-c1c(C)cc2c(C(C)C)c(O)c(O)c(C=O)c2c1O
REMARK SMILES IDX 1 1 2 2 3 3 4 4 16 5 13 6 11 7 9 8 5 9 17 10 19 11 20 12
REMARK SMILES IDX 37 13 21 14 36 15 23 16 22 17 24 18 33 19 25 20 31 21 29 22
REMARK SMILES IDX 38 23 34 25 35 26 26 27 27 28 28 29 32 30 30 32 18 34 6 36
REMARK SMILES IDX 7 37 8 38 14 39 15 40 10 41 12 43
REMARK H PARENT 38 24 32 31 30 33 18 35 10 42 12 44
REMARK Flexibility Score: inf
ROOT
ATOM      1  C   UNL     1     -24.645   4.509   1.835  1.00  0.00     0.045 C 
ATOM      2  C   UNL     1     -25.928   3.869   1.360  1.00  0.00    -0.039 A 
ATOM      3  C   UNL     1     -26.651   4.470   0.329  1.00  0.00     0.013 A 
ATOM      4  C   UNL     1     -27.852   3.916  -0.164  1.00  0.00    -0.006 A 
ATOM      5  C   UNL     1     -28.396   2.764   0.486  1.00  0.00     0.039 A 
ATOM      6  C   UNL     1     -29.680   2.287   0.079  1.00  0.00     0.072 A 
ATOM      7  C   UNL     1     -30.412   2.988  -0.901  1.00  0.00     0.169 A 
ATOM      8  C   UNL     1     -29.863   4.107  -1.535  1.00  0.00     0.162 A 
ATOM      9  C   UNL     1     -28.539   4.514  -1.265  1.00  0.00     0.008 A 
ATOM     10  C   UNL     1     -27.656   2.157   1.546  1.00  0.00     0.132 A 
ATOM     11  C   UNL     1     -26.425   2.704   1.966  1.00  0.00     0.031 A 
ENDROOT
BRANCH  11  12
ATOM     12  C   UNL     1     -25.664   2.073   3.077  1.00  0.00     0.031 A 
ATOM     13  C   UNL     1     -24.609   1.180   2.795  1.00  0.00     0.132 A 
ATOM     14  C   UNL     1     -25.996   2.368   4.410  1.00  0.00    -0.039 A 
ATOM     15  C   UNL     1     -23.846   0.608   3.856  1.00  0.00     0.039 A 
ATOM     16  C   UNL     1     -25.340   1.699   5.445  1.00  0.00     0.013 A 
ATOM     17  C   UNL     1     -27.103   3.339   4.742  1.00  0.00     0.045 C 
ATOM     18  C   UNL     1     -24.310   0.767   5.194  1.00  0.00    -0.006 A 
ATOM     19  C   UNL     1     -22.656  -0.139   3.624  1.00  0.00     0.072 A 
ATOM     20  C   UNL     1     -23.717   0.015   6.252  1.00  0.00     0.008 A 
ATOM     21  C   UNL     1     -21.993  -0.764   4.696  1.00  0.00     0.169 A 
ATOM     22  C   UNL     1     -22.500  -0.661   6.006  1.00  0.00     0.162 A 
BRANCH  13  23
ATOM     23  O   UNL     1     -24.344   0.825   1.468  1.00  0.00    -0.507 OA
ATOM     24  H   UNL     1     -24.038  -0.096   1.181  1.00  0.00     0.293 HD
ENDBRANCH  13  23
BRANCH  19  25
ATOM     25  C   UNL     1     -22.000  -0.173   2.294  1.00  0.00     0.264 C 
ATOM     26  O   UNL     1     -22.042  -1.207   1.574  1.00  0.00    -0.298 OA
ENDBRANCH  19  25
BRANCH  20  27
ATOM     27  C   UNL     1     -24.365  -0.057   7.646  1.00  0.00     0.017 C 
ATOM     28  C   UNL     1     -23.553   0.736   8.674  1.00  0.00     0.012 C 
ATOM     29  C   UNL     1     -24.630  -1.496   8.130  1.00  0.00     0.012 C 
ENDBRANCH  20  27
BRANCH  21  30
ATOM     30  O   UNL     1     -20.821  -1.482   4.425  1.00  0.00    -0.504 OA
ATOM     31  H   UNL     1     -20.646  -2.431   4.721  1.00  0.00     0.293 HD
ENDBRANCH  21  30
BRANCH  22  32
ATOM     32  O   UNL     1     -21.792  -1.185   7.092  1.00  0.00    -0.504 OA
ATOM     33  H   UNL     1     -20.926  -1.699   7.022  1.00  0.00     0.293 HD
ENDBRANCH  22  32
ENDBRANCH  11  12
BRANCH  10  34
ATOM     34  O   UNL     1     -28.146   1.015   2.190  1.00  0.00    -0.507 OA
ATOM     35  H   UNL     1     -27.636   0.144   2.267  1.00  0.00     0.293 HD
ENDBRANCH  10  34
BRANCH   9  36
ATOM     36  C   UNL     1     -27.882   5.595  -2.142  1.00  0.00     0.017 C 
ATOM     37  C   UNL     1     -28.411   6.987  -1.783  1.00  0.00     0.012 C 
ATOM     38  C   UNL     1     -27.997   5.325  -3.655  1.00  0.00     0.012 C 
ENDBRANCH   9  36
BRANCH   6  39
ATOM     39  C   UNL     1     -30.289   1.079   0.669  1.00  0.00     0.264 C 
ATOM     40  O   UNL     1     -31.217   1.179   1.514  1.00  0.00    -0.298 OA
ENDBRANCH   6  39
BRANCH   8  41
ATOM     41  O   UNL     1     -30.640   4.825  -2.448  1.00  0.00    -0.504 OA
ATOM     42  H   UNL     1     -31.135   4.388  -3.217  1.00  0.00     0.293 HD
ENDBRANCH   8  41
BRANCH   7  43
ATOM     43  O   UNL     1     -31.691   2.576  -1.295  1.00  0.00    -0.504 OA
ATOM     44  H   UNL     1     -32.126   2.833  -2.172  1.00  0.00     0.293 HD
ENDBRANCH   7  43
TORSDOF 11
ENDMDL
MODEL 7
REMARK VINA RESULT:    -6.428      6.939     10.004
REMARK INTER + INTRA:         -10.858
REMARK INTER:                  -9.698
REMARK INTRA:                  -1.159
REMARK UNBOUND:                -1.423
REMARK SMILES Cc1cc2c(C(C)C)c(O)c(O)c(C=O)c2c(O)c1-c1c(C)cc2c(C(C)C)c(O)c(O)c(C=O)c2c1O
REMARK SMILES IDX 1 1 2 2 3 3 4 4 16 5 13 6 11 7 9 8 5 9 17 10 19 11 20 12
REMARK SMILES IDX 37 13 21 14 36 15 23 16 22 17 24 18 33 19 25 20 31 21 29 22
REMARK SMILES IDX 38 23 34 25 35 26 26 27 27 28 28 29 32 30 30 32 18 34 6 36
REMARK SMILES IDX 7 37 8 38 14 39 15 40 10 41 12 43
REMARK H PARENT 38 24 32 31 30 33 18 35 10 42 12 44
REMARK Flexibility Score: inf
ROOT
ATOM      1  C   UNL     1     -30.379   1.300   1.146  1.00  0.00     0.045 C 
ATOM      2  C   UNL     1     -31.028   2.481   0.465  1.00  0.00    -0.039 A 
ATOM      3  C   UNL     1     -30.240   3.362  -0.276  1.00  0.00     0.013 A 
ATOM      4  C   UNL     1     -30.791   4.479  -0.943  1.00  0.00    -0.006 A 
ATOM      5  C   UNL     1     -32.178   4.772  -0.763  1.00  0.00     0.039 A 
ATOM      6  C   UNL     1     -32.704   5.977  -1.321  1.00  0.00     0.072 A 
ATOM      7  C   UNL     1     -31.845   6.881  -1.978  1.00  0.00     0.169 A 
ATOM      8  C   UNL     1     -30.492   6.576  -2.155  1.00  0.00     0.162 A 
ATOM      9  C   UNL     1     -29.973   5.328  -1.750  1.00  0.00     0.008 A 
ATOM     10  C   UNL     1     -32.980   3.871   0.004  1.00  0.00     0.132 A 
ATOM     11  C   UNL     1     -32.404   2.729   0.599  1.00  0.00     0.031 A 
ENDROOT
BRANCH  11  12
ATOM     12  C   UNL     1     -33.242   1.800   1.404  1.00  0.00     0.031 A 
ATOM     13  C   UNL     1     -33.858   0.689   0.790  1.00  0.00     0.132 A 
ATOM     14  C   UNL     1     -33.418   2.029   2.779  1.00  0.00    -0.039 A 
ATOM     15  C   UNL     1     -34.624  -0.231   1.566  1.00  0.00     0.039 A 
ATOM     16  C   UNL     1     -34.282   1.208   3.506  1.00  0.00     0.013 A 
ATOM     17  C   UNL     1     -32.752   3.194   3.469  1.00  0.00     0.045 C 
ATOM     18  C   UNL     1     -34.948   0.115   2.910  1.00  0.00    -0.006 A 
ATOM     19  C   UNL     1     -35.100  -1.464   1.037  1.00  0.00     0.072 A 
ATOM     20  C   UNL     1     -35.905  -0.656   3.636  1.00  0.00     0.008 A 
ATOM     21  C   UNL     1     -35.933  -2.291   1.813  1.00  0.00     0.169 A 
ATOM     22  C   UNL     1     -36.306  -1.907   3.116  1.00  0.00     0.162 A 
BRANCH  13  23
ATOM     23  O   UNL     1     -33.747   0.520  -0.595  1.00  0.00    -0.507 OA
ATOM     24  H   UNL     1     -33.342  -0.298  -1.032  1.00  0.00     0.293 HD
ENDBRANCH  13  23
BRANCH  19  25
ATOM     25  C   UNL     1     -34.635  -1.986  -0.271  1.00  0.00     0.264 C 
ATOM     26  O   UNL     1     -33.649  -2.768  -0.345  1.00  0.00    -0.298 OA
ENDBRANCH  19  25
BRANCH  20  27
ATOM     27  C   UNL     1     -36.489  -0.159   4.971  1.00  0.00     0.017 C 
ATOM     28  C   UNL     1     -37.125   1.226   4.813  1.00  0.00     0.012 C 
ATOM     29  C   UNL     1     -35.479  -0.183   6.135  1.00  0.00     0.012 C 
ENDBRANCH  20  27
BRANCH  21  30
ATOM     30  O   UNL     1     -36.371  -3.500   1.259  1.00  0.00    -0.504 OA
ATOM     31  H   UNL     1     -36.383  -3.710   0.271  1.00  0.00     0.293 HD
ENDBRANCH  21  30
BRANCH  22  32
ATOM     32  O   UNL     1     -37.042  -2.770   3.934  1.00  0.00    -0.504 OA
ATOM     33  H   UNL     1     -36.715  -3.159   4.805  1.00  0.00     0.293 HD
ENDBRANCH  22  32
ENDBRANCH  11  12
BRANCH  10  34
ATOM     34  O   UNL     1     -34.347   4.114   0.182  1.00  0.00    -0.507 OA
ATOM     35  H   UNL     1     -34.954   4.491  -0.533  1.00  0.00     0.293 HD
ENDBRANCH  10  34
BRANCH   9  36
ATOM     36  C   UNL     1     -28.547   4.925  -2.167  1.00  0.00     0.017 C 
ATOM     37  C   UNL     1     -28.564   3.646  -3.010  1.00  0.00     0.012 C 
ATOM     38  C   UNL     1     -27.563   4.804  -0.987  1.00  0.00     0.012 C 
ENDBRANCH   9  36
BRANCH   6  39
ATOM     39  C   UNL     1     -34.134   6.329  -1.217  1.00  0.00     0.264 C 
ATOM     40  O   UNL     1     -34.903   6.175  -2.201  1.00  0.00    -0.298 OA
ENDBRANCH   6  39
BRANCH   8  41
ATOM     41  O   UNL     1     -29.650   7.523  -2.744  1.00  0.00    -0.504 OA
ATOM     42  H   UNL     1     -29.476   7.565  -3.741  1.00  0.00     0.293 HD
ENDBRANCH   8  41
BRANCH   7  43
ATOM     43  O   UNL     1     -32.315   8.092  -2.500  1.00  0.00    -0.504 OA
ATOM     44  H   UNL     1     -32.165   8.397  -3.454  1.00  0.00     0.293 HD
ENDBRANCH   7  43
TORSDOF 11
ENDMDL
MODEL 8
REMARK VINA RESULT:    -6.412      6.107      9.123
REMARK INTER + INTRA:         -10.834
REMARK INTER:                  -9.646
REMARK INTRA:                  -1.189
REMARK UNBOUND:                -1.423
REMARK SMILES Cc1cc2c(C(C)C)c(O)c(O)c(C=O)c2c(O)c1-c1c(C)cc2c(C(C)C)c(O)c(O)c(C=O)c2c1O
REMARK SMILES IDX 1 1 2 2 3 3 4 4 16 5 13 6 11 7 9 8 5 9 17 10 19 11 20 12
REMARK SMILES IDX 37 13 21 14 36 15 23 16 22 17 24 18 33 19 25 20 31 21 29 22
REMARK SMILES IDX 38 23 34 25 35 26 26 27 27 28 28 29 32 30 30 32 18 34 6 36
REMARK SMILES IDX 7 37 8 38 14 39 15 40 10 41 12 43
REMARK H PARENT 38 24 32 31 30 33 18 35 10 42 12 44
REMARK Flexibility Score: inf
ROOT
ATOM      1  C   UNL     1     -27.456   3.777  -0.299  1.00  0.00     0.045 C 
ATOM      2  C   UNL     1     -28.920   3.455  -0.478  1.00  0.00    -0.039 A 
ATOM      3  C   UNL     1     -29.511   2.482   0.329  1.00  0.00     0.013 A 
ATOM      4  C   UNL     1     -30.877   2.144   0.215  1.00  0.00    -0.006 A 
ATOM      5  C   UNL     1     -31.648   2.740  -0.830  1.00  0.00     0.039 A 
ATOM      6  C   UNL     1     -32.990   2.295  -1.034  1.00  0.00     0.072 A 
ATOM      7  C   UNL     1     -33.507   1.241  -0.253  1.00  0.00     0.169 A 
ATOM      8  C   UNL     1     -32.744   0.674   0.772  1.00  0.00     0.162 A 
ATOM      9  C   UNL     1     -31.473   1.192   1.098  1.00  0.00     0.008 A 
ATOM     10  C   UNL     1     -31.037   3.730  -1.660  1.00  0.00     0.132 A 
ATOM     11  C   UNL     1     -29.685   4.089  -1.469  1.00  0.00     0.031 A 
ENDROOT
BRANCH  11  12
ATOM     12  C   UNL     1     -29.053   5.113  -2.343  1.00  0.00     0.031 A 
ATOM     13  C   UNL     1     -29.029   6.467  -1.945  1.00  0.00     0.132 A 
ATOM     14  C   UNL     1     -28.475   4.731  -3.566  1.00  0.00    -0.039 A 
ATOM     15  C   UNL     1     -28.382   7.445  -2.757  1.00  0.00     0.039 A 
ATOM     16  C   UNL     1     -27.969   5.711  -4.421  1.00  0.00     0.013 A 
ATOM     17  C   UNL     1     -28.462   3.288  -4.006  1.00  0.00     0.045 C 
ATOM     18  C   UNL     1     -27.971   7.079  -4.071  1.00  0.00    -0.006 A 
ATOM     19  C   UNL     1     -28.161   8.780  -2.312  1.00  0.00     0.072 A 
ATOM     20  C   UNL     1     -27.544   8.081  -4.993  1.00  0.00     0.008 A 
ATOM     21  C   UNL     1     -27.606   9.733  -3.185  1.00  0.00     0.169 A 
ATOM     22  C   UNL     1     -27.268   9.379  -4.506  1.00  0.00     0.162 A 
BRANCH  13  23
ATOM     23  O   UNL     1     -29.683   6.849  -0.769  1.00  0.00    -0.507 OA
ATOM     24  H   UNL     1     -30.690   6.863  -0.663  1.00  0.00     0.293 HD
ENDBRANCH  13  23
BRANCH  19  25
ATOM     25  C   UNL     1     -28.368   9.178  -0.898  1.00  0.00     0.264 C 
ATOM     26  O   UNL     1     -29.333   9.918  -0.566  1.00  0.00    -0.298 OA
ENDBRANCH  19  25
BRANCH  20  27
ATOM     27  C   UNL     1     -27.365   7.770  -6.490  1.00  0.00     0.017 C 
ATOM     28  C   UNL     1     -28.700   7.860  -7.235  1.00  0.00     0.012 C 
ATOM     29  C   UNL     1     -26.660   6.427  -6.763  1.00  0.00     0.012 C 
ENDBRANCH  20  27
BRANCH  21  30
ATOM     30  O   UNL     1     -27.395  11.032  -2.705  1.00  0.00    -0.504 OA
ATOM     31  H   UNL     1     -28.119  11.637  -2.346  1.00  0.00     0.293 HD
ENDBRANCH  21  30
BRANCH  22  32
ATOM     32  O   UNL     1     -26.617  10.287  -5.347  1.00  0.00    -0.504 OA
ATOM     33  H   UNL     1     -26.365  11.231  -5.093  1.00  0.00     0.293 HD
ENDBRANCH  22  32
ENDBRANCH  11  12
BRANCH  10  34
ATOM     34  O   UNL     1     -31.768   4.352  -2.678  1.00  0.00    -0.507 OA
ATOM     35  H   UNL     1     -31.699   4.107  -3.658  1.00  0.00     0.293 HD
ENDBRANCH  10  34
BRANCH   9  36
ATOM     36  C   UNL     1     -30.760   0.710   2.374  1.00  0.00     0.017 C 
ATOM     37  C   UNL     1     -30.352  -0.762   2.251  1.00  0.00     0.012 C 
ATOM     38  C   UNL     1     -31.558   0.962   3.668  1.00  0.00     0.012 C 
ENDBRANCH   9  36
BRANCH   6  39
ATOM     39  C   UNL     1     -33.865   2.891  -2.062  1.00  0.00     0.264 C 
ATOM     40  O   UNL     1     -34.174   2.241  -3.095  1.00  0.00    -0.298 OA
ENDBRANCH   6  39
BRANCH   8  41
ATOM     41  O   UNL     1     -33.255  -0.417   1.480  1.00  0.00    -0.504 OA
ATOM     42  H   UNL     1     -33.633  -1.242   1.028  1.00  0.00     0.293 HD
ENDBRANCH   8  41
BRANCH   7  43
ATOM     43  O   UNL     1     -34.803   0.748  -0.453  1.00  0.00    -0.504 OA
ATOM     44  H   UNL     1     -35.625   1.331  -0.549  1.00  0.00     0.293 HD
ENDBRANCH   7  43
TORSDOF 11
ENDMDL
MODEL 9
REMARK VINA RESULT:    -6.330      6.800     10.027
REMARK INTER + INTRA:         -10.713
REMARK INTER:                  -9.383
REMARK INTRA:                  -1.330
REMARK UNBOUND:                -1.423
REMARK SMILES Cc1cc2c(C(C)C)c(O)c(O)c(C=O)c2c(O)c1-c1c(C)cc2c(C(C)C)c(O)c(O)c(C=O)c2c1O
REMARK SMILES IDX 1 1 2 2 3 3 4 4 16 5 13 6 11 7 9 8 5 9 17 10 19 11 20 12
REMARK SMILES IDX 37 13 21 14 36 15 23 16 22 17 24 18 33 19 25 20 31 21 29 22
REMARK SMILES IDX 38 23 34 25 35 26 26 27 27 28 28 29 32 30 30 32 18 34 6 36
REMARK SMILES IDX 7 37 8 38 14 39 15 40 10 41 12 43
REMARK H PARENT 38 24 32 31 30 33 18 35 10 42 12 44
REMARK Flexibility Score: inf
ROOT
ATOM      1  C   UNL     1     -32.927   3.436   3.663  1.00  0.00     0.045 C 
ATOM      2  C   UNL     1     -33.484   2.210   2.979  1.00  0.00    -0.039 A 
ATOM      3  C   UNL     1     -34.268   1.317   3.709  1.00  0.00     0.013 A 
ATOM      4  C   UNL     1     -34.825   0.158   3.123  1.00  0.00    -0.006 A 
ATOM      5  C   UNL     1     -34.483  -0.162   1.773  1.00  0.00     0.039 A 
ATOM      6  C   UNL     1     -34.931  -1.403   1.226  1.00  0.00     0.072 A 
ATOM      7  C   UNL     1     -35.639  -2.314   2.037  1.00  0.00     0.169 A 
ATOM      8  C   UNL     1     -35.974  -1.983   3.353  1.00  0.00     0.162 A 
ATOM      9  C   UNL     1     -35.679  -0.706   3.875  1.00  0.00     0.008 A 
ATOM     10  C   UNL     1     -33.673   0.752   1.031  1.00  0.00     0.132 A 
ATOM     11  C   UNL     1     -33.191   1.934   1.634  1.00  0.00     0.031 A 
ENDROOT
BRANCH  11  12
ATOM     12  C   UNL     1     -32.340   2.876   0.860  1.00  0.00     0.031 A 
ATOM     13  C   UNL     1     -32.931   3.927   0.127  1.00  0.00     0.132 A 
ATOM     14  C   UNL     1     -30.943   2.721   0.860  1.00  0.00    -0.039 A 
ATOM     15  C   UNL     1     -32.116   4.862  -0.579  1.00  0.00     0.039 A 
ATOM     16  C   UNL     1     -30.161   3.550   0.055  1.00  0.00     0.013 A 
ATOM     17  C   UNL     1     -30.280   1.622   1.653  1.00  0.00     0.045 C 
ATOM     18  C   UNL     1     -30.727   4.583  -0.724  1.00  0.00    -0.006 A 
ATOM     19  C   UNL     1     -32.648   6.045  -1.167  1.00  0.00     0.072 A 
ATOM     20  C   UNL     1     -29.931   5.359  -1.618  1.00  0.00     0.008 A 
ATOM     21  C   UNL     1     -31.821   6.885  -1.935  1.00  0.00     0.169 A 
ATOM     22  C   UNL     1     -30.463   6.563  -2.132  1.00  0.00     0.162 A 
BRANCH  13  23
ATOM     23  O   UNL     1     -34.326   4.021   0.063  1.00  0.00    -0.507 OA
ATOM     24  H   UNL     1     -34.955   3.311   0.418  1.00  0.00     0.293 HD
ENDBRANCH  13  23
BRANCH  19  25
ATOM     25  C   UNL     1     -34.029   6.508  -0.885  1.00  0.00     0.264 C 
ATOM     26  O   UNL     1     -34.934   6.419  -1.757  1.00  0.00    -0.298 OA
ENDBRANCH  19  25
BRANCH  20  27
ATOM     27  C   UNL     1     -28.510   4.918  -2.016  1.00  0.00     0.017 C 
ATOM     28  C   UNL     1     -28.543   3.623  -2.832  1.00  0.00     0.012 C 
ATOM     29  C   UNL     1     -27.541   4.805  -0.823  1.00  0.00     0.012 C 
ENDBRANCH  20  27
BRANCH  21  30
ATOM     30  O   UNL     1     -32.379   8.044  -2.488  1.00  0.00    -0.504 OA
ATOM     31  H   UNL     1     -33.360   8.283  -2.453  1.00  0.00     0.293 HD
ENDBRANCH  21  30
BRANCH  22  32
ATOM     32  O   UNL     1     -29.608   7.444  -2.802  1.00  0.00    -0.504 OA
ATOM     33  H   UNL     1     -29.030   8.139  -2.354  1.00  0.00     0.293 HD
ENDBRANCH  22  32
ENDBRANCH  11  12
BRANCH  10  34
ATOM     34  O   UNL     1     -33.338   0.484  -0.301  1.00  0.00    -0.507 OA
ATOM     35  H   UNL     1     -33.683  -0.310  -0.824  1.00  0.00     0.293 HD
ENDBRANCH  10  34
BRANCH   9  36
ATOM     36  C   UNL     1     -36.264  -0.287   5.236  1.00  0.00     0.017 C 
ATOM     37  C   UNL     1     -37.122   0.975   5.097  1.00  0.00     0.012 C 
ATOM     38  C   UNL     1     -35.208  -0.125   6.346  1.00  0.00     0.012 C 
ENDBRANCH   9  36
BRANCH   6  39
ATOM     39  C   UNL     1     -34.658  -1.786  -0.174  1.00  0.00     0.264 C 
ATOM     40  O   UNL     1     -33.806  -2.673  -0.439  1.00  0.00    -0.298 OA
ENDBRANCH   6  39
BRANCH   8  41
ATOM     41  O   UNL     1     -36.610  -2.934   4.155  1.00  0.00    -0.504 OA
ATOM     42  H   UNL     1     -37.509  -2.775   4.595  1.00  0.00     0.293 HD
ENDBRANCH   8  41
BRANCH   7  43
ATOM     43  O   UNL     1     -36.056  -3.558   1.549  1.00  0.00    -0.504 OA
ATOM     44  H   UNL     1     -36.426  -4.301   2.128  1.00  0.00     0.293 HD
ENDBRANCH   7  43
TORSDOF 11
ENDMDL
