MODEL 1
REMARK VINA RESULT:    -6.009      0.000      0.000
REMARK INTER + INTRA:          -6.009
REMARK INTER:                  -6.009
REMARK INTRA:                   0.000
REMARK UNBOUND:                 0.000
REMARK SMILES C=C1CCC[C@]2(C)CC(=O)C(=C(C)C)C[C@@H]12
REMARK SMILES IDX 13 1 12 2 11 3 15 4 16 5 2 6 1 7 3 8 4 9 5 10 6 11 8 12 9 13
REMARK SMILES IDX 10 14 7 15 14 16
REMARK H PARENT
REMARK Flexibility Score: inf
ROOT
ATOM      1  C   UNL     1     -18.502  11.243 -28.702  1.00  0.00     0.039 C 
ATOM      2  C   UNL     1     -18.423  12.421 -29.647  1.00  0.00    -0.070 C 
ATOM      3  C   UNL     1     -17.221  12.948 -30.024  1.00  0.00    -0.006 C 
ATOM      4  C   UNL     1     -15.912  12.385 -29.489  1.00  0.00     0.047 C 
ATOM      5  C   UNL     1     -14.797  13.456 -29.384  1.00  0.00     0.025 C 
ATOM      6  C   UNL     1     -13.445  12.940 -28.890  1.00  0.00    -0.073 C 
ATOM      7  C   UNL     1     -13.198  11.655 -28.571  1.00  0.00     0.008 C 
ATOM      8  C   UNL     1     -12.357  13.974 -28.721  1.00  0.00     0.031 C 
ATOM      9  C   UNL     1     -12.184  14.781 -30.011  1.00  0.00     0.005 C 
ATOM     10  C   UNL     1     -13.523  15.351 -30.508  1.00  0.00     0.008 C 
ATOM     11  C   UNL     1     -14.616  14.257 -30.711  1.00  0.00    -0.018 C 
ATOM     12  C   UNL     1     -15.950  14.965 -31.047  1.00  0.00     0.088 C 
ATOM     13  C   UNL     1     -17.110  14.012 -31.065  1.00  0.00     0.159 C 
ATOM     14  O   UNL     1     -17.968  14.123 -31.980  1.00  0.00    -0.295 OA
ATOM     15  C   UNL     1     -14.212  13.333 -31.894  1.00  0.00     0.012 C 
ATOM     16  C   UNL     1     -19.734  13.005 -30.121  1.00  0.00     0.039 C 
ENDROOT
TORSDOF 0
ENDMDL
MODEL 2
REMARK VINA RESULT:    -5.993      2.163      5.354
REMARK INTER + INTRA:          -5.993
REMARK INTER:                  -5.993
REMARK INTRA:                   0.000
REMARK UNBOUND:                 0.000
REMARK SMILES C=C1CCC[C@]2(C)CC(=O)C(=C(C)C)C[C@@H]12
REMARK SMILES IDX 13 1 12 2 11 3 15 4 16 5 2 6 1 7 3 8 4 9 5 10 6 11 8 12 9 13
REMARK SMILES IDX 10 14 7 15 14 16
REMARK H PARENT
REMARK Flexibility Score: inf
ROOT
ATOM      1  C   UNL     1     -11.650  14.238 -29.098  1.00  0.00     0.039 C 
ATOM      2  C   UNL     1     -12.549  13.579 -28.077  1.00  0.00    -0.070 C 
ATOM      3  C   UNL     1     -13.790  13.119 -28.416  1.00  0.00    -0.006 C 
ATOM      4  C   UNL     1     -14.326  13.274 -29.832  1.00  0.00     0.047 C 
ATOM      5  C   UNL     1     -15.869  13.413 -29.877  1.00  0.00     0.025 C 
ATOM      6  C   UNL     1     -16.470  13.530 -31.278  1.00  0.00    -0.073 C 
ATOM      7  C   UNL     1     -15.747  13.507 -32.414  1.00  0.00     0.008 C 
ATOM      8  C   UNL     1     -17.966  13.727 -31.348  1.00  0.00     0.031 C 
ATOM      9  C   UNL     1     -18.685  12.639 -30.547  1.00  0.00     0.005 C 
ATOM     10  C   UNL     1     -18.130  12.528 -29.116  1.00  0.00     0.008 C 
ATOM     11  C   UNL     1     -16.590  12.286 -29.074  1.00  0.00    -0.018 C 
ATOM     12  C   UNL     1     -16.131  12.359 -27.598  1.00  0.00     0.088 C 
ATOM     13  C   UNL     1     -14.635  12.338 -27.468  1.00  0.00     0.159 C 
ATOM     14  O   UNL     1     -14.120  11.639 -26.555  1.00  0.00    -0.295 OA
ATOM     15  C   UNL     1     -16.270  10.875 -29.643  1.00  0.00     0.012 C 
ATOM     16  C   UNL     1     -12.024  13.488 -26.662  1.00  0.00     0.039 C 
ENDROOT
TORSDOF 0
ENDMDL
MODEL 3
REMARK VINA RESULT:    -5.976      1.698      4.772
REMARK INTER + INTRA:          -5.976
REMARK INTER:                  -5.976
REMARK INTRA:                   0.000
REMARK UNBOUND:                 0.000
REMARK SMILES C=C1CCC[C@]2(C)CC(=O)C(=C(C)C)C[C@@H]12
REMARK SMILES IDX 13 1 12 2 11 3 15 4 16 5 2 6 1 7 3 8 4 9 5 10 6 11 8 12 9 13
REMARK SMILES IDX 10 14 7 15 14 16
REMARK H PARENT
REMARK Flexibility Score: inf
ROOT
ATOM      1  C   UNL     1     -11.682  12.528 -30.502  1.00  0.00     0.039 C 
ATOM      2  C   UNL     1     -12.619  13.424 -31.281  1.00  0.00    -0.070 C 
ATOM      3  C   UNL     1     -13.957  13.459 -31.007  1.00  0.00    -0.006 C 
ATOM      4  C   UNL     1     -14.561  12.580 -29.922  1.00  0.00     0.047 C 
ATOM      5  C   UNL     1     -16.028  12.180 -30.221  1.00  0.00     0.025 C 
ATOM      6  C   UNL     1     -16.702  11.330 -29.145  1.00  0.00    -0.073 C 
ATOM      7  C   UNL     1     -16.104  10.946 -28.001  1.00  0.00     0.008 C 
ATOM      8  C   UNL     1     -18.113  10.875 -29.439  1.00  0.00     0.031 C 
ATOM      9  C   UNL     1     -18.993  12.073 -29.805  1.00  0.00     0.005 C 
ATOM     10  C   UNL     1     -18.359  12.924 -30.919  1.00  0.00     0.008 C 
ATOM     11  C   UNL     1     -16.920  13.412 -30.572  1.00  0.00    -0.018 C 
ATOM     12  C   UNL     1     -16.332  14.108 -31.824  1.00  0.00     0.088 C 
ATOM     13  C   UNL     1     -14.876  14.437 -31.658  1.00  0.00     0.159 C 
ATOM     14  O   UNL     1     -14.461  15.553 -32.067  1.00  0.00    -0.295 OA
ATOM     15  C   UNL     1     -16.985  14.431 -29.401  1.00  0.00     0.012 C 
ATOM     16  C   UNL     1     -12.011  14.244 -32.395  1.00  0.00     0.039 C 
ENDROOT
TORSDOF 0
ENDMDL
MODEL 4
REMARK VINA RESULT:    -5.648      1.490      2.345
REMARK INTER + INTRA:          -5.648
REMARK INTER:                  -5.648
REMARK INTRA:                   0.000
REMARK UNBOUND:                 0.000
REMARK SMILES C=C1CCC[C@]2(C)CC(=O)C(=C(C)C)C[C@@H]12
REMARK SMILES IDX 13 1 12 2 11 3 15 4 16 5 2 6 1 7 3 8 4 9 5 10 6 11 8 12 9 13
REMARK SMILES IDX 10 14 7 15 14 16
REMARK H PARENT
REMARK Flexibility Score: inf
ROOT
ATOM      1  C   UNL     1     -18.318  12.595 -30.784  1.00  0.00     0.039 C 
ATOM      2  C   UNL     1     -17.224  13.504 -31.297  1.00  0.00    -0.070 C 
ATOM      3  C   UNL     1     -15.965  13.467 -30.768  1.00  0.00    -0.006 C 
ATOM      4  C   UNL     1     -15.619  12.524 -29.624  1.00  0.00     0.047 C 
ATOM      5  C   UNL     1     -14.510  13.083 -28.700  1.00  0.00     0.025 C 
ATOM      6  C   UNL     1     -14.091  12.160 -27.555  1.00  0.00    -0.073 C 
ATOM      7  C   UNL     1     -14.615  10.939 -27.340  1.00  0.00     0.008 C 
ATOM      8  C   UNL     1     -13.053  12.707 -26.602  1.00  0.00     0.031 C 
ATOM      9  C   UNL     1     -11.824  13.193 -27.375  1.00  0.00     0.005 C 
ATOM     10  C   UNL     1     -12.211  14.160 -28.508  1.00  0.00     0.008 C 
ATOM     11  C   UNL     1     -13.254  13.556 -29.497  1.00  0.00    -0.018 C 
ATOM     12  C   UNL     1     -13.684  14.670 -30.482  1.00  0.00     0.088 C 
ATOM     13  C   UNL     1     -14.834  14.246 -31.350  1.00  0.00     0.159 C 
ATOM     14  O   UNL     1     -14.811  14.551 -32.572  1.00  0.00    -0.295 OA
ATOM     15  C   UNL     1     -12.602  12.391 -30.293  1.00  0.00     0.012 C 
ATOM     16  C   UNL     1     -17.601  14.477 -32.391  1.00  0.00     0.039 C 
ENDROOT
TORSDOF 0
ENDMDL
MODEL 5
REMARK VINA RESULT:    -5.531      2.182      3.655
REMARK INTER + INTRA:          -5.531
REMARK INTER:                  -5.531
REMARK INTRA:                   0.000
REMARK UNBOUND:                 0.000
REMARK SMILES C=C1CCC[C@]2(C)CC(=O)C(=C(C)C)C[C@@H]12
REMARK SMILES IDX 13 1 12 2 11 3 15 4 16 5 2 6 1 7 3 8 4 9 5 10 6 11 8 12 9 13
REMARK SMILES IDX 10 14 7 15 14 16
REMARK H PARENT
REMARK Flexibility Score: inf
ROOT
ATOM      1  C   UNL     1     -17.843  13.045 -29.124  1.00  0.00     0.039 C 
ATOM      2  C   UNL     1     -16.676  12.371 -28.439  1.00  0.00    -0.070 C 
ATOM      3  C   UNL     1     -15.389  12.755 -28.688  1.00  0.00    -0.006 C 
ATOM      4  C   UNL     1     -15.077  13.864 -29.684  1.00  0.00     0.047 C 
ATOM      5  C   UNL     1     -13.706  13.676 -30.381  1.00  0.00     0.025 C 
ATOM      6  C   UNL     1     -13.320  14.782 -31.364  1.00  0.00    -0.073 C 
ATOM      7  C   UNL     1     -14.082  15.861 -31.623  1.00  0.00     0.008 C 
ATOM      8  C   UNL     1     -12.015  14.593 -32.102  1.00  0.00     0.031 C 
ATOM      9  C   UNL     1     -10.876  14.333 -31.113  1.00  0.00     0.005 C 
ATOM     10  C   UNL     1     -11.219  13.193 -30.139  1.00  0.00     0.008 C 
ATOM     11  C   UNL     1     -12.550  13.433 -29.362  1.00  0.00    -0.018 C 
ATOM     12  C   UNL     1     -12.868  12.156 -28.547  1.00  0.00     0.088 C 
ATOM     13  C   UNL     1     -14.232  12.209 -27.921  1.00  0.00     0.159 C 
ATOM     14  O   UNL     1     -14.368  11.797 -26.738  1.00  0.00    -0.295 OA
ATOM     15  C   UNL     1     -12.375  14.632 -28.389  1.00  0.00     0.012 C 
ATOM     16  C   UNL     1     -17.000  11.232 -27.499  1.00  0.00     0.039 C 
ENDROOT
TORSDOF 0
ENDMDL
MODEL 6
REMARK VINA RESULT:    -5.453      1.860      3.253
REMARK INTER + INTRA:          -5.453
REMARK INTER:                  -5.453
REMARK INTRA:                   0.000
REMARK UNBOUND:                 0.000
REMARK SMILES C=C1CCC[C@]2(C)CC(=O)C(=C(C)C)C[C@@H]12
REMARK SMILES IDX 13 1 12 2 11 3 15 4 16 5 2 6 1 7 3 8 4 9 5 10 6 11 8 12 9 13
REMARK SMILES IDX 10 14 7 15 14 16
REMARK H PARENT
REMARK Flexibility Score: inf
ROOT
ATOM      1  C   UNL     1     -18.482  13.503 -29.378  1.00  0.00     0.039 C 
ATOM      2  C   UNL     1     -17.465  12.430 -29.056  1.00  0.00    -0.070 C 
ATOM      3  C   UNL     1     -16.127  12.649 -29.223  1.00  0.00    -0.006 C 
ATOM      4  C   UNL     1     -15.607  13.975 -29.760  1.00  0.00     0.047 C 
ATOM      5  C   UNL     1     -14.287  13.824 -30.557  1.00  0.00     0.025 C 
ATOM      6  C   UNL     1     -13.695  15.130 -31.088  1.00  0.00    -0.073 C 
ATOM      7  C   UNL     1     -14.244  16.343 -30.889  1.00  0.00     0.008 C 
ATOM      8  C   UNL     1     -12.439  15.004 -31.919  1.00  0.00     0.031 C 
ATOM      9  C   UNL     1     -11.377  14.202 -31.162  1.00  0.00     0.005 C 
ATOM     10  C   UNL     1     -11.933  12.861 -30.654  1.00  0.00     0.008 C 
ATOM     11  C   UNL     1     -13.205  13.023 -29.767  1.00  0.00    -0.018 C 
ATOM     12  C   UNL     1     -13.761  11.612 -29.459  1.00  0.00     0.088 C 
ATOM     13  C   UNL     1     -15.098  11.665 -28.778  1.00  0.00     0.159 C 
ATOM     14  O   UNL     1     -15.319  10.875 -27.822  1.00  0.00    -0.295 OA
ATOM     15  C   UNL     1     -12.824  13.727 -28.435  1.00  0.00     0.012 C 
ATOM     16  C   UNL     1     -18.002  11.100 -28.581  1.00  0.00     0.039 C 
ENDROOT
TORSDOF 0
ENDMDL
MODEL 7
REMARK VINA RESULT:    -5.438      2.129      4.803
REMARK INTER + INTRA:          -5.438
REMARK INTER:                  -5.438
REMARK INTRA:                   0.000
REMARK UNBOUND:                 0.000
REMARK SMILES C=C1CCC[C@]2(C)CC(=O)C(=C(C)C)C[C@@H]12
REMARK SMILES IDX 13 1 12 2 11 3 15 4 16 5 2 6 1 7 3 8 4 9 5 10 6 11 8 12 9 13
REMARK SMILES IDX 10 14 7 15 14 16
REMARK H PARENT
REMARK Flexibility Score: inf
ROOT
ATOM      1  C   UNL     1     -13.116  11.437 -26.717  1.00  0.00     0.039 C 
ATOM      2  C   UNL     1     -12.514  11.922 -28.016  1.00  0.00    -0.070 C 
ATOM      3  C   UNL     1     -13.264  12.602 -28.934  1.00  0.00    -0.006 C 
ATOM      4  C   UNL     1     -14.741  12.879 -28.694  1.00  0.00     0.047 C 
ATOM      5  C   UNL     1     -15.560  12.948 -30.007  1.00  0.00     0.025 C 
ATOM      6  C   UNL     1     -17.046  13.264 -29.831  1.00  0.00    -0.073 C 
ATOM      7  C   UNL     1     -17.634  13.485 -28.640  1.00  0.00     0.008 C 
ATOM      8  C   UNL     1     -17.879  13.278 -31.092  1.00  0.00     0.031 C 
ATOM      9  C   UNL     1     -17.253  14.208 -32.134  1.00  0.00     0.005 C 
ATOM     10  C   UNL     1     -15.767  13.883 -32.365  1.00  0.00     0.008 C 
ATOM     11  C   UNL     1     -14.924  13.914 -31.054  1.00  0.00    -0.018 C 
ATOM     12  C   UNL     1     -13.498  13.414 -31.387  1.00  0.00     0.088 C 
ATOM     13  C   UNL     1     -12.664  13.216 -30.154  1.00  0.00     0.159 C 
ATOM     14  O   UNL     1     -11.462  13.592 -30.173  1.00  0.00    -0.295 OA
ATOM     15  C   UNL     1     -14.845  15.372 -30.521  1.00  0.00     0.012 C 
ATOM     16  C   UNL     1     -11.062  11.586 -28.265  1.00  0.00     0.039 C 
ENDROOT
TORSDOF 0
ENDMDL
MODEL 8
REMARK VINA RESULT:    -5.414      2.013      5.419
REMARK INTER + INTRA:          -5.414
REMARK INTER:                  -5.414
REMARK INTRA:                   0.000
REMARK UNBOUND:                 0.000
REMARK SMILES C=C1CCC[C@]2(C)CC(=O)C(=C(C)C)C[C@@H]12
REMARK SMILES IDX 13 1 12 2 11 3 15 4 16 5 2 6 1 7 3 8 4 9 5 10 6 11 8 12 9 13
REMARK SMILES IDX 10 14 7 15 14 16
REMARK H PARENT
REMARK Flexibility Score: inf
ROOT
ATOM      1  C   UNL     1     -12.840  15.395 -31.971  1.00  0.00     0.039 C 
ATOM      2  C   UNL     1     -12.587  14.534 -30.754  1.00  0.00    -0.070 C 
ATOM      3  C   UNL     1     -13.570  13.746 -30.225  1.00  0.00    -0.006 C 
ATOM      4  C   UNL     1     -14.968  13.721 -30.828  1.00  0.00     0.047 C 
ATOM      5  C   UNL     1     -16.069  13.432 -29.777  1.00  0.00     0.025 C 
ATOM      6  C   UNL     1     -17.491  13.354 -30.332  1.00  0.00    -0.073 C 
ATOM      7  C   UNL     1     -17.804  13.509 -31.632  1.00  0.00     0.008 C 
ATOM      8  C   UNL     1     -18.591  13.133 -29.319  1.00  0.00     0.031 C 
ATOM      9  C   UNL     1     -18.284  11.905 -28.458  1.00  0.00     0.005 C 
ATOM     10  C   UNL     1     -16.873  11.976 -27.850  1.00  0.00     0.008 C 
ATOM     11  C   UNL     1     -15.754  12.166 -28.921  1.00  0.00    -0.018 C 
ATOM     12  C   UNL     1     -14.413  12.389 -28.181  1.00  0.00     0.088 C 
ATOM     13  C   UNL     1     -13.307  12.781 -29.119  1.00  0.00     0.159 C 
ATOM     14  O   UNL     1     -12.169  12.267 -28.956  1.00  0.00    -0.295 OA
ATOM     15  C   UNL     1     -15.651  10.886 -29.796  1.00  0.00     0.012 C 
ATOM     16  C   UNL     1     -11.211  14.617 -30.132  1.00  0.00     0.039 C 
ENDROOT
TORSDOF 0
ENDMDL
MODEL 9
REMARK VINA RESULT:    -4.548      2.304      4.819
REMARK INTER + INTRA:          -4.548
REMARK INTER:                  -4.548
REMARK INTRA:                   0.000
REMARK UNBOUND:                 0.000
REMARK SMILES C=C1CCC[C@]2(C)CC(=O)C(=C(C)C)C[C@@H]12
REMARK SMILES IDX 13 1 12 2 11 3 15 4 16 5 2 6 1 7 3 8 4 9 5 10 6 11 8 12 9 13
REMARK SMILES IDX 10 14 7 15 14 16
REMARK H PARENT
REMARK Flexibility Score: inf
ROOT
ATOM      1  C   UNL     1     -15.134  14.253 -32.871  1.00  0.00     0.039 C 
ATOM      2  C   UNL     1     -14.037  14.377 -31.838  1.00  0.00    -0.070 C 
ATOM      3  C   UNL     1     -14.065  13.650 -30.682  1.00  0.00    -0.006 C 
ATOM      4  C   UNL     1     -15.215  12.701 -30.378  1.00  0.00     0.047 C 
ATOM      5  C   UNL     1     -15.490  12.558 -28.860  1.00  0.00     0.025 C 
ATOM      6  C   UNL     1     -16.610  11.585 -28.491  1.00  0.00    -0.073 C 
ATOM      7  C   UNL     1     -17.320  10.876 -29.388  1.00  0.00     0.008 C 
ATOM      8  C   UNL     1     -16.939  11.473 -27.020  1.00  0.00     0.031 C 
ATOM      9  C   UNL     1     -15.674  11.166 -26.213  1.00  0.00     0.005 C 
ATOM     10  C   UNL     1     -14.543  12.158 -26.532  1.00  0.00     0.008 C 
ATOM     11  C   UNL     1     -14.198  12.225 -28.051  1.00  0.00    -0.018 C 
ATOM     12  C   UNL     1     -13.174  13.366 -28.262  1.00  0.00     0.088 C 
ATOM     13  C   UNL     1     -12.927  13.645 -29.718  1.00  0.00     0.159 C 
ATOM     14  O   UNL     1     -11.746  13.856 -30.099  1.00  0.00    -0.295 OA
ATOM     15  C   UNL     1     -13.566  10.878 -28.500  1.00  0.00     0.012 C 
ATOM     16  C   UNL     1     -12.934  15.369 -32.129  1.00  0.00     0.039 C 
ENDROOT
TORSDOF 0
ENDMDL
