MODEL 1
REMARK VINA RESULT:    -2.642      0.000      0.000
REMARK INTER + INTRA:          -4.230
REMARK INTER:                  -4.032
REMARK INTRA:                  -0.198
REMARK UNBOUND:                -0.198
REMARK SMILES CC1=CCC[C@@H](C)C(=O)C[C@@H](C(C)C)C(=O)C1
REMARK SMILES IDX 8 1 9 2 6 3 7 4 5 5 4 6 3 7 2 8 1 9 10 11 11 12 15 13 16 14
REMARK SMILES IDX 17 15 12 17 13 18 14 19
REMARK H PARENT
REMARK Flexibility Score: 70.00
ROOT
ATOM      1  C   UNL     1      54.116   5.120   4.614  1.00  0.00     0.136 C 
ATOM      2  O   UNL     1      54.326   5.819   5.595  1.00  0.00    -0.299 OA
ENDROOT
BRANCH   1   3
ATOM      3  C   UNL     1      53.971   5.760   3.243  1.00  0.00     0.053 C 
ATOM      4  C   UNL     1      54.407   7.233   3.281  1.00  0.00     0.016 C 
BRANCH   3   5
ATOM      5  C   UNL     1      52.516   5.630   2.728  1.00  0.00     0.015 C 
BRANCH   5   6
ATOM      6  C   UNL     1      52.447   5.027   1.310  1.00  0.00     0.028 C 
BRANCH   6   7
ATOM      7  C   UNL     1      51.380   3.964   1.216  1.00  0.00    -0.028 C 
ATOM      8  C   UNL     1      51.604   2.635   1.368  1.00  0.00    -0.070 CG0
ATOM      9  C   UNL     1      50.445   1.676   1.280  1.00  0.00     0.039 C 
ATOM     10  G   UNL     1      52.988   2.047   1.592  1.00  0.00     0.000 G0
ENDBRANCH   6   7
ENDBRANCH   5   6
ENDBRANCH   3   5
ENDBRANCH   1   3
BRANCH   1  11
ATOM     11  C   UNL     1      53.984   3.624   4.791  1.00  0.00     0.087 C 
BRANCH  11  12
ATOM     12  C   UNL     1      54.501   2.792   3.582  1.00  0.00     0.066 C 
BRANCH  12  13
ATOM     13  C   UNL     1      53.387   1.915   3.024  1.00  0.00     0.140 C 
ATOM     14  O   UNL     1      52.851   1.084   3.746  1.00  0.00    -0.299 OA
BRANCH  13  15
ATOM     15  C   UNL     1      52.983   2.010   1.575  1.00  0.00     0.106 CG0
ATOM     16  G   UNL     1      51.602   2.623   1.402  1.00  0.00     0.000 G0
ENDBRANCH  13  15
ENDBRANCH  12  13
BRANCH  12  17
ATOM     17  C   UNL     1      55.795   1.957   3.871  1.00  0.00    -0.006 C 
ATOM     18  C   UNL     1      56.746   1.988   2.659  1.00  0.00     0.008 C 
ATOM     19  C   UNL     1      56.559   2.456   5.112  1.00  0.00     0.008 C 
ENDBRANCH  12  17
ENDBRANCH  11  12
ENDBRANCH   1  11
TORSDOF 1
ENDMDL
MODEL 2
REMARK VINA RESULT:    -2.542      4.482      7.315
REMARK INTER + INTRA:          -4.078
REMARK INTER:                  -3.686
REMARK INTRA:                  -0.392
REMARK UNBOUND:                -0.198
REMARK SMILES CC1=CCC[C@@H](C)C(=O)C[C@@H](C(C)C)C(=O)C1
REMARK SMILES IDX 8 1 9 2 6 3 7 4 5 5 4 6 3 7 2 8 1 9 10 11 11 12 15 13 16 14
REMARK SMILES IDX 17 15 12 17 13 18 14 19
REMARK H PARENT
REMARK Flexibility Score: 70.00
ROOT
ATOM      1  C   UNL     1      54.907   5.163   5.154  1.00  0.00     0.136 C 
ATOM      2  O   UNL     1      54.042   4.299   5.151  1.00  0.00    -0.299 OA
ENDROOT
BRANCH   1   3
ATOM      3  C   UNL     1      56.292   4.852   4.609  1.00  0.00     0.053 C 
ATOM      4  C   UNL     1      56.207   4.348   3.161  1.00  0.00     0.016 C 
BRANCH   3   5
ATOM      5  C   UNL     1      57.018   3.821   5.509  1.00  0.00     0.015 C 
BRANCH   5   6
ATOM      6  C   UNL     1      58.203   4.441   6.276  1.00  0.00     0.028 C 
BRANCH   6   7
ATOM      7  C   UNL     1      57.831   4.757   7.703  1.00  0.00    -0.028 C 
ATOM      8  C   UNL     1      57.577   6.003   8.173  1.00  0.00    -0.070 CG0
ATOM      9  C   UNL     1      57.185   6.183   9.618  1.00  0.00     0.039 C 
ATOM     10  G   UNL     1      57.700   7.254   7.317  1.00  0.00     0.000 G0
ENDBRANCH   6   7
ENDBRANCH   5   6
ENDBRANCH   3   5
ENDBRANCH   1   3
BRANCH   1  11
ATOM     11  C   UNL     1      54.585   6.526   5.722  1.00  0.00     0.087 C 
BRANCH  11  12
ATOM     12  C   UNL     1      55.732   7.566   5.574  1.00  0.00     0.066 C 
BRANCH  12  13
ATOM     13  C   UNL     1      56.368   7.855   6.928  1.00  0.00     0.140 C 
ATOM     14  O   UNL     1      55.816   8.623   7.705  1.00  0.00    -0.299 OA
BRANCH  13  15
ATOM     15  C   UNL     1      57.703   7.259   7.296  1.00  0.00     0.106 CG0
ATOM     16  G   UNL     1      57.561   6.028   8.176  1.00  0.00     0.000 G0
ENDBRANCH  13  15
ENDBRANCH  12  13
BRANCH  12  17
ATOM     17  C   UNL     1      55.322   8.889   4.842  1.00  0.00    -0.006 C 
ATOM     18  C   UNL     1      56.555   9.578   4.227  1.00  0.00     0.008 C 
ATOM     19  C   UNL     1      54.281   8.655   3.731  1.00  0.00     0.008 C 
ENDBRANCH  12  17
ENDBRANCH  11  12
ENDBRANCH   1  11
TORSDOF 1
ENDMDL
MODEL 3
REMARK VINA RESULT:    -2.335     12.072     14.682
REMARK INTER + INTRA:          -3.763
REMARK INTER:                  -3.466
REMARK INTRA:                  -0.297
REMARK UNBOUND:                -0.198
REMARK SMILES CC1=CCC[C@@H](C)C(=O)C[C@@H](C(C)C)C(=O)C1
REMARK SMILES IDX 8 1 9 2 6 3 7 4 5 5 4 6 3 7 2 8 1 9 10 11 11 12 15 13 16 14
REMARK SMILES IDX 17 15 12 17 13 18 14 19
REMARK H PARENT
REMARK Flexibility Score: 70.00
ROOT
ATOM      1  C   UNL     1      61.328  17.280   1.429  1.00  0.00     0.136 C 
ATOM      2  O   UNL     1      61.123  17.371   2.631  1.00  0.00    -0.299 OA
ENDROOT
BRANCH   1   3
ATOM      3  C   UNL     1      60.227  17.637   0.443  1.00  0.00     0.053 C 
ATOM      4  C   UNL     1      60.025  19.158   0.381  1.00  0.00     0.016 C 
BRANCH   3   5
ATOM      5  C   UNL     1      58.905  16.920   0.812  1.00  0.00     0.015 C 
BRANCH   5   6
ATOM      6  C   UNL     1      58.845  15.479   0.266  1.00  0.00     0.028 C 
BRANCH   6   7
ATOM      7  C   UNL     1      59.001  14.465   1.371  1.00  0.00    -0.028 C 
ATOM      8  C   UNL     1      60.018  13.573   1.459  1.00  0.00    -0.070 CG0
ATOM      9  C   UNL     1      60.075  12.629   2.633  1.00  0.00     0.039 C 
ATOM     10  G   UNL     1      61.105  13.447   0.403  1.00  0.00     0.000 G0
ENDBRANCH   6   7
ENDBRANCH   5   6
ENDBRANCH   3   5
ENDBRANCH   1   3
BRANCH   1  11
ATOM     11  C   UNL     1      62.674  16.789   0.947  1.00  0.00     0.087 C 
BRANCH  11  12
ATOM     12  C   UNL     1      62.598  15.588  -0.039  1.00  0.00     0.066 C 
BRANCH  12  13
ATOM     13  C   UNL     1      62.323  14.295   0.716  1.00  0.00     0.140 C 
ATOM     14  O   UNL     1      63.122  13.900   1.555  1.00  0.00    -0.299 OA
BRANCH  13  15
ATOM     15  C   UNL     1      61.110  13.458   0.396  1.00  0.00     0.106 CG0
ATOM     16  G   UNL     1      60.034  13.572   1.464  1.00  0.00     0.000 G0
ENDBRANCH  13  15
ENDBRANCH  12  13
BRANCH  12  17
ATOM     17  C   UNL     1      63.838  15.443  -0.986  1.00  0.00    -0.006 C 
ATOM     18  C   UNL     1      63.402  15.459  -2.464  1.00  0.00     0.008 C 
ATOM     19  C   UNL     1      64.885  16.552  -0.768  1.00  0.00     0.008 C 
ENDBRANCH  12  17
ENDBRANCH  11  12
ENDBRANCH   1  11
TORSDOF 1
ENDMDL
MODEL 4
REMARK VINA RESULT:    -2.335     13.232     15.706
REMARK INTER + INTRA:          -3.762
REMARK INTER:                  -3.684
REMARK INTRA:                  -0.078
REMARK UNBOUND:                -0.198
REMARK SMILES CC1=CCC[C@@H](C)C(=O)C[C@@H](C(C)C)C(=O)C1
REMARK SMILES IDX 8 1 9 2 6 3 7 4 5 5 4 6 3 7 2 8 1 9 10 11 11 12 15 13 16 14
REMARK SMILES IDX 17 15 12 17 13 18 14 19
REMARK H PARENT
REMARK Flexibility Score: 70.00
ROOT
ATOM      1  C   UNL     1      62.452  13.632  -1.290  1.00  0.00     0.136 C 
ATOM      2  O   UNL     1      62.879  12.630  -1.844  1.00  0.00    -0.299 OA
ENDROOT
BRANCH   1   3
ATOM      3  C   UNL     1      62.987  15.001  -1.680  1.00  0.00     0.053 C 
ATOM      4  C   UNL     1      63.131  15.114  -3.205  1.00  0.00     0.016 C 
BRANCH   3   5
ATOM      5  C   UNL     1      64.336  15.286  -0.977  1.00  0.00     0.015 C 
BRANCH   5   6
ATOM      6  C   UNL     1      64.273  16.526  -0.062  1.00  0.00     0.028 C 
BRANCH   6   7
ATOM      7  C   UNL     1      64.844  16.233   1.303  1.00  0.00    -0.028 C 
ATOM      8  C   UNL     1      64.101  15.994   2.412  1.00  0.00    -0.070 CG0
ATOM      9  C   UNL     1      64.795  15.684   3.714  1.00  0.00     0.039 C 
ATOM     10  G   UNL     1      62.582  16.056   2.422  1.00  0.00     0.000 G0
ENDBRANCH   6   7
ENDBRANCH   5   6
ENDBRANCH   3   5
ENDBRANCH   1   3
BRANCH   1  11
ATOM     11  C   UNL     1      61.410  13.486  -0.205  1.00  0.00     0.087 C 
BRANCH  11  12
ATOM     12  C   UNL     1      61.155  14.785   0.613  1.00  0.00     0.066 C 
BRANCH  12  13
ATOM     13  C   UNL     1      61.965  14.770   1.903  1.00  0.00     0.140 C 
ATOM     14  O   UNL     1      62.074  13.730   2.539  1.00  0.00    -0.299 OA
BRANCH  13  15
ATOM     15  C   UNL     1      62.580  16.037   2.442  1.00  0.00     0.106 CG0
ATOM     16  G   UNL     1      64.100  15.986   2.439  1.00  0.00     0.000 G0
ENDBRANCH  13  15
ENDBRANCH  12  13
BRANCH  12  17
ATOM     17  C   UNL     1      59.645  15.094   0.891  1.00  0.00    -0.006 C 
ATOM     18  C   UNL     1      59.361  16.602   0.751  1.00  0.00     0.008 C 
ATOM     19  C   UNL     1      58.698  14.323  -0.048  1.00  0.00     0.008 C 
ENDBRANCH  12  17
ENDBRANCH  11  12
ENDBRANCH   1  11
TORSDOF 1
ENDMDL
MODEL 5
REMARK VINA RESULT:    -2.331      2.199      4.371
REMARK INTER + INTRA:          -3.756
REMARK INTER:                  -3.473
REMARK INTRA:                  -0.282
REMARK UNBOUND:                -0.198
REMARK SMILES CC1=CCC[C@@H](C)C(=O)C[C@@H](C(C)C)C(=O)C1
REMARK SMILES IDX 8 1 9 2 6 3 7 4 5 5 4 6 3 7 2 8 1 9 10 11 11 12 15 13 16 14
REMARK SMILES IDX 17 15 12 17 13 18 14 19
REMARK H PARENT
REMARK Flexibility Score: 70.00
ROOT
ATOM      1  C   UNL     1      52.984   5.797   1.342  1.00  0.00     0.136 C 
ATOM      2  O   UNL     1      53.162   6.686   0.522  1.00  0.00    -0.299 OA
ENDROOT
BRANCH   1   3
ATOM      3  C   UNL     1      52.340   6.118   2.681  1.00  0.00     0.053 C 
ATOM      4  C   UNL     1      51.145   7.065   2.497  1.00  0.00     0.016 C 
BRANCH   3   5
ATOM      5  C   UNL     1      53.378   6.724   3.658  1.00  0.00     0.015 C 
BRANCH   5   6
ATOM      6  C   UNL     1      53.643   5.812   4.873  1.00  0.00     0.028 C 
BRANCH   6   7
ATOM      7  C   UNL     1      55.094   5.407   4.951  1.00  0.00    -0.028 C 
ATOM      8  C   UNL     1      55.564   4.171   4.652  1.00  0.00    -0.070 CG0
ATOM      9  C   UNL     1      57.045   3.901   4.742  1.00  0.00     0.039 C 
ATOM     10  G   UNL     1      54.662   3.012   4.258  1.00  0.00     0.000 G0
ENDBRANCH   6   7
ENDBRANCH   5   6
ENDBRANCH   3   5
ENDBRANCH   1   3
BRANCH   1  11
ATOM     11  C   UNL     1      53.429   4.391   1.012  1.00  0.00     0.087 C 
BRANCH  11  12
ATOM     12  C   UNL     1      53.150   3.353   2.137  1.00  0.00     0.066 C 
BRANCH  12  13
ATOM     13  C   UNL     1      54.455   2.889   2.771  1.00  0.00     0.140 C 
ATOM     14  O   UNL     1      55.319   2.375   2.072  1.00  0.00    -0.299 OA
BRANCH  13  15
ATOM     15  C   UNL     1      54.669   2.993   4.259  1.00  0.00     0.106 CG0
ATOM     16  G   UNL     1      55.579   4.153   4.630  1.00  0.00     0.000 G0
ENDBRANCH  13  15
ENDBRANCH  12  13
BRANCH  12  17
ATOM     17  C   UNL     1      52.265   2.137   1.697  1.00  0.00    -0.006 C 
ATOM     18  C   UNL     1      51.941   1.233   2.901  1.00  0.00     0.008 C 
ATOM     19  C   UNL     1      50.944   2.573   1.036  1.00  0.00     0.008 C 
ENDBRANCH  12  17
ENDBRANCH  11  12
ENDBRANCH   1  11
TORSDOF 1
ENDMDL
MODEL 6
REMARK VINA RESULT:    -2.294     12.227     14.963
REMARK INTER + INTRA:          -3.699
REMARK INTER:                  -3.389
REMARK INTRA:                  -0.310
REMARK UNBOUND:                -0.198
REMARK SMILES CC1=CCC[C@@H](C)C(=O)C[C@@H](C(C)C)C(=O)C1
REMARK SMILES IDX 8 1 9 2 6 3 7 4 5 5 4 6 3 7 2 8 1 9 10 11 11 12 15 13 16 14
REMARK SMILES IDX 17 15 12 17 13 18 14 19
REMARK H PARENT
REMARK Flexibility Score: 70.00
ROOT
ATOM      1  C   UNL     1      62.120  12.174  -0.259  1.00  0.00     0.136 C 
ATOM      2  O   UNL     1      62.962  11.292  -0.342  1.00  0.00    -0.299 OA
ENDROOT
BRANCH   1   3
ATOM      3  C   UNL     1      61.601  12.849  -1.518  1.00  0.00     0.053 C 
ATOM      4  C   UNL     1      60.974  11.819  -2.469  1.00  0.00     0.016 C 
BRANCH   3   5
ATOM      5  C   UNL     1      62.732  13.635  -2.227  1.00  0.00     0.015 C 
BRANCH   5   6
ATOM      6  C   UNL     1      62.696  15.142  -1.900  1.00  0.00     0.028 C 
BRANCH   6   7
ATOM      7  C   UNL     1      63.921  15.568  -1.131  1.00  0.00    -0.028 C 
ATOM      8  C   UNL     1      63.907  16.020   0.148  1.00  0.00    -0.070 CG0
ATOM      9  C   UNL     1      65.207  16.388   0.816  1.00  0.00     0.039 C 
ATOM     10  G   UNL     1      62.628  16.211   0.947  1.00  0.00     0.000 G0
ENDBRANCH   6   7
ENDBRANCH   5   6
ENDBRANCH   3   5
ENDBRANCH   1   3
BRANCH   1  11
ATOM     11  C   UNL     1      61.625  12.593   1.107  1.00  0.00     0.087 C 
BRANCH  11  12
ATOM     12  C   UNL     1      61.133  14.066   1.183  1.00  0.00     0.066 C 
BRANCH  12  13
ATOM     13  C   UNL     1      62.239  14.971   1.710  1.00  0.00     0.140 C 
ATOM     14  O   UNL     1      62.776  14.712   2.779  1.00  0.00    -0.299 OA
BRANCH  13  15
ATOM     15  C   UNL     1      62.635  16.221   0.965  1.00  0.00     0.106 CG0
ATOM     16  G   UNL     1      63.910  16.031   0.160  1.00  0.00     0.000 G0
ENDBRANCH  13  15
ENDBRANCH  12  13
BRANCH  12  17
ATOM     17  C   UNL     1      59.800  14.268   1.981  1.00  0.00    -0.006 C 
ATOM     18  C   UNL     1      59.004  15.463   1.422  1.00  0.00     0.008 C 
ATOM     19  C   UNL     1      58.899  13.020   1.957  1.00  0.00     0.008 C 
ENDBRANCH  12  17
ENDBRANCH  11  12
ENDBRANCH   1  11
TORSDOF 1
ENDMDL
MODEL 7
REMARK VINA RESULT:    -2.266     14.067     15.790
REMARK INTER + INTRA:          -3.657
REMARK INTER:                  -3.222
REMARK INTRA:                  -0.435
REMARK UNBOUND:                -0.198
REMARK SMILES CC1=CCC[C@@H](C)C(=O)C[C@@H](C(C)C)C(=O)C1
REMARK SMILES IDX 8 1 9 2 6 3 7 4 5 5 4 6 3 7 2 8 1 9 10 11 11 12 15 13 16 14
REMARK SMILES IDX 17 15 12 17 13 18 14 19
REMARK H PARENT
REMARK Flexibility Score: 70.00
ROOT
ATOM      1  C   UNL     1      63.992  15.513  -0.169  1.00  0.00     0.136 C 
ATOM      2  O   UNL     1      64.771  16.022  -0.961  1.00  0.00    -0.299 OA
ENDROOT
BRANCH   1   3
ATOM      3  C   UNL     1      62.671  14.944  -0.663  1.00  0.00     0.053 C 
ATOM      4  C   UNL     1      62.893  14.030  -1.877  1.00  0.00     0.016 C 
BRANCH   3   5
ATOM      5  C   UNL     1      61.676  16.080  -1.003  1.00  0.00     0.015 C 
BRANCH   5   6
ATOM      6  C   UNL     1      60.624  16.293   0.105  1.00  0.00     0.028 C 
BRANCH   6   7
ATOM      7  C   UNL     1      60.906  17.544   0.899  1.00  0.00    -0.028 C 
ATOM      8  C   UNL     1      61.240  17.561   2.213  1.00  0.00    -0.070 CG0
ATOM      9  C   UNL     1      61.526  18.880   2.885  1.00  0.00     0.039 C 
ATOM     10  G   UNL     1      61.310  16.306   3.068  1.00  0.00     0.000 G0
ENDBRANCH   6   7
ENDBRANCH   5   6
ENDBRANCH   3   5
ENDBRANCH   1   3
BRANCH   1  11
ATOM     11  C   UNL     1      64.351  15.480   1.299  1.00  0.00     0.087 C 
BRANCH  11  12
ATOM     12  C   UNL     1      63.283  14.798   2.202  1.00  0.00     0.066 C 
BRANCH  12  13
ATOM     13  C   UNL     1      62.725  15.793   3.212  1.00  0.00     0.140 C 
ATOM     14  O   UNL     1      63.407  16.128   4.172  1.00  0.00    -0.299 OA
BRANCH  13  15
ATOM     15  C   UNL     1      61.319  16.319   3.081  1.00  0.00     0.106 CG0
ATOM     16  G   UNL     1      61.248  17.562   2.209  1.00  0.00     0.000 G0
ENDBRANCH  13  15
ENDBRANCH  12  13
BRANCH  12  17
ATOM     17  C   UNL     1      63.765  13.482   2.902  1.00  0.00    -0.006 C 
ATOM     18  C   UNL     1      63.385  12.247   2.064  1.00  0.00     0.008 C 
ATOM     19  C   UNL     1      65.285  13.464   3.148  1.00  0.00     0.008 C 
ENDBRANCH  12  17
ENDBRANCH  11  12
ENDBRANCH   1  11
TORSDOF 1
ENDMDL
MODEL 8
REMARK VINA RESULT:    -2.243     13.015     15.173
REMARK INTER + INTRA:          -3.622
REMARK INTER:                  -3.445
REMARK INTRA:                  -0.177
REMARK UNBOUND:                -0.198
REMARK SMILES CC1=CCC[C@@H](C)C(=O)C[C@@H](C(C)C)C(=O)C1
REMARK SMILES IDX 8 1 9 2 6 3 7 4 5 5 4 6 3 7 2 8 1 9 10 11 11 12 15 13 16 14
REMARK SMILES IDX 17 15 12 17 13 18 14 19
REMARK H PARENT
REMARK Flexibility Score: 70.00
ROOT
ATOM      1  C   UNL     1      61.371  16.416  -0.142  1.00  0.00     0.136 C 
ATOM      2  O   UNL     1      62.264  16.322  -0.973  1.00  0.00    -0.299 OA
ENDROOT
BRANCH   1   3
ATOM      3  C   UNL     1      61.034  15.230   0.747  1.00  0.00     0.053 C 
ATOM      4  C   UNL     1      62.270  14.345   0.966  1.00  0.00     0.016 C 
BRANCH   3   5
ATOM      5  C   UNL     1      59.867  14.408   0.147  1.00  0.00     0.015 C 
BRANCH   5   6
ATOM      6  C   UNL     1      58.655  14.327   1.096  1.00  0.00     0.028 C 
BRANCH   6   7
ATOM      7  C   UNL     1      57.390  14.782   0.413  1.00  0.00    -0.028 C 
ATOM      8  C   UNL     1      56.804  15.990   0.604  1.00  0.00    -0.070 CG0
ATOM      9  C   UNL     1      55.554  16.336  -0.164  1.00  0.00     0.039 C 
ATOM     10  G   UNL     1      57.329  17.019   1.593  1.00  0.00     0.000 G0
ENDBRANCH   6   7
ENDBRANCH   5   6
ENDBRANCH   3   5
ENDBRANCH   1   3
BRANCH   1  11
ATOM     11  C   UNL     1      60.603  17.713  -0.031  1.00  0.00     0.087 C 
BRANCH  11  12
ATOM     12  C   UNL     1      59.797  17.866   1.290  1.00  0.00     0.066 C 
BRANCH  12  13
ATOM     13  C   UNL     1      58.309  17.996   0.995  1.00  0.00     0.140 C 
ATOM     14  O   UNL     1      57.907  18.921   0.301  1.00  0.00    -0.299 OA
BRANCH  13  15
ATOM     15  C   UNL     1      57.315  17.039   1.602  1.00  0.00     0.106 CG0
ATOM     16  G   UNL     1      56.825  16.005   0.600  1.00  0.00     0.000 G0
ENDBRANCH  13  15
ENDBRANCH  12  13
BRANCH  12  17
ATOM     17  C   UNL     1      60.296  19.016   2.229  1.00  0.00    -0.006 C 
ATOM     18  C   UNL     1      61.580  18.598   2.971  1.00  0.00     0.008 C 
ATOM     19  C   UNL     1      60.570  20.327   1.469  1.00  0.00     0.008 C 
ENDBRANCH  12  17
ENDBRANCH  11  12
ENDBRANCH   1  11
TORSDOF 1
ENDMDL
MODEL 9
REMARK VINA RESULT:    -2.171     13.864     15.369
REMARK INTER + INTRA:          -3.512
REMARK INTER:                  -3.125
REMARK INTRA:                  -0.386
REMARK UNBOUND:                -0.198
REMARK SMILES CC1=CCC[C@@H](C)C(=O)C[C@@H](C(C)C)C(=O)C1
REMARK SMILES IDX 8 1 9 2 6 3 7 4 5 5 4 6 3 7 2 8 1 9 10 11 11 12 15 13 16 14
REMARK SMILES IDX 17 15 12 17 13 18 14 19
REMARK H PARENT
REMARK Flexibility Score: 70.00
ROOT
ATOM      1  C   UNL     1      63.775  14.861   1.946  1.00  0.00     0.136 C 
ATOM      2  O   UNL     1      64.323  14.355   2.915  1.00  0.00    -0.299 OA
ENDROOT
BRANCH   1   3
ATOM      3  C   UNL     1      63.988  16.334   1.637  1.00  0.00     0.053 C 
ATOM      4  C   UNL     1      65.430  16.589   1.172  1.00  0.00     0.016 C 
BRANCH   3   5
ATOM      5  C   UNL     1      63.643  17.209   2.867  1.00  0.00     0.015 C 
BRANCH   5   6
ATOM      6  C   UNL     1      62.224  16.936   3.404  1.00  0.00     0.028 C 
BRANCH   6   7
ATOM      7  C   UNL     1      61.175  17.609   2.555  1.00  0.00    -0.028 C 
ATOM      8  C   UNL     1      60.258  16.953   1.802  1.00  0.00    -0.070 CG0
ATOM      9  C   UNL     1      59.241  17.744   1.019  1.00  0.00     0.039 C 
ATOM     10  G   UNL     1      60.220  15.438   1.674  1.00  0.00     0.000 G0
ENDBRANCH   6   7
ENDBRANCH   5   6
ENDBRANCH   3   5
ENDBRANCH   1   3
BRANCH   1  11
ATOM     11  C   UNL     1      62.873  14.009   1.082  1.00  0.00     0.087 C 
BRANCH  11  12
ATOM     12  C   UNL     1      62.129  14.797  -0.034  1.00  0.00     0.066 C 
BRANCH  12  13
ATOM     13  C   UNL     1      60.653  14.944   0.311  1.00  0.00     0.140 C 
ATOM     14  O   UNL     1      59.806  14.722  -0.545  1.00  0.00    -0.299 OA
BRANCH  13  15
ATOM     15  C   UNL     1      60.222  15.423   1.674  1.00  0.00     0.106 CG0
ATOM     16  G   UNL     1      60.248  16.939   1.785  1.00  0.00     0.000 G0
ENDBRANCH  13  15
ENDBRANCH  12  13
BRANCH  12  17
ATOM     17  C   UNL     1      62.324  14.222  -1.478  1.00  0.00    -0.006 C 
ATOM     18  C   UNL     1      63.498  14.921  -2.191  1.00  0.00     0.008 C 
ATOM     19  C   UNL     1      62.577  12.703  -1.484  1.00  0.00     0.008 C 
ENDBRANCH  12  17
ENDBRANCH  11  12
ENDBRANCH   1  11
TORSDOF 1
ENDMDL
