MODEL 1
REMARK VINA RESULT:    -4.948      0.000      0.000
REMARK INTER + INTRA:          -5.093
REMARK INTER:                  -5.093
REMARK INTRA:                   0.000
REMARK UNBOUND:                 0.000
REMARK SMILES Oc1ccc2[nH]ccc2c1
REMARK SMILES IDX 3 1 4 2 5 3 9 4 8 5 7 6 6 7 10 8 2 9 1 11
REMARK H PARENT 6 10 1 12
REMARK Flexibility Score: inf
ROOT
ATOM      1  C   UNL     1     -16.163  -2.271 -10.051  1.00  0.00     0.048 A 
ATOM      2  C   UNL     1     -15.702  -1.069 -10.616  1.00  0.00     0.030 A 
ATOM      3  C   UNL     1     -16.525   0.052 -10.524  1.00  0.00     0.046 A 
ATOM      4  C   UNL     1     -17.745  -0.001  -9.905  1.00  0.00     0.003 A 
ATOM      5  C   UNL     1     -18.302   1.257  -9.982  1.00  0.00     0.028 A 
ATOM      6  C   UNL     1     -17.364   2.028 -10.663  1.00  0.00     0.083 A 
ATOM      7  N   UNL     1     -16.280   1.287 -10.990  1.00  0.00    -0.361 N 
ATOM      8  C   UNL     1     -18.232  -1.176  -9.336  1.00  0.00     0.056 A 
ATOM      9  C   UNL     1     -17.424  -2.330  -9.413  1.00  0.00     0.116 A 
ATOM     10  H   UNL     1     -15.429   1.613 -11.502  1.00  0.00     0.166 HD
ENDROOT
BRANCH   9  11
ATOM     11  O   UNL     1     -17.857  -3.533  -8.861  1.00  0.00    -0.508 OA
ATOM     12  H   UNL     1     -17.237  -4.117  -8.313  1.00  0.00     0.293 HD
ENDBRANCH   9  11
TORSDOF 1
ENDMDL
MODEL 2
REMARK VINA RESULT:    -4.946     18.803     19.682
REMARK INTER + INTRA:          -5.091
REMARK INTER:                  -5.091
REMARK INTRA:                   0.000
REMARK UNBOUND:                 0.000
REMARK SMILES Oc1ccc2[nH]ccc2c1
REMARK SMILES IDX 3 1 4 2 5 3 9 4 8 5 7 6 6 7 10 8 2 9 1 11
REMARK H PARENT 6 10 1 12
REMARK Flexibility Score: inf
ROOT
ATOM      1  C   UNL     1     -32.428   5.787  -1.790  1.00  0.00     0.048 A 
ATOM      2  C   UNL     1     -33.214   5.663  -2.951  1.00  0.00     0.030 A 
ATOM      3  C   UNL     1     -33.891   6.795  -3.402  1.00  0.00     0.046 A 
ATOM      4  C   UNL     1     -33.803   7.995  -2.747  1.00  0.00     0.003 A 
ATOM      5  C   UNL     1     -34.579   8.899  -3.439  1.00  0.00     0.028 A 
ATOM      6  C   UNL     1     -35.111   8.181  -4.505  1.00  0.00     0.083 A 
ATOM      7  N   UNL     1     -34.687   6.896  -4.479  1.00  0.00    -0.361 N 
ATOM      8  C   UNL     1     -33.035   8.151  -1.595  1.00  0.00     0.056 A 
ATOM      9  C   UNL     1     -32.337   7.025  -1.111  1.00  0.00     0.116 A 
ATOM     10  H   UNL     1     -34.931   6.141  -5.158  1.00  0.00     0.166 HD
ENDROOT
BRANCH   9  11
ATOM     11  O   UNL     1     -31.552   7.120   0.035  1.00  0.00    -0.508 OA
ATOM     12  H   UNL     1     -31.742   6.555   0.854  1.00  0.00     0.293 HD
ENDBRANCH   9  11
TORSDOF 1
ENDMDL
MODEL 3
REMARK VINA RESULT:    -4.869      2.769      3.909
REMARK INTER + INTRA:          -5.011
REMARK INTER:                  -5.011
REMARK INTRA:                   0.000
REMARK UNBOUND:                 0.000
REMARK SMILES Oc1ccc2[nH]ccc2c1
REMARK SMILES IDX 3 1 4 2 5 3 9 4 8 5 7 6 6 7 10 8 2 9 1 11
REMARK H PARENT 6 10 1 12
REMARK Flexibility Score: inf
ROOT
ATOM      1  C   UNL     1     -16.141   2.381  -9.592  1.00  0.00     0.048 A 
ATOM      2  C   UNL     1     -15.651   1.215  -8.975  1.00  0.00     0.030 A 
ATOM      3  C   UNL     1     -16.440   0.068  -9.033  1.00  0.00     0.046 A 
ATOM      4  C   UNL     1     -17.654   0.061  -9.668  1.00  0.00     0.003 A 
ATOM      5  C   UNL     1     -18.174  -1.210  -9.548  1.00  0.00     0.028 A 
ATOM      6  C   UNL     1     -17.223  -1.925  -8.828  1.00  0.00     0.083 A 
ATOM      7  N   UNL     1     -16.165  -1.141  -8.517  1.00  0.00    -0.361 N 
ATOM      8  C   UNL     1     -18.167   1.198 -10.288  1.00  0.00     0.056 A 
ATOM      9  C   UNL     1     -17.394   2.377 -10.247  1.00  0.00     0.116 A 
ATOM     10  H   UNL     1     -15.312  -1.421  -7.983  1.00  0.00     0.166 HD
ENDROOT
BRANCH   9  11
ATOM     11  O   UNL     1     -17.856   3.545 -10.850  1.00  0.00    -0.508 OA
ATOM     12  H   UNL     1     -18.791   3.607 -11.234  1.00  0.00     0.293 HD
ENDBRANCH   9  11
TORSDOF 1
ENDMDL
MODEL 4
REMARK VINA RESULT:    -4.667      1.911      2.518
REMARK INTER + INTRA:          -4.804
REMARK INTER:                  -4.804
REMARK INTRA:                   0.000
REMARK UNBOUND:                 0.000
REMARK SMILES Oc1ccc2[nH]ccc2c1
REMARK SMILES IDX 3 1 4 2 5 3 9 4 8 5 7 6 6 7 10 8 2 9 1 11
REMARK H PARENT 6 10 1 12
REMARK Flexibility Score: inf
ROOT
ATOM      1  C   UNL     1     -18.530  -1.181  -9.631  1.00  0.00     0.048 A 
ATOM      2  C   UNL     1     -17.123  -1.178  -9.651  1.00  0.00     0.030 A 
ATOM      3  C   UNL     1     -16.477   0.044  -9.829  1.00  0.00     0.046 A 
ATOM      4  C   UNL     1     -17.177   1.212  -9.980  1.00  0.00     0.003 A 
ATOM      5  C   UNL     1     -16.257   2.226 -10.133  1.00  0.00     0.028 A 
ATOM      6  C   UNL     1     -15.014   1.603 -10.064  1.00  0.00     0.083 A 
ATOM      7  N   UNL     1     -15.155   0.271  -9.877  1.00  0.00    -0.361 N 
ATOM      8  C   UNL     1     -18.570   1.243  -9.966  1.00  0.00     0.056 A 
ATOM      9  C   UNL     1     -19.255   0.023  -9.789  1.00  0.00     0.116 A 
ATOM     10  H   UNL     1     -14.389  -0.434  -9.790  1.00  0.00     0.166 HD
ENDROOT
BRANCH   9  11
ATOM     11  O   UNL     1     -20.647  -0.007  -9.765  1.00  0.00    -0.508 OA
ATOM     12  H   UNL     1     -21.186   0.750  -9.362  1.00  0.00     0.293 HD
ENDBRANCH   9  11
TORSDOF 1
ENDMDL
MODEL 5
REMARK VINA RESULT:    -4.629     19.094     20.141
REMARK INTER + INTRA:          -4.764
REMARK INTER:                  -4.764
REMARK INTRA:                   0.000
REMARK UNBOUND:                 0.000
REMARK SMILES Oc1ccc2[nH]ccc2c1
REMARK SMILES IDX 3 1 4 2 5 3 9 4 8 5 7 6 6 7 10 8 2 9 1 11
REMARK H PARENT 6 10 1 12
REMARK Flexibility Score: inf
ROOT
ATOM      1  C   UNL     1     -35.125   8.247  -3.421  1.00  0.00     0.048 A 
ATOM      2  C   UNL     1     -34.655   8.664  -2.163  1.00  0.00     0.030 A 
ATOM      3  C   UNL     1     -33.645   7.915  -1.563  1.00  0.00     0.046 A 
ATOM      4  C   UNL     1     -33.117   6.805  -2.169  1.00  0.00     0.003 A 
ATOM      5  C   UNL     1     -32.151   6.297  -1.328  1.00  0.00     0.028 A 
ATOM      6  C   UNL     1     -32.144   7.149  -0.227  1.00  0.00     0.083 A 
ATOM      7  N   UNL     1     -33.057   8.135  -0.376  1.00  0.00    -0.361 N 
ATOM      8  C   UNL     1     -33.560   6.365  -3.414  1.00  0.00     0.056 A 
ATOM      9  C   UNL     1     -34.582   7.101  -4.048  1.00  0.00     0.116 A 
ATOM     10  H   UNL     1     -33.262   8.908   0.297  1.00  0.00     0.166 HD
ENDROOT
BRANCH   9  11
ATOM     11  O   UNL     1     -35.065   6.709  -5.295  1.00  0.00    -0.508 OA
ATOM     12  H   UNL     1     -35.230   7.382  -6.033  1.00  0.00     0.293 HD
ENDBRANCH   9  11
TORSDOF 1
ENDMDL
MODEL 6
REMARK VINA RESULT:    -4.595      1.177      2.012
REMARK INTER + INTRA:          -4.729
REMARK INTER:                  -4.729
REMARK INTRA:                   0.000
REMARK UNBOUND:                 0.000
REMARK SMILES Oc1ccc2[nH]ccc2c1
REMARK SMILES IDX 3 1 4 2 5 3 9 4 8 5 7 6 6 7 10 8 2 9 1 11
REMARK H PARENT 6 10 1 12
REMARK Flexibility Score: inf
ROOT
ATOM      1  C   UNL     1     -17.693  -2.132  -9.460  1.00  0.00     0.048 A 
ATOM      2  C   UNL     1     -18.465  -0.957  -9.499  1.00  0.00     0.030 A 
ATOM      3  C   UNL     1     -17.840   0.220  -9.904  1.00  0.00     0.046 A 
ATOM      4  C   UNL     1     -16.516   0.247 -10.257  1.00  0.00     0.003 A 
ATOM      5  C   UNL     1     -16.208   1.544 -10.604  1.00  0.00     0.028 A 
ATOM      6  C   UNL     1     -17.393   2.256 -10.438  1.00  0.00     0.083 A 
ATOM      7  N   UNL     1     -18.386   1.442 -10.012  1.00  0.00    -0.361 N 
ATOM      8  C   UNL     1     -15.724  -0.899 -10.230  1.00  0.00     0.056 A 
ATOM      9  C   UNL     1     -16.326  -2.107  -9.823  1.00  0.00     0.116 A 
ATOM     10  H   UNL     1     -19.374   1.713  -9.808  1.00  0.00     0.166 HD
ENDROOT
BRANCH   9  11
ATOM     11  O   UNL     1     -15.584  -3.285  -9.777  1.00  0.00    -0.508 OA
ATOM     12  H   UNL     1     -14.903  -3.509 -10.492  1.00  0.00     0.293 HD
ENDBRANCH   9  11
TORSDOF 1
ENDMDL
MODEL 7
REMARK VINA RESULT:    -4.595      1.861      3.169
REMARK INTER + INTRA:          -4.729
REMARK INTER:                  -4.729
REMARK INTRA:                   0.000
REMARK UNBOUND:                 0.000
REMARK SMILES Oc1ccc2[nH]ccc2c1
REMARK SMILES IDX 3 1 4 2 5 3 9 4 8 5 7 6 6 7 10 8 2 9 1 11
REMARK H PARENT 6 10 1 12
REMARK Flexibility Score: inf
ROOT
ATOM      1  C   UNL     1     -18.617   1.147 -10.005  1.00  0.00     0.048 A 
ATOM      2  C   UNL     1     -17.212   1.102 -10.052  1.00  0.00     0.030 A 
ATOM      3  C   UNL     1     -16.593  -0.131  -9.854  1.00  0.00     0.046 A 
ATOM      4  C   UNL     1     -17.317  -1.270  -9.621  1.00  0.00     0.003 A 
ATOM      5  C   UNL     1     -16.420  -2.305  -9.470  1.00  0.00     0.028 A 
ATOM      6  C   UNL     1     -15.165  -1.723  -9.624  1.00  0.00     0.083 A 
ATOM      7  N   UNL     1     -15.277  -0.396  -9.859  1.00  0.00    -0.361 N 
ATOM      8  C   UNL     1     -18.709  -1.260  -9.567  1.00  0.00     0.056 A 
ATOM      9  C   UNL     1     -19.367  -0.028  -9.763  1.00  0.00     0.116 A 
ATOM     10  H   UNL     1     -14.496   0.282 -10.012  1.00  0.00     0.166 HD
ENDROOT
BRANCH   9  11
ATOM     11  O   UNL     1     -20.758   0.044  -9.721  1.00  0.00    -0.508 OA
ATOM     12  H   UNL     1     -21.267   0.737 -10.256  1.00  0.00     0.293 HD
ENDBRANCH   9  11
TORSDOF 1
ENDMDL
MODEL 8
REMARK VINA RESULT:    -4.537      2.625      4.054
REMARK INTER + INTRA:          -4.670
REMARK INTER:                  -4.670
REMARK INTRA:                   0.000
REMARK UNBOUND:                 0.000
REMARK SMILES Oc1ccc2[nH]ccc2c1
REMARK SMILES IDX 3 1 4 2 5 3 9 4 8 5 7 6 6 7 10 8 2 9 1 11
REMARK H PARENT 6 10 1 12
REMARK Flexibility Score: inf
ROOT
ATOM      1  C   UNL     1     -18.912   1.012  -9.995  1.00  0.00     0.048 A 
ATOM      2  C   UNL     1     -19.082  -0.330  -9.612  1.00  0.00     0.030 A 
ATOM      3  C   UNL     1     -17.959  -1.156  -9.618  1.00  0.00     0.046 A 
ATOM      4  C   UNL     1     -16.724  -0.689  -9.982  1.00  0.00     0.003 A 
ATOM      5  C   UNL     1     -15.839  -1.741  -9.882  1.00  0.00     0.028 A 
ATOM      6  C   UNL     1     -16.605  -2.820  -9.451  1.00  0.00     0.083 A 
ATOM      7  N   UNL     1     -17.899  -2.457  -9.290  1.00  0.00    -0.361 N 
ATOM      8  C   UNL     1     -16.522   0.635 -10.367  1.00  0.00     0.056 A 
ATOM      9  C   UNL     1     -17.638   1.497 -10.373  1.00  0.00     0.116 A 
ATOM     10  H   UNL     1     -18.687  -3.067  -8.976  1.00  0.00     0.166 HD
ENDROOT
BRANCH   9  11
ATOM     11  O   UNL     1     -17.496   2.831 -10.748  1.00  0.00    -0.508 OA
ATOM     12  H   UNL     1     -17.847   3.584 -10.167  1.00  0.00     0.293 HD
ENDBRANCH   9  11
TORSDOF 1
ENDMDL
MODEL 9
REMARK VINA RESULT:    -4.434      9.057      9.855
REMARK INTER + INTRA:          -4.564
REMARK INTER:                  -4.564
REMARK INTRA:                   0.000
REMARK UNBOUND:                 0.000
REMARK SMILES Oc1ccc2[nH]ccc2c1
REMARK SMILES IDX 3 1 4 2 5 3 9 4 8 5 7 6 6 7 10 8 2 9 1 11
REMARK H PARENT 6 10 1 12
REMARK Flexibility Score: inf
ROOT
ATOM      1  C   UNL     1     -18.225  -5.606 -17.857  1.00  0.00     0.048 A 
ATOM      2  C   UNL     1     -19.018  -5.713 -16.700  1.00  0.00     0.030 A 
ATOM      3  C   UNL     1     -18.752  -6.761 -15.822  1.00  0.00     0.046 A 
ATOM      4  C   UNL     1     -17.752  -7.667 -16.065  1.00  0.00     0.003 A 
ATOM      5  C   UNL     1     -17.748  -8.566 -15.021  1.00  0.00     0.028 A 
ATOM      6  C   UNL     1     -18.773  -8.147 -14.177  1.00  0.00     0.083 A 
ATOM      7  N   UNL     1     -19.381  -7.044 -14.670  1.00  0.00    -0.361 N 
ATOM      8  C   UNL     1     -16.950  -7.590 -17.201  1.00  0.00     0.056 A 
ATOM      9  C   UNL     1     -17.193  -6.541 -18.111  1.00  0.00     0.116 A 
ATOM     10  H   UNL     1     -20.179  -6.523 -14.241  1.00  0.00     0.166 HD
ENDROOT
BRANCH   9  11
ATOM     11  O   UNL     1     -16.422  -6.413 -19.264  1.00  0.00    -0.508 OA
ATOM     12  H   UNL     1     -16.433  -7.121 -19.988  1.00  0.00     0.293 HD
ENDBRANCH   9  11
TORSDOF 1
ENDMDL
