MODEL 1
REMARK VINA RESULT:    -3.640      0.000      0.000
REMARK INTER + INTRA:          -5.846
REMARK INTER:                  -5.555
REMARK INTRA:                  -0.292
REMARK UNBOUND:                -0.292
REMARK SMILES CC1=CCC[C@@H](C)C(=O)C[C@@H](C(C)C)C(=O)C1
REMARK SMILES IDX 8 1 9 2 6 3 7 4 5 5 4 6 3 7 2 8 1 9 10 11 11 12 15 13 16 14
REMARK SMILES IDX 17 15 12 17 13 18 14 19
REMARK H PARENT
REMARK Flexibility Score: 70.00
ROOT
ATOM      1  C   UNL     1      -9.161  18.923  12.977  1.00  0.00     0.136 C 
ATOM      2  O   UNL     1      -8.451  19.878  12.691  1.00  0.00    -0.299 OA
ENDROOT
BRANCH   1   3
ATOM      3  C   UNL     1     -10.403  18.629  12.142  1.00  0.00     0.053 C 
ATOM      4  C   UNL     1     -11.352  17.637  12.834  1.00  0.00     0.016 C 
BRANCH   3   5
ATOM      5  C   UNL     1     -10.016  18.103  10.731  1.00  0.00     0.015 C 
BRANCH   5   6
ATOM      6  C   UNL     1      -9.157  16.820  10.685  1.00  0.00     0.028 C 
BRANCH   6   7
ATOM      7  C   UNL     1      -7.660  16.956  10.501  1.00  0.00    -0.028 C 
ATOM      8  C   UNL     1      -6.682  16.513  11.331  1.00  0.00    -0.070 CG0
ATOM      9  C   UNL     1      -5.263  16.562  10.817  1.00  0.00     0.039 C 
ATOM     10  G   UNL     1      -6.910  16.047  12.762  1.00  0.00     0.000 G0
ENDBRANCH   6   7
ENDBRANCH   5   6
ENDBRANCH   3   5
ENDBRANCH   1   3
BRANCH   1  11
ATOM     11  C   UNL     1      -8.745  18.045  14.148  1.00  0.00     0.087 C 
BRANCH  11  12
ATOM     12  C   UNL     1      -7.230  18.100  14.463  1.00  0.00     0.066 C 
BRANCH  12  13
ATOM     13  C   UNL     1      -6.393  17.010  13.802  1.00  0.00     0.140 C 
ATOM     14  O   UNL     1      -5.249  16.865  14.208  1.00  0.00    -0.299 OA
BRANCH  13  15
ATOM     15  C   UNL     1      -6.922  16.024  12.770  1.00  0.00     0.106 CG0
ATOM     16  G   UNL     1      -6.664  16.520  11.354  1.00  0.00     0.000 G0
ENDBRANCH  13  15
ENDBRANCH  12  13
BRANCH  12  17
ATOM     17  C   UNL     1      -6.912  18.168  15.992  1.00  0.00    -0.006 C 
ATOM     18  C   UNL     1      -6.620  19.603  16.459  1.00  0.00     0.008 C 
ATOM     19  C   UNL     1      -7.999  17.538  16.877  1.00  0.00     0.008 C 
ENDBRANCH  12  17
ENDBRANCH  11  12
ENDBRANCH   1  11
TORSDOF 1
ENDMDL
MODEL 2
REMARK VINA RESULT:    -3.636      6.102      7.289
REMARK INTER + INTRA:          -5.840
REMARK INTER:                  -6.029
REMARK INTRA:                   0.189
REMARK UNBOUND:                -0.292
REMARK SMILES CC1=CCC[C@@H](C)C(=O)C[C@@H](C(C)C)C(=O)C1
REMARK SMILES IDX 8 1 9 2 6 3 7 4 5 5 4 6 3 7 2 8 1 9 10 11 11 12 15 13 16 14
REMARK SMILES IDX 17 15 12 17 13 18 14 19
REMARK H PARENT
REMARK Flexibility Score: 70.00
ROOT
ATOM      1  C   UNL     1     -10.440  20.001   6.148  1.00  0.00     0.136 C 
ATOM      2  O   UNL     1     -11.216  20.940   6.269  1.00  0.00    -0.299 OA
ENDROOT
BRANCH   1   3
ATOM      3  C   UNL     1     -10.606  19.030   4.985  1.00  0.00     0.053 C 
ATOM      4  C   UNL     1     -11.712  19.467   4.009  1.00  0.00     0.016 C 
BRANCH   3   5
ATOM      5  C   UNL     1     -10.883  17.588   5.495  1.00  0.00     0.015 C 
BRANCH   5   6
ATOM      6  C   UNL     1      -9.881  16.497   5.058  1.00  0.00     0.028 C 
BRANCH   6   7
ATOM      7  C   UNL     1      -9.457  15.454   6.071  1.00  0.00    -0.028 C 
ATOM      8  C   UNL     1      -8.414  15.519   6.936  1.00  0.00    -0.070 CG0
ATOM      9  C   UNL     1      -8.335  14.457   8.005  1.00  0.00     0.039 C 
ATOM     10  G   UNL     1      -7.285  16.537   6.852  1.00  0.00     0.000 G0
ENDBRANCH   6   7
ENDBRANCH   5   6
ENDBRANCH   3   5
ENDBRANCH   1   3
BRANCH   1  11
ATOM     11  C   UNL     1      -9.311  19.869   7.159  1.00  0.00     0.087 C 
BRANCH  11  12
ATOM     12  C   UNL     1      -8.080  19.096   6.623  1.00  0.00     0.066 C 
BRANCH  12  13
ATOM     13  C   UNL     1      -7.676  17.876   7.445  1.00  0.00     0.140 C 
ATOM     14  O   UNL     1      -7.792  17.961   8.659  1.00  0.00    -0.299 OA
BRANCH  13  15
ATOM     15  C   UNL     1      -7.262  16.536   6.852  1.00  0.00     0.106 CG0
ATOM     16  G   UNL     1      -8.399  15.527   6.931  1.00  0.00     0.000 G0
ENDBRANCH  13  15
ENDBRANCH  12  13
BRANCH  12  17
ATOM     17  C   UNL     1      -6.835  20.005   6.365  1.00  0.00    -0.006 C 
ATOM     18  C   UNL     1      -5.643  19.211   5.808  1.00  0.00     0.008 C 
ATOM     19  C   UNL     1      -7.130  21.214   5.461  1.00  0.00     0.008 C 
ENDBRANCH  12  17
ENDBRANCH  11  12
ENDBRANCH   1  11
TORSDOF 1
ENDMDL
MODEL 3
REMARK VINA RESULT:    -3.603      2.561      4.961
REMARK INTER + INTRA:          -5.790
REMARK INTER:                  -5.535
REMARK INTRA:                  -0.255
REMARK UNBOUND:                -0.292
REMARK SMILES CC1=CCC[C@@H](C)C(=O)C[C@@H](C(C)C)C(=O)C1
REMARK SMILES IDX 8 1 9 2 6 3 7 4 5 5 4 6 3 7 2 8 1 9 10 11 11 12 15 13 16 14
REMARK SMILES IDX 17 15 12 17 13 18 14 19
REMARK H PARENT
REMARK Flexibility Score: 70.00
ROOT
ATOM      1  C   UNL     1      -7.844  17.706  12.765  1.00  0.00     0.136 C 
ATOM      2  O   UNL     1      -6.971  17.882  11.926  1.00  0.00    -0.299 OA
ENDROOT
BRANCH   1   3
ATOM      3  C   UNL     1      -8.103  18.776  13.821  1.00  0.00     0.053 C 
ATOM      4  C   UNL     1      -7.868  20.197  13.284  1.00  0.00     0.016 C 
BRANCH   3   5
ATOM      5  C   UNL     1      -7.237  18.531  15.088  1.00  0.00     0.015 C 
BRANCH   5   6
ATOM      6  C   UNL     1      -7.990  18.097  16.364  1.00  0.00     0.028 C 
BRANCH   6   7
ATOM      7  C   UNL     1      -7.570  16.814  17.052  1.00  0.00    -0.028 C 
ATOM      8  C   UNL     1      -8.147  15.591  16.942  1.00  0.00    -0.070 CG0
ATOM      9  C   UNL     1      -7.407  14.420  17.543  1.00  0.00     0.039 C 
ATOM     10  G   UNL     1      -9.516  15.335  16.327  1.00  0.00     0.000 G0
ENDBRANCH   6   7
ENDBRANCH   5   6
ENDBRANCH   3   5
ENDBRANCH   1   3
BRANCH   1  11
ATOM     11  C   UNL     1      -8.664  16.427  12.690  1.00  0.00     0.087 C 
BRANCH  11  12
ATOM     12  C   UNL     1      -9.721  16.294  13.815  1.00  0.00     0.066 C 
BRANCH  12  13
ATOM     13  C   UNL     1      -9.463  15.169  14.813  1.00  0.00     0.140 C 
ATOM     14  O   UNL     1      -9.080  14.101  14.357  1.00  0.00    -0.299 OA
BRANCH  13  15
ATOM     15  C   UNL     1      -9.532  15.326  16.325  1.00  0.00     0.106 CG0
ATOM     16  G   UNL     1      -8.154  15.601  16.911  1.00  0.00     0.000 G0
ENDBRANCH  13  15
ENDBRANCH  12  13
BRANCH  12  17
ATOM     17  C   UNL     1     -11.189  16.219  13.287  1.00  0.00    -0.006 C 
ATOM     18  C   UNL     1     -11.703  17.586  12.806  1.00  0.00     0.008 C 
ATOM     19  C   UNL     1     -11.398  15.163  12.189  1.00  0.00     0.008 C 
ENDBRANCH  12  17
ENDBRANCH  11  12
ENDBRANCH   1  11
TORSDOF 1
ENDMDL
MODEL 4
REMARK VINA RESULT:    -3.583      3.813      6.067
REMARK INTER + INTRA:          -5.760
REMARK INTER:                  -5.763
REMARK INTRA:                   0.003
REMARK UNBOUND:                -0.292
REMARK SMILES CC1=CCC[C@@H](C)C(=O)C[C@@H](C(C)C)C(=O)C1
REMARK SMILES IDX 8 1 9 2 6 3 7 4 5 5 4 6 3 7 2 8 1 9 10 11 11 12 15 13 16 14
REMARK SMILES IDX 17 15 12 17 13 18 14 19
REMARK H PARENT
REMARK Flexibility Score: 70.00
ROOT
ATOM      1  C   UNL     1      -9.338  17.935  10.344  1.00  0.00     0.136 C 
ATOM      2  O   UNL     1      -8.223  18.128  10.808  1.00  0.00    -0.299 OA
ENDROOT
BRANCH   1   3
ATOM      3  C   UNL     1     -10.123  16.693  10.752  1.00  0.00     0.053 C 
ATOM      4  C   UNL     1     -10.556  16.733  12.227  1.00  0.00     0.016 C 
BRANCH   3   5
ATOM      5  C   UNL     1      -9.310  15.399  10.468  1.00  0.00     0.015 C 
BRANCH   5   6
ATOM      6  C   UNL     1      -9.229  14.946   8.994  1.00  0.00     0.028 C 
BRANCH   6   7
ATOM      7  C   UNL     1      -7.888  14.998   8.291  1.00  0.00    -0.028 C 
ATOM      8  C   UNL     1      -7.494  15.871   7.329  1.00  0.00    -0.070 CG0
ATOM      9  C   UNL     1      -6.032  15.868   6.951  1.00  0.00     0.039 C 
ATOM     10  G   UNL     1      -8.432  16.789   6.559  1.00  0.00     0.000 G0
ENDBRANCH   6   7
ENDBRANCH   5   6
ENDBRANCH   3   5
ENDBRANCH   1   3
BRANCH   1  11
ATOM     11  C   UNL     1      -9.910  18.979   9.394  1.00  0.00     0.087 C 
BRANCH  11  12
ATOM     12  C   UNL     1      -9.993  18.505   7.922  1.00  0.00     0.066 C 
BRANCH  12  13
ATOM     13  C   UNL     1      -8.659  18.109   7.295  1.00  0.00     0.140 C 
ATOM     14  O   UNL     1      -7.708  18.849   7.502  1.00  0.00    -0.299 OA
BRANCH  13  15
ATOM     15  C   UNL     1      -8.412  16.808   6.545  1.00  0.00     0.106 CG0
ATOM     16  G   UNL     1      -7.516  15.875   7.347  1.00  0.00     0.000 G0
ENDBRANCH  13  15
ENDBRANCH  12  13
BRANCH  12  17
ATOM     17  C   UNL     1     -10.751  19.501   6.987  1.00  0.00    -0.006 C 
ATOM     18  C   UNL     1      -9.990  20.826   6.815  1.00  0.00     0.008 C 
ATOM     19  C   UNL     1     -11.100  18.913   5.610  1.00  0.00     0.008 C 
ENDBRANCH  12  17
ENDBRANCH  11  12
ENDBRANCH   1  11
TORSDOF 1
ENDMDL
MODEL 5
REMARK VINA RESULT:    -3.552      5.362      7.454
REMARK INTER + INTRA:          -5.713
REMARK INTER:                  -5.307
REMARK INTRA:                  -0.406
REMARK UNBOUND:                -0.292
REMARK SMILES CC1=CCC[C@@H](C)C(=O)C[C@@H](C(C)C)C(=O)C1
REMARK SMILES IDX 8 1 9 2 6 3 7 4 5 5 4 6 3 7 2 8 1 9 10 11 11 12 15 13 16 14
REMARK SMILES IDX 17 15 12 17 13 18 14 19
REMARK H PARENT
REMARK Flexibility Score: 70.00
ROOT
ATOM      1  C   UNL     1      -9.306  17.935   8.731  1.00  0.00     0.136 C 
ATOM      2  O   UNL     1      -9.183  18.093   9.937  1.00  0.00    -0.299 OA
ENDROOT
BRANCH   1   3
ATOM      3  C   UNL     1      -9.101  16.550   8.126  1.00  0.00     0.053 C 
ATOM      4  C   UNL     1      -9.904  15.465   8.863  1.00  0.00     0.016 C 
BRANCH   3   5
ATOM      5  C   UNL     1      -7.594  16.171   8.092  1.00  0.00     0.015 C 
BRANCH   5   6
ATOM      6  C   UNL     1      -6.856  16.400   6.756  1.00  0.00     0.028 C 
BRANCH   6   7
ATOM      7  C   UNL     1      -5.789  17.474   6.692  1.00  0.00    -0.028 C 
ATOM      8  C   UNL     1      -5.883  18.698   6.114  1.00  0.00    -0.070 CG0
ATOM      9  C   UNL     1      -4.766  19.678   6.384  1.00  0.00     0.039 C 
ATOM     10  G   UNL     1      -6.989  19.118   5.157  1.00  0.00     0.000 G0
ENDBRANCH   6   7
ENDBRANCH   5   6
ENDBRANCH   3   5
ENDBRANCH   1   3
BRANCH   1  11
ATOM     11  C   UNL     1      -9.696  19.138   7.885  1.00  0.00     0.087 C 
BRANCH  11  12
ATOM     12  C   UNL     1      -9.375  18.973   6.378  1.00  0.00     0.066 C 
BRANCH  12  13
ATOM     13  C   UNL     1      -8.160  19.754   5.888  1.00  0.00     0.140 C 
ATOM     14  O   UNL     1      -8.092  20.933   6.207  1.00  0.00    -0.299 OA
BRANCH  13  15
ATOM     15  C   UNL     1      -6.983  19.140   5.144  1.00  0.00     0.106 CG0
ATOM     16  G   UNL     1      -5.889  18.709   6.109  1.00  0.00     0.000 G0
ENDBRANCH  13  15
ENDBRANCH  12  13
BRANCH  12  17
ATOM     17  C   UNL     1     -10.600  19.244   5.446  1.00  0.00    -0.006 C 
ATOM     18  C   UNL     1     -11.109  17.960   4.771  1.00  0.00     0.008 C 
ATOM     19  C   UNL     1     -11.763  19.966   6.147  1.00  0.00     0.008 C 
ENDBRANCH  12  17
ENDBRANCH  11  12
ENDBRANCH   1  11
TORSDOF 1
ENDMDL
MODEL 6
REMARK VINA RESULT:    -3.483      4.402      6.135
REMARK INTER + INTRA:          -5.606
REMARK INTER:                  -5.207
REMARK INTRA:                  -0.399
REMARK UNBOUND:                -0.292
REMARK SMILES CC1=CCC[C@@H](C)C(=O)C[C@@H](C(C)C)C(=O)C1
REMARK SMILES IDX 8 1 9 2 6 3 7 4 5 5 4 6 3 7 2 8 1 9 10 11 11 12 15 13 16 14
REMARK SMILES IDX 17 15 12 17 13 18 14 19
REMARK H PARENT
REMARK Flexibility Score: 70.00
ROOT
ATOM      1  C   UNL     1     -10.014  19.605   8.029  1.00  0.00     0.136 C 
ATOM      2  O   UNL     1     -10.000  20.118   9.139  1.00  0.00    -0.299 OA
ENDROOT
BRANCH   1   3
ATOM      3  C   UNL     1     -10.326  20.461   6.805  1.00  0.00     0.053 C 
ATOM      4  C   UNL     1     -10.762  19.616   5.597  1.00  0.00     0.016 C 
BRANCH   3   5
ATOM      5  C   UNL     1      -9.114  21.356   6.424  1.00  0.00     0.015 C 
BRANCH   5   6
ATOM      6  C   UNL     1      -8.075  20.736   5.463  1.00  0.00     0.028 C 
BRANCH   6   7
ATOM      7  C   UNL     1      -6.708  20.377   6.008  1.00  0.00    -0.028 C 
ATOM      8  C   UNL     1      -6.212  19.135   6.237  1.00  0.00    -0.070 CG0
ATOM      9  C   UNL     1      -4.741  19.028   6.561  1.00  0.00     0.039 C 
ATOM     10  G   UNL     1      -7.047  17.863   6.267  1.00  0.00     0.000 G0
ENDBRANCH   6   7
ENDBRANCH   5   6
ENDBRANCH   3   5
ENDBRANCH   1   3
BRANCH   1  11
ATOM     11  C   UNL     1      -9.678  18.125   7.917  1.00  0.00     0.087 C 
BRANCH  11  12
ATOM     12  C   UNL     1      -8.361  17.728   8.631  1.00  0.00     0.066 C 
BRANCH  12  13
ATOM     13  C   UNL     1      -7.213  17.350   7.701  1.00  0.00     0.140 C 
ATOM     14  O   UNL     1      -6.430  16.501   8.102  1.00  0.00    -0.299 OA
BRANCH  13  15
ATOM     15  C   UNL     1      -7.052  17.863   6.277  1.00  0.00     0.106 CG0
ATOM     16  G   UNL     1      -6.210  19.130   6.242  1.00  0.00     0.000 G0
ENDBRANCH  13  15
ENDBRANCH  12  13
BRANCH  12  17
ATOM     17  C   UNL     1      -8.551  16.628   9.724  1.00  0.00    -0.006 C 
ATOM     18  C   UNL     1      -8.793  17.232  11.117  1.00  0.00     0.008 C 
ATOM     19  C   UNL     1      -9.657  15.612   9.394  1.00  0.00     0.008 C 
ENDBRANCH  12  17
ENDBRANCH  11  12
ENDBRANCH   1  11
TORSDOF 1
ENDMDL
MODEL 7
REMARK VINA RESULT:    -3.482      3.212      5.351
REMARK INTER + INTRA:          -5.605
REMARK INTER:                  -5.967
REMARK INTRA:                   0.362
REMARK UNBOUND:                -0.292
REMARK SMILES CC1=CCC[C@@H](C)C(=O)C[C@@H](C(C)C)C(=O)C1
REMARK SMILES IDX 8 1 9 2 6 3 7 4 5 5 4 6 3 7 2 8 1 9 10 11 11 12 15 13 16 14
REMARK SMILES IDX 17 15 12 17 13 18 14 19
REMARK H PARENT
REMARK Flexibility Score: 70.00
ROOT
ATOM      1  C   UNL     1      -9.754  18.655  11.111  1.00  0.00     0.136 C 
ATOM      2  O   UNL     1      -9.114  19.412  11.829  1.00  0.00    -0.299 OA
ENDROOT
BRANCH   1   3
ATOM      3  C   UNL     1     -10.423  17.425  11.716  1.00  0.00     0.053 C 
ATOM      4  C   UNL     1     -11.492  17.793  12.758  1.00  0.00     0.016 C 
BRANCH   3   5
ATOM      5  C   UNL     1      -9.371  16.468  12.343  1.00  0.00     0.015 C 
BRANCH   5   6
ATOM      6  C   UNL     1      -9.339  15.025  11.794  1.00  0.00     0.028 C 
BRANCH   6   7
ATOM      7  C   UNL     1      -9.860  14.770  10.395  1.00  0.00    -0.028 C 
ATOM      8  C   UNL     1      -9.202  14.955   9.223  1.00  0.00    -0.070 CG0
ATOM      9  C   UNL     1      -9.849  14.409   7.973  1.00  0.00     0.039 C 
ATOM     10  G   UNL     1      -7.905  15.737   9.075  1.00  0.00     0.000 G0
ENDBRANCH   6   7
ENDBRANCH   5   6
ENDBRANCH   3   5
ENDBRANCH   1   3
BRANCH   1  11
ATOM     11  C   UNL     1      -9.882  19.003   9.635  1.00  0.00     0.087 C 
BRANCH  11  12
ATOM     12  C   UNL     1      -9.577  17.818   8.685  1.00  0.00     0.066 C 
BRANCH  12  13
ATOM     13  C   UNL     1      -8.180  17.222   8.824  1.00  0.00     0.140 C 
ATOM     14  O   UNL     1      -7.241  18.006   8.837  1.00  0.00    -0.299 OA
BRANCH  13  15
ATOM     15  C   UNL     1      -7.892  15.748   9.068  1.00  0.00     0.106 CG0
ATOM     16  G   UNL     1      -9.181  14.957   9.232  1.00  0.00     0.000 G0
ENDBRANCH  13  15
ENDBRANCH  12  13
BRANCH  12  17
ATOM     17  C   UNL     1      -9.884  18.126   7.184  1.00  0.00    -0.006 C 
ATOM     18  C   UNL     1     -10.176  19.617   6.947  1.00  0.00     0.008 C 
ATOM     19  C   UNL     1      -8.788  17.646   6.218  1.00  0.00     0.008 C 
ENDBRANCH  12  17
ENDBRANCH  11  12
ENDBRANCH   1  11
TORSDOF 1
ENDMDL
MODEL 8
REMARK VINA RESULT:    -3.442      6.298      7.633
REMARK INTER + INTRA:          -5.544
REMARK INTER:                  -5.385
REMARK INTRA:                  -0.159
REMARK UNBOUND:                -0.292
REMARK SMILES CC1=CCC[C@@H](C)C(=O)C[C@@H](C(C)C)C(=O)C1
REMARK SMILES IDX 8 1 9 2 6 3 7 4 5 5 4 6 3 7 2 8 1 9 10 11 11 12 15 13 16 14
REMARK SMILES IDX 17 15 12 17 13 18 14 19
REMARK H PARENT
REMARK Flexibility Score: 70.00
ROOT
ATOM      1  C   UNL     1      -8.858  17.024   7.315  1.00  0.00     0.136 C 
ATOM      2  O   UNL     1      -8.650  16.994   8.520  1.00  0.00    -0.299 OA
ENDROOT
BRANCH   1   3
ATOM      3  C   UNL     1     -10.226  16.624   6.774  1.00  0.00     0.053 C 
ATOM      4  C   UNL     1     -10.496  15.118   6.920  1.00  0.00     0.016 C 
BRANCH   3   5
ATOM      5  C   UNL     1     -10.389  17.056   5.289  1.00  0.00     0.015 C 
BRANCH   5   6
ATOM      6  C   UNL     1     -11.154  18.373   5.034  1.00  0.00     0.028 C 
BRANCH   6   7
ATOM      7  C   UNL     1     -10.945  19.530   5.990  1.00  0.00    -0.028 C 
ATOM      8  C   UNL     1      -9.906  20.402   6.015  1.00  0.00    -0.070 CG0
ATOM      9  C   UNL     1     -10.039  21.609   6.912  1.00  0.00     0.039 C 
ATOM     10  G   UNL     1      -8.596  20.206   5.265  1.00  0.00     0.000 G0
ENDBRANCH   6   7
ENDBRANCH   5   6
ENDBRANCH   3   5
ENDBRANCH   1   3
BRANCH   1  11
ATOM     11  C   UNL     1      -7.735  17.500   6.404  1.00  0.00     0.087 C 
BRANCH  11  12
ATOM     12  C   UNL     1      -7.001  18.762   6.924  1.00  0.00     0.066 C 
BRANCH  12  13
ATOM     13  C   UNL     1      -7.428  20.071   6.269  1.00  0.00     0.140 C 
ATOM     14  O   UNL     1      -6.729  21.052   6.481  1.00  0.00    -0.299 OA
BRANCH  13  15
ATOM     15  C   UNL     1      -8.580  20.206   5.283  1.00  0.00     0.106 CG0
ATOM     16  G   UNL     1      -9.903  20.404   6.009  1.00  0.00     0.000 G0
ENDBRANCH  13  15
ENDBRANCH  12  13
BRANCH  12  17
ATOM     17  C   UNL     1      -5.444  18.632   6.901  1.00  0.00    -0.006 C 
ATOM     18  C   UNL     1      -4.814  18.992   8.257  1.00  0.00     0.008 C 
ATOM     19  C   UNL     1      -4.945  17.253   6.440  1.00  0.00     0.008 C 
ENDBRANCH  12  17
ENDBRANCH  11  12
ENDBRANCH   1  11
TORSDOF 1
ENDMDL
MODEL 9
REMARK VINA RESULT:    -3.372      5.995      8.355
REMARK INTER + INTRA:          -5.438
REMARK INTER:                  -5.259
REMARK INTRA:                  -0.180
REMARK UNBOUND:                -0.292
REMARK SMILES CC1=CCC[C@@H](C)C(=O)C[C@@H](C(C)C)C(=O)C1
REMARK SMILES IDX 8 1 9 2 6 3 7 4 5 5 4 6 3 7 2 8 1 9 10 11 11 12 15 13 16 14
REMARK SMILES IDX 17 15 12 17 13 18 14 19
REMARK H PARENT
REMARK Flexibility Score: 70.00
ROOT
ATOM      1  C   UNL     1      -7.444  19.388  18.016  1.00  0.00     0.136 C 
ATOM      2  O   UNL     1      -7.613  18.350  17.392  1.00  0.00    -0.299 OA
ENDROOT
BRANCH   1   3
ATOM      3  C   UNL     1      -6.269  20.296  17.669  1.00  0.00     0.053 C 
ATOM      4  C   UNL     1      -6.342  20.824  16.227  1.00  0.00     0.016 C 
BRANCH   3   5
ATOM      5  C   UNL     1      -4.914  19.571  17.906  1.00  0.00     0.015 C 
BRANCH   5   6
ATOM      6  C   UNL     1      -4.277  19.740  19.302  1.00  0.00     0.028 C 
BRANCH   6   7
ATOM      7  C   UNL     1      -4.475  18.643  20.327  1.00  0.00    -0.028 C 
ATOM      8  C   UNL     1      -5.309  18.654  21.398  1.00  0.00    -0.070 CG0
ATOM      9  C   UNL     1      -5.501  17.352  22.138  1.00  0.00     0.039 C 
ATOM     10  G   UNL     1      -5.996  19.898  21.943  1.00  0.00     0.000 G0
ENDBRANCH   6   7
ENDBRANCH   5   6
ENDBRANCH   3   5
ENDBRANCH   1   3
BRANCH   1  11
ATOM     11  C   UNL     1      -8.451  19.746  19.100  1.00  0.00     0.087 C 
BRANCH  11  12
ATOM     12  C   UNL     1      -7.884  20.684  20.195  1.00  0.00     0.066 C 
BRANCH  12  13
ATOM     13  C   UNL     1      -7.446  19.986  21.478  1.00  0.00     0.140 C 
ATOM     14  O   UNL     1      -8.306  19.380  22.102  1.00  0.00    -0.299 OA
BRANCH  13  15
ATOM     15  C   UNL     1      -6.005  19.893  21.960  1.00  0.00     0.106 CG0
ATOM     16  G   UNL     1      -5.312  18.667  21.382  1.00  0.00     0.000 G0
ENDBRANCH  13  15
ENDBRANCH  12  13
BRANCH  12  17
ATOM     17  C   UNL     1      -8.821  21.888  20.531  1.00  0.00    -0.006 C 
ATOM     18  C   UNL     1     -10.308  21.516  20.410  1.00  0.00     0.008 C 
ATOM     19  C   UNL     1      -8.547  22.519  21.906  1.00  0.00     0.008 C 
ENDBRANCH  12  17
ENDBRANCH  11  12
ENDBRANCH   1  11
TORSDOF 1
ENDMDL
