MODEL 1
REMARK VINA RESULT:    -4.298      0.000      0.000
REMARK INTER + INTRA:          -8.864
REMARK INTER:                  -7.816
REMARK INTRA:                  -1.048
REMARK UNBOUND:                -1.048
REMARK SMILES CCCCCC=CCC=CCCCCCCCC(=O)[O-]
REMARK SMILES IDX 11 1 12 2 13 3 14 4 15 5 16 6 17 7 18 8 19 9 20 10 10 11
REMARK SMILES IDX 9 12 8 13 7 14 6 15 5 16 4 17 3 18 2 19 1 20
REMARK H PARENT
REMARK Flexibility Score: inf
ROOT
ATOM      1  C   UNL     1      59.594  -6.767 -46.245  1.00  0.00     0.027 C 
ENDROOT
BRANCH   1   2
ATOM      2  C   UNL     1      60.539  -6.393 -45.092  1.00  0.00     0.004 C 
BRANCH   2   3
ATOM      3  C   UNL     1      61.877  -5.817 -45.585  1.00  0.00     0.000 C 
BRANCH   3   4
ATOM      4  C   UNL     1      62.048  -5.802 -47.116  1.00  0.00     0.000 C 
BRANCH   4   5
ATOM      5  C   UNL     1      62.060  -4.384 -47.725  1.00  0.00     0.000 C 
BRANCH   5   6
ATOM      6  C   UNL     1      61.824  -4.401 -49.246  1.00  0.00     0.006 C 
BRANCH   6   7
ATOM      7  C   UNL     1      61.028  -3.179 -49.723  1.00  0.00     0.053 C 
BRANCH   7   8
ATOM      8  C   UNL     1      59.947  -3.564 -50.686  1.00  0.00     0.041 C 
ATOM      9  O   UNL     1      60.125  -4.516 -51.491  1.00  0.00    -0.550 OA
ATOM     10  O   UNL     1      58.731  -2.893 -50.671  1.00  0.00    -0.550 OA
ENDBRANCH   7   8
ENDBRANCH   6   7
ENDBRANCH   5   6
ENDBRANCH   4   5
ENDBRANCH   3   4
ENDBRANCH   2   3
ENDBRANCH   1   2
BRANCH   1  11
ATOM     11  C   UNL     1      58.369  -5.890 -46.232  1.00  0.00    -0.031 C 
ATOM     12  C   UNL     1      57.151  -6.277 -46.655  1.00  0.00    -0.027 C 
BRANCH  12  13
ATOM     13  C   UNL     1      56.846  -7.621 -47.267  1.00  0.00     0.054 C 
BRANCH  13  14
ATOM     14  C   UNL     1      55.363  -7.830 -47.413  1.00  0.00    -0.027 C 
ATOM     15  C   UNL     1      54.519  -6.795 -47.540  1.00  0.00    -0.031 C 
BRANCH  15  16
ATOM     16  C   UNL     1      53.036  -7.002 -47.693  1.00  0.00     0.027 C 
BRANCH  16  17
ATOM     17  C   UNL     1      52.468  -6.137 -48.828  1.00  0.00     0.004 C 
BRANCH  17  18
ATOM     18  C   UNL     1      53.172  -6.407 -50.175  1.00  0.00     0.000 C 
BRANCH  18  19
ATOM     19  C   UNL     1      52.287  -7.143 -51.194  1.00  0.00    -0.003 C 
ATOM     20  C   UNL     1      51.668  -8.423 -50.636  1.00  0.00     0.004 C 
ENDBRANCH  18  19
ENDBRANCH  17  18
ENDBRANCH  16  17
ENDBRANCH  15  16
ENDBRANCH  13  14
ENDBRANCH  12  13
ENDBRANCH   1  11
TORSDOF 14
ENDMDL
MODEL 2
REMARK VINA RESULT:    -4.278      1.402      2.290
REMARK INTER + INTRA:          -8.827
REMARK INTER:                  -7.507
REMARK INTRA:                  -1.320
REMARK UNBOUND:                -1.048
REMARK SMILES CCCCCC=CCC=CCCCCCCCC(=O)[O-]
REMARK SMILES IDX 11 1 12 2 13 3 14 4 15 5 16 6 17 7 18 8 19 9 20 10 10 11
REMARK SMILES IDX 9 12 8 13 7 14 6 15 5 16 4 17 3 18 2 19 1 20
REMARK H PARENT
REMARK Flexibility Score: inf
ROOT
ATOM      1  C   UNL     1      57.264  -5.739 -46.608  1.00  0.00     0.027 C 
ENDROOT
BRANCH   1   2
ATOM      2  C   UNL     1      58.517  -5.580 -45.734  1.00  0.00     0.004 C 
BRANCH   2   3
ATOM      3  C   UNL     1      59.671  -6.495 -46.179  1.00  0.00     0.000 C 
BRANCH   3   4
ATOM      4  C   UNL     1      61.014  -5.776 -46.407  1.00  0.00     0.000 C 
BRANCH   4   5
ATOM      5  C   UNL     1      60.872  -4.395 -47.081  1.00  0.00     0.000 C 
BRANCH   5   6
ATOM      6  C   UNL     1      60.639  -4.508 -48.598  1.00  0.00     0.006 C 
BRANCH   6   7
ATOM      7  C   UNL     1      59.627  -3.473 -49.108  1.00  0.00     0.053 C 
BRANCH   7   8
ATOM      8  C   UNL     1      59.530  -3.483 -50.603  1.00  0.00     0.041 C 
ATOM      9  O   UNL     1      60.344  -4.159 -51.286  1.00  0.00    -0.550 OA
ATOM     10  O   UNL     1      58.520  -2.773 -51.240  1.00  0.00    -0.550 OA
ENDBRANCH   7   8
ENDBRANCH   6   7
ENDBRANCH   5   6
ENDBRANCH   4   5
ENDBRANCH   3   4
ENDBRANCH   2   3
ENDBRANCH   1   2
BRANCH   1  11
ATOM     11  C   UNL     1      57.094  -7.174 -47.036  1.00  0.00    -0.031 C 
ATOM     12  C   UNL     1      55.907  -7.759 -47.284  1.00  0.00    -0.027 C 
BRANCH  12  13
ATOM     13  C   UNL     1      54.569  -7.088 -47.103  1.00  0.00     0.054 C 
BRANCH  13  14
ATOM     14  C   UNL     1      53.921  -6.797 -48.429  1.00  0.00    -0.027 C 
ATOM     15  C   UNL     1      53.163  -7.710 -49.055  1.00  0.00    -0.031 C 
BRANCH  15  16
ATOM     16  C   UNL     1      52.509  -7.418 -50.378  1.00  0.00     0.027 C 
BRANCH  16  17
ATOM     17  C   UNL     1      52.731  -5.957 -50.798  1.00  0.00     0.004 C 
BRANCH  17  18
ATOM     18  C   UNL     1      52.387  -5.719 -52.283  1.00  0.00     0.000 C 
BRANCH  18  19
ATOM     19  C   UNL     1      53.313  -4.704 -52.973  1.00  0.00    -0.003 C 
ATOM     20  C   UNL     1      54.045  -3.795 -51.988  1.00  0.00     0.004 C 
ENDBRANCH  18  19
ENDBRANCH  17  18
ENDBRANCH  16  17
ENDBRANCH  15  16
ENDBRANCH  13  14
ENDBRANCH  12  13
ENDBRANCH   1  11
TORSDOF 14
ENDMDL
MODEL 3
REMARK VINA RESULT:    -4.248      1.337      2.255
REMARK INTER + INTRA:          -8.772
REMARK INTER:                  -7.248
REMARK INTRA:                  -1.525
REMARK UNBOUND:                -1.048
REMARK SMILES CCCCCC=CCC=CCCCCCCCC(=O)[O-]
REMARK SMILES IDX 11 1 12 2 13 3 14 4 15 5 16 6 17 7 18 8 19 9 20 10 10 11
REMARK SMILES IDX 9 12 8 13 7 14 6 15 5 16 4 17 3 18 2 19 1 20
REMARK H PARENT
REMARK Flexibility Score: inf
ROOT
ATOM      1  C   UNL     1      57.180  -5.811 -46.607  1.00  0.00     0.027 C 
ENDROOT
BRANCH   1   2
ATOM      2  C   UNL     1      58.473  -5.610 -45.802  1.00  0.00     0.004 C 
BRANCH   2   3
ATOM      3  C   UNL     1      59.480  -6.755 -46.002  1.00  0.00     0.000 C 
BRANCH   3   4
ATOM      4  C   UNL     1      60.945  -6.305 -46.167  1.00  0.00     0.000 C 
BRANCH   4   5
ATOM      5  C   UNL     1      61.237  -4.913 -45.568  1.00  0.00     0.000 C 
BRANCH   5   6
ATOM      6  C   UNL     1      61.856  -3.953 -46.600  1.00  0.00     0.006 C 
BRANCH   6   7
ATOM      7  C   UNL     1      60.824  -2.974 -47.173  1.00  0.00     0.053 C 
BRANCH   7   8
ATOM      8  C   UNL     1      60.556  -3.236 -48.624  1.00  0.00     0.041 C 
ATOM      9  O   UNL     1      60.774  -2.340 -49.481  1.00  0.00    -0.550 OA
ATOM     10  O   UNL     1      60.099  -4.483 -49.032  1.00  0.00    -0.550 OA
ENDBRANCH   7   8
ENDBRANCH   6   7
ENDBRANCH   5   6
ENDBRANCH   4   5
ENDBRANCH   3   4
ENDBRANCH   2   3
ENDBRANCH   1   2
BRANCH   1  11
ATOM     11  C   UNL     1      57.106  -7.214 -47.151  1.00  0.00    -0.031 C 
ATOM     12  C   UNL     1      55.960  -7.876 -47.396  1.00  0.00    -0.027 C 
BRANCH  12  13
ATOM     13  C   UNL     1      54.582  -7.340 -47.098  1.00  0.00     0.054 C 
BRANCH  13  14
ATOM     14  C   UNL     1      53.897  -6.870 -48.352  1.00  0.00    -0.027 C 
ATOM     15  C   UNL     1      54.205  -5.696 -48.922  1.00  0.00    -0.031 C 
BRANCH  15  16
ATOM     16  C   UNL     1      53.526  -5.228 -50.180  1.00  0.00     0.027 C 
BRANCH  16  17
ATOM     17  C   UNL     1      52.319  -6.114 -50.524  1.00  0.00     0.004 C 
BRANCH  17  18
ATOM     18  C   UNL     1      52.297  -6.516 -52.013  1.00  0.00     0.000 C 
BRANCH  18  19
ATOM     19  C   UNL     1      51.956  -7.998 -52.245  1.00  0.00    -0.003 C 
ATOM     20  C   UNL     1      51.507  -8.714 -50.973  1.00  0.00     0.004 C 
ENDBRANCH  18  19
ENDBRANCH  17  18
ENDBRANCH  16  17
ENDBRANCH  15  16
ENDBRANCH  13  14
ENDBRANCH  12  13
ENDBRANCH   1  11
TORSDOF 14
ENDMDL
MODEL 4
REMARK VINA RESULT:    -4.247     13.388     14.961
REMARK INTER + INTRA:          -8.771
REMARK INTER:                  -6.439
REMARK INTRA:                  -2.332
REMARK UNBOUND:                -1.048
REMARK SMILES CCCCCC=CCC=CCCCCCCCC(=O)[O-]
REMARK SMILES IDX 11 1 12 2 13 3 14 4 15 5 16 6 17 7 18 8 19 9 20 10 10 11
REMARK SMILES IDX 9 12 8 13 7 14 6 15 5 16 4 17 3 18 2 19 1 20
REMARK H PARENT
REMARK Flexibility Score: inf
ROOT
ATOM      1  C   UNL     1      54.328   9.081 -50.745  1.00  0.00     0.027 C 
ENDROOT
BRANCH   1   2
ATOM      2  C   UNL     1      53.201   9.286 -49.721  1.00  0.00     0.004 C 
BRANCH   2   3
ATOM      3  C   UNL     1      53.203   8.217 -48.615  1.00  0.00     0.000 C 
BRANCH   3   4
ATOM      4  C   UNL     1      54.263   7.112 -48.788  1.00  0.00     0.000 C 
BRANCH   4   5
ATOM      5  C   UNL     1      55.224   6.980 -47.588  1.00  0.00     0.000 C 
BRANCH   5   6
ATOM      6  C   UNL     1      54.632   7.579 -46.299  1.00  0.00     0.006 C 
BRANCH   6   7
ATOM      7  C   UNL     1      55.678   8.354 -45.487  1.00  0.00     0.053 C 
BRANCH   7   8
ATOM      8  C   UNL     1      55.321   8.410 -44.033  1.00  0.00     0.041 C 
ATOM      9  O   UNL     1      56.152   8.844 -43.193  1.00  0.00    -0.550 OA
ATOM     10  O   UNL     1      54.058   8.015 -43.611  1.00  0.00    -0.550 OA
ENDBRANCH   7   8
ENDBRANCH   6   7
ENDBRANCH   5   6
ENDBRANCH   4   5
ENDBRANCH   3   4
ENDBRANCH   2   3
ENDBRANCH   1   2
BRANCH   1  11
ATOM     11  C   UNL     1      53.799   9.214 -52.150  1.00  0.00    -0.031 C 
ATOM     12  C   UNL     1      53.437   8.177 -52.929  1.00  0.00    -0.027 C 
BRANCH  12  13
ATOM     13  C   UNL     1      53.571   6.727 -52.538  1.00  0.00     0.054 C 
BRANCH  13  14
ATOM     14  C   UNL     1      52.299   6.208 -51.925  1.00  0.00    -0.027 C 
ATOM     15  C   UNL     1      51.203   6.975 -51.830  1.00  0.00    -0.031 C 
BRANCH  15  16
ATOM     16  C   UNL     1      49.927   6.455 -51.224  1.00  0.00     0.027 C 
BRANCH  16  17
ATOM     17  C   UNL     1      50.214   5.401 -50.144  1.00  0.00     0.004 C 
BRANCH  17  18
ATOM     18  C   UNL     1      50.381   6.030 -48.745  1.00  0.00     0.000 C 
BRANCH  18  19
ATOM     19  C   UNL     1      50.786   5.018 -47.660  1.00  0.00    -0.003 C 
ATOM     20  C   UNL     1      51.449   5.672 -46.450  1.00  0.00     0.004 C 
ENDBRANCH  18  19
ENDBRANCH  17  18
ENDBRANCH  16  17
ENDBRANCH  15  16
ENDBRANCH  13  14
ENDBRANCH  12  13
ENDBRANCH   1  11
TORSDOF 14
ENDMDL
MODEL 5
REMARK VINA RESULT:    -4.214      3.268      6.745
REMARK INTER + INTRA:          -8.710
REMARK INTER:                  -6.951
REMARK INTRA:                  -1.760
REMARK UNBOUND:                -1.048
REMARK SMILES CCCCCC=CCC=CCCCCCCCC(=O)[O-]
REMARK SMILES IDX 11 1 12 2 13 3 14 4 15 5 16 6 17 7 18 8 19 9 20 10 10 11
REMARK SMILES IDX 9 12 8 13 7 14 6 15 5 16 4 17 3 18 2 19 1 20
REMARK H PARENT
REMARK Flexibility Score: inf
ROOT
ATOM      1  C   UNL     1      60.667  -5.681 -44.796  1.00  0.00     0.027 C 
ENDROOT
BRANCH   1   2
ATOM      2  C   UNL     1      60.587  -6.418 -46.142  1.00  0.00     0.004 C 
BRANCH   2   3
ATOM      3  C   UNL     1      59.144  -6.771 -46.539  1.00  0.00     0.000 C 
BRANCH   3   4
ATOM      4  C   UNL     1      58.176  -5.573 -46.584  1.00  0.00     0.000 C 
BRANCH   4   5
ATOM      5  C   UNL     1      56.689  -5.981 -46.655  1.00  0.00     0.000 C 
BRANCH   5   6
ATOM      6  C   UNL     1      56.506  -7.454 -47.061  1.00  0.00     0.006 C 
BRANCH   6   7
ATOM      7  C   UNL     1      55.093  -7.741 -47.584  1.00  0.00     0.053 C 
BRANCH   7   8
ATOM      8  C   UNL     1      54.045  -7.384 -46.574  1.00  0.00     0.041 C 
ATOM      9  O   UNL     1      53.154  -6.540 -46.857  1.00  0.00    -0.550 OA
ATOM     10  O   UNL     1      54.033  -8.009 -45.333  1.00  0.00    -0.550 OA
ENDBRANCH   7   8
ENDBRANCH   6   7
ENDBRANCH   5   6
ENDBRANCH   4   5
ENDBRANCH   3   4
ENDBRANCH   2   3
ENDBRANCH   1   2
BRANCH   1  11
ATOM     11  C   UNL     1      61.773  -4.657 -44.816  1.00  0.00    -0.031 C 
ATOM     12  C   UNL     1      61.605  -3.360 -45.137  1.00  0.00    -0.027 C 
BRANCH  12  13
ATOM     13  C   UNL     1      60.301  -2.754 -45.592  1.00  0.00     0.054 C 
BRANCH  13  14
ATOM     14  C   UNL     1      60.329  -2.442 -47.063  1.00  0.00    -0.027 C 
ATOM     15  C   UNL     1      61.045  -3.181 -47.923  1.00  0.00    -0.031 C 
BRANCH  15  16
ATOM     16  C   UNL     1      61.068  -2.875 -49.396  1.00  0.00     0.027 C 
BRANCH  16  17
ATOM     17  C   UNL     1      60.666  -4.103 -50.227  1.00  0.00     0.004 C 
BRANCH  17  18
ATOM     18  C   UNL     1      59.558  -3.776 -51.250  1.00  0.00     0.000 C 
BRANCH  18  19
ATOM     19  C   UNL     1      58.526  -2.760 -50.735  1.00  0.00    -0.003 C 
ATOM     20  C   UNL     1      57.368  -2.538 -51.705  1.00  0.00     0.004 C 
ENDBRANCH  18  19
ENDBRANCH  17  18
ENDBRANCH  16  17
ENDBRANCH  15  16
ENDBRANCH  13  14
ENDBRANCH  12  13
ENDBRANCH   1  11
TORSDOF 14
ENDMDL
MODEL 6
REMARK VINA RESULT:    -4.213      1.996      2.833
REMARK INTER + INTRA:          -8.710
REMARK INTER:                  -7.528
REMARK INTRA:                  -1.181
REMARK UNBOUND:                -1.048
REMARK SMILES CCCCCC=CCC=CCCCCCCCC(=O)[O-]
REMARK SMILES IDX 11 1 12 2 13 3 14 4 15 5 16 6 17 7 18 8 19 9 20 10 10 11
REMARK SMILES IDX 9 12 8 13 7 14 6 15 5 16 4 17 3 18 2 19 1 20
REMARK H PARENT
REMARK Flexibility Score: inf
ROOT
ATOM      1  C   UNL     1      57.523  -5.792 -46.452  1.00  0.00     0.027 C 
ENDROOT
BRANCH   1   2
ATOM      2  C   UNL     1      58.918  -5.334 -45.999  1.00  0.00     0.004 C 
BRANCH   2   3
ATOM      3  C   UNL     1      60.011  -6.370 -46.310  1.00  0.00     0.000 C 
BRANCH   3   4
ATOM      4  C   UNL     1      61.389  -5.771 -46.653  1.00  0.00     0.000 C 
BRANCH   4   5
ATOM      5  C   UNL     1      61.311  -4.417 -47.389  1.00  0.00     0.000 C 
BRANCH   5   6
ATOM      6  C   UNL     1      61.676  -4.541 -48.879  1.00  0.00     0.006 C 
BRANCH   6   7
ATOM      7  C   UNL     1      61.313  -3.278 -49.672  1.00  0.00     0.053 C 
BRANCH   7   8
ATOM      8  C   UNL     1      60.134  -3.506 -50.569  1.00  0.00     0.041 C 
ATOM      9  O   UNL     1      60.151  -4.442 -51.411  1.00  0.00    -0.550 OA
ATOM     10  O   UNL     1      59.004  -2.707 -50.449  1.00  0.00    -0.550 OA
ENDBRANCH   7   8
ENDBRANCH   6   7
ENDBRANCH   5   6
ENDBRANCH   4   5
ENDBRANCH   3   4
ENDBRANCH   2   3
ENDBRANCH   1   2
BRANCH   1  11
ATOM     11  C   UNL     1      57.574  -7.199 -46.989  1.00  0.00    -0.031 C 
ATOM     12  C   UNL     1      56.507  -7.876 -47.455  1.00  0.00    -0.027 C 
BRANCH  12  13
ATOM     13  C   UNL     1      55.092  -7.354 -47.444  1.00  0.00     0.054 C 
BRANCH  13  14
ATOM     14  C   UNL     1      54.382  -7.733 -46.173  1.00  0.00    -0.027 C 
ATOM     15  C   UNL     1      54.075  -6.818 -45.242  1.00  0.00    -0.031 C 
BRANCH  15  16
ATOM     16  C   UNL     1      53.358  -7.195 -43.974  1.00  0.00     0.027 C 
BRANCH  16  17
ATOM     17  C   UNL     1      52.303  -8.281 -44.232  1.00  0.00     0.004 C 
BRANCH  17  18
ATOM     18  C   UNL     1      50.973  -7.691 -44.746  1.00  0.00     0.000 C 
BRANCH  18  19
ATOM     19  C   UNL     1      50.670  -8.043 -46.213  1.00  0.00    -0.003 C 
ATOM     20  C   UNL     1      49.198  -7.870 -46.578  1.00  0.00     0.004 C 
ENDBRANCH  18  19
ENDBRANCH  17  18
ENDBRANCH  16  17
ENDBRANCH  15  16
ENDBRANCH  13  14
ENDBRANCH  12  13
ENDBRANCH   1  11
TORSDOF 14
ENDMDL
MODEL 7
REMARK VINA RESULT:    -4.195      2.107      3.000
REMARK INTER + INTRA:          -8.676
REMARK INTER:                  -6.988
REMARK INTRA:                  -1.688
REMARK UNBOUND:                -1.048
REMARK SMILES CCCCCC=CCC=CCCCCCCCC(=O)[O-]
REMARK SMILES IDX 11 1 12 2 13 3 14 4 15 5 16 6 17 7 18 8 19 9 20 10 10 11
REMARK SMILES IDX 9 12 8 13 7 14 6 15 5 16 4 17 3 18 2 19 1 20
REMARK H PARENT
REMARK Flexibility Score: inf
ROOT
ATOM      1  C   UNL     1      59.740  -6.540 -45.965  1.00  0.00     0.027 C 
ENDROOT
BRANCH   1   2
ATOM      2  C   UNL     1      61.270  -6.449 -45.860  1.00  0.00     0.004 C 
BRANCH   2   3
ATOM      3  C   UNL     1      61.898  -5.658 -47.019  1.00  0.00     0.000 C 
BRANCH   3   4
ATOM      4  C   UNL     1      62.125  -4.161 -46.731  1.00  0.00     0.000 C 
BRANCH   4   5
ATOM      5  C   UNL     1      61.191  -3.227 -47.529  1.00  0.00     0.000 C 
BRANCH   5   6
ATOM      6  C   UNL     1      60.510  -3.950 -48.705  1.00  0.00     0.006 C 
BRANCH   6   7
ATOM      7  C   UNL     1      60.820  -3.283 -50.052  1.00  0.00     0.053 C 
BRANCH   7   8
ATOM      8  C   UNL     1      59.805  -3.642 -51.095  1.00  0.00     0.041 C 
ATOM      9  O   UNL     1      60.035  -4.576 -51.907  1.00  0.00    -0.550 OA
ATOM     10  O   UNL     1      58.592  -2.967 -51.146  1.00  0.00    -0.550 OA
ENDBRANCH   7   8
ENDBRANCH   6   7
ENDBRANCH   5   6
ENDBRANCH   4   5
ENDBRANCH   3   4
ENDBRANCH   2   3
ENDBRANCH   1   2
BRANCH   1  11
ATOM     11  C   UNL     1      59.085  -5.542 -45.045  1.00  0.00    -0.031 C 
ATOM     12  C   UNL     1      58.043  -4.761 -45.387  1.00  0.00    -0.027 C 
BRANCH  12  13
ATOM     13  C   UNL     1      57.421  -4.718 -46.760  1.00  0.00     0.054 C 
BRANCH  13  14
ATOM     14  C   UNL     1      56.157  -5.532 -46.812  1.00  0.00    -0.027 C 
ATOM     15  C   UNL     1      56.182  -6.850 -47.063  1.00  0.00    -0.031 C 
BRANCH  15  16
ATOM     16  C   UNL     1      54.920  -7.667 -47.108  1.00  0.00     0.027 C 
BRANCH  16  17
ATOM     17  C   UNL     1      54.268  -7.761 -45.720  1.00  0.00     0.004 C 
BRANCH  17  18
ATOM     18  C   UNL     1      52.868  -7.112 -45.689  1.00  0.00     0.000 C 
BRANCH  18  19
ATOM     19  C   UNL     1      52.349  -6.839 -44.267  1.00  0.00    -0.003 C 
ATOM     20  C   UNL     1      52.624  -7.986 -43.299  1.00  0.00     0.004 C 
ENDBRANCH  18  19
ENDBRANCH  17  18
ENDBRANCH  16  17
ENDBRANCH  15  16
ENDBRANCH  13  14
ENDBRANCH  12  13
ENDBRANCH   1  11
TORSDOF 14
ENDMDL
MODEL 8
REMARK VINA RESULT:    -4.148      3.932      6.338
REMARK INTER + INTRA:          -8.590
REMARK INTER:                  -5.764
REMARK INTRA:                  -2.826
REMARK UNBOUND:                -1.048
REMARK SMILES CCCCCC=CCC=CCCCCCCCC(=O)[O-]
REMARK SMILES IDX 11 1 12 2 13 3 14 4 15 5 16 6 17 7 18 8 19 9 20 10 10 11
REMARK SMILES IDX 9 12 8 13 7 14 6 15 5 16 4 17 3 18 2 19 1 20
REMARK H PARENT
REMARK Flexibility Score: inf
ROOT
ATOM      1  C   UNL     1      57.168  -5.087 -46.190  1.00  0.00     0.027 C 
ENDROOT
BRANCH   1   2
ATOM      2  C   UNL     1      57.096  -4.135 -47.394  1.00  0.00     0.004 C 
BRANCH   2   3
ATOM      3  C   UNL     1      57.455  -2.685 -47.025  1.00  0.00     0.000 C 
BRANCH   3   4
ATOM      4  C   UNL     1      58.516  -2.545 -45.917  1.00  0.00     0.000 C 
BRANCH   4   5
ATOM      5  C   UNL     1      59.656  -1.567 -46.269  1.00  0.00     0.000 C 
BRANCH   5   6
ATOM      6  C   UNL     1      59.413  -0.158 -45.700  1.00  0.00     0.006 C 
BRANCH   6   7
ATOM      7  C   UNL     1      59.204   0.886 -46.805  1.00  0.00     0.053 C 
BRANCH   7   8
ATOM      8  C   UNL     1      57.756   1.230 -46.976  1.00  0.00     0.041 C 
ATOM      9  O   UNL     1      57.391   1.981 -47.917  1.00  0.00    -0.550 OA
ATOM     10  O   UNL     1      56.807   0.692 -46.116  1.00  0.00    -0.550 OA
ENDBRANCH   7   8
ENDBRANCH   6   7
ENDBRANCH   5   6
ENDBRANCH   4   5
ENDBRANCH   3   4
ENDBRANCH   2   3
ENDBRANCH   1   2
BRANCH   1  11
ATOM     11  C   UNL     1      57.743  -6.418 -46.600  1.00  0.00    -0.031 C 
ATOM     12  C   UNL     1      59.034  -6.769 -46.452  1.00  0.00    -0.027 C 
BRANCH  12  13
ATOM     13  C   UNL     1      60.112  -5.858 -45.920  1.00  0.00     0.054 C 
BRANCH  13  14
ATOM     14  C   UNL     1      61.090  -5.482 -46.999  1.00  0.00    -0.027 C 
ATOM     15  C   UNL     1      60.748  -4.656 -47.999  1.00  0.00    -0.031 C 
BRANCH  15  16
ATOM     16  C   UNL     1      61.727  -4.273 -49.075  1.00  0.00     0.027 C 
BRANCH  16  17
ATOM     17  C   UNL     1      61.134  -3.213 -50.016  1.00  0.00     0.004 C 
BRANCH  17  18
ATOM     18  C   UNL     1      59.786  -3.659 -50.620  1.00  0.00     0.000 C 
BRANCH  18  19
ATOM     19  C   UNL     1      58.695  -2.577 -50.551  1.00  0.00    -0.003 C 
ATOM     20  C   UNL     1      59.196  -1.257 -49.971  1.00  0.00     0.004 C 
ENDBRANCH  18  19
ENDBRANCH  17  18
ENDBRANCH  16  17
ENDBRANCH  15  16
ENDBRANCH  13  14
ENDBRANCH  12  13
ENDBRANCH   1  11
TORSDOF 14
ENDMDL
MODEL 9
REMARK VINA RESULT:    -4.074      4.328      6.731
REMARK INTER + INTRA:          -8.457
REMARK INTER:                  -5.673
REMARK INTRA:                  -2.784
REMARK UNBOUND:                -1.048
REMARK SMILES CCCCCC=CCC=CCCCCCCCC(=O)[O-]
REMARK SMILES IDX 11 1 12 2 13 3 14 4 15 5 16 6 17 7 18 8 19 9 20 10 10 11
REMARK SMILES IDX 9 12 8 13 7 14 6 15 5 16 4 17 3 18 2 19 1 20
REMARK H PARENT
REMARK Flexibility Score: inf
ROOT
ATOM      1  C   UNL     1      59.901  -5.911 -45.680  1.00  0.00     0.027 C 
ENDROOT
BRANCH   1   2
ATOM      2  C   UNL     1      58.621  -6.245 -46.460  1.00  0.00     0.004 C 
BRANCH   2   3
ATOM      3  C   UNL     1      57.709  -5.022 -46.656  1.00  0.00     0.000 C 
BRANCH   3   4
ATOM      4  C   UNL     1      58.429  -3.662 -46.581  1.00  0.00     0.000 C 
BRANCH   4   5
ATOM      5  C   UNL     1      57.525  -2.508 -46.099  1.00  0.00     0.000 C 
BRANCH   5   6
ATOM      6  C   UNL     1      58.264  -1.545 -45.152  1.00  0.00     0.006 C 
BRANCH   6   7
ATOM      7  C   UNL     1      59.787  -1.618 -45.323  1.00  0.00     0.053 C 
BRANCH   7   8
ATOM      8  C   UNL     1      60.478  -1.906 -44.025  1.00  0.00     0.041 C 
ATOM      9  O   UNL     1      60.988  -0.969 -43.358  1.00  0.00    -0.550 OA
ATOM     10  O   UNL     1      60.526  -3.206 -43.536  1.00  0.00    -0.550 OA
ENDBRANCH   7   8
ENDBRANCH   6   7
ENDBRANCH   5   6
ENDBRANCH   4   5
ENDBRANCH   3   4
ENDBRANCH   2   3
ENDBRANCH   1   2
BRANCH   1  11
ATOM     11  C   UNL     1      61.120  -6.377 -46.434  1.00  0.00    -0.031 C 
ATOM     12  C   UNL     1      62.111  -5.568 -46.854  1.00  0.00    -0.027 C 
BRANCH  12  13
ATOM     13  C   UNL     1      62.117  -4.069 -46.693  1.00  0.00     0.054 C 
BRANCH  13  14
ATOM     14  C   UNL     1      61.679  -3.383 -47.959  1.00  0.00    -0.027 C 
ATOM     15  C   UNL     1      61.569  -4.052 -49.116  1.00  0.00    -0.031 C 
BRANCH  15  16
ATOM     16  C   UNL     1      61.124  -3.370 -50.381  1.00  0.00     0.027 C 
BRANCH  16  17
ATOM     17  C   UNL     1      59.658  -3.695 -50.704  1.00  0.00     0.004 C 
BRANCH  17  18
ATOM     18  C   UNL     1      58.691  -2.623 -50.161  1.00  0.00     0.000 C 
BRANCH  18  19
ATOM     19  C   UNL     1      59.289  -1.206 -50.145  1.00  0.00    -0.003 C 
ATOM     20  C   UNL     1      59.257  -0.558 -48.763  1.00  0.00     0.004 C 
ENDBRANCH  18  19
ENDBRANCH  17  18
ENDBRANCH  16  17
ENDBRANCH  15  16
ENDBRANCH  13  14
ENDBRANCH  12  13
ENDBRANCH   1  11
TORSDOF 14
ENDMDL
