MODEL 1
REMARK VINA RESULT:    -6.468      0.000      0.000
REMARK INTER + INTRA:          -6.468
REMARK INTER:                  -6.468
REMARK INTRA:                   0.000
REMARK UNBOUND:                 0.000
REMARK SMILES C=C1CCC[C@]2(C)CC(=O)C(=C(C)C)C[C@@H]12
REMARK SMILES IDX 13 1 12 2 11 3 15 4 16 5 2 6 1 7 3 8 4 9 5 10 6 11 8 12 9 13
REMARK SMILES IDX 10 14 7 15 14 16
REMARK H PARENT
REMARK Flexibility Score: inf
ROOT
ATOM      1  C   UNL     1       7.300 -15.813  19.680  1.00  0.00     0.039 C 
ATOM      2  C   UNL     1       7.259 -16.227  21.134  1.00  0.00    -0.070 C 
ATOM      3  C   UNL     1       7.630 -17.483  21.524  1.00  0.00    -0.006 C 
ATOM      4  C   UNL     1       8.078 -18.524  20.507  1.00  0.00     0.047 C 
ATOM      5  C   UNL     1       7.743 -19.972  20.944  1.00  0.00     0.025 C 
ATOM      6  C   UNL     1       8.206 -21.065  19.979  1.00  0.00    -0.073 C 
ATOM      7  C   UNL     1       8.869 -20.826  18.831  1.00  0.00     0.008 C 
ATOM      8  C   UNL     1       7.841 -22.482  20.351  1.00  0.00     0.031 C 
ATOM      9  C   UNL     1       8.304 -22.795  21.777  1.00  0.00     0.005 C 
ATOM     10  C   UNL     1       7.814 -21.734  22.778  1.00  0.00     0.008 C 
ATOM     11  C   UNL     1       8.239 -20.285  22.390  1.00  0.00    -0.018 C 
ATOM     12  C   UNL     1       7.553 -19.303  23.371  1.00  0.00     0.088 C 
ATOM     13  C   UNL     1       7.737 -17.871  22.961  1.00  0.00     0.159 C 
ATOM     14  O   UNL     1       7.997 -17.018  23.851  1.00  0.00    -0.295 OA
ATOM     15  C   UNL     1       9.781 -20.145  22.516  1.00  0.00     0.012 C 
ATOM     16  C   UNL     1       6.755 -15.201  22.123  1.00  0.00     0.039 C 
ENDROOT
TORSDOF 0
ENDMDL
MODEL 2
REMARK VINA RESULT:    -6.364      2.008      4.822
REMARK INTER + INTRA:          -6.364
REMARK INTER:                  -6.364
REMARK INTRA:                   0.000
REMARK UNBOUND:                 0.000
REMARK SMILES C=C1CCC[C@]2(C)CC(=O)C(=C(C)C)C[C@@H]12
REMARK SMILES IDX 13 1 12 2 11 3 15 4 16 5 2 6 1 7 3 8 4 9 5 10 6 11 8 12 9 13
REMARK SMILES IDX 10 14 7 15 14 16
REMARK H PARENT
REMARK Flexibility Score: inf
ROOT
ATOM      1  C   UNL     1       7.571 -18.842  18.832  1.00  0.00     0.039 C 
ATOM      2  C   UNL     1       7.946 -19.770  19.966  1.00  0.00    -0.070 C 
ATOM      3  C   UNL     1       7.941 -19.343  21.264  1.00  0.00    -0.006 C 
ATOM      4  C   UNL     1       7.579 -17.907  21.619  1.00  0.00     0.047 C 
ATOM      5  C   UNL     1       8.301 -17.405  22.894  1.00  0.00     0.025 C 
ATOM      6  C   UNL     1       7.945 -15.981  23.323  1.00  0.00    -0.073 C 
ATOM      7  C   UNL     1       7.064 -15.196  22.674  1.00  0.00     0.008 C 
ATOM      8  C   UNL     1       8.679 -15.444  24.528  1.00  0.00     0.031 C 
ATOM      9  C   UNL     1       8.544 -16.409  25.709  1.00  0.00     0.005 C 
ATOM     10  C   UNL     1       8.940 -17.844  25.318  1.00  0.00     0.008 C 
ATOM     11  C   UNL     1       8.138 -18.387  24.096  1.00  0.00    -0.018 C 
ATOM     12  C   UNL     1       8.736 -19.758  23.698  1.00  0.00     0.088 C 
ATOM     13  C   UNL     1       8.166 -20.273  22.408  1.00  0.00     0.159 C 
ATOM     14  O   UNL     1       7.871 -21.495  22.326  1.00  0.00    -0.295 OA
ATOM     15  C   UNL     1       6.647 -18.571  24.493  1.00  0.00     0.012 C 
ATOM     16  C   UNL     1       8.361 -21.174  19.590  1.00  0.00     0.039 C 
ENDROOT
TORSDOF 0
ENDMDL
MODEL 3
REMARK VINA RESULT:    -6.218      2.321      5.362
REMARK INTER + INTRA:          -6.218
REMARK INTER:                  -6.218
REMARK INTRA:                   0.000
REMARK UNBOUND:                 0.000
REMARK SMILES C=C1CCC[C@]2(C)CC(=O)C(=C(C)C)C[C@@H]12
REMARK SMILES IDX 13 1 12 2 11 3 15 4 16 5 2 6 1 7 3 8 4 9 5 10 6 11 8 12 9 13
REMARK SMILES IDX 10 14 7 15 14 16
REMARK H PARENT
REMARK Flexibility Score: inf
ROOT
ATOM      1  C   UNL     1      10.620 -22.341  21.400  1.00  0.00     0.039 C 
ATOM      2  C   UNL     1       9.164 -22.165  21.770  1.00  0.00    -0.070 C 
ATOM      3  C   UNL     1       8.731 -21.053  22.435  1.00  0.00    -0.006 C 
ATOM      4  C   UNL     1       9.701 -19.955  22.850  1.00  0.00     0.047 C 
ATOM      5  C   UNL     1       9.259 -19.221  24.142  1.00  0.00     0.025 C 
ATOM      6  C   UNL     1      10.176 -18.080  24.585  1.00  0.00    -0.073 C 
ATOM      7  C   UNL     1      11.286 -17.703  23.923  1.00  0.00     0.008 C 
ATOM      8  C   UNL     1       9.802 -17.387  25.873  1.00  0.00     0.031 C 
ATOM      9  C   UNL     1       8.345 -16.916  25.822  1.00  0.00     0.005 C 
ATOM     10  C   UNL     1       7.394 -18.057  25.421  1.00  0.00     0.008 C 
ATOM     11  C   UNL     1       7.781 -18.728  24.068  1.00  0.00    -0.018 C 
ATOM     12  C   UNL     1       6.860 -19.955  23.859  1.00  0.00     0.088 C 
ATOM     13  C   UNL     1       7.284 -20.788  22.683  1.00  0.00     0.159 C 
ATOM     14  O   UNL     1       6.394 -21.238  21.913  1.00  0.00    -0.295 OA
ATOM     15  C   UNL     1       7.565 -17.719  22.907  1.00  0.00     0.012 C 
ATOM     16  C   UNL     1       8.225 -23.291  21.404  1.00  0.00     0.039 C 
ENDROOT
TORSDOF 0
ENDMDL
MODEL 4
REMARK VINA RESULT:    -6.082      2.509      5.265
REMARK INTER + INTRA:          -6.082
REMARK INTER:                  -6.082
REMARK INTRA:                   0.000
REMARK UNBOUND:                 0.000
REMARK SMILES C=C1CCC[C@]2(C)CC(=O)C(=C(C)C)C[C@@H]12
REMARK SMILES IDX 13 1 12 2 11 3 15 4 16 5 2 6 1 7 3 8 4 9 5 10 6 11 8 12 9 13
REMARK SMILES IDX 10 14 7 15 14 16
REMARK H PARENT
REMARK Flexibility Score: inf
ROOT
ATOM      1  C   UNL     1      12.212 -20.155  23.317  1.00  0.00     0.039 C 
ATOM      2  C   UNL     1      11.920 -19.023  24.277  1.00  0.00    -0.070 C 
ATOM      3  C   UNL     1      10.798 -18.253  24.145  1.00  0.00    -0.006 C 
ATOM      4  C   UNL     1       9.808 -18.491  23.012  1.00  0.00     0.047 C 
ATOM      5  C   UNL     1       9.086 -17.195  22.565  1.00  0.00     0.025 C 
ATOM      6  C   UNL     1       8.049 -17.379  21.457  1.00  0.00    -0.073 C 
ATOM      7  C   UNL     1       7.749 -18.565  20.894  1.00  0.00     0.008 C 
ATOM      8  C   UNL     1       7.374 -16.123  20.961  1.00  0.00     0.031 C 
ATOM      9  C   UNL     1       6.772 -15.342  22.132  1.00  0.00     0.005 C 
ATOM     10  C   UNL     1       7.807 -15.103  23.246  1.00  0.00     0.008 C 
ATOM     11  C   UNL     1       8.460 -16.420  23.767  1.00  0.00    -0.018 C 
ATOM     12  C   UNL     1       9.590 -16.040  24.753  1.00  0.00     0.088 C 
ATOM     13  C   UNL     1      10.413 -17.228  25.158  1.00  0.00     0.159 C 
ATOM     14  O   UNL     1      10.753 -17.342  26.366  1.00  0.00    -0.295 OA
ATOM     15  C   UNL     1       7.393 -17.270  24.510  1.00  0.00     0.012 C 
ATOM     16  C   UNL     1      12.943 -18.762  25.358  1.00  0.00     0.039 C 
ENDROOT
TORSDOF 0
ENDMDL
MODEL 5
REMARK VINA RESULT:    -6.081      2.104      5.534
REMARK INTER + INTRA:          -6.081
REMARK INTER:                  -6.081
REMARK INTRA:                   0.000
REMARK UNBOUND:                 0.000
REMARK SMILES C=C1CCC[C@]2(C)CC(=O)C(=C(C)C)C[C@@H]12
REMARK SMILES IDX 13 1 12 2 11 3 15 4 16 5 2 6 1 7 3 8 4 9 5 10 6 11 8 12 9 13
REMARK SMILES IDX 10 14 7 15 14 16
REMARK H PARENT
REMARK Flexibility Score: inf
ROOT
ATOM      1  C   UNL     1       6.763 -20.750  22.872  1.00  0.00     0.039 C 
ATOM      2  C   UNL     1       7.375 -20.986  21.509  1.00  0.00    -0.070 C 
ATOM      3  C   UNL     1       7.738 -19.942  20.705  1.00  0.00    -0.006 C 
ATOM      4  C   UNL     1       7.518 -18.499  21.139  1.00  0.00     0.047 C 
ATOM      5  C   UNL     1       7.268 -17.545  19.944  1.00  0.00     0.025 C 
ATOM      6  C   UNL     1       7.081 -16.074  20.317  1.00  0.00    -0.073 C 
ATOM      7  C   UNL     1       7.135 -15.602  21.577  1.00  0.00     0.008 C 
ATOM      8  C   UNL     1       6.775 -15.131  19.178  1.00  0.00     0.031 C 
ATOM      9  C   UNL     1       7.824 -15.274  18.071  1.00  0.00     0.005 C 
ATOM     10  C   UNL     1       8.001 -16.742  17.644  1.00  0.00     0.008 C 
ATOM     11  C   UNL     1       8.355 -17.686  18.834  1.00  0.00    -0.018 C 
ATOM     12  C   UNL     1       8.343 -19.143  18.312  1.00  0.00     0.088 C 
ATOM     13  C   UNL     1       8.473 -20.145  19.423  1.00  0.00     0.159 C 
ATOM     14  O   UNL     1       9.225 -21.140  19.251  1.00  0.00    -0.295 OA
ATOM     15  C   UNL     1       9.773 -17.342  19.366  1.00  0.00     0.012 C 
ATOM     16  C   UNL     1       7.530 -22.423  21.070  1.00  0.00     0.039 C 
ENDROOT
TORSDOF 0
ENDMDL
MODEL 6
REMARK VINA RESULT:    -6.000      2.648      5.765
REMARK INTER + INTRA:          -6.000
REMARK INTER:                  -6.000
REMARK INTRA:                   0.000
REMARK UNBOUND:                 0.000
REMARK SMILES C=C1CCC[C@]2(C)CC(=O)C(=C(C)C)C[C@@H]12
REMARK SMILES IDX 13 1 12 2 11 3 15 4 16 5 2 6 1 7 3 8 4 9 5 10 6 11 8 12 9 13
REMARK SMILES IDX 10 14 7 15 14 16
REMARK H PARENT
REMARK Flexibility Score: inf
ROOT
ATOM      1  C   UNL     1       9.048 -22.115  22.104  1.00  0.00     0.039 C 
ATOM      2  C   UNL     1      10.328 -21.399  22.475  1.00  0.00    -0.070 C 
ATOM      3  C   UNL     1      10.305 -20.176  23.085  1.00  0.00    -0.006 C 
ATOM      4  C   UNL     1       8.989 -19.475  23.395  1.00  0.00     0.047 C 
ATOM      5  C   UNL     1       9.111 -17.930  23.363  1.00  0.00     0.025 C 
ATOM      6  C   UNL     1       7.829 -17.171  23.707  1.00  0.00    -0.073 C 
ATOM      7  C   UNL     1       6.665 -17.765  24.031  1.00  0.00     0.008 C 
ATOM      8  C   UNL     1       7.904 -15.665  23.626  1.00  0.00     0.031 C 
ATOM      9  C   UNL     1       9.076 -15.143  24.461  1.00  0.00     0.005 C 
ATOM     10  C   UNL     1      10.390 -15.859  24.104  1.00  0.00     0.008 C 
ATOM     11  C   UNL     1      10.296 -17.410  24.235  1.00  0.00    -0.018 C 
ATOM     12  C   UNL     1      11.612 -18.020  23.695  1.00  0.00     0.088 C 
ATOM     13  C   UNL     1      11.544 -19.516  23.590  1.00  0.00     0.159 C 
ATOM     14  O   UNL     1      12.544 -20.191  23.952  1.00  0.00    -0.295 OA
ATOM     15  C   UNL     1      10.127 -17.795  25.730  1.00  0.00     0.012 C 
ATOM     16  C   UNL     1      11.624 -22.081  22.106  1.00  0.00     0.039 C 
ENDROOT
TORSDOF 0
ENDMDL
MODEL 7
REMARK VINA RESULT:    -5.967      6.870      9.131
REMARK INTER + INTRA:          -5.967
REMARK INTER:                  -5.967
REMARK INTRA:                   0.000
REMARK UNBOUND:                 0.000
REMARK SMILES C=C1CCC[C@]2(C)CC(=O)C(=C(C)C)C[C@@H]12
REMARK SMILES IDX 13 1 12 2 11 3 15 4 16 5 2 6 1 7 3 8 4 9 5 10 6 11 8 12 9 13
REMARK SMILES IDX 10 14 7 15 14 16
REMARK H PARENT
REMARK Flexibility Score: inf
ROOT
ATOM      1  C   UNL     1      19.627 -19.376  22.795  1.00  0.00     0.039 C 
ATOM      2  C   UNL     1      18.725 -20.519  23.205  1.00  0.00    -0.070 C 
ATOM      3  C   UNL     1      17.386 -20.498  22.934  1.00  0.00    -0.006 C 
ATOM      4  C   UNL     1      16.743 -19.312  22.228  1.00  0.00     0.047 C 
ATOM      5  C   UNL     1      15.269 -19.091  22.648  1.00  0.00     0.025 C 
ATOM      6  C   UNL     1      14.558 -17.937  21.939  1.00  0.00    -0.073 C 
ATOM      7  C   UNL     1      15.134 -17.156  21.006  1.00  0.00     0.008 C 
ATOM      8  C   UNL     1      13.139 -17.661  22.373  1.00  0.00     0.031 C 
ATOM      9  C   UNL     1      12.298 -18.938  22.291  1.00  0.00     0.005 C 
ATOM     10  C   UNL     1      12.968 -20.107  23.034  1.00  0.00     0.008 C 
ATOM     11  C   UNL     1      14.418 -20.395  22.539  1.00  0.00    -0.018 C 
ATOM     12  C   UNL     1      15.039 -21.468  23.465  1.00  0.00     0.088 C 
ATOM     13  C   UNL     1      16.503 -21.671  23.197  1.00  0.00     0.159 C 
ATOM     14  O   UNL     1      16.955 -22.847  23.185  1.00  0.00    -0.295 OA
ATOM     15  C   UNL     1      14.372 -20.936  21.083  1.00  0.00     0.012 C 
ATOM     16  C   UNL     1      19.368 -21.660  23.958  1.00  0.00     0.039 C 
ENDROOT
TORSDOF 0
ENDMDL
MODEL 8
REMARK VINA RESULT:    -5.918      2.946      4.902
REMARK INTER + INTRA:          -5.918
REMARK INTER:                  -5.918
REMARK INTRA:                   0.000
REMARK UNBOUND:                 0.000
REMARK SMILES C=C1CCC[C@]2(C)CC(=O)C(=C(C)C)C[C@@H]12
REMARK SMILES IDX 13 1 12 2 11 3 15 4 16 5 2 6 1 7 3 8 4 9 5 10 6 11 8 12 9 13
REMARK SMILES IDX 10 14 7 15 14 16
REMARK H PARENT
REMARK Flexibility Score: inf
ROOT
ATOM      1  C   UNL     1      12.174 -18.086  24.579  1.00  0.00     0.039 C 
ATOM      2  C   UNL     1      12.583 -19.494  24.208  1.00  0.00    -0.070 C 
ATOM      3  C   UNL     1      11.823 -20.255  23.365  1.00  0.00    -0.006 C 
ATOM      4  C   UNL     1      10.520 -19.723  22.783  1.00  0.00     0.047 C 
ATOM      5  C   UNL     1       9.482 -20.842  22.515  1.00  0.00     0.025 C 
ATOM      6  C   UNL     1       8.167 -20.372  21.892  1.00  0.00    -0.073 C 
ATOM      7  C   UNL     1       7.898 -19.092  21.574  1.00  0.00     0.008 C 
ATOM      8  C   UNL     1       7.115 -21.433  21.676  1.00  0.00     0.031 C 
ATOM      9  C   UNL     1       7.696 -22.606  20.880  1.00  0.00     0.005 C 
ATOM     10  C   UNL     1       8.998 -23.129  21.511  1.00  0.00     0.008 C 
ATOM     11  C   UNL     1      10.081 -22.021  21.686  1.00  0.00    -0.018 C 
ATOM     12  C   UNL     1      11.268 -22.627  22.474  1.00  0.00     0.088 C 
ATOM     13  C   UNL     1      12.276 -21.587  22.870  1.00  0.00     0.159 C 
ATOM     14  O   UNL     1      13.500 -21.862  22.758  1.00  0.00    -0.295 OA
ATOM     15  C   UNL     1      10.576 -21.553  20.290  1.00  0.00     0.012 C 
ATOM     16  C   UNL     1      13.847 -20.027  24.841  1.00  0.00     0.039 C 
ENDROOT
TORSDOF 0
ENDMDL
MODEL 9
REMARK VINA RESULT:    -5.902      1.896      3.091
REMARK INTER + INTRA:          -5.902
REMARK INTER:                  -5.902
REMARK INTRA:                   0.000
REMARK UNBOUND:                 0.000
REMARK SMILES C=C1CCC[C@]2(C)CC(=O)C(=C(C)C)C[C@@H]12
REMARK SMILES IDX 13 1 12 2 11 3 15 4 16 5 2 6 1 7 3 8 4 9 5 10 6 11 8 12 9 13
REMARK SMILES IDX 10 14 7 15 14 16
REMARK H PARENT
REMARK Flexibility Score: inf
ROOT
ATOM      1  C   UNL     1      12.026 -17.560  24.324  1.00  0.00     0.039 C 
ATOM      2  C   UNL     1      10.578 -17.250  24.016  1.00  0.00    -0.070 C 
ATOM      3  C   UNL     1       9.742 -18.204  23.507  1.00  0.00    -0.006 C 
ATOM      4  C   UNL     1      10.241 -19.611  23.208  1.00  0.00     0.047 C 
ATOM      5  C   UNL     1       9.486 -20.278  22.031  1.00  0.00     0.025 C 
ATOM      6  C   UNL     1       9.917 -21.709  21.711  1.00  0.00    -0.073 C 
ATOM      7  C   UNL     1      10.870 -22.379  22.387  1.00  0.00     0.008 C 
ATOM      8  C   UNL     1       9.240 -22.362  20.530  1.00  0.00     0.031 C 
ATOM      9  C   UNL     1       7.717 -22.281  20.676  1.00  0.00     0.005 C 
ATOM     10  C   UNL     1       7.250 -20.841  20.955  1.00  0.00     0.008 C 
ATOM     11  C   UNL     1       7.937 -20.207  22.203  1.00  0.00    -0.018 C 
ATOM     12  C   UNL     1       7.515 -18.719  22.280  1.00  0.00     0.088 C 
ATOM     13  C   UNL     1       8.280 -17.967  23.330  1.00  0.00     0.159 C 
ATOM     14  O   UNL     1       7.656 -17.152  24.061  1.00  0.00    -0.295 OA
ATOM     15  C   UNL     1       7.463 -20.943  23.486  1.00  0.00     0.012 C 
ATOM     16  C   UNL     1      10.116 -15.833  24.261  1.00  0.00     0.039 C 
ENDROOT
TORSDOF 0
ENDMDL
