MODEL 1
REMARK VINA RESULT:     2.950      0.000      0.000
REMARK INTER + INTRA:           3.016
REMARK INTER:                   3.209
REMARK INTRA:                  -0.193
REMARK UNBOUND:                -0.193
REMARK SMILES CC1=C[C@@H]2[C@@H](CC1)[C@](C)(O)CC[C@H]2C(C)C
REMARK SMILES IDX 1 1 2 2 3 3 4 4 13 5 12 6 11 7 8 8 5 9 6 10 7 11 9 12 14 13
REMARK SMILES IDX 15 14 16 15 10 16
REMARK H PARENT 10 17
REMARK Flexibility Score: inf
ROOT
ATOM      1  C   UNL     1     -32.553  34.344 -12.095  1.00  0.00     0.039 C 
ATOM      2  C   UNL     1     -33.987  34.565 -11.701  1.00  0.00    -0.077 C 
ATOM      3  C   UNL     1     -34.886  33.580 -11.915  1.00  0.00    -0.024 C 
ATOM      4  C   UNL     1     -36.370  33.704 -11.592  1.00  0.00     0.021 C 
ATOM      5  C   UNL     1     -36.923  32.358 -11.012  1.00  0.00    -0.001 C 
ATOM      6  C   UNL     1     -38.157  32.567 -10.083  1.00  0.00     0.007 C 
ATOM      7  C   UNL     1     -38.998  33.788 -10.478  1.00  0.00     0.035 C 
ATOM      8  C   UNL     1     -38.193  35.125 -10.432  1.00  0.00     0.065 C 
ATOM      9  C   UNL     1     -36.650  34.872 -10.612  1.00  0.00     0.028 C 
ATOM     10  C   UNL     1     -35.856  36.124 -11.026  1.00  0.00     0.011 C 
ATOM     11  C   UNL     1     -34.356  35.838 -10.969  1.00  0.00     0.031 C 
ATOM     12  C   UNL     1     -38.763  36.059 -11.523  1.00  0.00     0.042 C 
ENDROOT
BRANCH   5  13
ATOM     13  C   UNL     1     -37.151  31.276 -12.125  1.00  0.00    -0.014 C 
ATOM     14  C   UNL     1     -38.527  30.593 -12.071  1.00  0.00     0.007 C 
ATOM     15  C   UNL     1     -36.036  30.217 -12.123  1.00  0.00     0.007 C 
ENDBRANCH   5  13
BRANCH   8  16
ATOM     16  O   UNL     1     -38.411  35.763  -9.195  1.00  0.00    -0.390 OA
ATOM     17  H   UNL     1     -39.072  35.227  -8.683  1.00  0.00     0.211 HD
ENDBRANCH   8  16
TORSDOF 2
ENDMDL
