MODEL 1
REMARK VINA RESULT:    -4.951      0.000      0.000
REMARK INTER + INTRA:          -6.507
REMARK INTER:                  -6.398
REMARK INTRA:                  -0.109
REMARK UNBOUND:                -0.109
REMARK SMILES CCCCCCC(=O)[O-]
REMARK SMILES IDX 5 1 6 2 7 3 8 4 9 5 4 6 3 7 2 8 1 9
REMARK H PARENT
REMARK Flexibility Score: inf
ROOT
ATOM      1  C   UNL     1      -0.646   9.123 -38.547  1.00  0.00     0.006 C 
ENDROOT
BRANCH   1   2
ATOM      2  C   UNL     1      -1.284  10.484 -38.240  1.00  0.00     0.053 C 
BRANCH   2   3
ATOM      3  C   UNL     1      -0.255  11.507 -37.867  1.00  0.00     0.041 C 
ATOM      4  O   UNL     1      -0.569  12.483 -37.135  1.00  0.00    -0.550 OA
ATOM      5  O   UNL     1       1.056  11.365 -38.301  1.00  0.00    -0.550 OA
ENDBRANCH   2   3
ENDBRANCH   1   2
BRANCH   1   6
ATOM      6  C   UNL     1      -1.502   8.285 -39.510  1.00  0.00     0.000 C 
BRANCH   6   7
ATOM      7  C   UNL     1      -0.685   7.126 -40.102  1.00  0.00    -0.000 C 
BRANCH   7   8
ATOM      8  C   UNL     1       0.022   7.510 -41.411  1.00  0.00    -0.003 C 
ATOM      9  C   UNL     1       0.827   6.357 -42.008  1.00  0.00     0.004 C 
ENDBRANCH   7   8
ENDBRANCH   6   7
ENDBRANCH   1   6
TORSDOF 5
ENDMDL
MODEL 2
REMARK VINA RESULT:    -4.700      2.205      3.047
REMARK INTER + INTRA:          -6.183
REMARK INTER:                  -6.132
REMARK INTRA:                  -0.050
REMARK UNBOUND:                -0.109
REMARK SMILES CCCCCCC(=O)[O-]
REMARK SMILES IDX 5 1 6 2 7 3 8 4 9 5 4 6 3 7 2 8 1 9
REMARK H PARENT
REMARK Flexibility Score: inf
ROOT
ATOM      1  C   UNL     1       0.328  11.269 -38.271  1.00  0.00     0.006 C 
ENDROOT
BRANCH   1   2
ATOM      2  C   UNL     1       0.346  12.332 -37.166  1.00  0.00     0.053 C 
BRANCH   2   3
ATOM      3  C   UNL     1      -0.987  12.998 -37.015  1.00  0.00     0.041 C 
ATOM      4  O   UNL     1      -1.342  13.897 -37.823  1.00  0.00    -0.550 OA
ATOM      5  O   UNL     1      -1.850  12.603 -36.002  1.00  0.00    -0.550 OA
ENDBRANCH   2   3
ENDBRANCH   1   2
BRANCH   1   6
ATOM      6  C   UNL     1      -0.978  10.459 -38.277  1.00  0.00     0.000 C 
BRANCH   6   7
ATOM      7  C   UNL     1      -0.696   8.965 -38.499  1.00  0.00    -0.000 C 
BRANCH   7   8
ATOM      8  C   UNL     1      -1.734   8.298 -39.415  1.00  0.00    -0.003 C 
ATOM      9  C   UNL     1      -3.046   9.078 -39.488  1.00  0.00     0.004 C 
ENDBRANCH   7   8
ENDBRANCH   6   7
ENDBRANCH   1   6
TORSDOF 5
ENDMDL
MODEL 3
REMARK VINA RESULT:    -4.692      2.929      5.402
REMARK INTER + INTRA:          -6.172
REMARK INTER:                  -6.053
REMARK INTRA:                  -0.119
REMARK UNBOUND:                -0.109
REMARK SMILES CCCCCCC(=O)[O-]
REMARK SMILES IDX 5 1 6 2 7 3 8 4 9 5 4 6 3 7 2 8 1 9
REMARK H PARENT
REMARK Flexibility Score: inf
ROOT
ATOM      1  C   UNL     1      -0.942  10.472 -38.256  1.00  0.00     0.006 C 
ENDROOT
BRANCH   1   2
ATOM      2  C   UNL     1      -0.849   8.941 -38.249  1.00  0.00     0.053 C 
BRANCH   2   3
ATOM      3  C   UNL     1      -1.612   8.333 -39.386  1.00  0.00     0.041 C 
ATOM      4  O   UNL     1      -1.079   7.445 -40.104  1.00  0.00    -0.550 OA
ATOM      5  O   UNL     1      -2.921   8.723 -39.632  1.00  0.00    -0.550 OA
ENDBRANCH   2   3
ENDBRANCH   1   2
BRANCH   1   6
ATOM      6  C   UNL     1       0.442  11.138 -38.312  1.00  0.00     0.000 C 
BRANCH   6   7
ATOM      7  C   UNL     1       0.442  12.467 -37.541  1.00  0.00    -0.000 C 
BRANCH   7   8
ATOM      8  C   UNL     1      -0.947  13.121 -37.493  1.00  0.00    -0.003 C 
ATOM      9  C   UNL     1      -1.520  13.190 -36.078  1.00  0.00     0.004 C 
ENDBRANCH   7   8
ENDBRANCH   6   7
ENDBRANCH   1   6
TORSDOF 5
ENDMDL
MODEL 4
REMARK VINA RESULT:    -4.659      3.583      5.384
REMARK INTER + INTRA:          -6.129
REMARK INTER:                  -6.027
REMARK INTRA:                  -0.103
REMARK UNBOUND:                -0.109
REMARK SMILES CCCCCCC(=O)[O-]
REMARK SMILES IDX 5 1 6 2 7 3 8 4 9 5 4 6 3 7 2 8 1 9
REMARK H PARENT
REMARK Flexibility Score: inf
ROOT
ATOM      1  C   UNL     1      -0.973   7.286 -39.890  1.00  0.00     0.006 C 
ENDROOT
BRANCH   1   2
ATOM      2  C   UNL     1      -0.117   7.513 -41.142  1.00  0.00     0.053 C 
BRANCH   2   3
ATOM      3  C   UNL     1       0.527   6.245 -41.612  1.00  0.00     0.041 C 
ATOM      4  O   UNL     1       1.456   6.283 -42.462  1.00  0.00    -0.550 OA
ATOM      5  O   UNL     1       0.123   5.024 -41.087  1.00  0.00    -0.550 OA
ENDBRANCH   2   3
ENDBRANCH   1   2
BRANCH   1   6
ATOM      6  C   UNL     1      -1.559   8.597 -39.341  1.00  0.00     0.000 C 
BRANCH   6   7
ATOM      7  C   UNL     1      -0.554   9.301 -38.416  1.00  0.00    -0.000 C 
BRANCH   7   8
ATOM      8  C   UNL     1      -0.894  10.782 -38.194  1.00  0.00    -0.003 C 
ATOM      9  C   UNL     1       0.332  11.625 -37.847  1.00  0.00     0.004 C 
ENDBRANCH   7   8
ENDBRANCH   6   7
ENDBRANCH   1   6
TORSDOF 5
ENDMDL
MODEL 5
REMARK VINA RESULT:    -4.609      2.288      3.746
REMARK INTER + INTRA:          -6.065
REMARK INTER:                  -5.974
REMARK INTRA:                  -0.092
REMARK UNBOUND:                -0.109
REMARK SMILES CCCCCCC(=O)[O-]
REMARK SMILES IDX 5 1 6 2 7 3 8 4 9 5 4 6 3 7 2 8 1 9
REMARK H PARENT
REMARK Flexibility Score: inf
ROOT
ATOM      1  C   UNL     1      -1.804   9.812 -38.216  1.00  0.00     0.006 C 
ENDROOT
BRANCH   1   2
ATOM      2  C   UNL     1      -0.342  10.183 -38.499  1.00  0.00     0.053 C 
BRANCH   2   3
ATOM      3  C   UNL     1       0.055  11.446 -37.800  1.00  0.00     0.041 C 
ATOM      4  O   UNL     1       1.244  11.858 -37.863  1.00  0.00    -0.550 OA
ATOM      5  O   UNL     1      -0.894  12.186 -37.107  1.00  0.00    -0.550 OA
ENDBRANCH   2   3
ENDBRANCH   1   2
BRANCH   1   6
ATOM      6  C   UNL     1      -2.397   8.911 -39.310  1.00  0.00     0.000 C 
BRANCH   6   7
ATOM      7  C   UNL     1      -3.787   9.409 -39.736  1.00  0.00    -0.000 C 
BRANCH   7   8
ATOM      8  C   UNL     1      -4.918   8.778 -38.909  1.00  0.00    -0.003 C 
ATOM      9  C   UNL     1      -6.304   9.074 -39.480  1.00  0.00     0.004 C 
ENDBRANCH   7   8
ENDBRANCH   6   7
ENDBRANCH   1   6
TORSDOF 5
ENDMDL
MODEL 6
REMARK VINA RESULT:    -4.568      4.420      5.660
REMARK INTER + INTRA:          -6.013
REMARK INTER:                  -5.920
REMARK INTRA:                  -0.093
REMARK UNBOUND:                -0.109
REMARK SMILES CCCCCCC(=O)[O-]
REMARK SMILES IDX 5 1 6 2 7 3 8 4 9 5 4 6 3 7 2 8 1 9
REMARK H PARENT
REMARK Flexibility Score: inf
ROOT
ATOM      1  C   UNL     1      -4.008   9.413 -39.820  1.00  0.00     0.006 C 
ENDROOT
BRANCH   1   2
ATOM      2  C   UNL     1      -5.071   8.826 -38.882  1.00  0.00     0.053 C 
BRANCH   2   3
ATOM      3  C   UNL     1      -6.441   8.897 -39.482  1.00  0.00     0.041 C 
ATOM      4  O   UNL     1      -6.985  10.014 -39.689  1.00  0.00    -0.550 OA
ATOM      5  O   UNL     1      -7.103   7.732 -39.844  1.00  0.00    -0.550 OA
ENDBRANCH   2   3
ENDBRANCH   1   2
BRANCH   1   6
ATOM      6  C   UNL     1      -2.589   8.957 -39.447  1.00  0.00     0.000 C 
BRANCH   6   7
ATOM      7  C   UNL     1      -2.066   9.734 -38.229  1.00  0.00    -0.000 C 
BRANCH   7   8
ATOM      8  C   UNL     1      -0.566  10.051 -38.331  1.00  0.00    -0.003 C 
ATOM      9  C   UNL     1      -0.239  11.493 -37.948  1.00  0.00     0.004 C 
ENDBRANCH   7   8
ENDBRANCH   6   7
ENDBRANCH   1   6
TORSDOF 5
ENDMDL
MODEL 7
REMARK VINA RESULT:    -4.446      4.564      5.447
REMARK INTER + INTRA:          -5.855
REMARK INTER:                  -5.685
REMARK INTRA:                  -0.170
REMARK UNBOUND:                -0.109
REMARK SMILES CCCCCCC(=O)[O-]
REMARK SMILES IDX 5 1 6 2 7 3 8 4 9 5 4 6 3 7 2 8 1 9
REMARK H PARENT
REMARK Flexibility Score: inf
ROOT
ATOM      1  C   UNL     1      -4.618   8.970 -38.540  1.00  0.00     0.006 C 
ENDROOT
BRANCH   1   2
ATOM      2  C   UNL     1      -5.851   8.552 -39.350  1.00  0.00     0.053 C 
BRANCH   2   3
ATOM      3  C   UNL     1      -6.959   9.553 -39.232  1.00  0.00     0.041 C 
ATOM      4  O   UNL     1      -6.998  10.549 -40.002  1.00  0.00    -0.550 OA
ATOM      5  O   UNL     1      -7.966   9.367 -38.295  1.00  0.00    -0.550 OA
ENDBRANCH   2   3
ENDBRANCH   1   2
BRANCH   1   6
ATOM      6  C   UNL     1      -3.390   9.210 -39.433  1.00  0.00     0.000 C 
BRANCH   6   7
ATOM      7  C   UNL     1      -2.195   9.701 -38.601  1.00  0.00    -0.000 C 
BRANCH   7   8
ATOM      8  C   UNL     1      -1.004   8.731 -38.650  1.00  0.00    -0.003 C 
ATOM      9  C   UNL     1      -1.086   7.753 -39.820  1.00  0.00     0.004 C 
ENDBRANCH   7   8
ENDBRANCH   6   7
ENDBRANCH   1   6
TORSDOF 5
ENDMDL
MODEL 8
REMARK VINA RESULT:    -4.364      1.371      2.131
REMARK INTER + INTRA:          -5.749
REMARK INTER:                  -5.651
REMARK INTRA:                  -0.098
REMARK UNBOUND:                -0.109
REMARK SMILES CCCCCCC(=O)[O-]
REMARK SMILES IDX 5 1 6 2 7 3 8 4 9 5 4 6 3 7 2 8 1 9
REMARK H PARENT
REMARK Flexibility Score: inf
ROOT
ATOM      1  C   UNL     1      -1.373   8.168 -39.799  1.00  0.00     0.006 C 
ENDROOT
BRANCH   1   2
ATOM      2  C   UNL     1      -0.657   8.798 -38.598  1.00  0.00     0.053 C 
BRANCH   2   3
ATOM      3  C   UNL     1      -1.361  10.028 -38.114  1.00  0.00     0.041 C 
ATOM      4  O   UNL     1      -0.802  11.153 -38.198  1.00  0.00    -0.550 OA
ATOM      5  O   UNL     1      -2.648   9.936 -37.600  1.00  0.00    -0.550 OA
ENDBRANCH   2   3
ENDBRANCH   1   2
BRANCH   1   6
ATOM      6  C   UNL     1      -0.583   6.993 -40.396  1.00  0.00     0.000 C 
BRANCH   6   7
ATOM      7  C   UNL     1       0.261   7.453 -41.595  1.00  0.00    -0.000 C 
BRANCH   7   8
ATOM      8  C   UNL     1       0.854   6.277 -42.385  1.00  0.00    -0.003 C 
ATOM      9  C   UNL     1       2.058   5.645 -41.689  1.00  0.00     0.004 C 
ENDBRANCH   7   8
ENDBRANCH   6   7
ENDBRANCH   1   6
TORSDOF 5
ENDMDL
MODEL 9
REMARK VINA RESULT:    -4.144      7.242      8.315
REMARK INTER + INTRA:          -5.464
REMARK INTER:                  -5.346
REMARK INTRA:                  -0.118
REMARK UNBOUND:                -0.109
REMARK SMILES CCCCCCC(=O)[O-]
REMARK SMILES IDX 5 1 6 2 7 3 8 4 9 5 4 6 3 7 2 8 1 9
REMARK H PARENT
REMARK Flexibility Score: inf
ROOT
ATOM      1  C   UNL     1      -7.335   7.497 -40.443  1.00  0.00     0.006 C 
ENDROOT
BRANCH   1   2
ATOM      2  C   UNL     1      -7.580   6.098 -39.862  1.00  0.00     0.053 C 
BRANCH   2   3
ATOM      3  C   UNL     1      -8.063   5.140 -40.906  1.00  0.00     0.041 C 
ATOM      4  O   UNL     1      -7.792   5.337 -42.121  1.00  0.00    -0.550 OA
ATOM      5  O   UNL     1      -8.784   4.013 -40.536  1.00  0.00    -0.550 OA
ENDBRANCH   2   3
ENDBRANCH   1   2
BRANCH   1   6
ATOM      6  C   UNL     1      -6.995   8.527 -39.354  1.00  0.00     0.000 C 
BRANCH   6   7
ATOM      7  C   UNL     1      -5.531   8.390 -38.909  1.00  0.00    -0.000 C 
BRANCH   7   8
ATOM      8  C   UNL     1      -4.584   9.298 -39.708  1.00  0.00    -0.003 C 
ATOM      9  C   UNL     1      -3.125   9.155 -39.278  1.00  0.00     0.004 C 
ENDBRANCH   7   8
ENDBRANCH   6   7
ENDBRANCH   1   6
TORSDOF 5
ENDMDL
