MODEL 1
REMARK VINA RESULT:    -4.582      0.000      0.000
REMARK INTER + INTRA:          -5.642
REMARK INTER:                  -5.385
REMARK INTRA:                  -0.257
REMARK UNBOUND:                -0.257
REMARK SMILES O=c1c(O)c(-c2ccc(O)cc2)oc2cc(O)cc(O)c12
REMARK SMILES IDX 5 1 3 2 2 3 1 4 21 5 19 6 18 7 16 8 15 9 14 10 13 11 6 12
REMARK SMILES IDX 7 13 8 14 9 15 12 16 11 17 10 18 4 20 20 22 17 24
REMARK H PARENT 10 19 4 21 20 23 17 25
REMARK Flexibility Score: inf
ROOT
ATOM      1  C   UNL     1     189.352 202.299 213.017  1.00  0.00     0.180 A 
ATOM      2  C   UNL     1     190.107 201.139 213.253  1.00  0.00     0.208 A 
ATOM      3  C   UNL     1     191.466 201.266 213.584  1.00  0.00     0.238 A 
ATOM      4  O   UNL     1     192.124 200.225 213.848  1.00  0.00    -0.285 OA
ATOM      5  C   UNL     1     192.056 202.550 213.659  1.00  0.00     0.111 A 
ATOM      6  C   UNL     1     193.432 202.794 213.946  1.00  0.00     0.134 A 
ATOM      7  C   UNL     1     193.879 204.110 214.123  1.00  0.00     0.093 A 
ATOM      8  C   UNL     1     193.011 205.192 213.959  1.00  0.00     0.123 A 
ATOM      9  C   UNL     1     191.679 204.967 213.620  1.00  0.00     0.094 A 
ATOM     10  C   UNL     1     191.196 203.664 213.472  1.00  0.00     0.146 A 
ATOM     11  O   UNL     1     189.918 203.493 213.160  1.00  0.00    -0.452 OA
ENDROOT
BRANCH   1  12
ATOM     12  C   UNL     1     187.921 202.246 212.639  1.00  0.00     0.021 A 
ATOM     13  C   UNL     1     186.916 202.043 213.602  1.00  0.00     0.016 A 
ATOM     14  C   UNL     1     185.573 201.973 213.219  1.00  0.00     0.047 A 
ATOM     15  C   UNL     1     185.218 202.092 211.872  1.00  0.00     0.115 A 
ATOM     16  C   UNL     1     187.558 202.344 211.285  1.00  0.00     0.016 A 
ATOM     17  C   UNL     1     186.215 202.274 210.905  1.00  0.00     0.047 A 
BRANCH  15  18
ATOM     18  O   UNL     1     183.876 202.021 211.504  1.00  0.00    -0.508 OA
ATOM     19  H   UNL     1     183.573 201.466 210.713  1.00  0.00     0.293 HD
ENDBRANCH  15  18
ENDBRANCH   1  12
BRANCH   2  20
ATOM     20  O   UNL     1     189.500 199.881 213.197  1.00  0.00    -0.502 OA
ATOM     21  H   UNL     1     189.990 199.028 213.439  1.00  0.00     0.293 HD
ENDBRANCH   2  20
BRANCH   6  22
ATOM     22  O   UNL     1     194.400 201.790 214.039  1.00  0.00    -0.507 OA
ATOM     23  H   UNL     1     195.383 201.951 214.196  1.00  0.00     0.293 HD
ENDBRANCH   6  22
BRANCH   8  24
ATOM     24  O   UNL     1     193.466 206.500 214.121  1.00  0.00    -0.508 OA
ATOM     25  H   UNL     1     194.449 206.733 214.037  1.00  0.00     0.293 HD
ENDBRANCH   8  24
TORSDOF 5
ENDMDL
MODEL 2
REMARK VINA RESULT:    -4.309      3.196      5.441
REMARK INTER + INTRA:          -5.322
REMARK INTER:                  -5.065
REMARK INTRA:                  -0.257
REMARK UNBOUND:                -0.257
REMARK SMILES O=c1c(O)c(-c2ccc(O)cc2)oc2cc(O)cc(O)c12
REMARK SMILES IDX 5 1 3 2 2 3 1 4 21 5 19 6 18 7 16 8 15 9 14 10 13 11 6 12
REMARK SMILES IDX 7 13 8 14 9 15 12 16 11 17 10 18 4 20 20 22 17 24
REMARK H PARENT 10 19 4 21 20 23 17 25
REMARK Flexibility Score: inf
ROOT
ATOM      1  C   UNL     1     188.839 199.583 212.941  1.00  0.00     0.180 A 
ATOM      2  C   UNL     1     190.149 200.090 212.896  1.00  0.00     0.208 A 
ATOM      3  C   UNL     1     191.223 199.226 213.167  1.00  0.00     0.238 A 
ATOM      4  O   UNL     1     192.396 199.673 213.072  1.00  0.00    -0.285 OA
ATOM      5  C   UNL     1     190.973 197.872 213.494  1.00  0.00     0.111 A 
ATOM      6  C   UNL     1     191.982 196.919 213.826  1.00  0.00     0.134 A 
ATOM      7  C   UNL     1     191.632 195.575 214.006  1.00  0.00     0.093 A 
ATOM      8  C   UNL     1     190.299 195.163 213.929  1.00  0.00     0.123 A 
ATOM      9  C   UNL     1     189.300 196.096 213.665  1.00  0.00     0.094 A 
ATOM     10  C   UNL     1     189.623 197.438 213.445  1.00  0.00     0.146 A 
ATOM     11  O   UNL     1     188.641 198.292 213.186  1.00  0.00    -0.452 OA
ENDROOT
BRANCH   1  12
ATOM     12  C   UNL     1     187.654 200.436 212.692  1.00  0.00     0.021 A 
ATOM     13  C   UNL     1     186.864 200.918 213.751  1.00  0.00     0.016 A 
ATOM     14  C   UNL     1     185.735 201.703 213.490  1.00  0.00     0.047 A 
ATOM     15  C   UNL     1     185.375 202.004 212.173  1.00  0.00     0.115 A 
ATOM     16  C   UNL     1     187.274 200.724 211.370  1.00  0.00     0.016 A 
ATOM     17  C   UNL     1     186.146 201.509 211.113  1.00  0.00     0.047 A 
BRANCH  15  18
ATOM     18  O   UNL     1     184.250 202.786 211.929  1.00  0.00    -0.508 OA
ATOM     19  H   UNL     1     183.478 202.443 211.371  1.00  0.00     0.293 HD
ENDBRANCH  15  18
ENDBRANCH   1  12
BRANCH   2  20
ATOM     20  O   UNL     1     190.375 201.424 212.549  1.00  0.00    -0.502 OA
ATOM     21  H   UNL     1     189.727 202.166 212.787  1.00  0.00     0.293 HD
ENDBRANCH   2  20
BRANCH   6  22
ATOM     22  O   UNL     1     193.329 197.243 214.017  1.00  0.00    -0.507 OA
ATOM     23  H   UNL     1     194.075 196.994 213.386  1.00  0.00     0.293 HD
ENDBRANCH   6  22
BRANCH   8  24
ATOM     24  O   UNL     1     189.956 193.826 214.125  1.00  0.00    -0.508 OA
ATOM     25  H   UNL     1     189.998 193.397 215.042  1.00  0.00     0.293 HD
ENDBRANCH   8  24
TORSDOF 5
ENDMDL
MODEL 3
REMARK VINA RESULT:    -4.141      5.183      7.980
REMARK INTER + INTRA:          -5.125
REMARK INTER:                  -4.836
REMARK INTRA:                  -0.289
REMARK UNBOUND:                -0.257
REMARK SMILES O=c1c(O)c(-c2ccc(O)cc2)oc2cc(O)cc(O)c12
REMARK SMILES IDX 5 1 3 2 2 3 1 4 21 5 19 6 18 7 16 8 15 9 14 10 13 11 6 12
REMARK SMILES IDX 7 13 8 14 9 15 12 16 11 17 10 18 4 20 20 22 17 24
REMARK H PARENT 10 19 4 21 20 23 17 25
REMARK Flexibility Score: inf
ROOT
ATOM      1  C   UNL     1     187.904 197.880 211.589  1.00  0.00     0.180 A 
ATOM      2  C   UNL     1     187.347 197.524 210.350  1.00  0.00     0.208 A 
ATOM      3  C   UNL     1     186.286 198.286 209.835  1.00  0.00     0.238 A 
ATOM      4  O   UNL     1     185.827 197.995 208.699  1.00  0.00    -0.285 OA
ATOM      5  C   UNL     1     185.785 199.385 210.573  1.00  0.00     0.111 A 
ATOM      6  C   UNL     1     184.688 200.202 210.167  1.00  0.00     0.134 A 
ATOM      7  C   UNL     1     184.362 201.342 210.912  1.00  0.00     0.093 A 
ATOM      8  C   UNL     1     185.053 201.658 212.085  1.00  0.00     0.123 A 
ATOM      9  C   UNL     1     186.087 200.834 212.521  1.00  0.00     0.094 A 
ATOM     10  C   UNL     1     186.459 199.709 211.780  1.00  0.00     0.146 A 
ATOM     11  O   UNL     1     187.457 198.957 212.226  1.00  0.00    -0.452 OA
ENDROOT
BRANCH   1  12
ATOM     12  C   UNL     1     189.008 197.111 212.208  1.00  0.00     0.021 A 
ATOM     13  C   UNL     1     190.354 197.435 211.963  1.00  0.00     0.016 A 
ATOM     14  C   UNL     1     191.380 196.679 212.541  1.00  0.00     0.047 A 
ATOM     15  C   UNL     1     191.075 195.586 213.357  1.00  0.00     0.115 A 
ATOM     16  C   UNL     1     188.709 195.998 213.012  1.00  0.00     0.016 A 
ATOM     17  C   UNL     1     189.736 195.245 213.589  1.00  0.00     0.047 A 
BRANCH  15  18
ATOM     18  O   UNL     1     192.106 194.843 213.926  1.00  0.00    -0.508 OA
ATOM     19  H   UNL     1     192.663 194.201 213.374  1.00  0.00     0.293 HD
ENDBRANCH  15  18
ENDBRANCH   1  12
BRANCH   2  20
ATOM     20  O   UNL     1     187.870 196.449 209.626  1.00  0.00    -0.502 OA
ATOM     21  H   UNL     1     188.815 196.109 209.763  1.00  0.00     0.293 HD
ENDBRANCH   2  20
BRANCH   6  22
ATOM     22  O   UNL     1     183.875 199.925 209.064  1.00  0.00    -0.507 OA
ATOM     23  H   UNL     1     183.939 200.390 208.171  1.00  0.00     0.293 HD
ENDBRANCH   6  22
BRANCH   8  24
ATOM     24  O   UNL     1     184.712 202.785 212.830  1.00  0.00    -0.508 OA
ATOM     25  H   UNL     1     184.973 202.874 213.804  1.00  0.00     0.293 HD
ENDBRANCH   8  24
TORSDOF 5
ENDMDL
MODEL 4
REMARK VINA RESULT:    -4.117      5.366      7.789
REMARK INTER + INTRA:          -5.096
REMARK INTER:                  -4.795
REMARK INTRA:                  -0.300
REMARK UNBOUND:                -0.257
REMARK SMILES O=c1c(O)c(-c2ccc(O)cc2)oc2cc(O)cc(O)c12
REMARK SMILES IDX 5 1 3 2 2 3 1 4 21 5 19 6 18 7 16 8 15 9 14 10 13 11 6 12
REMARK SMILES IDX 7 13 8 14 9 15 12 16 11 17 10 18 4 20 20 22 17 24
REMARK H PARENT 10 19 4 21 20 23 17 25
REMARK Flexibility Score: inf
ROOT
ATOM      1  C   UNL     1     185.866 198.086 209.305  1.00  0.00     0.180 A 
ATOM      2  C   UNL     1     186.520 198.930 208.391  1.00  0.00     0.208 A 
ATOM      3  C   UNL     1     186.837 200.242 208.781  1.00  0.00     0.238 A 
ATOM      4  O   UNL     1     187.471 200.975 207.978  1.00  0.00    -0.285 OA
ATOM      5  C   UNL     1     186.481 200.697 210.073  1.00  0.00     0.111 A 
ATOM      6  C   UNL     1     186.716 202.018 210.559  1.00  0.00     0.134 A 
ATOM      7  C   UNL     1     186.440 202.321 211.898  1.00  0.00     0.093 A 
ATOM      8  C   UNL     1     185.876 201.368 212.751  1.00  0.00     0.123 A 
ATOM      9  C   UNL     1     185.588 200.094 212.269  1.00  0.00     0.094 A 
ATOM     10  C   UNL     1     185.886 199.751 210.947  1.00  0.00     0.146 A 
ATOM     11  O   UNL     1     185.605 198.522 210.532  1.00  0.00    -0.452 OA
ENDROOT
BRANCH   1  12
ATOM     12  C   UNL     1     185.477 196.700 208.959  1.00  0.00     0.021 A 
ATOM     13  C   UNL     1     184.230 196.413 208.375  1.00  0.00     0.016 A 
ATOM     14  C   UNL     1     183.875 195.093 208.078  1.00  0.00     0.047 A 
ATOM     15  C   UNL     1     184.752 194.045 208.373  1.00  0.00     0.115 A 
ATOM     16  C   UNL     1     186.344 195.639 209.272  1.00  0.00     0.016 A 
ATOM     17  C   UNL     1     185.987 194.321 208.974  1.00  0.00     0.047 A 
BRANCH  15  18
ATOM     18  O   UNL     1     184.385 192.735 208.072  1.00  0.00    -0.508 OA
ATOM     19  H   UNL     1     184.710 192.274 207.231  1.00  0.00     0.293 HD
ENDBRANCH  15  18
ENDBRANCH   1  12
BRANCH   2  20
ATOM     20  O   UNL     1     186.883 198.453 207.129  1.00  0.00    -0.502 OA
ATOM     21  H   UNL     1     187.730 197.919 206.971  1.00  0.00     0.293 HD
ENDBRANCH   2  20
BRANCH   6  22
ATOM     22  O   UNL     1     187.189 203.069 209.767  1.00  0.00    -0.507 OA
ATOM     23  H   UNL     1     187.880 202.973 209.039  1.00  0.00     0.293 HD
ENDBRANCH   6  22
BRANCH   8  24
ATOM     24  O   UNL     1     185.589 201.682 214.078  1.00  0.00    -0.508 OA
ATOM     25  H   UNL     1     185.840 201.058 214.835  1.00  0.00     0.293 HD
ENDBRANCH   8  24
TORSDOF 5
ENDMDL
MODEL 5
REMARK VINA RESULT:    -4.062      3.358      7.724
REMARK INTER + INTRA:          -5.032
REMARK INTER:                  -4.741
REMARK INTRA:                  -0.290
REMARK UNBOUND:                -0.257
REMARK SMILES O=c1c(O)c(-c2ccc(O)cc2)oc2cc(O)cc(O)c12
REMARK SMILES IDX 5 1 3 2 2 3 1 4 21 5 19 6 18 7 16 8 15 9 14 10 13 11 6 12
REMARK SMILES IDX 7 13 8 14 9 15 12 16 11 17 10 18 4 20 20 22 17 24
REMARK H PARENT 10 19 4 21 20 23 17 25
REMARK Flexibility Score: inf
ROOT
ATOM      1  C   UNL     1     187.333 200.981 211.361  1.00  0.00     0.180 A 
ATOM      2  C   UNL     1     185.961 201.186 211.139  1.00  0.00     0.208 A 
ATOM      3  C   UNL     1     185.209 200.168 210.530  1.00  0.00     0.238 A 
ATOM      4  O   UNL     1     183.970 200.335 210.384  1.00  0.00    -0.285 OA
ATOM      5  C   UNL     1     185.843 198.966 210.134  1.00  0.00     0.111 A 
ATOM      6  C   UNL     1     185.188 197.884 209.472  1.00  0.00     0.134 A 
ATOM      7  C   UNL     1     185.884 196.690 209.245  1.00  0.00     0.093 A 
ATOM      8  C   UNL     1     187.230 196.562 209.598  1.00  0.00     0.123 A 
ATOM      9  C   UNL     1     187.894 197.633 210.191  1.00  0.00     0.094 A 
ATOM     10  C   UNL     1     187.217 198.825 210.464  1.00  0.00     0.146 A 
ATOM     11  O   UNL     1     187.885 199.816 211.039  1.00  0.00    -0.452 OA
ENDROOT
BRANCH   1  12
ATOM     12  C   UNL     1     188.196 202.017 211.975  1.00  0.00     0.021 A 
ATOM     13  C   UNL     1     188.754 203.055 211.207  1.00  0.00     0.016 A 
ATOM     14  C   UNL     1     189.585 204.008 211.805  1.00  0.00     0.047 A 
ATOM     15  C   UNL     1     189.879 203.929 213.169  1.00  0.00     0.115 A 
ATOM     16  C   UNL     1     188.513 201.932 213.341  1.00  0.00     0.016 A 
ATOM     17  C   UNL     1     189.343 202.886 213.936  1.00  0.00     0.047 A 
BRANCH  15  18
ATOM     18  O   UNL     1     190.708 204.885 213.751  1.00  0.00    -0.508 OA
ATOM     19  H   UNL     1     191.713 204.863 213.624  1.00  0.00     0.293 HD
ENDBRANCH  15  18
ENDBRANCH   1  12
BRANCH   2  20
ATOM     20  O   UNL     1     185.350 202.371 211.557  1.00  0.00    -0.502 OA
ATOM     21  H   UNL     1     184.909 202.467 212.465  1.00  0.00     0.293 HD
ENDBRANCH   2  20
BRANCH   6  22
ATOM     22  O   UNL     1     183.875 197.941 208.996  1.00  0.00    -0.507 OA
ATOM     23  H   UNL     1     183.561 197.536 208.128  1.00  0.00     0.293 HD
ENDBRANCH   6  22
BRANCH   8  24
ATOM     24  O   UNL     1     187.920 195.376 209.355  1.00  0.00    -0.508 OA
ATOM     25  H   UNL     1     187.566 194.483 209.674  1.00  0.00     0.293 HD
ENDBRANCH   8  24
TORSDOF 5
ENDMDL
MODEL 6
REMARK VINA RESULT:    -4.057      3.149      4.848
REMARK INTER + INTRA:          -5.026
REMARK INTER:                  -4.808
REMARK INTRA:                  -0.218
REMARK UNBOUND:                -0.257
REMARK SMILES O=c1c(O)c(-c2ccc(O)cc2)oc2cc(O)cc(O)c12
REMARK SMILES IDX 5 1 3 2 2 3 1 4 21 5 19 6 18 7 16 8 15 9 14 10 13 11 6 12
REMARK SMILES IDX 7 13 8 14 9 15 12 16 11 17 10 18 4 20 20 22 17 24
REMARK H PARENT 10 19 4 21 20 23 17 25
REMARK Flexibility Score: inf
ROOT
ATOM      1  C   UNL     1     189.027 200.232 212.047  1.00  0.00     0.180 A 
ATOM      2  C   UNL     1     188.528 200.642 210.799  1.00  0.00     0.208 A 
ATOM      3  C   UNL     1     188.636 201.994 210.434  1.00  0.00     0.238 A 
ATOM      4  O   UNL     1     188.238 202.345 209.293  1.00  0.00    -0.285 OA
ATOM      5  C   UNL     1     189.226 202.920 211.327  1.00  0.00     0.111 A 
ATOM      6  C   UNL     1     189.351 204.319 211.077  1.00  0.00     0.134 A 
ATOM      7  C   UNL     1     190.069 205.120 211.974  1.00  0.00     0.093 A 
ATOM      8  C   UNL     1     190.610 204.583 213.144  1.00  0.00     0.123 A 
ATOM      9  C   UNL     1     190.443 203.229 213.426  1.00  0.00     0.094 A 
ATOM     10  C   UNL     1     189.762 202.398 212.533  1.00  0.00     0.146 A 
ATOM     11  O   UNL     1     189.634 201.112 212.835  1.00  0.00    -0.452 OA
ENDROOT
BRANCH   1  12
ATOM     12  C   UNL     1     188.927 198.830 212.514  1.00  0.00     0.021 A 
ATOM     13  C   UNL     1     188.026 198.458 213.528  1.00  0.00     0.016 A 
ATOM     14  C   UNL     1     187.966 197.131 213.969  1.00  0.00     0.047 A 
ATOM     15  C   UNL     1     188.812 196.166 213.415  1.00  0.00     0.115 A 
ATOM     16  C   UNL     1     189.789 197.858 211.977  1.00  0.00     0.016 A 
ATOM     17  C   UNL     1     189.726 196.534 212.419  1.00  0.00     0.047 A 
BRANCH  15  18
ATOM     18  O   UNL     1     188.741 194.850 213.864  1.00  0.00    -0.508 OA
ATOM     19  H   UNL     1     187.864 194.344 213.883  1.00  0.00     0.293 HD
ENDBRANCH  15  18
ENDBRANCH   1  12
BRANCH   2  20
ATOM     20  O   UNL     1     187.970 199.707 209.923  1.00  0.00    -0.502 OA
ATOM     21  H   UNL     1     188.526 199.188 209.254  1.00  0.00     0.293 HD
ENDBRANCH   2  20
BRANCH   6  22
ATOM     22  O   UNL     1     188.770 204.972 209.986  1.00  0.00    -0.507 OA
ATOM     23  H   UNL     1     187.937 205.539 210.032  1.00  0.00     0.293 HD
ENDBRANCH   6  22
BRANCH   8  24
ATOM     24  O   UNL     1     191.310 205.389 214.040  1.00  0.00    -0.508 OA
ATOM     25  H   UNL     1     192.291 205.233 214.239  1.00  0.00     0.293 HD
ENDBRANCH   8  24
TORSDOF 5
ENDMDL
MODEL 7
REMARK VINA RESULT:    -4.055      4.755      7.141
REMARK INTER + INTRA:          -5.024
REMARK INTER:                  -4.730
REMARK INTRA:                  -0.294
REMARK UNBOUND:                -0.257
REMARK SMILES O=c1c(O)c(-c2ccc(O)cc2)oc2cc(O)cc(O)c12
REMARK SMILES IDX 5 1 3 2 2 3 1 4 21 5 19 6 18 7 16 8 15 9 14 10 13 11 6 12
REMARK SMILES IDX 7 13 8 14 9 15 12 16 11 17 10 18 4 20 20 22 17 24
REMARK H PARENT 10 19 4 21 20 23 17 25
REMARK Flexibility Score: inf
ROOT
ATOM      1  C   UNL     1     187.792 197.874 210.916  1.00  0.00     0.180 A 
ATOM      2  C   UNL     1     188.669 198.156 211.976  1.00  0.00     0.208 A 
ATOM      3  C   UNL     1     188.448 199.302 212.757  1.00  0.00     0.238 A 
ATOM      4  O   UNL     1     189.205 199.520 213.739  1.00  0.00    -0.285 OA
ATOM      5  C   UNL     1     187.362 200.159 212.457  1.00  0.00     0.111 A 
ATOM      6  C   UNL     1     187.067 201.368 213.157  1.00  0.00     0.134 A 
ATOM      7  C   UNL     1     185.892 202.069 212.859  1.00  0.00     0.093 A 
ATOM      8  C   UNL     1     185.035 201.640 211.843  1.00  0.00     0.123 A 
ATOM      9  C   UNL     1     185.345 200.494 211.115  1.00  0.00     0.094 A 
ATOM     10  C   UNL     1     186.491 199.753 211.413  1.00  0.00     0.146 A 
ATOM     11  O   UNL     1     186.744 198.661 210.701  1.00  0.00    -0.452 OA
ENDROOT
BRANCH   1  12
ATOM     12  C   UNL     1     187.974 196.699 210.032  1.00  0.00     0.021 A 
ATOM     13  C   UNL     1     188.836 196.745 208.921  1.00  0.00     0.016 A 
ATOM     14  C   UNL     1     188.974 195.631 208.087  1.00  0.00     0.047 A 
ATOM     15  C   UNL     1     188.247 194.464 208.343  1.00  0.00     0.115 A 
ATOM     16  C   UNL     1     187.231 195.531 210.271  1.00  0.00     0.016 A 
ATOM     17  C   UNL     1     187.372 194.419 209.437  1.00  0.00     0.047 A 
BRANCH  15  18
ATOM     18  O   UNL     1     188.395 193.363 207.505  1.00  0.00    -0.508 OA
ATOM     19  H   UNL     1     188.085 193.385 206.541  1.00  0.00     0.293 HD
ENDBRANCH  15  18
ENDBRANCH   1  12
BRANCH   2  20
ATOM     20  O   UNL     1     189.722 197.285 212.268  1.00  0.00    -0.502 OA
ATOM     21  H   UNL     1     189.610 196.278 212.275  1.00  0.00     0.293 HD
ENDBRANCH   2  20
BRANCH   6  22
ATOM     22  O   UNL     1     187.902 201.933 214.125  1.00  0.00    -0.507 OA
ATOM     23  H   UNL     1     188.440 201.408 214.797  1.00  0.00     0.293 HD
ENDBRANCH   6  22
BRANCH   8  24
ATOM     24  O   UNL     1     183.875 202.352 211.541  1.00  0.00    -0.508 OA
ATOM     25  H   UNL     1     183.865 203.365 211.525  1.00  0.00     0.293 HD
ENDBRANCH   8  24
TORSDOF 5
ENDMDL
MODEL 8
REMARK VINA RESULT:    -4.030      4.948      7.821
REMARK INTER + INTRA:          -4.994
REMARK INTER:                  -4.695
REMARK INTRA:                  -0.299
REMARK UNBOUND:                -0.257
REMARK SMILES O=c1c(O)c(-c2ccc(O)cc2)oc2cc(O)cc(O)c12
REMARK SMILES IDX 5 1 3 2 2 3 1 4 21 5 19 6 18 7 16 8 15 9 14 10 13 11 6 12
REMARK SMILES IDX 7 13 8 14 9 15 12 16 11 17 10 18 4 20 20 22 17 24
REMARK H PARENT 10 19 4 21 20 23 17 25
REMARK Flexibility Score: inf
ROOT
ATOM      1  C   UNL     1     186.616 197.893 210.005  1.00  0.00     0.180 A 
ATOM      2  C   UNL     1     185.439 198.433 209.461  1.00  0.00     0.208 A 
ATOM      3  C   UNL     1     184.918 199.619 210.005  1.00  0.00     0.238 A 
ATOM      4  O   UNL     1     183.893 200.127 209.479  1.00  0.00    -0.285 OA
ATOM      5  C   UNL     1     185.571 200.239 211.097  1.00  0.00     0.111 A 
ATOM      6  C   UNL     1     185.110 201.420 211.752  1.00  0.00     0.134 A 
ATOM      7  C   UNL     1     185.906 202.020 212.737  1.00  0.00     0.093 A 
ATOM      8  C   UNL     1     187.115 201.444 213.134  1.00  0.00     0.123 A 
ATOM      9  C   UNL     1     187.546 200.260 212.541  1.00  0.00     0.094 A 
ATOM     10  C   UNL     1     186.791 199.657 211.531  1.00  0.00     0.146 A 
ATOM     11  O   UNL     1     187.242 198.535 210.986  1.00  0.00    -0.452 OA
ENDROOT
BRANCH   1  12
ATOM     12  C   UNL     1     187.212 196.634 209.502  1.00  0.00     0.021 A 
ATOM     13  C   UNL     1     186.816 195.383 210.009  1.00  0.00     0.016 A 
ATOM     14  C   UNL     1     187.411 194.209 209.535  1.00  0.00     0.047 A 
ATOM     15  C   UNL     1     188.413 194.269 208.563  1.00  0.00     0.115 A 
ATOM     16  C   UNL     1     188.235 196.688 208.541  1.00  0.00     0.016 A 
ATOM     17  C   UNL     1     188.827 195.513 208.069  1.00  0.00     0.047 A 
BRANCH  15  18
ATOM     18  O   UNL     1     188.995 193.092 208.100  1.00  0.00    -0.508 OA
ATOM     19  H   UNL     1     188.841 192.206 208.567  1.00  0.00     0.293 HD
ENDBRANCH  15  18
ENDBRANCH   1  12
BRANCH   2  20
ATOM     20  O   UNL     1     184.822 197.817 208.369  1.00  0.00    -0.502 OA
ATOM     21  H   UNL     1     185.256 197.767 207.455  1.00  0.00     0.293 HD
ENDBRANCH   2  20
BRANCH   6  22
ATOM     22  O   UNL     1     183.875 202.023 211.496  1.00  0.00    -0.507 OA
ATOM     23  H   UNL     1     183.250 202.376 212.205  1.00  0.00     0.293 HD
ENDBRANCH   6  22
BRANCH   8  24
ATOM     24  O   UNL     1     187.894 202.038 214.125  1.00  0.00    -0.508 OA
ATOM     25  H   UNL     1     187.537 202.187 215.061  1.00  0.00     0.293 HD
ENDBRANCH   8  24
TORSDOF 5
ENDMDL
MODEL 9
REMARK VINA RESULT:    -4.022      1.456      6.455
REMARK INTER + INTRA:          -4.984
REMARK INTER:                  -4.711
REMARK INTRA:                  -0.273
REMARK UNBOUND:                -0.257
REMARK SMILES O=c1c(O)c(-c2ccc(O)cc2)oc2cc(O)cc(O)c12
REMARK SMILES IDX 5 1 3 2 2 3 1 4 21 5 19 6 18 7 16 8 15 9 14 10 13 11 6 12
REMARK SMILES IDX 7 13 8 14 9 15 12 16 11 17 10 18 4 20 20 22 17 24
REMARK H PARENT 10 19 4 21 20 23 17 25
REMARK Flexibility Score: inf
ROOT
ATOM      1  C   UNL     1     190.181 202.515 212.909  1.00  0.00     0.180 A 
ATOM      2  C   UNL     1     190.405 201.268 213.517  1.00  0.00     0.208 A 
ATOM      3  C   UNL     1     189.336 200.364 213.630  1.00  0.00     0.238 A 
ATOM      4  O   UNL     1     189.555 199.227 214.125  1.00  0.00    -0.285 OA
ATOM      5  C   UNL     1     188.054 200.725 213.149  1.00  0.00     0.111 A 
ATOM      6  C   UNL     1     186.891 199.903 213.248  1.00  0.00     0.134 A 
ATOM      7  C   UNL     1     185.705 200.307 212.622  1.00  0.00     0.093 A 
ATOM      8  C   UNL     1     185.624 201.533 211.956  1.00  0.00     0.123 A 
ATOM      9  C   UNL     1     186.737 202.368 211.905  1.00  0.00     0.094 A 
ATOM     10  C   UNL     1     187.944 201.977 212.489  1.00  0.00     0.146 A 
ATOM     11  O   UNL     1     188.983 202.798 212.409  1.00  0.00    -0.452 OA
ENDROOT
BRANCH   1  12
ATOM     12  C   UNL     1     191.251 203.530 212.776  1.00  0.00     0.021 A 
ATOM     13  C   UNL     1     192.180 203.481 211.721  1.00  0.00     0.016 A 
ATOM     14  C   UNL     1     193.196 204.438 211.628  1.00  0.00     0.047 A 
ATOM     15  C   UNL     1     193.306 205.445 212.592  1.00  0.00     0.115 A 
ATOM     16  C   UNL     1     191.380 204.532 213.752  1.00  0.00     0.016 A 
ATOM     17  C   UNL     1     192.396 205.487 213.657  1.00  0.00     0.047 A 
BRANCH  15  18
ATOM     18  O   UNL     1     194.322 206.391 212.487  1.00  0.00    -0.508 OA
ATOM     19  H   UNL     1     195.212 206.266 212.954  1.00  0.00     0.293 HD
ENDBRANCH  15  18
ENDBRANCH   1  12
BRANCH   2  20
ATOM     20  O   UNL     1     191.683 200.923 213.964  1.00  0.00    -0.502 OA
ATOM     21  H   UNL     1     192.489 200.907 213.350  1.00  0.00     0.293 HD
ENDBRANCH   2  20
BRANCH   6  22
ATOM     22  O   UNL     1     186.840 198.706 213.967  1.00  0.00    -0.507 OA
ATOM     23  H   UNL     1     186.055 198.401 214.521  1.00  0.00     0.293 HD
ENDBRANCH   6  22
BRANCH   8  24
ATOM     24  O   UNL     1     184.435 201.935 211.349  1.00  0.00    -0.508 OA
ATOM     25  H   UNL     1     184.030 202.845 211.530  1.00  0.00     0.293 HD
ENDBRANCH   8  24
TORSDOF 5
ENDMDL
