MODEL 1
REMARK VINA RESULT:    -2.732      0.000      0.000
REMARK INTER + INTRA:          -5.068
REMARK INTER:                  -3.930
REMARK INTRA:                  -1.139
REMARK UNBOUND:                -1.139
REMARK SMILES O=C(CO)[C@@H](O)[C@H](O)[C@H](O)CO
REMARK SMILES IDX 7 1 9 2 11 3 12 4 10 6 5 8 2 9 1 10 3 11 4 12 6 14 8 16
REMARK H PARENT 12 5 10 7 4 13 6 15 8 17
REMARK Flexibility Score: inf
ROOT
ATOM      1  C   UNL     1      62.580  50.973   7.686  1.00  0.00     0.181 C 
ENDROOT
BRANCH   1   2
ATOM      2  C   UNL     1      61.838  51.981   6.768  1.00  0.00     0.171 C 
BRANCH   2   3
ATOM      3  C   UNL     1      62.799  52.679   5.792  1.00  0.00     0.190 C 
BRANCH   3   4
ATOM      4  O   UNL     1      63.390  53.795   6.400  1.00  0.00    -0.394 OA
ATOM      5  H   UNL     1      64.313  53.848   6.041  1.00  0.00     0.210 HD
ENDBRANCH   3   4
ENDBRANCH   2   3
BRANCH   2   6
ATOM      6  O   UNL     1      60.858  51.297   6.028  1.00  0.00    -0.388 OA
ATOM      7  H   UNL     1      59.980  51.684   6.282  1.00  0.00     0.211 HD
ENDBRANCH   2   6
ENDBRANCH   1   2
BRANCH   1   8
ATOM      8  C   UNL     1      61.641  50.345   8.746  1.00  0.00     0.214 C 
BRANCH   8   9
ATOM      9  C   UNL     1      62.429  49.944   9.981  1.00  0.00     0.189 C 
ATOM     10  O   UNL     1      63.260  49.053   9.886  1.00  0.00    -0.294 OA
BRANCH   9  11
ATOM     11  C   UNL     1      62.231  50.592  11.330  1.00  0.00     0.234 C 
BRANCH  11  12
ATOM     12  O   UNL     1      62.581  51.950  11.324  1.00  0.00    -0.388 OA
ATOM     13  H   UNL     1      62.318  52.317  12.210  1.00  0.00     0.211 HD
ENDBRANCH  11  12
ENDBRANCH   9  11
ENDBRANCH   8   9
BRANCH   8  14
ATOM     14  O   UNL     1      60.634  51.259   9.102  1.00  0.00    -0.382 OA
ATOM     15  H   UNL     1      59.772  50.767   9.060  1.00  0.00     0.211 HD
ENDBRANCH   8  14
ENDBRANCH   1   8
BRANCH   1  16
ATOM     16  O   UNL     1      63.696  51.574   8.301  1.00  0.00    -0.387 OA
ATOM     17  H   UNL     1      63.375  52.376   8.791  1.00  0.00     0.211 HD
ENDBRANCH   1  16
TORSDOF 10
ENDMDL
MODEL 2
REMARK VINA RESULT:    -2.603      1.328      4.310
REMARK INTER + INTRA:          -4.883
REMARK INTER:                  -3.720
REMARK INTRA:                  -1.162
REMARK UNBOUND:                -1.139
REMARK SMILES O=C(CO)[C@@H](O)[C@H](O)[C@H](O)CO
REMARK SMILES IDX 7 1 9 2 11 3 12 4 10 6 5 8 2 9 1 10 3 11 4 12 6 14 8 16
REMARK H PARENT 12 5 10 7 4 13 6 15 8 17
REMARK Flexibility Score: inf
ROOT
ATOM      1  C   UNL     1      62.272  50.214   8.159  1.00  0.00     0.181 C 
ENDROOT
BRANCH   1   2
ATOM      2  C   UNL     1      62.923  49.776   9.499  1.00  0.00     0.171 C 
BRANCH   2   3
ATOM      3  C   UNL     1      62.148  50.314  10.713  1.00  0.00     0.190 C 
BRANCH   3   4
ATOM      4  O   UNL     1      62.528  51.634  10.989  1.00  0.00    -0.394 OA
ATOM      5  H   UNL     1      62.850  52.015  10.131  1.00  0.00     0.210 HD
ENDBRANCH   3   4
ENDBRANCH   2   3
BRANCH   2   6
ATOM      6  O   UNL     1      62.947  48.371   9.562  1.00  0.00    -0.388 OA
ATOM      7  H   UNL     1      62.401  48.107  10.348  1.00  0.00     0.211 HD
ENDBRANCH   2   6
ENDBRANCH   1   2
BRANCH   1   8
ATOM      8  C   UNL     1      63.249  50.085   6.964  1.00  0.00     0.214 C 
BRANCH   8   9
ATOM      9  C   UNL     1      63.258  51.366   6.147  1.00  0.00     0.189 C 
ATOM     10  O   UNL     1      62.367  51.551   5.332  1.00  0.00    -0.294 OA
BRANCH   9  11
ATOM     11  C   UNL     1      64.324  52.426   6.291  1.00  0.00     0.234 C 
BRANCH  11  12
ATOM     12  O   UNL     1      64.607  52.717   7.632  1.00  0.00    -0.388 OA
ATOM     13  H   UNL     1      65.503  52.333   7.825  1.00  0.00     0.211 HD
ENDBRANCH  11  12
ENDBRANCH   9  11
ENDBRANCH   8   9
BRANCH   8  14
ATOM     14  O   UNL     1      64.547  49.809   7.427  1.00  0.00    -0.382 OA
ATOM     15  H   UNL     1      65.074  49.507   6.642  1.00  0.00     0.211 HD
ENDBRANCH   8  14
ENDBRANCH   1   8
BRANCH   1  16
ATOM     16  O   UNL     1      61.762  51.524   8.248  1.00  0.00    -0.387 OA
ATOM     17  H   UNL     1      61.772  51.787   9.206  1.00  0.00     0.211 HD
ENDBRANCH   1  16
TORSDOF 10
ENDMDL
MODEL 3
REMARK VINA RESULT:    -2.601      7.081      8.732
REMARK INTER + INTRA:          -4.880
REMARK INTER:                  -3.398
REMARK INTRA:                  -1.482
REMARK UNBOUND:                -1.139
REMARK SMILES O=C(CO)[C@@H](O)[C@H](O)[C@H](O)CO
REMARK SMILES IDX 7 1 9 2 11 3 12 4 10 6 5 8 2 9 1 10 3 11 4 12 6 14 8 16
REMARK H PARENT 12 5 10 7 4 13 6 15 8 17
REMARK Flexibility Score: inf
ROOT
ATOM      1  C   UNL     1      64.370  48.289  14.816  1.00  0.00     0.181 C 
ENDROOT
BRANCH   1   2
ATOM      2  C   UNL     1      65.703  48.338  14.023  1.00  0.00     0.171 C 
BRANCH   2   3
ATOM      3  C   UNL     1      66.704  47.284  14.523  1.00  0.00     0.190 C 
BRANCH   3   4
ATOM      4  O   UNL     1      67.125  47.586  15.825  1.00  0.00    -0.394 OA
ATOM      5  H   UNL     1      66.438  47.206  16.432  1.00  0.00     0.210 HD
ENDBRANCH   3   4
ENDBRANCH   2   3
BRANCH   2   6
ATOM      6  O   UNL     1      65.440  48.105  12.662  1.00  0.00    -0.388 OA
ATOM      7  H   UNL     1      64.956  48.902  12.320  1.00  0.00     0.211 HD
ENDBRANCH   2   6
ENDBRANCH   1   2
BRANCH   1   8
ATOM      8  C   UNL     1      64.209  49.501  15.768  1.00  0.00     0.214 C 
BRANCH   8   9
ATOM      9  C   UNL     1      63.657  49.051  17.109  1.00  0.00     0.189 C 
ATOM     10  O   UNL     1      62.463  48.810  17.204  1.00  0.00    -0.294 OA
BRANCH   9  11
ATOM     11  C   UNL     1      64.516  48.892  18.341  1.00  0.00     0.234 C 
BRANCH  11  12
ATOM     12  O   UNL     1      65.628  48.070  18.111  1.00  0.00    -0.388 OA
ATOM     13  H   UNL     1      65.458  47.591  17.257  1.00  0.00     0.211 HD
ENDBRANCH  11  12
ENDBRANCH   9  11
ENDBRANCH   8   9
BRANCH   8  14
ATOM     14  O   UNL     1      65.448  50.138  15.953  1.00  0.00    -0.382 OA
ATOM     15  H   UNL     1      65.944  49.608  16.631  1.00  0.00     0.211 HD
ENDBRANCH   8  14
ENDBRANCH   1   8
BRANCH   1  16
ATOM     16  O   UNL     1      64.245  47.078  15.524  1.00  0.00    -0.387 OA
ATOM     17  H   UNL     1      63.936  47.296  16.442  1.00  0.00     0.211 HD
ENDBRANCH   1  16
TORSDOF 10
ENDMDL
MODEL 4
REMARK VINA RESULT:    -2.597      2.240      3.153
REMARK INTER + INTRA:          -4.875
REMARK INTER:                  -4.082
REMARK INTRA:                  -0.792
REMARK UNBOUND:                -1.139
REMARK SMILES O=C(CO)[C@@H](O)[C@H](O)[C@H](O)CO
REMARK SMILES IDX 7 1 9 2 11 3 12 4 10 6 5 8 2 9 1 10 3 11 4 12 6 14 8 16
REMARK H PARENT 12 5 10 7 4 13 6 15 8 17
REMARK Flexibility Score: inf
ROOT
ATOM      1  C   UNL     1      64.008  51.698   5.867  1.00  0.00     0.181 C 
ENDROOT
BRANCH   1   2
ATOM      2  C   UNL     1      63.032  52.875   5.597  1.00  0.00     0.171 C 
BRANCH   2   3
ATOM      3  C   UNL     1      61.566  52.459   5.799  1.00  0.00     0.190 C 
BRANCH   3   4
ATOM      4  O   UNL     1      61.081  52.948   7.019  1.00  0.00    -0.394 OA
ATOM      5  H   UNL     1      61.879  53.124   7.582  1.00  0.00     0.210 HD
ENDBRANCH   3   4
ENDBRANCH   2   3
BRANCH   2   6
ATOM      6  O   UNL     1      63.329  53.932   6.475  1.00  0.00    -0.388 OA
ATOM      7  H   UNL     1      64.131  54.392   6.113  1.00  0.00     0.211 HD
ENDBRANCH   2   6
ENDBRANCH   1   2
BRANCH   1   8
ATOM      8  C   UNL     1      63.533  50.800   7.037  1.00  0.00     0.214 C 
BRANCH   8   9
ATOM      9  C   UNL     1      64.321  49.502   7.062  1.00  0.00     0.189 C 
ATOM     10  O   UNL     1      65.255  49.364   6.286  1.00  0.00    -0.294 OA
BRANCH   9  11
ATOM     11  C   UNL     1      64.003  48.364   8.002  1.00  0.00     0.234 C 
BRANCH  11  12
ATOM     12  O   UNL     1      63.791  48.804   9.317  1.00  0.00    -0.388 OA
ATOM     13  H   UNL     1      63.218  48.121   9.757  1.00  0.00     0.211 HD
ENDBRANCH  11  12
ENDBRANCH   9  11
ENDBRANCH   8   9
BRANCH   8  14
ATOM     14  O   UNL     1      63.690  51.475   8.259  1.00  0.00    -0.382 OA
ATOM     15  H   UNL     1      63.823  52.435   8.042  1.00  0.00     0.211 HD
ENDBRANCH   8  14
ENDBRANCH   1   8
BRANCH   1  16
ATOM     16  O   UNL     1      65.316  52.166   6.096  1.00  0.00    -0.387 OA
ATOM     17  H   UNL     1      65.830  51.431   6.521  1.00  0.00     0.211 HD
ENDBRANCH   1  16
TORSDOF 10
ENDMDL
MODEL 5
REMARK VINA RESULT:    -2.583      1.733      2.292
REMARK INTER + INTRA:          -4.854
REMARK INTER:                  -3.812
REMARK INTRA:                  -1.042
REMARK UNBOUND:                -1.139
REMARK SMILES O=C(CO)[C@@H](O)[C@H](O)[C@H](O)CO
REMARK SMILES IDX 7 1 9 2 11 3 12 4 10 6 5 8 2 9 1 10 3 11 4 12 6 14 8 16
REMARK H PARENT 12 5 10 7 4 13 6 15 8 17
REMARK Flexibility Score: inf
ROOT
ATOM      1  C   UNL     1      63.194  50.810   7.436  1.00  0.00     0.181 C 
ENDROOT
BRANCH   1   2
ATOM      2  C   UNL     1      64.003  51.237   6.182  1.00  0.00     0.171 C 
BRANCH   2   3
ATOM      3  C   UNL     1      64.624  52.634   6.351  1.00  0.00     0.190 C 
BRANCH   3   4
ATOM      4  O   UNL     1      63.622  53.612   6.400  1.00  0.00    -0.394 OA
ATOM      5  H   UNL     1      64.077  54.480   6.245  1.00  0.00     0.210 HD
ENDBRANCH   3   4
ENDBRANCH   2   3
BRANCH   2   6
ATOM      6  O   UNL     1      65.033  50.307   5.957  1.00  0.00    -0.388 OA
ATOM      7  H   UNL     1      64.610  49.491   5.582  1.00  0.00     0.211 HD
ENDBRANCH   2   6
ENDBRANCH   1   2
BRANCH   1   8
ATOM      8  C   UNL     1      61.666  50.924   7.214  1.00  0.00     0.214 C 
BRANCH   8   9
ATOM      9  C   UNL     1      60.928  49.922   8.086  1.00  0.00     0.189 C 
ATOM     10  O   UNL     1      60.832  48.766   7.703  1.00  0.00    -0.294 OA
BRANCH   9  11
ATOM     11  C   UNL     1      60.300  50.289   9.409  1.00  0.00     0.234 C 
BRANCH  11  12
ATOM     12  O   UNL     1      61.109  51.153  10.161  1.00  0.00    -0.388 OA
ATOM     13  H   UNL     1      61.850  51.441   9.565  1.00  0.00     0.211 HD
ENDBRANCH  11  12
ENDBRANCH   9  11
ENDBRANCH   8   9
BRANCH   8  14
ATOM     14  O   UNL     1      61.229  52.226   7.512  1.00  0.00    -0.382 OA
ATOM     15  H   UNL     1      60.528  52.140   8.210  1.00  0.00     0.211 HD
ENDBRANCH   8  14
ENDBRANCH   1   8
BRANCH   1  16
ATOM     16  O   UNL     1      63.591  51.547   8.570  1.00  0.00    -0.387 OA
ATOM     17  H   UNL     1      63.702  52.493   8.290  1.00  0.00     0.211 HD
ENDBRANCH   1  16
TORSDOF 10
ENDMDL
MODEL 6
REMARK VINA RESULT:    -2.582     21.647     23.460
REMARK INTER + INTRA:          -4.853
REMARK INTER:                  -3.580
REMARK INTRA:                  -1.273
REMARK UNBOUND:                -1.139
REMARK SMILES O=C(CO)[C@@H](O)[C@H](O)[C@H](O)CO
REMARK SMILES IDX 7 1 9 2 11 3 12 4 10 6 5 8 2 9 1 10 3 11 4 12 6 14 8 16
REMARK H PARENT 12 5 10 7 4 13 6 15 8 17
REMARK Flexibility Score: inf
ROOT
ATOM      1  C   UNL     1      50.990  37.310  23.410  1.00  0.00     0.181 C 
ENDROOT
BRANCH   1   2
ATOM      2  C   UNL     1      49.471  37.531  23.639  1.00  0.00     0.171 C 
BRANCH   2   3
ATOM      3  C   UNL     1      48.743  36.213  23.948  1.00  0.00     0.190 C 
BRANCH   3   4
ATOM      4  O   UNL     1      48.613  35.440  22.786  1.00  0.00    -0.394 OA
ATOM      5  H   UNL     1      49.338  34.763  22.823  1.00  0.00     0.210 HD
ENDBRANCH   3   4
ENDBRANCH   2   3
BRANCH   2   6
ATOM      6  O   UNL     1      49.290  38.413  24.719  1.00  0.00    -0.388 OA
ATOM      7  H   UNL     1      50.162  38.480  25.188  1.00  0.00     0.211 HD
ENDBRANCH   2   6
ENDBRANCH   1   2
BRANCH   1   8
ATOM      8  C   UNL     1      51.523  38.118  22.200  1.00  0.00     0.214 C 
BRANCH   8   9
ATOM      9  C   UNL     1      51.759  37.200  21.013  1.00  0.00     0.189 C 
ATOM     10  O   UNL     1      52.773  36.518  20.988  1.00  0.00    -0.294 OA
BRANCH   9  11
ATOM     11  C   UNL     1      50.799  37.093  19.853  1.00  0.00     0.234 C 
BRANCH  11  12
ATOM     12  O   UNL     1      49.480  36.869  20.272  1.00  0.00    -0.388 OA
ATOM     13  H   UNL     1      48.939  37.630  19.931  1.00  0.00     0.211 HD
ENDBRANCH  11  12
ENDBRANCH   9  11
ENDBRANCH   8   9
BRANCH   8  14
ATOM     14  O   UNL     1      50.607  39.124  21.848  1.00  0.00    -0.382 OA
ATOM     15  H   UNL     1      50.096  38.786  21.066  1.00  0.00     0.211 HD
ENDBRANCH   8  14
ENDBRANCH   1   8
BRANCH   1  16
ATOM     16  O   UNL     1      51.287  35.941  23.266  1.00  0.00    -0.387 OA
ATOM     17  H   UNL     1      51.544  35.785  22.320  1.00  0.00     0.211 HD
ENDBRANCH   1  16
TORSDOF 10
ENDMDL
MODEL 7
REMARK VINA RESULT:    -2.545      6.279      9.086
REMARK INTER + INTRA:          -4.799
REMARK INTER:                  -3.315
REMARK INTRA:                  -1.484
REMARK UNBOUND:                -1.139
REMARK SMILES O=C(CO)[C@@H](O)[C@H](O)[C@H](O)CO
REMARK SMILES IDX 7 1 9 2 11 3 12 4 10 6 5 8 2 9 1 10 3 11 4 12 6 14 8 16
REMARK H PARENT 12 5 10 7 4 13 6 15 8 17
REMARK Flexibility Score: inf
ROOT
ATOM      1  C   UNL     1      65.254  48.008  16.252  1.00  0.00     0.181 C 
ENDROOT
BRANCH   1   2
ATOM      2  C   UNL     1      64.803  48.518  17.647  1.00  0.00     0.171 C 
BRANCH   2   3
ATOM      3  C   UNL     1      63.341  48.148  17.945  1.00  0.00     0.190 C 
BRANCH   3   4
ATOM      4  O   UNL     1      62.472  48.897  17.141  1.00  0.00    -0.394 OA
ATOM      5  H   UNL     1      62.731  48.706  16.203  1.00  0.00     0.210 HD
ENDBRANCH   3   4
ENDBRANCH   2   3
BRANCH   2   6
ATOM      6  O   UNL     1      65.627  47.950  18.634  1.00  0.00    -0.388 OA
ATOM      7  H   UNL     1      65.056  47.790  19.431  1.00  0.00     0.211 HD
ENDBRANCH   2   6
ENDBRANCH   1   2
BRANCH   1   8
ATOM      8  C   UNL     1      65.464  49.166  15.244  1.00  0.00     0.214 C 
BRANCH   8   9
ATOM      9  C   UNL     1      64.848  48.817  13.901  1.00  0.00     0.189 C 
ATOM     10  O   UNL     1      65.433  48.033  13.169  1.00  0.00    -0.294 OA
BRANCH   9  11
ATOM     11  C   UNL     1      63.541  49.400  13.419  1.00  0.00     0.234 C 
BRANCH  11  12
ATOM     12  O   UNL     1      62.479  49.117  14.290  1.00  0.00    -0.388 OA
ATOM     13  H   UNL     1      62.579  48.167  14.564  1.00  0.00     0.211 HD
ENDBRANCH  11  12
ENDBRANCH   9  11
ENDBRANCH   8   9
BRANCH   8  14
ATOM     14  O   UNL     1      64.887  50.348  15.739  1.00  0.00    -0.382 OA
ATOM     15  H   UNL     1      64.843  50.255  16.727  1.00  0.00     0.211 HD
ENDBRANCH   8  14
ENDBRANCH   1   8
BRANCH   1  16
ATOM     16  O   UNL     1      64.346  47.060  15.741  1.00  0.00    -0.387 OA
ATOM     17  H   UNL     1      64.264  46.331  16.410  1.00  0.00     0.211 HD
ENDBRANCH   1  16
TORSDOF 10
ENDMDL
MODEL 8
REMARK VINA RESULT:    -2.529      2.251      3.271
REMARK INTER + INTRA:          -4.776
REMARK INTER:                  -3.446
REMARK INTRA:                  -1.330
REMARK UNBOUND:                -1.139
REMARK SMILES O=C(CO)[C@@H](O)[C@H](O)[C@H](O)CO
REMARK SMILES IDX 7 1 9 2 11 3 12 4 10 6 5 8 2 9 1 10 3 11 4 12 6 14 8 16
REMARK H PARENT 12 5 10 7 4 13 6 15 8 17
REMARK Flexibility Score: inf
ROOT
ATOM      1  C   UNL     1      63.006  51.468   6.324  1.00  0.00     0.181 C 
ENDROOT
BRANCH   1   2
ATOM      2  C   UNL     1      64.247  52.398   6.388  1.00  0.00     0.171 C 
BRANCH   2   3
ATOM      3  C   UNL     1      65.119  52.274   5.128  1.00  0.00     0.190 C 
BRANCH   3   4
ATOM      4  O   UNL     1      65.921  51.127   5.197  1.00  0.00    -0.394 OA
ATOM      5  H   UNL     1      65.384  50.391   4.804  1.00  0.00     0.210 HD
ENDBRANCH   3   4
ENDBRANCH   2   3
BRANCH   2   6
ATOM      6  O   UNL     1      63.820  53.731   6.515  1.00  0.00    -0.388 OA
ATOM      7  H   UNL     1      63.595  54.051   5.602  1.00  0.00     0.211 HD
ENDBRANCH   2   6
ENDBRANCH   1   2
BRANCH   1   8
ATOM      8  C   UNL     1      62.670  50.843   7.701  1.00  0.00     0.214 C 
BRANCH   8   9
ATOM      9  C   UNL     1      62.898  49.342   7.671  1.00  0.00     0.189 C 
ATOM     10  O   UNL     1      61.998  48.617   7.274  1.00  0.00    -0.294 OA
BRANCH   9  11
ATOM     11  C   UNL     1      64.189  48.697   8.115  1.00  0.00     0.234 C 
BRANCH  11  12
ATOM     12  O   UNL     1      65.288  49.130   7.359  1.00  0.00    -0.388 OA
ATOM     13  H   UNL     1      65.803  48.317   7.111  1.00  0.00     0.211 HD
ENDBRANCH  11  12
ENDBRANCH   9  11
ENDBRANCH   8   9
BRANCH   8  14
ATOM     14  O   UNL     1      63.466  51.424   8.702  1.00  0.00    -0.382 OA
ATOM     15  H   UNL     1      64.089  52.050   8.248  1.00  0.00     0.211 HD
ENDBRANCH   8  14
ENDBRANCH   1   8
BRANCH   1  16
ATOM     16  O   UNL     1      63.173  50.466   5.348  1.00  0.00    -0.387 OA
ATOM     17  H   UNL     1      62.740  50.783   4.512  1.00  0.00     0.211 HD
ENDBRANCH   1  16
TORSDOF 10
ENDMDL
MODEL 9
REMARK VINA RESULT:    -2.504      3.663      6.496
REMARK INTER + INTRA:          -4.741
REMARK INTER:                  -3.741
REMARK INTRA:                  -1.000
REMARK UNBOUND:                -1.139
REMARK SMILES O=C(CO)[C@@H](O)[C@H](O)[C@H](O)CO
REMARK SMILES IDX 7 1 9 2 11 3 12 4 10 6 5 8 2 9 1 10 3 11 4 12 6 14 8 16
REMARK H PARENT 12 5 10 7 4 13 6 15 8 17
REMARK Flexibility Score: inf
ROOT
ATOM      1  C   UNL     1      63.095  48.437  13.712  1.00  0.00     0.181 C 
ENDROOT
BRANCH   1   2
ATOM      2  C   UNL     1      64.543  48.998  13.720  1.00  0.00     0.171 C 
BRANCH   2   3
ATOM      3  C   UNL     1      65.123  49.062  15.143  1.00  0.00     0.190 C 
BRANCH   3   4
ATOM      4  O   UNL     1      64.863  50.310  15.723  1.00  0.00    -0.394 OA
ATOM      5  H   UNL     1      65.748  50.732  15.877  1.00  0.00     0.210 HD
ENDBRANCH   3   4
ENDBRANCH   2   3
BRANCH   2   6
ATOM      6  O   UNL     1      65.363  48.172  12.932  1.00  0.00    -0.388 OA
ATOM      7  H   UNL     1      66.014  47.741  13.544  1.00  0.00     0.211 HD
ENDBRANCH   2   6
ENDBRANCH   1   2
BRANCH   1   8
ATOM      8  C   UNL     1      62.333  48.801  12.413  1.00  0.00     0.214 C 
BRANCH   8   9
ATOM      9  C   UNL     1      61.760  50.204  12.511  1.00  0.00     0.189 C 
ATOM     10  O   UNL     1      60.726  50.376  13.139  1.00  0.00    -0.294 OA
BRANCH   9  11
ATOM     11  C   UNL     1      62.406  51.404  11.862  1.00  0.00     0.234 C 
BRANCH  11  12
ATOM     12  O   UNL     1      62.338  51.354  10.462  1.00  0.00    -0.388 OA
ATOM     13  H   UNL     1      63.172  50.912  10.151  1.00  0.00     0.211 HD
ENDBRANCH  11  12
ENDBRANCH   9  11
ENDBRANCH   8   9
BRANCH   8  14
ATOM     14  O   UNL     1      63.196  48.716  11.307  1.00  0.00    -0.382 OA
ATOM     15  H   UNL     1      64.022  49.211  11.548  1.00  0.00     0.211 HD
ENDBRANCH   8  14
ENDBRANCH   1   8
BRANCH   1  16
ATOM     16  O   UNL     1      62.380  48.864  14.847  1.00  0.00    -0.387 OA
ATOM     17  H   UNL     1      62.042  49.780  14.664  1.00  0.00     0.211 HD
ENDBRANCH   1  16
TORSDOF 10
ENDMDL
