MODEL 1
REMARK VINA RESULT:    -7.088      0.000      0.000
REMARK INTER + INTRA:          -8.855
REMARK INTER:                  -8.538
REMARK INTRA:                  -0.317
REMARK UNBOUND:                -0.317
REMARK SMILES O=c1c(O)c(-c2ccc(O)c(O)c2)oc2cc(O)cc(O)c12
REMARK SMILES IDX 5 1 3 2 2 3 1 4 22 5 20 6 19 7 17 8 16 9 15 10 14 11 6 12
REMARK SMILES IDX 7 13 8 14 9 15 13 16 11 17 10 18 12 20 4 22 21 24 18 26
REMARK H PARENT 10 19 12 21 4 23 21 25 18 27
REMARK Flexibility Score: inf
ROOT
ATOM      1  C   UNL     1     -37.993   4.891  79.636  1.00  0.00     0.180 A 
ATOM      2  C   UNL     1     -38.598   5.064  80.892  1.00  0.00     0.208 A 
ATOM      3  C   UNL     1     -39.914   4.612  81.082  1.00  0.00     0.238 A 
ATOM      4  O   UNL     1     -40.470   4.818  82.193  1.00  0.00    -0.285 OA
ATOM      5  C   UNL     1     -40.600   3.978  80.019  1.00  0.00     0.111 A 
ATOM      6  C   UNL     1     -41.921   3.444  80.112  1.00  0.00     0.134 A 
ATOM      7  C   UNL     1     -42.551   2.956  78.960  1.00  0.00     0.093 A 
ATOM      8  C   UNL     1     -41.887   2.921  77.735  1.00  0.00     0.123 A 
ATOM      9  C   UNL     1     -40.574   3.385  77.646  1.00  0.00     0.094 A 
ATOM     10  C   UNL     1     -39.931   3.912  78.769  1.00  0.00     0.146 A 
ATOM     11  O   UNL     1     -38.686   4.353  78.639  1.00  0.00    -0.452 OA
ENDROOT
BRANCH   1  12
ATOM     12  C   UNL     1     -36.601   5.320  79.366  1.00  0.00     0.025 A 
ATOM     13  C   UNL     1     -35.505   4.525  79.742  1.00  0.00     0.016 A 
ATOM     14  C   UNL     1     -34.201   4.938  79.456  1.00  0.00     0.051 A 
ATOM     15  C   UNL     1     -33.972   6.140  78.780  1.00  0.00     0.157 A 
ATOM     16  C   UNL     1     -36.368   6.517  78.667  1.00  0.00     0.062 A 
ATOM     17  C   UNL     1     -35.060   6.933  78.380  1.00  0.00     0.158 A 
BRANCH  15  18
ATOM     18  O   UNL     1     -32.659   6.527  78.510  1.00  0.00    -0.504 OA
ATOM     19  H   UNL     1     -31.867   5.936  78.734  1.00  0.00     0.293 HD
ENDBRANCH  15  18
BRANCH  17  20
ATOM     20  O   UNL     1     -34.840   8.130  77.699  1.00  0.00    -0.504 OA
ATOM     21  H   UNL     1     -35.608   8.714  77.391  1.00  0.00     0.293 HD
ENDBRANCH  17  20
ENDBRANCH   1  12
BRANCH   2  22
ATOM     22  O   UNL     1     -37.909   5.712  81.921  1.00  0.00    -0.502 OA
ATOM     23  H   UNL     1     -36.977   5.441  82.208  1.00  0.00     0.293 HD
ENDBRANCH   2  22
BRANCH   6  24
ATOM     24  O   UNL     1     -42.642   3.346  81.306  1.00  0.00    -0.507 OA
ATOM     25  H   UNL     1     -43.232   4.072  81.682  1.00  0.00     0.293 HD
ENDBRANCH   6  24
BRANCH   8  26
ATOM     26  O   UNL     1     -42.539   2.414  76.614  1.00  0.00    -0.508 OA
ATOM     27  H   UNL     1     -42.024   2.086  75.804  1.00  0.00     0.293 HD
ENDBRANCH   8  26
TORSDOF 6
ENDMDL
MODEL 2
REMARK VINA RESULT:    -6.372     10.477     12.088
REMARK INTER + INTRA:          -7.993
REMARK INTER:                  -7.669
REMARK INTRA:                  -0.324
REMARK UNBOUND:                -0.317
REMARK SMILES O=c1c(O)c(-c2ccc(O)c(O)c2)oc2cc(O)cc(O)c12
REMARK SMILES IDX 5 1 3 2 2 3 1 4 22 5 20 6 19 7 17 8 16 9 15 10 14 11 6 12
REMARK SMILES IDX 7 13 8 14 9 15 13 16 11 17 10 18 12 20 4 22 21 24 18 26
REMARK H PARENT 10 19 12 21 4 23 21 25 18 27
REMARK Flexibility Score: inf
ROOT
ATOM      1  C   UNL     1     -46.827   2.199  73.556  1.00  0.00     0.180 A 
ATOM      2  C   UNL     1     -47.334   3.099  74.508  1.00  0.00     0.208 A 
ATOM      3  C   UNL     1     -47.452   4.456  74.165  1.00  0.00     0.238 A 
ATOM      4  O   UNL     1     -47.856   5.267  75.040  1.00  0.00    -0.285 OA
ATOM      5  C   UNL     1     -47.080   4.891  72.871  1.00  0.00     0.111 A 
ATOM      6  C   UNL     1     -47.196   6.234  72.403  1.00  0.00     0.134 A 
ATOM      7  C   UNL     1     -46.675   6.576  71.149  1.00  0.00     0.093 A 
ATOM      8  C   UNL     1     -46.101   5.613  70.320  1.00  0.00     0.123 A 
ATOM      9  C   UNL     1     -46.036   4.285  70.744  1.00  0.00     0.094 A 
ATOM     10  C   UNL     1     -46.514   3.920  72.005  1.00  0.00     0.146 A 
ATOM     11  O   UNL     1     -46.423   2.648  72.373  1.00  0.00    -0.452 OA
ENDROOT
BRANCH   1  12
ATOM     12  C   UNL     1     -46.695   0.750  73.834  1.00  0.00     0.025 A 
ATOM     13  C   UNL     1     -45.522   0.217  74.397  1.00  0.00     0.016 A 
ATOM     14  C   UNL     1     -45.429  -1.150  74.673  1.00  0.00     0.051 A 
ATOM     15  C   UNL     1     -46.506  -2.000  74.406  1.00  0.00     0.157 A 
ATOM     16  C   UNL     1     -47.783  -0.105  73.587  1.00  0.00     0.062 A 
ATOM     17  C   UNL     1     -47.690  -1.477  73.863  1.00  0.00     0.158 A 
BRANCH  15  18
ATOM     18  O   UNL     1     -46.382  -3.361  74.691  1.00  0.00    -0.504 OA
ATOM     19  H   UNL     1     -45.679  -3.715  75.329  1.00  0.00     0.293 HD
ENDBRANCH  15  18
BRANCH  17  20
ATOM     20  O   UNL     1     -48.771  -2.317  73.600  1.00  0.00    -0.504 OA
ATOM     21  H   UNL     1     -48.676  -3.138  73.014  1.00  0.00     0.293 HD
ENDBRANCH  17  20
ENDBRANCH   1  12
BRANCH   2  22
ATOM     22  O   UNL     1     -47.676   2.652  75.787  1.00  0.00    -0.502 OA
ATOM     23  H   UNL     1     -48.520   2.950  76.260  1.00  0.00     0.293 HD
ENDBRANCH   2  22
BRANCH   6  24
ATOM     24  O   UNL     1     -47.835   7.256  73.113  1.00  0.00    -0.507 OA
ATOM     25  H   UNL     1     -48.831   7.322  73.254  1.00  0.00     0.293 HD
ENDBRANCH   6  24
BRANCH   8  26
ATOM     26  O   UNL     1     -45.607   5.986  69.073  1.00  0.00    -0.508 OA
ATOM     27  H   UNL     1     -46.223   6.302  68.332  1.00  0.00     0.293 HD
ENDBRANCH   8  26
TORSDOF 6
ENDMDL
MODEL 3
REMARK VINA RESULT:    -6.372      1.701      7.148
REMARK INTER + INTRA:          -7.993
REMARK INTER:                  -7.896
REMARK INTRA:                  -0.097
REMARK UNBOUND:                -0.317
REMARK SMILES O=c1c(O)c(-c2ccc(O)c(O)c2)oc2cc(O)cc(O)c12
REMARK SMILES IDX 5 1 3 2 2 3 1 4 22 5 20 6 19 7 17 8 16 9 15 10 14 11 6 12
REMARK SMILES IDX 7 13 8 14 9 15 13 16 11 17 10 18 12 20 4 22 21 24 18 26
REMARK H PARENT 10 19 12 21 4 23 21 25 18 27
REMARK Flexibility Score: inf
ROOT
ATOM      1  C   UNL     1     -38.411   4.406  79.440  1.00  0.00     0.180 A 
ATOM      2  C   UNL     1     -37.863   5.317  78.523  1.00  0.00     0.208 A 
ATOM      3  C   UNL     1     -36.524   5.713  78.673  1.00  0.00     0.238 A 
ATOM      4  O   UNL     1     -36.054   6.571  77.880  1.00  0.00    -0.285 OA
ATOM      5  C   UNL     1     -35.746   5.178  79.727  1.00  0.00     0.111 A 
ATOM      6  C   UNL     1     -34.368   5.477  79.950  1.00  0.00     0.134 A 
ATOM      7  C   UNL     1     -33.733   4.992  81.101  1.00  0.00     0.093 A 
ATOM      8  C   UNL     1     -34.406   4.169  82.002  1.00  0.00     0.123 A 
ATOM      9  C   UNL     1     -35.736   3.821  81.763  1.00  0.00     0.094 A 
ATOM     10  C   UNL     1     -36.408   4.319  80.643  1.00  0.00     0.146 A 
ATOM     11  O   UNL     1     -37.675   3.973  80.458  1.00  0.00    -0.452 OA
ENDROOT
BRANCH   1  12
ATOM     12  C   UNL     1     -39.807   3.923  79.333  1.00  0.00     0.025 A 
ATOM     13  C   UNL     1     -40.282   3.309  78.162  1.00  0.00     0.016 A 
ATOM     14  C   UNL     1     -41.596   2.840  78.092  1.00  0.00     0.051 A 
ATOM     15  C   UNL     1     -42.450   2.964  79.191  1.00  0.00     0.157 A 
ATOM     16  C   UNL     1     -40.662   4.027  80.444  1.00  0.00     0.062 A 
ATOM     17  C   UNL     1     -41.982   3.557  80.375  1.00  0.00     0.158 A 
BRANCH  15  18
ATOM     18  O   UNL     1     -43.758   2.488  79.091  1.00  0.00    -0.504 OA
ATOM     19  H   UNL     1     -44.516   3.065  78.747  1.00  0.00     0.293 HD
ENDBRANCH  15  18
BRANCH  17  20
ATOM     20  O   UNL     1     -42.826   3.678  81.478  1.00  0.00    -0.504 OA
ATOM     21  H   UNL     1     -43.081   4.582  81.855  1.00  0.00     0.293 HD
ENDBRANCH  17  20
ENDBRANCH   1  12
BRANCH   2  22
ATOM     22  O   UNL     1     -38.655   5.849  77.501  1.00  0.00    -0.502 OA
ATOM     23  H   UNL     1     -39.575   5.488  77.281  1.00  0.00     0.293 HD
ENDBRANCH   2  22
BRANCH   6  24
ATOM     24  O   UNL     1     -33.576   6.215  79.065  1.00  0.00    -0.507 OA
ATOM     25  H   UNL     1     -33.906   6.988  78.507  1.00  0.00     0.293 HD
ENDBRANCH   6  24
BRANCH   8  26
ATOM     26  O   UNL     1     -33.739   3.693  83.128  1.00  0.00    -0.508 OA
ATOM     27  H   UNL     1     -32.758   3.438  83.094  1.00  0.00     0.293 HD
ENDBRANCH   8  26
TORSDOF 6
ENDMDL
MODEL 4
REMARK VINA RESULT:    -6.339      1.919      7.209
REMARK INTER + INTRA:          -7.953
REMARK INTER:                  -7.633
REMARK INTRA:                  -0.320
REMARK UNBOUND:                -0.317
REMARK SMILES O=c1c(O)c(-c2ccc(O)c(O)c2)oc2cc(O)cc(O)c12
REMARK SMILES IDX 5 1 3 2 2 3 1 4 22 5 20 6 19 7 17 8 16 9 15 10 14 11 6 12
REMARK SMILES IDX 7 13 8 14 9 15 13 16 11 17 10 18 12 20 4 22 21 24 18 26
REMARK H PARENT 10 19 12 21 4 23 21 25 18 27
REMARK Flexibility Score: inf
ROOT
ATOM      1  C   UNL     1     -38.577   6.182  78.321  1.00  0.00     0.180 A 
ATOM      2  C   UNL     1     -38.907   7.465  77.854  1.00  0.00     0.208 A 
ATOM      3  C   UNL     1     -37.875   8.378  77.587  1.00  0.00     0.238 A 
ATOM      4  O   UNL     1     -38.179   9.544  77.220  1.00  0.00    -0.285 OA
ATOM      5  C   UNL     1     -36.527   7.992  77.772  1.00  0.00     0.111 A 
ATOM      6  C   UNL     1     -35.399   8.822  77.493  1.00  0.00     0.134 A 
ATOM      7  C   UNL     1     -34.115   8.382  77.838  1.00  0.00     0.093 A 
ATOM      8  C   UNL     1     -33.911   7.118  78.391  1.00  0.00     0.123 A 
ATOM      9  C   UNL     1     -35.000   6.275  78.612  1.00  0.00     0.094 A 
ATOM     10  C   UNL     1     -36.297   6.700  78.312  1.00  0.00     0.146 A 
ATOM     11  O   UNL     1     -37.306   5.871  78.549  1.00  0.00    -0.452 OA
ENDROOT
BRANCH   1  12
ATOM     12  C   UNL     1     -39.608   5.156  78.602  1.00  0.00     0.025 A 
ATOM     13  C   UNL     1     -39.963   4.193  77.643  1.00  0.00     0.016 A 
ATOM     14  C   UNL     1     -40.921   3.220  77.939  1.00  0.00     0.051 A 
ATOM     15  C   UNL     1     -41.528   3.185  79.197  1.00  0.00     0.157 A 
ATOM     16  C   UNL     1     -40.204   5.104  79.874  1.00  0.00     0.062 A 
ATOM     17  C   UNL     1     -41.166   4.129  80.172  1.00  0.00     0.158 A 
BRANCH  15  18
ATOM     18  O   UNL     1     -42.482   2.202  79.463  1.00  0.00    -0.504 OA
ATOM     19  H   UNL     1     -42.440   1.621  80.292  1.00  0.00     0.293 HD
ENDBRANCH  15  18
BRANCH  17  20
ATOM     20  O   UNL     1     -41.761   4.095  81.433  1.00  0.00    -0.504 OA
ATOM     21  H   UNL     1     -41.378   3.537  82.186  1.00  0.00     0.293 HD
ENDBRANCH  17  20
ENDBRANCH   1  12
BRANCH   2  22
ATOM     22  O   UNL     1     -40.247   7.834  77.698  1.00  0.00    -0.502 OA
ATOM     23  H   UNL     1     -40.594   8.747  77.963  1.00  0.00     0.293 HD
ENDBRANCH   2  22
BRANCH   6  24
ATOM     24  O   UNL     1     -35.484  10.065  76.858  1.00  0.00    -0.507 OA
ATOM     25  H   UNL     1     -35.519  10.199  75.860  1.00  0.00     0.293 HD
ENDBRANCH   6  24
BRANCH   8  26
ATOM     26  O   UNL     1     -32.618   6.708  78.707  1.00  0.00    -0.508 OA
ATOM     27  H   UNL     1     -31.883   6.686  78.009  1.00  0.00     0.293 HD
ENDBRANCH   8  26
TORSDOF 6
ENDMDL
MODEL 5
REMARK VINA RESULT:    -6.329      9.511     11.453
REMARK INTER + INTRA:          -7.942
REMARK INTER:                  -7.625
REMARK INTRA:                  -0.316
REMARK UNBOUND:                -0.317
REMARK SMILES O=c1c(O)c(-c2ccc(O)c(O)c2)oc2cc(O)cc(O)c12
REMARK SMILES IDX 5 1 3 2 2 3 1 4 22 5 20 6 19 7 17 8 16 9 15 10 14 11 6 12
REMARK SMILES IDX 7 13 8 14 9 15 13 16 11 17 10 18 12 20 4 22 21 24 18 26
REMARK H PARENT 10 19 12 21 4 23 21 25 18 27
REMARK Flexibility Score: inf
ROOT
ATOM      1  C   UNL     1     -46.441   2.263  73.257  1.00  0.00     0.180 A 
ATOM      2  C   UNL     1     -45.206   1.992  73.869  1.00  0.00     0.208 A 
ATOM      3  C   UNL     1     -44.953   0.697  74.350  1.00  0.00     0.238 A 
ATOM      4  O   UNL     1     -43.866   0.474  74.945  1.00  0.00    -0.285 OA
ATOM      5  C   UNL     1     -45.931  -0.314  74.197  1.00  0.00     0.111 A 
ATOM      6  C   UNL     1     -45.767  -1.670  74.610  1.00  0.00     0.134 A 
ATOM      7  C   UNL     1     -46.850  -2.554  74.528  1.00  0.00     0.093 A 
ATOM      8  C   UNL     1     -48.071  -2.149  73.989  1.00  0.00     0.123 A 
ATOM      9  C   UNL     1     -48.224  -0.841  73.527  1.00  0.00     0.094 A 
ATOM     10  C   UNL     1     -47.173   0.074  73.629  1.00  0.00     0.146 A 
ATOM     11  O   UNL     1     -47.364   1.310  73.188  1.00  0.00    -0.452 OA
ENDROOT
BRANCH   1  12
ATOM     12  C   UNL     1     -46.771   3.597  72.704  1.00  0.00     0.025 A 
ATOM     13  C   UNL     1     -47.294   4.617  73.516  1.00  0.00     0.016 A 
ATOM     14  C   UNL     1     -47.575   5.875  72.978  1.00  0.00     0.051 A 
ATOM     15  C   UNL     1     -47.327   6.138  71.628  1.00  0.00     0.157 A 
ATOM     16  C   UNL     1     -46.502   3.871  71.352  1.00  0.00     0.062 A 
ATOM     17  C   UNL     1     -46.785   5.133  70.810  1.00  0.00     0.158 A 
BRANCH  15  18
ATOM     18  O   UNL     1     -47.619   7.403  71.119  1.00  0.00    -0.504 OA
ATOM     19  H   UNL     1     -48.349   7.551  70.431  1.00  0.00     0.293 HD
ENDBRANCH  15  18
BRANCH  17  20
ATOM     20  O   UNL     1     -46.527   5.390  69.464  1.00  0.00    -0.504 OA
ATOM     21  H   UNL     1     -46.331   4.643  68.809  1.00  0.00     0.293 HD
ENDBRANCH  17  20
ENDBRANCH   1  12
BRANCH   2  22
ATOM     22  O   UNL     1     -44.262   3.010  74.029  1.00  0.00    -0.502 OA
ATOM     23  H   UNL     1     -44.106   3.475  74.916  1.00  0.00     0.293 HD
ENDBRANCH   2  22
BRANCH   6  24
ATOM     24  O   UNL     1     -44.561  -2.203  75.077  1.00  0.00    -0.507 OA
ATOM     25  H   UNL     1     -44.392  -3.183  75.244  1.00  0.00     0.293 HD
ENDBRANCH   6  24
BRANCH   8  26
ATOM     26  O   UNL     1     -49.122  -3.059  73.908  1.00  0.00    -0.508 OA
ATOM     27  H   UNL     1     -49.453  -3.409  73.016  1.00  0.00     0.293 HD
ENDBRANCH   8  26
TORSDOF 6
ENDMDL
MODEL 6
REMARK VINA RESULT:    -6.159      9.375     11.787
REMARK INTER + INTRA:          -7.736
REMARK INTER:                  -7.645
REMARK INTRA:                  -0.092
REMARK UNBOUND:                -0.317
REMARK SMILES O=c1c(O)c(-c2ccc(O)c(O)c2)oc2cc(O)cc(O)c12
REMARK SMILES IDX 5 1 3 2 2 3 1 4 22 5 20 6 19 7 17 8 16 9 15 10 14 11 6 12
REMARK SMILES IDX 7 13 8 14 9 15 13 16 11 17 10 18 12 20 4 22 21 24 18 26
REMARK H PARENT 10 19 12 21 4 23 21 25 18 27
REMARK Flexibility Score: inf
ROOT
ATOM      1  C   UNL     1     -46.753   4.780  71.926  1.00  0.00     0.180 A 
ATOM      2  C   UNL     1     -47.922   4.083  71.578  1.00  0.00     0.208 A 
ATOM      3  C   UNL     1     -48.093   2.768  72.039  1.00  0.00     0.238 A 
ATOM      4  O   UNL     1     -49.117   2.129  71.679  1.00  0.00    -0.285 OA
ATOM      5  C   UNL     1     -47.102   2.173  72.856  1.00  0.00     0.111 A 
ATOM      6  C   UNL     1     -47.189   0.862  73.412  1.00  0.00     0.134 A 
ATOM      7  C   UNL     1     -46.091   0.327  74.097  1.00  0.00     0.093 A 
ATOM      8  C   UNL     1     -44.934   1.079  74.302  1.00  0.00     0.123 A 
ATOM      9  C   UNL     1     -44.861   2.384  73.814  1.00  0.00     0.094 A 
ATOM     10  C   UNL     1     -45.926   2.932  73.095  1.00  0.00     0.146 A 
ATOM     11  O   UNL     1     -45.811   4.172  72.638  1.00  0.00    -0.452 OA
ENDROOT
BRANCH   1  12
ATOM     12  C   UNL     1     -46.513   6.178  71.498  1.00  0.00     0.025 A 
ATOM     13  C   UNL     1     -46.299   7.203  72.435  1.00  0.00     0.016 A 
ATOM     14  C   UNL     1     -46.050   8.510  72.007  1.00  0.00     0.051 A 
ATOM     15  C   UNL     1     -45.997   8.810  70.644  1.00  0.00     0.157 A 
ATOM     16  C   UNL     1     -46.437   6.479  70.127  1.00  0.00     0.062 A 
ATOM     17  C   UNL     1     -46.189   7.790  69.697  1.00  0.00     0.158 A 
BRANCH  15  18
ATOM     18  O   UNL     1     -45.748  10.125  70.247  1.00  0.00    -0.504 OA
ATOM     19  H   UNL     1     -46.419  10.660  69.708  1.00  0.00     0.293 HD
ENDBRANCH  15  18
BRANCH  17  20
ATOM     20  O   UNL     1     -46.130   8.080  68.334  1.00  0.00    -0.504 OA
ATOM     21  H   UNL     1     -46.742   7.625  67.668  1.00  0.00     0.293 HD
ENDBRANCH  17  20
ENDBRANCH   1  12
BRANCH   2  22
ATOM     22  O   UNL     1     -48.879   4.681  70.753  1.00  0.00    -0.502 OA
ATOM     23  H   UNL     1     -49.832   4.344  70.692  1.00  0.00     0.293 HD
ENDBRANCH   2  22
BRANCH   6  24
ATOM     24  O   UNL     1     -48.333   0.060  73.345  1.00  0.00    -0.507 OA
ATOM     25  H   UNL     1     -48.327  -0.944  73.252  1.00  0.00     0.293 HD
ENDBRANCH   6  24
BRANCH   8  26
ATOM     26  O   UNL     1     -43.867   0.521  75.002  1.00  0.00    -0.508 OA
ATOM     27  H   UNL     1     -43.163   1.100  75.444  1.00  0.00     0.293 HD
ENDBRANCH   8  26
TORSDOF 6
ENDMDL
MODEL 7
REMARK VINA RESULT:    -6.080      9.012     11.117
REMARK INTER + INTRA:          -7.641
REMARK INTER:                  -7.319
REMARK INTRA:                  -0.322
REMARK UNBOUND:                -0.317
REMARK SMILES O=c1c(O)c(-c2ccc(O)c(O)c2)oc2cc(O)cc(O)c12
REMARK SMILES IDX 5 1 3 2 2 3 1 4 22 5 20 6 19 7 17 8 16 9 15 10 14 11 6 12
REMARK SMILES IDX 7 13 8 14 9 15 13 16 11 17 10 18 12 20 4 22 21 24 18 26
REMARK H PARENT 10 19 12 21 4 23 21 25 18 27
REMARK Flexibility Score: inf
ROOT
ATOM      1  C   UNL     1     -42.536  -4.723  82.302  1.00  0.00     0.180 A 
ATOM      2  C   UNL     1     -43.038  -5.828  83.010  1.00  0.00     0.208 A 
ATOM      3  C   UNL     1     -44.155  -6.511  82.503  1.00  0.00     0.238 A 
ATOM      4  O   UNL     1     -44.634  -7.466  83.169  1.00  0.00    -0.285 OA
ATOM      5  C   UNL     1     -44.744  -6.092  81.286  1.00  0.00     0.111 A 
ATOM      6  C   UNL     1     -45.854  -6.734  80.659  1.00  0.00     0.134 A 
ATOM      7  C   UNL     1     -46.437  -6.155  79.525  1.00  0.00     0.093 A 
ATOM      8  C   UNL     1     -45.912  -4.994  78.958  1.00  0.00     0.123 A 
ATOM      9  C   UNL     1     -44.791  -4.391  79.529  1.00  0.00     0.094 A 
ATOM     10  C   UNL     1     -44.209  -4.924  80.682  1.00  0.00     0.146 A 
ATOM     11  O   UNL     1     -43.151  -4.313  81.199  1.00  0.00    -0.452 OA
ENDROOT
BRANCH   1  12
ATOM     12  C   UNL     1     -41.347  -3.968  82.761  1.00  0.00     0.025 A 
ATOM     13  C   UNL     1     -41.470  -2.856  83.611  1.00  0.00     0.016 A 
ATOM     14  C   UNL     1     -40.333  -2.173  84.051  1.00  0.00     0.051 A 
ATOM     15  C   UNL     1     -39.059  -2.596  83.661  1.00  0.00     0.157 A 
ATOM     16  C   UNL     1     -40.064  -4.404  82.389  1.00  0.00     0.062 A 
ATOM     17  C   UNL     1     -38.922  -3.719  82.829  1.00  0.00     0.158 A 
BRANCH  15  18
ATOM     18  O   UNL     1     -37.943  -1.893  84.115  1.00  0.00    -0.504 OA
ATOM     19  H   UNL     1     -38.003  -0.930  84.423  1.00  0.00     0.293 HD
ENDBRANCH  15  18
BRANCH  17  20
ATOM     20  O   UNL     1     -37.654  -4.152  82.442  1.00  0.00    -0.504 OA
ATOM     21  H   UNL     1     -36.888  -4.208  83.102  1.00  0.00     0.293 HD
ENDBRANCH  17  20
ENDBRANCH   1  12
BRANCH   2  22
ATOM     22  O   UNL     1     -42.455  -6.213  84.221  1.00  0.00    -0.502 OA
ATOM     23  H   UNL     1     -41.531  -5.906  84.502  1.00  0.00     0.293 HD
ENDBRANCH   2  22
BRANCH   6  24
ATOM     24  O   UNL     1     -46.399  -7.948  81.090  1.00  0.00    -0.507 OA
ATOM     25  H   UNL     1     -45.870  -8.791  81.248  1.00  0.00     0.293 HD
ENDBRANCH   6  24
BRANCH   8  26
ATOM     26  O   UNL     1     -46.508  -4.455  77.821  1.00  0.00    -0.508 OA
ATOM     27  H   UNL     1     -46.698  -3.462  77.742  1.00  0.00     0.293 HD
ENDBRANCH   8  26
TORSDOF 6
ENDMDL
MODEL 8
REMARK VINA RESULT:    -6.055     10.476     11.618
REMARK INTER + INTRA:          -7.611
REMARK INTER:                  -7.464
REMARK INTRA:                  -0.146
REMARK UNBOUND:                -0.317
REMARK SMILES O=c1c(O)c(-c2ccc(O)c(O)c2)oc2cc(O)cc(O)c12
REMARK SMILES IDX 5 1 3 2 2 3 1 4 22 5 20 6 19 7 17 8 16 9 15 10 14 11 6 12
REMARK SMILES IDX 7 13 8 14 9 15 13 16 11 17 10 18 12 20 4 22 21 24 18 26
REMARK H PARENT 10 19 12 21 4 23 21 25 18 27
REMARK Flexibility Score: inf
ROOT
ATOM      1  C   UNL     1     -46.536  -0.273  74.526  1.00  0.00     0.180 A 
ATOM      2  C   UNL     1     -47.696  -0.995  74.854  1.00  0.00     0.208 A 
ATOM      3  C   UNL     1     -47.569  -2.320  75.302  1.00  0.00     0.238 A 
ATOM      4  O   UNL     1     -48.614  -2.979  75.543  1.00  0.00    -0.285 OA
ATOM      5  C   UNL     1     -46.284  -2.899  75.433  1.00  0.00     0.111 A 
ATOM      6  C   UNL     1     -46.035  -4.219  75.916  1.00  0.00     0.134 A 
ATOM      7  C   UNL     1     -44.733  -4.733  75.879  1.00  0.00     0.093 A 
ATOM      8  C   UNL     1     -43.663  -3.956  75.439  1.00  0.00     0.123 A 
ATOM      9  C   UNL     1     -43.886  -2.643  75.021  1.00  0.00     0.094 A 
ATOM     10  C   UNL     1     -45.179  -2.114  75.011  1.00  0.00     0.146 A 
ATOM     11  O   UNL     1     -45.350  -0.865  74.595  1.00  0.00    -0.452 OA
ENDROOT
BRANCH   1  12
ATOM     12  C   UNL     1     -46.588   1.136  74.070  1.00  0.00     0.025 A 
ATOM     13  C   UNL     1     -46.194   1.499  72.771  1.00  0.00     0.016 A 
ATOM     14  C   UNL     1     -46.274   2.831  72.354  1.00  0.00     0.051 A 
ATOM     15  C   UNL     1     -46.760   3.814  73.220  1.00  0.00     0.157 A 
ATOM     16  C   UNL     1     -47.096   2.124  74.930  1.00  0.00     0.062 A 
ATOM     17  C   UNL     1     -47.176   3.461  74.514  1.00  0.00     0.158 A 
BRANCH  15  18
ATOM     18  O   UNL     1     -46.826   5.135  72.777  1.00  0.00    -0.504 OA
ATOM     19  H   UNL     1     -46.186   5.502  72.082  1.00  0.00     0.293 HD
ENDBRANCH  15  18
BRANCH  17  20
ATOM     20  O   UNL     1     -47.669   4.435  75.382  1.00  0.00    -0.504 OA
ATOM     21  H   UNL     1     -47.784   4.255  76.371  1.00  0.00     0.293 HD
ENDBRANCH  17  20
ENDBRANCH   1  12
BRANCH   2  22
ATOM     22  O   UNL     1     -48.956  -0.411  74.697  1.00  0.00    -0.502 OA
ATOM     23  H   UNL     1     -49.079   0.567  74.463  1.00  0.00     0.293 HD
ENDBRANCH   2  22
BRANCH   6  24
ATOM     24  O   UNL     1     -47.019  -5.048  76.463  1.00  0.00    -0.507 OA
ATOM     25  H   UNL     1     -47.418  -4.937  77.382  1.00  0.00     0.293 HD
ENDBRANCH   6  24
BRANCH   8  26
ATOM     26  O   UNL     1     -42.379  -4.495  75.431  1.00  0.00    -0.508 OA
ATOM     27  H   UNL     1     -41.937  -4.823  76.283  1.00  0.00     0.293 HD
ENDBRANCH   8  26
TORSDOF 6
ENDMDL
MODEL 9
REMARK VINA RESULT:    -4.863      1.604      3.227
REMARK INTER + INTRA:          -6.175
REMARK INTER:                  -5.862
REMARK INTRA:                  -0.313
REMARK UNBOUND:                -0.317
REMARK SMILES O=c1c(O)c(-c2ccc(O)c(O)c2)oc2cc(O)cc(O)c12
REMARK SMILES IDX 5 1 3 2 2 3 1 4 22 5 20 6 19 7 17 8 16 9 15 10 14 11 6 12
REMARK SMILES IDX 7 13 8 14 9 15 13 16 11 17 10 18 12 20 4 22 21 24 18 26
REMARK H PARENT 10 19 12 21 4 23 21 25 18 27
REMARK Flexibility Score: inf
ROOT
ATOM      1  C   UNL     1     -37.791   4.988  80.213  1.00  0.00     0.180 A 
ATOM      2  C   UNL     1     -38.833   4.882  79.278  1.00  0.00     0.208 A 
ATOM      3  C   UNL     1     -40.095   4.445  79.711  1.00  0.00     0.238 A 
ATOM      4  O   UNL     1     -41.011   4.300  78.859  1.00  0.00    -0.285 OA
ATOM      5  C   UNL     1     -40.303   4.138  81.077  1.00  0.00     0.111 A 
ATOM      6  C   UNL     1     -41.551   3.725  81.635  1.00  0.00     0.134 A 
ATOM      7  C   UNL     1     -41.609   3.322  82.975  1.00  0.00     0.093 A 
ATOM      8  C   UNL     1     -40.481   3.376  83.793  1.00  0.00     0.123 A 
ATOM      9  C   UNL     1     -39.270   3.834  83.274  1.00  0.00     0.094 A 
ATOM     10  C   UNL     1     -39.172   4.210  81.931  1.00  0.00     0.146 A 
ATOM     11  O   UNL     1     -37.999   4.629  81.475  1.00  0.00    -0.452 OA
ENDROOT
BRANCH   1  12
ATOM     12  C   UNL     1     -36.440   5.464  79.836  1.00  0.00     0.025 A 
ATOM     13  C   UNL     1     -35.414   4.564  79.501  1.00  0.00     0.016 A 
ATOM     14  C   UNL     1     -34.154   5.037  79.125  1.00  0.00     0.051 A 
ATOM     15  C   UNL     1     -33.903   6.411  79.065  1.00  0.00     0.157 A 
ATOM     16  C   UNL     1     -36.190   6.845  79.754  1.00  0.00     0.062 A 
ATOM     17  C   UNL     1     -34.926   7.321  79.378  1.00  0.00     0.158 A 
BRANCH  15  18
ATOM     18  O   UNL     1     -32.634   6.852  78.688  1.00  0.00    -0.504 OA
ATOM     19  H   UNL     1     -32.486   7.418  77.860  1.00  0.00     0.293 HD
ENDBRANCH  15  18
BRANCH  17  20
ATOM     20  O   UNL     1     -34.686   8.693  79.313  1.00  0.00    -0.504 OA
ATOM     21  H   UNL     1     -35.364   9.332  78.918  1.00  0.00     0.293 HD
ENDBRANCH  17  20
ENDBRANCH   1  12
BRANCH   2  22
ATOM     22  O   UNL     1     -38.602   5.170  77.929  1.00  0.00    -0.502 OA
ATOM     23  H   UNL     1     -39.057   4.665  77.179  1.00  0.00     0.293 HD
ENDBRANCH   2  22
BRANCH   6  24
ATOM     24  O   UNL     1     -42.758   3.722  80.929  1.00  0.00    -0.507 OA
ATOM     25  H   UNL     1     -43.651   3.982  81.317  1.00  0.00     0.293 HD
ENDBRANCH   6  24
BRANCH   8  26
ATOM     26  O   UNL     1     -40.580   2.981  85.125  1.00  0.00    -0.508 OA
ATOM     27  H   UNL     1     -40.773   3.649  85.863  1.00  0.00     0.293 HD
ENDBRANCH   8  26
TORSDOF 6
ENDMDL
