MODEL 1
REMARK VINA RESULT:    -4.589      0.000      0.000
REMARK INTER + INTRA:         -10.644
REMARK INTER:                  -8.613
REMARK INTRA:                  -2.031
REMARK UNBOUND:                -2.031
REMARK SMILES O=C([O-])CCCCCCCCCCCCCCC(=O)[O-]
REMARK SMILES IDX 10 1 9 2 8 3 7 4 6 5 5 6 4 7 2 8 1 9 3 10 11 11 12 12 13 13
REMARK SMILES IDX 14 14 15 15 16 16 17 17 18 18 19 19 20 20
REMARK H PARENT
REMARK Flexibility Score: inf
ROOT
ATOM      1  C   UNL     1    -131.073 108.007  39.115  1.00  0.00     0.000 C 
ENDROOT
BRANCH   1   2
ATOM      2  C   UNL     1    -130.985 109.508  39.416  1.00  0.00     0.000 C 
BRANCH   2   3
ATOM      3  C   UNL     1    -129.533 110.004  39.333  1.00  0.00     0.000 C 
BRANCH   3   4
ATOM      4  C   UNL     1    -129.377 111.453  39.843  1.00  0.00     0.000 C 
BRANCH   4   5
ATOM      5  C   UNL     1    -130.140 111.735  41.151  1.00  0.00     0.000 C 
BRANCH   5   6
ATOM      6  C   UNL     1    -129.941 113.149  41.728  1.00  0.00     0.006 C 
BRANCH   6   7
ATOM      7  C   UNL     1    -129.484 113.175  43.196  1.00  0.00     0.053 C 
BRANCH   7   8
ATOM      8  C   UNL     1    -129.654 114.530  43.811  1.00  0.00     0.041 C 
ATOM      9  O   UNL     1    -129.427 114.702  45.038  1.00  0.00    -0.550 OA
ATOM     10  O   UNL     1    -130.095 115.596  43.036  1.00  0.00    -0.550 OA
ENDBRANCH   7   8
ENDBRANCH   6   7
ENDBRANCH   5   6
ENDBRANCH   4   5
ENDBRANCH   3   4
ENDBRANCH   2   3
ENDBRANCH   1   2
BRANCH   1  11
ATOM     11  C   UNL     1    -129.682 107.420  38.831  1.00  0.00     0.000 C 
BRANCH  11  12
ATOM     12  C   UNL     1    -129.445 106.081  39.546  1.00  0.00     0.000 C 
BRANCH  12  13
ATOM     13  C   UNL     1    -129.336 106.238  41.073  1.00  0.00     0.000 C 
BRANCH  13  14
ATOM     14  C   UNL     1    -128.031 106.927  41.504  1.00  0.00     0.000 C 
BRANCH  14  15
ATOM     15  C   UNL     1    -128.271 108.128  42.430  1.00  0.00     0.000 C 
BRANCH  15  16
ATOM     16  C   UNL     1    -129.770 108.310  42.714  1.00  0.00     0.006 C 
BRANCH  16  17
ATOM     17  C   UNL     1    -130.026 109.214  43.927  1.00  0.00     0.053 C 
BRANCH  17  18
ATOM     18  C   UNL     1    -131.006 108.601  44.880  1.00  0.00     0.041 C 
ATOM     19  O   UNL     1    -130.722 108.495  46.101  1.00  0.00    -0.550 OA
ATOM     20  O   UNL     1    -132.247 108.177  44.421  1.00  0.00    -0.550 OA
ENDBRANCH  17  18
ENDBRANCH  16  17
ENDBRANCH  15  16
ENDBRANCH  14  15
ENDBRANCH  13  14
ENDBRANCH  12  13
ENDBRANCH  11  12
ENDBRANCH   1  11
TORSDOF 15
ENDMDL
MODEL 2
REMARK VINA RESULT:    -4.548      5.582      9.291
REMARK INTER + INTRA:         -10.567
REMARK INTER:                  -9.968
REMARK INTRA:                  -0.600
REMARK UNBOUND:                -2.031
REMARK SMILES O=C([O-])CCCCCCCCCCCCCCC(=O)[O-]
REMARK SMILES IDX 10 1 9 2 8 3 7 4 6 5 5 6 4 7 2 8 1 9 3 10 11 11 12 12 13 13
REMARK SMILES IDX 14 14 15 15 16 16 17 17 18 18 19 19 20 20
REMARK H PARENT
REMARK Flexibility Score: inf
ROOT
ATOM      1  C   UNL     1    -129.215 111.372  38.947  1.00  0.00     0.000 C 
ENDROOT
BRANCH   1   2
ATOM      2  C   UNL     1    -129.070 109.882  39.281  1.00  0.00     0.000 C 
BRANCH   2   3
ATOM      3  C   UNL     1    -129.797 109.536  40.589  1.00  0.00     0.000 C 
BRANCH   3   4
ATOM      4  C   UNL     1    -128.909 108.728  41.559  1.00  0.00     0.000 C 
BRANCH   4   5
ATOM      5  C   UNL     1    -129.353 107.264  41.732  1.00  0.00     0.000 C 
BRANCH   5   6
ATOM      6  C   UNL     1    -128.771 106.281  40.698  1.00  0.00     0.006 C 
BRANCH   6   7
ATOM      7  C   UNL     1    -129.639 106.096  39.443  1.00  0.00     0.053 C 
BRANCH   7   8
ATOM      8  C   UNL     1    -129.539 104.706  38.894  1.00  0.00     0.041 C 
ATOM      9  O   UNL     1    -129.818 104.480  37.686  1.00  0.00    -0.550 OA
ATOM     10  O   UNL     1    -129.172 103.654  39.724  1.00  0.00    -0.550 OA
ENDBRANCH   7   8
ENDBRANCH   6   7
ENDBRANCH   5   6
ENDBRANCH   4   5
ENDBRANCH   3   4
ENDBRANCH   2   3
ENDBRANCH   1   2
BRANCH   1  11
ATOM     11  C   UNL     1    -128.058 111.851  38.056  1.00  0.00     0.000 C 
BRANCH  11  12
ATOM     12  C   UNL     1    -128.339 113.211  37.398  1.00  0.00     0.000 C 
BRANCH  12  13
ATOM     13  C   UNL     1    -128.593 113.093  35.885  1.00  0.00     0.000 C 
BRANCH  13  14
ATOM     14  C   UNL     1    -129.416 114.267  35.331  1.00  0.00     0.000 C 
BRANCH  14  15
ATOM     15  C   UNL     1    -130.256 113.879  34.106  1.00  0.00     0.000 C 
BRANCH  15  16
ATOM     16  C   UNL     1    -131.736 113.716  34.486  1.00  0.00     0.006 C 
BRANCH  16  17
ATOM     17  C   UNL     1    -132.564 113.103  33.349  1.00  0.00     0.053 C 
BRANCH  17  18
ATOM     18  C   UNL     1    -133.956 113.656  33.315  1.00  0.00     0.041 C 
ATOM     19  O   UNL     1    -134.310 114.533  34.145  1.00  0.00    -0.550 OA
ATOM     20  O   UNL     1    -134.850 113.226  32.343  1.00  0.00    -0.550 OA
ENDBRANCH  17  18
ENDBRANCH  16  17
ENDBRANCH  15  16
ENDBRANCH  14  15
ENDBRANCH  13  14
ENDBRANCH  12  13
ENDBRANCH  11  12
ENDBRANCH   1  11
TORSDOF 15
ENDMDL
MODEL 3
REMARK VINA RESULT:    -4.539      2.861      5.005
REMARK INTER + INTRA:         -10.551
REMARK INTER:                  -9.778
REMARK INTRA:                  -0.773
REMARK UNBOUND:                -2.031
REMARK SMILES O=C([O-])CCCCCCCCCCCCCCC(=O)[O-]
REMARK SMILES IDX 10 1 9 2 8 3 7 4 6 5 5 6 4 7 2 8 1 9 3 10 11 11 12 12 13 13
REMARK SMILES IDX 14 14 15 15 16 16 17 17 18 18 19 19 20 20
REMARK H PARENT
REMARK Flexibility Score: inf
ROOT
ATOM      1  C   UNL     1    -129.370 111.101  42.821  1.00  0.00     0.000 C 
ENDROOT
BRANCH   1   2
ATOM      2  C   UNL     1    -129.383 112.052  44.023  1.00  0.00     0.000 C 
BRANCH   2   3
ATOM      3  C   UNL     1    -128.896 113.454  43.625  1.00  0.00     0.000 C 
BRANCH   3   4
ATOM      4  C   UNL     1    -130.058 114.389  43.229  1.00  0.00     0.000 C 
BRANCH   4   5
ATOM      5  C   UNL     1    -129.741 115.885  43.418  1.00  0.00     0.000 C 
BRANCH   5   6
ATOM      6  C   UNL     1    -129.457 116.311  44.871  1.00  0.00     0.006 C 
BRANCH   6   7
ATOM      7  C   UNL     1    -130.085 117.656  45.271  1.00  0.00     0.053 C 
BRANCH   7   8
ATOM      8  C   UNL     1    -130.778 117.579  46.596  1.00  0.00     0.041 C 
ATOM      9  O   UNL     1    -131.105 118.633  47.203  1.00  0.00    -0.550 OA
ATOM     10  O   UNL     1    -131.033 116.342  47.177  1.00  0.00    -0.550 OA
ENDBRANCH   7   8
ENDBRANCH   6   7
ENDBRANCH   5   6
ENDBRANCH   4   5
ENDBRANCH   3   4
ENDBRANCH   2   3
ENDBRANCH   1   2
BRANCH   1  11
ATOM     11  C   UNL     1    -129.399 109.635  43.280  1.00  0.00     0.000 C 
BRANCH  11  12
ATOM     12  C   UNL     1    -129.746 108.662  42.142  1.00  0.00     0.000 C 
BRANCH  12  13
ATOM     13  C   UNL     1    -129.398 109.230  40.754  1.00  0.00     0.000 C 
BRANCH  13  14
ATOM     14  C   UNL     1    -130.616 109.287  39.818  1.00  0.00     0.000 C 
BRANCH  14  15
ATOM     15  C   UNL     1    -130.864 107.962  39.083  1.00  0.00     0.000 C 
BRANCH  15  16
ATOM     16  C   UNL     1    -129.536 107.278  38.723  1.00  0.00     0.006 C 
BRANCH  16  17
ATOM     17  C   UNL     1    -129.661 105.749  38.684  1.00  0.00     0.053 C 
BRANCH  17  18
ATOM     18  C   UNL     1    -129.069 105.112  39.903  1.00  0.00     0.041 C 
ATOM     19  O   UNL     1    -128.457 105.813  40.751  1.00  0.00    -0.550 OA
ATOM     20  O   UNL     1    -129.223 103.749  40.118  1.00  0.00    -0.550 OA
ENDBRANCH  17  18
ENDBRANCH  16  17
ENDBRANCH  15  16
ENDBRANCH  14  15
ENDBRANCH  13  14
ENDBRANCH  12  13
ENDBRANCH  11  12
ENDBRANCH   1  11
TORSDOF 15
ENDMDL
MODEL 4
REMARK VINA RESULT:    -4.524      3.095      8.277
REMARK INTER + INTRA:         -10.523
REMARK INTER:                  -9.663
REMARK INTRA:                  -0.860
REMARK UNBOUND:                -2.031
REMARK SMILES O=C([O-])CCCCCCCCCCCCCCC(=O)[O-]
REMARK SMILES IDX 10 1 9 2 8 3 7 4 6 5 5 6 4 7 2 8 1 9 3 10 11 11 12 12 13 13
REMARK SMILES IDX 14 14 15 15 16 16 17 17 18 18 19 19 20 20
REMARK H PARENT
REMARK Flexibility Score: inf
ROOT
ATOM      1  C   UNL     1    -129.378 112.066  44.358  1.00  0.00     0.000 C 
ENDROOT
BRANCH   1   2
ATOM      2  C   UNL     1    -129.375 110.969  43.286  1.00  0.00     0.000 C 
BRANCH   2   3
ATOM      3  C   UNL     1    -129.683 109.595  43.900  1.00  0.00     0.000 C 
BRANCH   3   4
ATOM      4  C   UNL     1    -129.944 108.516  42.826  1.00  0.00     0.000 C 
BRANCH   4   5
ATOM      5  C   UNL     1    -129.314 108.839  41.459  1.00  0.00     0.000 C 
BRANCH   5   6
ATOM      6  C   UNL     1    -129.418 107.713  40.412  1.00  0.00     0.006 C 
BRANCH   6   7
ATOM      7  C   UNL     1    -128.954 106.337  40.915  1.00  0.00     0.053 C 
BRANCH   7   8
ATOM      8  C   UNL     1    -129.136 105.272  39.877  1.00  0.00     0.041 C 
ATOM      9  O   UNL     1    -129.256 105.584  38.663  1.00  0.00    -0.550 OA
ATOM     10  O   UNL     1    -129.207 103.936  40.256  1.00  0.00    -0.550 OA
ENDBRANCH   7   8
ENDBRANCH   6   7
ENDBRANCH   5   6
ENDBRANCH   4   5
ENDBRANCH   3   4
ENDBRANCH   2   3
ENDBRANCH   1   2
BRANCH   1  11
ATOM     11  C   UNL     1    -128.990 113.424  43.755  1.00  0.00     0.000 C 
BRANCH  11  12
ATOM     12  C   UNL     1    -130.032 113.950  42.755  1.00  0.00     0.000 C 
BRANCH  12  13
ATOM     13  C   UNL     1    -129.564 115.224  42.030  1.00  0.00     0.000 C 
BRANCH  13  14
ATOM     14  C   UNL     1    -130.173 116.502  42.629  1.00  0.00     0.000 C 
BRANCH  14  15
ATOM     15  C   UNL     1    -129.109 117.480  43.148  1.00  0.00     0.000 C 
BRANCH  15  16
ATOM     16  C   UNL     1    -129.359 117.828  44.624  1.00  0.00     0.006 C 
BRANCH  16  17
ATOM     17  C   UNL     1    -129.997 116.665  45.396  1.00  0.00     0.053 C 
BRANCH  17  18
ATOM     18  C   UNL     1    -130.746 117.143  46.602  1.00  0.00     0.041 C 
ATOM     19  O   UNL     1    -130.767 118.369  46.891  1.00  0.00    -0.550 OA
ATOM     20  O   UNL     1    -131.447 116.238  47.387  1.00  0.00    -0.550 OA
ENDBRANCH  17  18
ENDBRANCH  16  17
ENDBRANCH  15  16
ENDBRANCH  14  15
ENDBRANCH  13  14
ENDBRANCH  12  13
ENDBRANCH  11  12
ENDBRANCH   1  11
TORSDOF 15
ENDMDL
MODEL 5
REMARK VINA RESULT:    -4.489      3.188      5.312
REMARK INTER + INTRA:         -10.457
REMARK INTER:                  -9.902
REMARK INTRA:                  -0.555
REMARK UNBOUND:                -2.031
REMARK SMILES O=C([O-])CCCCCCCCCCCCCCC(=O)[O-]
REMARK SMILES IDX 10 1 9 2 8 3 7 4 6 5 5 6 4 7 2 8 1 9 3 10 11 11 12 12 13 13
REMARK SMILES IDX 14 14 15 15 16 16 17 17 18 18 19 19 20 20
REMARK H PARENT
REMARK Flexibility Score: inf
ROOT
ATOM      1  C   UNL     1    -129.363 111.980  43.837  1.00  0.00     0.000 C 
ENDROOT
BRANCH   1   2
ATOM      2  C   UNL     1    -129.726 113.122  42.880  1.00  0.00     0.000 C 
BRANCH   2   3
ATOM      3  C   UNL     1    -129.592 114.487  43.572  1.00  0.00     0.000 C 
BRANCH   3   4
ATOM      4  C   UNL     1    -129.715 115.663  42.580  1.00  0.00     0.000 C 
BRANCH   4   5
ATOM      5  C   UNL     1    -129.474 117.042  43.222  1.00  0.00     0.000 C 
BRANCH   5   6
ATOM      6  C   UNL     1    -129.273 117.023  44.749  1.00  0.00     0.006 C 
BRANCH   6   7
ATOM      7  C   UNL     1    -130.088 118.082  45.509  1.00  0.00     0.053 C 
BRANCH   7   8
ATOM      8  C   UNL     1    -130.998 117.464  46.525  1.00  0.00     0.041 C 
ATOM      9  O   UNL     1    -131.935 118.138  47.032  1.00  0.00    -0.550 OA
ATOM     10  O   UNL     1    -130.792 116.153  46.940  1.00  0.00    -0.550 OA
ENDBRANCH   7   8
ENDBRANCH   6   7
ENDBRANCH   5   6
ENDBRANCH   4   5
ENDBRANCH   3   4
ENDBRANCH   2   3
ENDBRANCH   1   2
BRANCH   1  11
ATOM     11  C   UNL     1    -129.041 110.694  43.061  1.00  0.00     0.000 C 
BRANCH  11  12
ATOM     12  C   UNL     1    -129.786 109.466  43.609  1.00  0.00     0.000 C 
BRANCH  12  13
ATOM     13  C   UNL     1    -129.894 108.331  42.575  1.00  0.00     0.000 C 
BRANCH  13  14
ATOM     14  C   UNL     1    -129.217 108.683  41.241  1.00  0.00     0.000 C 
BRANCH  14  15
ATOM     15  C   UNL     1    -130.156 108.524  40.037  1.00  0.00     0.000 C 
BRANCH  15  16
ATOM     16  C   UNL     1    -129.752 107.313  39.182  1.00  0.00     0.006 C 
BRANCH  16  17
ATOM     17  C   UNL     1    -129.374 106.097  40.038  1.00  0.00     0.053 C 
BRANCH  17  18
ATOM     18  C   UNL     1    -129.405 104.828  39.243  1.00  0.00     0.041 C 
ATOM     19  O   UNL     1    -129.136 103.728  39.793  1.00  0.00    -0.550 OA
ATOM     20  O   UNL     1    -129.763 104.857  37.901  1.00  0.00    -0.550 OA
ENDBRANCH  17  18
ENDBRANCH  16  17
ENDBRANCH  15  16
ENDBRANCH  14  15
ENDBRANCH  13  14
ENDBRANCH  12  13
ENDBRANCH  11  12
ENDBRANCH   1  11
TORSDOF 15
ENDMDL
MODEL 6
REMARK VINA RESULT:    -4.470      2.551      4.539
REMARK INTER + INTRA:         -10.421
REMARK INTER:                  -9.438
REMARK INTRA:                  -0.983
REMARK UNBOUND:                -2.031
REMARK SMILES O=C([O-])CCCCCCCCCCCCCCC(=O)[O-]
REMARK SMILES IDX 10 1 9 2 8 3 7 4 6 5 5 6 4 7 2 8 1 9 3 10 11 11 12 12 13 13
REMARK SMILES IDX 14 14 15 15 16 16 17 17 18 18 19 19 20 20
REMARK H PARENT
REMARK Flexibility Score: inf
ROOT
ATOM      1  C   UNL     1    -129.385 110.751  42.650  1.00  0.00     0.000 C 
ENDROOT
BRANCH   1   2
ATOM      2  C   UNL     1    -129.439 111.501  43.987  1.00  0.00     0.000 C 
BRANCH   2   3
ATOM      3  C   UNL     1    -128.964 112.954  43.825  1.00  0.00     0.000 C 
BRANCH   3   4
ATOM      4  C   UNL     1    -129.944 113.802  42.987  1.00  0.00     0.000 C 
BRANCH   4   5
ATOM      5  C   UNL     1    -129.871 115.311  43.290  1.00  0.00     0.000 C 
BRANCH   5   6
ATOM      6  C   UNL     1    -129.516 115.666  44.746  1.00  0.00     0.006 C 
BRANCH   6   7
ATOM      7  C   UNL     1    -129.863 117.108  45.149  1.00  0.00     0.053 C 
BRANCH   7   8
ATOM      8  C   UNL     1    -130.649 117.160  46.422  1.00  0.00     0.041 C 
ATOM      9  O   UNL     1    -130.826 118.258  47.014  1.00  0.00    -0.550 OA
ATOM     10  O   UNL     1    -131.159 115.990  46.974  1.00  0.00    -0.550 OA
ENDBRANCH   7   8
ENDBRANCH   6   7
ENDBRANCH   5   6
ENDBRANCH   4   5
ENDBRANCH   3   4
ENDBRANCH   2   3
ENDBRANCH   1   2
BRANCH   1  11
ATOM     11  C   UNL     1    -129.386 109.231  42.873  1.00  0.00     0.000 C 
BRANCH  11  12
ATOM     12  C   UNL     1    -127.972 108.628  42.859  1.00  0.00     0.000 C 
BRANCH  12  13
ATOM     13  C   UNL     1    -127.875 107.373  41.972  1.00  0.00     0.000 C 
BRANCH  13  14
ATOM     14  C   UNL     1    -129.250 106.891  41.481  1.00  0.00     0.000 C 
BRANCH  14  15
ATOM     15  C   UNL     1    -129.173 106.139  40.144  1.00  0.00     0.000 C 
BRANCH  15  16
ATOM     16  C   UNL     1    -130.001 106.853  39.065  1.00  0.00     0.006 C 
BRANCH  16  17
ATOM     17  C   UNL     1    -129.897 108.380  39.168  1.00  0.00     0.053 C 
BRANCH  17  18
ATOM     18  C   UNL     1    -131.243 109.034  39.097  1.00  0.00     0.041 C 
ATOM     19  O   UNL     1    -132.208 108.441  38.548  1.00  0.00    -0.550 OA
ATOM     20  O   UNL     1    -131.438 110.285  39.668  1.00  0.00    -0.550 OA
ENDBRANCH  17  18
ENDBRANCH  16  17
ENDBRANCH  15  16
ENDBRANCH  14  15
ENDBRANCH  13  14
ENDBRANCH  12  13
ENDBRANCH  11  12
ENDBRANCH   1  11
TORSDOF 15
ENDMDL
MODEL 7
REMARK VINA RESULT:    -4.425      2.877      7.377
REMARK INTER + INTRA:         -10.336
REMARK INTER:                  -9.363
REMARK INTRA:                  -0.973
REMARK UNBOUND:                -2.031
REMARK SMILES O=C([O-])CCCCCCCCCCCCCCC(=O)[O-]
REMARK SMILES IDX 10 1 9 2 8 3 7 4 6 5 5 6 4 7 2 8 1 9 3 10 11 11 12 12 13 13
REMARK SMILES IDX 14 14 15 15 16 16 17 17 18 18 19 19 20 20
REMARK H PARENT
REMARK Flexibility Score: inf
ROOT
ATOM      1  C   UNL     1    -129.393 111.864  44.346  1.00  0.00     0.000 C 
ENDROOT
BRANCH   1   2
ATOM      2  C   UNL     1    -129.383 110.746  43.297  1.00  0.00     0.000 C 
BRANCH   2   3
ATOM      3  C   UNL     1    -129.966 109.445  43.870  1.00  0.00     0.000 C 
BRANCH   3   4
ATOM      4  C   UNL     1    -129.907 108.280  42.859  1.00  0.00     0.000 C 
BRANCH   4   5
ATOM      5  C   UNL     1    -128.990 108.552  41.652  1.00  0.00     0.000 C 
BRANCH   5   6
ATOM      6  C   UNL     1    -129.557 108.108  40.290  1.00  0.00     0.006 C 
BRANCH   6   7
ATOM      7  C   UNL     1    -130.316 109.208  39.531  1.00  0.00     0.053 C 
BRANCH   7   8
ATOM      8  C   UNL     1    -129.533 110.482  39.461  1.00  0.00     0.041 C 
ATOM      9  O   UNL     1    -128.533 110.572  38.700  1.00  0.00    -0.550 OA
ATOM     10  O   UNL     1    -129.886 111.562  40.263  1.00  0.00    -0.550 OA
ENDBRANCH   7   8
ENDBRANCH   6   7
ENDBRANCH   5   6
ENDBRANCH   4   5
ENDBRANCH   3   4
ENDBRANCH   2   3
ENDBRANCH   1   2
BRANCH   1  11
ATOM     11  C   UNL     1    -128.923 113.194  43.737  1.00  0.00     0.000 C 
BRANCH  11  12
ATOM     12  C   UNL     1    -130.017 113.889  42.911  1.00  0.00     0.000 C 
BRANCH  12  13
ATOM     13  C   UNL     1    -129.510 115.162  42.211  1.00  0.00     0.000 C 
BRANCH  13  14
ATOM     14  C   UNL     1    -130.199 116.434  42.731  1.00  0.00     0.000 C 
BRANCH  14  15
ATOM     15  C   UNL     1    -129.200 117.502  43.199  1.00  0.00     0.000 C 
BRANCH  15  16
ATOM     16  C   UNL     1    -129.429 117.857  44.676  1.00  0.00     0.006 C 
BRANCH  16  17
ATOM     17  C   UNL     1    -129.860 116.641  45.506  1.00  0.00     0.053 C 
BRANCH  17  18
ATOM     18  C   UNL     1    -130.773 117.030  46.629  1.00  0.00     0.041 C 
ATOM     19  O   UNL     1    -131.417 116.149  47.257  1.00  0.00    -0.550 OA
ATOM     20  O   UNL     1    -130.886 118.363  47.001  1.00  0.00    -0.550 OA
ENDBRANCH  17  18
ENDBRANCH  16  17
ENDBRANCH  15  16
ENDBRANCH  14  15
ENDBRANCH  13  14
ENDBRANCH  12  13
ENDBRANCH  11  12
ENDBRANCH   1  11
TORSDOF 15
ENDMDL
MODEL 8
REMARK VINA RESULT:    -4.380      2.687      7.348
REMARK INTER + INTRA:         -10.252
REMARK INTER:                  -9.413
REMARK INTRA:                  -0.839
REMARK UNBOUND:                -2.031
REMARK SMILES O=C([O-])CCCCCCCCCCCCCCC(=O)[O-]
REMARK SMILES IDX 10 1 9 2 8 3 7 4 6 5 5 6 4 7 2 8 1 9 3 10 11 11 12 12 13 13
REMARK SMILES IDX 14 14 15 15 16 16 17 17 18 18 19 19 20 20
REMARK H PARENT
REMARK Flexibility Score: inf
ROOT
ATOM      1  C   UNL     1    -129.361 110.699  42.687  1.00  0.00     0.000 C 
ENDROOT
BRANCH   1   2
ATOM      2  C   UNL     1    -129.229 109.194  42.951  1.00  0.00     0.000 C 
BRANCH   2   3
ATOM      3  C   UNL     1    -127.901 108.651  42.403  1.00  0.00     0.000 C 
BRANCH   3   4
ATOM      4  C   UNL     1    -128.010 107.179  41.949  1.00  0.00     0.000 C 
BRANCH   4   5
ATOM      5  C   UNL     1    -129.378 106.820  41.340  1.00  0.00     0.000 C 
BRANCH   5   6
ATOM      6  C   UNL     1    -129.329 106.313  39.885  1.00  0.00     0.006 C 
BRANCH   6   7
ATOM      7  C   UNL     1    -130.015 107.239  38.869  1.00  0.00     0.053 C 
BRANCH   7   8
ATOM      8  C   UNL     1    -130.130 108.642  39.378  1.00  0.00     0.041 C 
ATOM      9  O   UNL     1    -131.186 109.025  39.950  1.00  0.00    -0.550 OA
ATOM     10  O   UNL     1    -129.085 109.539  39.193  1.00  0.00    -0.550 OA
ENDBRANCH   7   8
ENDBRANCH   6   7
ENDBRANCH   5   6
ENDBRANCH   4   5
ENDBRANCH   3   4
ENDBRANCH   2   3
ENDBRANCH   1   2
BRANCH   1  11
ATOM     11  C   UNL     1    -129.344 111.491  44.004  1.00  0.00     0.000 C 
BRANCH  11  12
ATOM     12  C   UNL     1    -128.998 112.975  43.801  1.00  0.00     0.000 C 
BRANCH  12  13
ATOM     13  C   UNL     1    -130.082 113.731  43.012  1.00  0.00     0.000 C 
BRANCH  13  14
ATOM     14  C   UNL     1    -129.576 115.068  42.447  1.00  0.00     0.000 C 
BRANCH  14  15
ATOM     15  C   UNL     1    -130.166 116.283  43.177  1.00  0.00     0.000 C 
BRANCH  15  16
ATOM     16  C   UNL     1    -129.603 116.392  44.602  1.00  0.00     0.006 C 
BRANCH  16  17
ATOM     17  C   UNL     1    -130.051 117.680  45.307  1.00  0.00     0.053 C 
BRANCH  17  18
ATOM     18  C   UNL     1    -130.892 117.390  46.512  1.00  0.00     0.041 C 
ATOM     19  O   UNL     1    -130.852 116.255  47.056  1.00  0.00    -0.550 OA
ATOM     20  O   UNL     1    -131.695 118.384  47.054  1.00  0.00    -0.550 OA
ENDBRANCH  17  18
ENDBRANCH  16  17
ENDBRANCH  15  16
ENDBRANCH  14  15
ENDBRANCH  13  14
ENDBRANCH  12  13
ENDBRANCH  11  12
ENDBRANCH   1  11
TORSDOF 15
ENDMDL
MODEL 9
REMARK VINA RESULT:    -4.339      3.171      8.003
REMARK INTER + INTRA:         -10.175
REMARK INTER:                  -9.325
REMARK INTRA:                  -0.851
REMARK UNBOUND:                -2.031
REMARK SMILES O=C([O-])CCCCCCCCCCCCCCC(=O)[O-]
REMARK SMILES IDX 10 1 9 2 8 3 7 4 6 5 5 6 4 7 2 8 1 9 3 10 11 11 12 12 13 13
REMARK SMILES IDX 14 14 15 15 16 16 17 17 18 18 19 19 20 20
REMARK H PARENT
REMARK Flexibility Score: inf
ROOT
ATOM      1  C   UNL     1    -130.466 111.441  40.943  1.00  0.00     0.000 C 
ENDROOT
BRANCH   1   2
ATOM      2  C   UNL     1    -129.587 110.712  39.919  1.00  0.00     0.000 C 
BRANCH   2   3
ATOM      3  C   UNL     1    -129.526 109.206  40.216  1.00  0.00     0.000 C 
BRANCH   3   4
ATOM      4  C   UNL     1    -129.322 108.911  41.717  1.00  0.00     0.000 C 
BRANCH   4   5
ATOM      5  C   UNL     1    -129.272 107.408  42.052  1.00  0.00     0.000 C 
BRANCH   5   6
ATOM      6  C   UNL     1    -128.579 106.529  40.993  1.00  0.00     0.006 C 
BRANCH   6   7
ATOM      7  C   UNL     1    -129.452 105.386  40.449  1.00  0.00     0.053 C 
BRANCH   7   8
ATOM      8  C   UNL     1    -129.372 105.281  38.958  1.00  0.00     0.041 C 
ATOM      9  O   UNL     1    -129.119 106.301  38.262  1.00  0.00    -0.550 OA
ATOM     10  O   UNL     1    -129.610 104.063  38.332  1.00  0.00    -0.550 OA
ENDBRANCH   7   8
ENDBRANCH   6   7
ENDBRANCH   5   6
ENDBRANCH   4   5
ENDBRANCH   3   4
ENDBRANCH   2   3
ENDBRANCH   1   2
BRANCH   1  11
ATOM     11  C   UNL     1    -129.827 112.773  41.366  1.00  0.00     0.000 C 
BRANCH  11  12
ATOM     12  C   UNL     1    -129.539 112.841  42.874  1.00  0.00     0.000 C 
BRANCH  12  13
ATOM     13  C   UNL     1    -129.846 114.226  43.471  1.00  0.00     0.000 C 
BRANCH  13  14
ATOM     14  C   UNL     1    -129.733 115.354  42.433  1.00  0.00     0.000 C 
BRANCH  14  15
ATOM     15  C   UNL     1    -129.623 116.744  43.076  1.00  0.00     0.000 C 
BRANCH  15  16
ATOM     16  C   UNL     1    -129.651 116.643  44.609  1.00  0.00     0.006 C 
BRANCH  16  17
ATOM     17  C   UNL     1    -130.048 117.969  45.272  1.00  0.00     0.053 C 
BRANCH  17  18
ATOM     18  C   UNL     1    -130.701 117.751  46.602  1.00  0.00     0.041 C 
ATOM     19  O   UNL     1    -130.977 118.732  47.342  1.00  0.00    -0.550 OA
ATOM     20  O   UNL     1    -131.034 116.466  47.010  1.00  0.00    -0.550 OA
ENDBRANCH  17  18
ENDBRANCH  16  17
ENDBRANCH  15  16
ENDBRANCH  14  15
ENDBRANCH  13  14
ENDBRANCH  12  13
ENDBRANCH  11  12
ENDBRANCH   1  11
TORSDOF 15
ENDMDL
