MODEL 1
REMARK VINA RESULT:    -8.273      0.000      0.000
REMARK INTER + INTRA:         -13.404
REMARK INTER:                 -12.142
REMARK INTRA:                  -1.262
REMARK UNBOUND:                -1.262
REMARK SMILES Cc1cc2c(C(C)C)c(O)c(O)c(C=O)c2c(O)c1-c1c(C)cc2c(C(C)C)c(O)c(O)c(C=O)c2c1O
REMARK SMILES IDX 1 1 2 2 3 3 4 4 16 5 13 6 11 7 9 8 5 9 17 10 19 11 20 12
REMARK SMILES IDX 37 13 21 14 36 15 23 16 22 17 24 18 33 19 25 20 31 21 29 22
REMARK SMILES IDX 38 23 34 25 35 26 26 27 27 28 28 29 32 30 30 32 18 34 6 36
REMARK SMILES IDX 7 37 8 38 14 39 15 40 10 41 12 43
REMARK H PARENT 38 24 32 31 30 33 18 35 10 42 12 44
REMARK Flexibility Score: inf
ROOT
ATOM      1  C   UNL     1      17.992  -0.519  28.710  1.00  0.00     0.045 C 
ATOM      2  C   UNL     1      16.496  -0.363  28.848  1.00  0.00    -0.039 A 
ATOM      3  C   UNL     1      15.937   0.915  28.837  1.00  0.00     0.013 A 
ATOM      4  C   UNL     1      14.550   1.126  29.006  1.00  0.00    -0.006 A 
ATOM      5  C   UNL     1      13.694  -0.010  29.131  1.00  0.00     0.039 A 
ATOM      6  C   UNL     1      12.292   0.199  29.290  1.00  0.00     0.072 A 
ATOM      7  C   UNL     1      11.752   1.487  29.125  1.00  0.00     0.169 A 
ATOM      8  C   UNL     1      12.596   2.588  28.899  1.00  0.00     0.162 A 
ATOM      9  C   UNL     1      13.997   2.444  29.009  1.00  0.00     0.008 A 
ATOM     10  C   UNL     1      14.260  -1.317  29.046  1.00  0.00     0.132 A 
ATOM     11  C   UNL     1      15.657  -1.485  28.937  1.00  0.00     0.031 A 
ENDROOT
BRANCH  11  12
ATOM     12  C   UNL     1      16.243  -2.850  28.875  1.00  0.00     0.031 A 
ATOM     13  C   UNL     1      16.726  -3.471  30.046  1.00  0.00     0.132 A 
ATOM     14  C   UNL     1      16.321  -3.518  27.644  1.00  0.00    -0.039 A 
ATOM     15  C   UNL     1      17.278  -4.789  29.996  1.00  0.00     0.039 A 
ATOM     16  C   UNL     1      16.913  -4.780  27.582  1.00  0.00     0.013 A 
ATOM     17  C   UNL     1      15.792  -2.883  26.379  1.00  0.00     0.045 C 
ATOM     18  C   UNL     1      17.406  -5.440  28.727  1.00  0.00    -0.006 A 
ATOM     19  C   UNL     1      17.731  -5.465  31.169  1.00  0.00     0.072 A 
ATOM     20  C   UNL     1      18.027  -6.727  28.633  1.00  0.00     0.008 A 
ATOM     21  C   UNL     1      18.345  -6.728  31.062  1.00  0.00     0.169 A 
ATOM     22  C   UNL     1      18.520  -7.331  29.813  1.00  0.00     0.162 A 
BRANCH  13  23
ATOM     23  O   UNL     1      16.680  -2.764  31.254  1.00  0.00    -0.507 OA
ATOM     24  H   UNL     1      15.930  -2.137  31.517  1.00  0.00     0.293 HD
ENDBRANCH  13  23
BRANCH  19  25
ATOM     25  C   UNL     1      17.539  -4.900  32.521  1.00  0.00     0.264 C 
ATOM     26  O   UNL     1      17.183  -5.635  33.479  1.00  0.00    -0.298 OA
ENDBRANCH  19  25
BRANCH  20  27
ATOM     27  C   UNL     1      18.215  -7.497  27.308  1.00  0.00     0.017 C 
ATOM     28  C   UNL     1      19.004  -6.683  26.271  1.00  0.00     0.012 C 
ATOM     29  C   UNL     1      16.910  -8.101  26.745  1.00  0.00     0.012 C 
ENDBRANCH  20  27
BRANCH  21  30
ATOM     30  O   UNL     1      18.773  -7.434  32.192  1.00  0.00    -0.504 OA
ATOM     31  H   UNL     1      19.687  -7.338  32.612  1.00  0.00     0.293 HD
ENDBRANCH  21  30
BRANCH  22  32
ATOM     32  O   UNL     1      19.183  -8.561  29.744  1.00  0.00    -0.504 OA
ATOM     33  H   UNL     1      18.873  -9.388  30.240  1.00  0.00     0.293 HD
ENDBRANCH  22  32
ENDBRANCH  11  12
BRANCH  10  34
ATOM     34  O   UNL     1      13.433  -2.446  29.020  1.00  0.00    -0.507 OA
ATOM     35  H   UNL     1      13.646  -3.291  28.508  1.00  0.00     0.293 HD
ENDBRANCH  10  34
BRANCH   9  36
ATOM     36  C   UNL     1      14.888   3.699  29.070  1.00  0.00     0.017 C 
ATOM     37  C   UNL     1      15.845   3.632  30.265  1.00  0.00     0.012 C 
ATOM     38  C   UNL     1      15.647   3.991  27.762  1.00  0.00     0.012 C 
ENDBRANCH   9  36
BRANCH   6  39
ATOM     39  C   UNL     1      11.378  -0.890  29.718  1.00  0.00     0.264 C 
ATOM     40  O   UNL     1      10.595  -1.444  28.902  1.00  0.00    -0.298 OA
ENDBRANCH   6  39
BRANCH   8  41
ATOM     41  O   UNL     1      12.063   3.832  28.554  1.00  0.00    -0.504 OA
ATOM     42  H   UNL     1      12.605   4.683  28.496  1.00  0.00     0.293 HD
ENDBRANCH   8  41
BRANCH   7  43
ATOM     43  O   UNL     1      10.367   1.658  29.243  1.00  0.00    -0.504 OA
ATOM     44  H   UNL     1       9.928   2.276  29.910  1.00  0.00     0.293 HD
ENDBRANCH   7  43
TORSDOF 11
ENDMDL
MODEL 2
REMARK VINA RESULT:    -8.132      0.678      8.935
REMARK INTER + INTRA:         -13.197
REMARK INTER:                 -11.937
REMARK INTRA:                  -1.260
REMARK UNBOUND:                -1.262
REMARK SMILES Cc1cc2c(C(C)C)c(O)c(O)c(C=O)c2c(O)c1-c1c(C)cc2c(C(C)C)c(O)c(O)c(C=O)c2c1O
REMARK SMILES IDX 1 1 2 2 3 3 4 4 16 5 13 6 11 7 9 8 5 9 17 10 19 11 20 12
REMARK SMILES IDX 37 13 21 14 36 15 23 16 22 17 24 18 33 19 25 20 31 21 29 22
REMARK SMILES IDX 38 23 34 25 35 26 26 27 27 28 28 29 32 30 30 32 18 34 6 36
REMARK SMILES IDX 7 37 8 38 14 39 15 40 10 41 12 43
REMARK H PARENT 38 24 32 31 30 33 18 35 10 42 12 44
REMARK Flexibility Score: inf
ROOT
ATOM      1  C   UNL     1      16.345  -3.465  26.280  1.00  0.00     0.045 C 
ATOM      2  C   UNL     1      16.744  -4.030  27.622  1.00  0.00    -0.039 A 
ATOM      3  C   UNL     1      17.321  -5.298  27.688  1.00  0.00     0.013 A 
ATOM      4  C   UNL     1      17.675  -5.896  28.918  1.00  0.00    -0.006 A 
ATOM      5  C   UNL     1      17.489  -5.151  30.121  1.00  0.00     0.039 A 
ATOM      6  C   UNL     1      17.856  -5.747  31.364  1.00  0.00     0.072 A 
ATOM      7  C   UNL     1      18.569  -6.959  31.376  1.00  0.00     0.169 A 
ATOM      8  C   UNL     1      18.838  -7.637  30.175  1.00  0.00     0.162 A 
ATOM      9  C   UNL     1      18.251  -7.204  28.967  1.00  0.00     0.008 A 
ATOM     10  C   UNL     1      16.987  -3.817  30.040  1.00  0.00     0.132 A 
ATOM     11  C   UNL     1      16.589  -3.279  28.798  1.00  0.00     0.031 A 
ENDROOT
BRANCH  11  12
ATOM     12  C   UNL     1      16.042  -1.898  28.724  1.00  0.00     0.031 A 
ATOM     13  C   UNL     1      14.661  -1.670  28.900  1.00  0.00     0.132 A 
ATOM     14  C   UNL     1      16.904  -0.821  28.470  1.00  0.00    -0.039 A 
ATOM     15  C   UNL     1      14.130  -0.343  28.844  1.00  0.00     0.039 A 
ATOM     16  C   UNL     1      16.381   0.467  28.356  1.00  0.00     0.013 A 
ATOM     17  C   UNL     1      18.389  -1.037  28.298  1.00  0.00     0.045 C 
ATOM     18  C   UNL     1      15.008   0.743  28.528  1.00  0.00    -0.006 A 
ATOM     19  C   UNL     1      12.746  -0.071  29.067  1.00  0.00     0.072 A 
ATOM     20  C   UNL     1      14.493   2.072  28.385  1.00  0.00     0.008 A 
ATOM     21  C   UNL     1      12.253   1.239  28.917  1.00  0.00     0.169 A 
ATOM     22  C   UNL     1      13.106   2.284  28.550  1.00  0.00     0.162 A 
BRANCH  13  23
ATOM     23  O   UNL     1      13.815  -2.767  29.106  1.00  0.00    -0.507 OA
ATOM     24  H   UNL     1      13.583  -3.446  28.393  1.00  0.00     0.293 HD
ENDBRANCH  13  23
BRANCH  19  25
ATOM     25  C   UNL     1      11.801  -1.124  29.496  1.00  0.00     0.264 C 
ATOM     26  O   UNL     1      10.954  -1.592  28.691  1.00  0.00    -0.298 OA
ENDBRANCH  19  25
BRANCH  20  27
ATOM     27  C   UNL     1      15.364   3.299  28.037  1.00  0.00     0.017 C 
ATOM     28  C   UNL     1      15.983   3.193  26.636  1.00  0.00     0.012 C 
ATOM     29  C   UNL     1      16.389   3.669  29.132  1.00  0.00     0.012 C 
ENDBRANCH  20  27
BRANCH  21  30
ATOM     30  O   UNL     1      10.908   1.548  29.157  1.00  0.00    -0.504 OA
ATOM     31  H   UNL     1      10.128   1.076  28.721  1.00  0.00     0.293 HD
ENDBRANCH  21  30
BRANCH  22  32
ATOM     32  O   UNL     1      12.566   3.561  28.360  1.00  0.00    -0.504 OA
ATOM     33  H   UNL     1      12.416   4.219  29.115  1.00  0.00     0.293 HD
ENDBRANCH  22  32
ENDBRANCH  11  12
BRANCH  10  34
ATOM     34  O   UNL     1      16.929  -3.013  31.184  1.00  0.00    -0.507 OA
ATOM     35  H   UNL     1      17.738  -2.742  31.726  1.00  0.00     0.293 HD
ENDBRANCH  10  34
BRANCH   9  36
ATOM     36  C   UNL     1      18.296  -8.119  27.728  1.00  0.00     0.017 C 
ATOM     37  C   UNL     1      16.883  -8.402  27.207  1.00  0.00     0.012 C 
ATOM     38  C   UNL     1      19.213  -7.603  26.603  1.00  0.00     0.012 C 
ENDBRANCH   9  36
BRANCH   6  39
ATOM     39  C   UNL     1      17.430  -5.176  32.667  1.00  0.00     0.264 C 
ATOM     40  O   UNL     1      17.066  -5.919  33.617  1.00  0.00    -0.298 OA
ENDBRANCH   6  39
BRANCH   8  41
ATOM     41  O   UNL     1      19.698  -8.738  30.159  1.00  0.00    -0.504 OA
ATOM     42  H   UNL     1      20.541  -8.806  30.712  1.00  0.00     0.293 HD
ENDBRANCH   8  41
BRANCH   7  43
ATOM     43  O   UNL     1      18.955  -7.502  32.608  1.00  0.00    -0.504 OA
ATOM     44  H   UNL     1      19.899  -7.475  32.967  1.00  0.00     0.293 HD
ENDBRANCH   7  43
TORSDOF 11
ENDMDL
MODEL 3
REMARK VINA RESULT:    -7.758      2.073      8.982
REMARK INTER + INTRA:         -12.649
REMARK INTER:                 -11.526
REMARK INTRA:                  -1.123
REMARK UNBOUND:                -1.262
REMARK SMILES Cc1cc2c(C(C)C)c(O)c(O)c(C=O)c2c(O)c1-c1c(C)cc2c(C(C)C)c(O)c(O)c(C=O)c2c1O
REMARK SMILES IDX 1 1 2 2 3 3 4 4 16 5 13 6 11 7 9 8 5 9 17 10 19 11 20 12
REMARK SMILES IDX 37 13 21 14 36 15 23 16 22 17 24 18 33 19 25 20 31 21 29 22
REMARK SMILES IDX 38 23 34 25 35 26 26 27 27 28 28 29 32 30 30 32 18 34 6 36
REMARK SMILES IDX 7 37 8 38 14 39 15 40 10 41 12 43
REMARK H PARENT 38 24 32 31 30 33 18 35 10 42 12 44
REMARK Flexibility Score: inf
ROOT
ATOM      1  C   UNL     1      16.749  -3.551  26.307  1.00  0.00     0.045 C 
ATOM      2  C   UNL     1      17.060  -4.121  27.670  1.00  0.00    -0.039 A 
ATOM      3  C   UNL     1      17.559  -5.420  27.772  1.00  0.00     0.013 A 
ATOM      4  C   UNL     1      17.828  -6.022  29.021  1.00  0.00    -0.006 A 
ATOM      5  C   UNL     1      17.637  -5.252  30.208  1.00  0.00     0.039 A 
ATOM      6  C   UNL     1      17.919  -5.852  31.471  1.00  0.00     0.072 A 
ATOM      7  C   UNL     1      18.558  -7.104  31.525  1.00  0.00     0.169 A 
ATOM      8  C   UNL     1      18.836  -7.812  30.343  1.00  0.00     0.162 A 
ATOM      9  C   UNL     1      18.323  -7.360  29.107  1.00  0.00     0.008 A 
ATOM     10  C   UNL     1      17.218  -3.893  30.093  1.00  0.00     0.132 A 
ATOM     11  C   UNL     1      16.902  -3.347  28.831  1.00  0.00     0.031 A 
ENDROOT
BRANCH  11  12
ATOM     12  C   UNL     1      16.440  -1.938  28.720  1.00  0.00     0.031 A 
ATOM     13  C   UNL     1      17.367  -0.904  28.471  1.00  0.00     0.132 A 
ATOM     14  C   UNL     1      15.079  -1.638  28.872  1.00  0.00    -0.039 A 
ATOM     15  C   UNL     1      16.929   0.451  28.350  1.00  0.00     0.039 A 
ATOM     16  C   UNL     1      14.656  -0.310  28.813  1.00  0.00     0.013 A 
ATOM     17  C   UNL     1      14.065  -2.730  29.119  1.00  0.00     0.045 C 
ATOM     18  C   UNL     1      15.546   0.755  28.563  1.00  0.00    -0.006 A 
ATOM     19  C   UNL     1      17.833   1.516  28.048  1.00  0.00     0.072 A 
ATOM     20  C   UNL     1      15.089   2.113  28.527  1.00  0.00     0.008 A 
ATOM     21  C   UNL     1      17.371   2.845  28.022  1.00  0.00     0.169 A 
ATOM     22  C   UNL     1      16.031   3.140  28.290  1.00  0.00     0.162 A 
BRANCH  13  23
ATOM     23  O   UNL     1      18.727  -1.224  28.370  1.00  0.00    -0.507 OA
ATOM     24  H   UNL     1      19.100  -2.157  28.484  1.00  0.00     0.293 HD
ENDBRANCH  13  23
BRANCH  19  25
ATOM     25  C   UNL     1      19.251   1.266  27.717  1.00  0.00     0.264 C 
ATOM     26  O   UNL     1      20.161   1.551  28.539  1.00  0.00    -0.298 OA
ENDBRANCH  19  25
BRANCH  20  27
ATOM     27  C   UNL     1      13.621   2.532  28.754  1.00  0.00     0.017 C 
ATOM     28  C   UNL     1      13.271   2.633  30.246  1.00  0.00     0.012 C 
ATOM     29  C   UNL     1      12.601   1.704  27.942  1.00  0.00     0.012 C 
ENDBRANCH  20  27
BRANCH  21  30
ATOM     30  O   UNL     1      18.221   3.910  27.701  1.00  0.00    -0.504 OA
ATOM     31  H   UNL     1      19.158   4.022  28.065  1.00  0.00     0.293 HD
ENDBRANCH  21  30
BRANCH  22  32
ATOM     32  O   UNL     1      15.624   4.479  28.307  1.00  0.00    -0.504 OA
ATOM     33  H   UNL     1      16.144   5.211  28.775  1.00  0.00     0.293 HD
ENDBRANCH  22  32
ENDBRANCH  11  12
BRANCH  10  34
ATOM     34  O   UNL     1      17.161  -3.072  31.225  1.00  0.00    -0.507 OA
ATOM     35  H   UNL     1      17.904  -2.447  31.507  1.00  0.00     0.293 HD
ENDBRANCH  10  34
BRANCH   9  36
ATOM     36  C   UNL     1      18.364  -8.292  27.880  1.00  0.00     0.017 C 
ATOM     37  C   UNL     1      16.948  -8.603  27.384  1.00  0.00     0.012 C 
ATOM     38  C   UNL     1      19.257  -7.778  26.735  1.00  0.00     0.012 C 
ENDBRANCH   9  36
BRANCH   6  39
ATOM     39  C   UNL     1      17.475  -5.242  32.750  1.00  0.00     0.264 C 
ATOM     40  O   UNL     1      17.051  -5.953  33.699  1.00  0.00    -0.298 OA
ENDBRANCH   6  39
BRANCH   8  41
ATOM     41  O   UNL     1      19.629  -8.961  30.373  1.00  0.00    -0.504 OA
ATOM     42  H   UNL     1      19.603  -9.684  29.668  1.00  0.00     0.293 HD
ENDBRANCH   8  41
BRANCH   7  43
ATOM     43  O   UNL     1      18.863  -7.653  32.777  1.00  0.00    -0.504 OA
ATOM     44  H   UNL     1      18.549  -7.265  33.656  1.00  0.00     0.293 HD
ENDBRANCH   7  43
TORSDOF 11
ENDMDL
MODEL 4
REMARK VINA RESULT:    -7.623      2.988      8.947
REMARK INTER + INTRA:         -12.450
REMARK INTER:                 -11.087
REMARK INTRA:                  -1.363
REMARK UNBOUND:                -1.262
REMARK SMILES Cc1cc2c(C(C)C)c(O)c(O)c(C=O)c2c(O)c1-c1c(C)cc2c(C(C)C)c(O)c(O)c(C=O)c2c1O
REMARK SMILES IDX 1 1 2 2 3 3 4 4 16 5 13 6 11 7 9 8 5 9 17 10 19 11 20 12
REMARK SMILES IDX 37 13 21 14 36 15 23 16 22 17 24 18 33 19 25 20 31 21 29 22
REMARK SMILES IDX 38 23 34 25 35 26 26 27 27 28 28 29 32 30 30 32 18 34 6 36
REMARK SMILES IDX 7 37 8 38 14 39 15 40 10 41 12 43
REMARK H PARENT 38 24 32 31 30 33 18 35 10 42 12 44
REMARK Flexibility Score: inf
ROOT
ATOM      1  C   UNL     1      18.359  -1.605  25.139  1.00  0.00     0.045 C 
ATOM      2  C   UNL     1      18.196  -2.646  26.220  1.00  0.00    -0.039 A 
ATOM      3  C   UNL     1      18.314  -3.998  25.894  1.00  0.00     0.013 A 
ATOM      4  C   UNL     1      18.128  -5.018  26.853  1.00  0.00    -0.006 A 
ATOM      5  C   UNL     1      17.872  -4.647  28.208  1.00  0.00     0.039 A 
ATOM      6  C   UNL     1      17.696  -5.674  29.182  1.00  0.00     0.072 A 
ATOM      7  C   UNL     1      17.969  -7.012  28.846  1.00  0.00     0.169 A 
ATOM      8  C   UNL     1      18.322  -7.356  27.530  1.00  0.00     0.162 A 
ATOM      9  C   UNL     1      18.237  -6.398  26.497  1.00  0.00     0.008 A 
ATOM     10  C   UNL     1      17.847  -3.262  28.554  1.00  0.00     0.132 A 
ATOM     11  C   UNL     1      17.977  -2.274  27.556  1.00  0.00     0.031 A 
ENDROOT
BRANCH  11  12
ATOM     12  C   UNL     1      17.924  -0.833  27.921  1.00  0.00     0.031 A 
ATOM     13  C   UNL     1      19.108  -0.137  28.242  1.00  0.00     0.132 A 
ATOM     14  C   UNL     1      16.690  -0.168  27.951  1.00  0.00    -0.039 A 
ATOM     15  C   UNL     1      19.067   1.252  28.579  1.00  0.00     0.039 A 
ATOM     16  C   UNL     1      16.639   1.171  28.338  1.00  0.00     0.013 A 
ATOM     17  C   UNL     1      15.410  -0.886  27.593  1.00  0.00     0.045 C 
ATOM     18  C   UNL     1      17.797   1.907  28.663  1.00  0.00    -0.006 A 
ATOM     19  C   UNL     1      20.251   1.999  28.861  1.00  0.00     0.072 A 
ATOM     20  C   UNL     1      17.715   3.277  29.077  1.00  0.00     0.008 A 
ATOM     21  C   UNL     1      20.156   3.342  29.271  1.00  0.00     0.169 A 
ATOM     22  C   UNL     1      18.908   3.958  29.409  1.00  0.00     0.162 A 
BRANCH  13  23
ATOM     23  O   UNL     1      20.322  -0.835  28.249  1.00  0.00    -0.507 OA
ATOM     24  H   UNL     1      20.508  -1.656  27.688  1.00  0.00     0.293 HD
ENDBRANCH  13  23
BRANCH  19  25
ATOM     25  C   UNL     1      21.600   1.417  28.695  1.00  0.00     0.264 C 
ATOM     26  O   UNL     1      22.288   1.097  29.700  1.00  0.00    -0.298 OA
ENDBRANCH  19  25
BRANCH  20  27
ATOM     27  C   UNL     1      16.390   4.059  29.204  1.00  0.00     0.017 C 
ATOM     28  C   UNL     1      15.515   3.535  30.352  1.00  0.00     0.012 C 
ATOM     29  C   UNL     1      15.623   4.213  27.872  1.00  0.00     0.012 C 
ENDBRANCH  20  27
BRANCH  21  30
ATOM     30  O   UNL     1      21.296   4.113  29.526  1.00  0.00    -0.504 OA
ATOM     31  H   UNL     1      22.027   3.854  30.174  1.00  0.00     0.293 HD
ENDBRANCH  21  30
BRANCH  22  32
ATOM     32  O   UNL     1      18.855   5.278  29.871  1.00  0.00    -0.504 OA
ATOM     33  H   UNL     1      18.536   6.053  29.303  1.00  0.00     0.293 HD
ENDBRANCH  22  32
ENDBRANCH  11  12
BRANCH  10  34
ATOM     34  O   UNL     1      17.742  -2.871  29.894  1.00  0.00    -0.507 OA
ATOM     35  H   UNL     1      16.865  -2.762  30.384  1.00  0.00     0.293 HD
ENDBRANCH  10  34
BRANCH   9  36
ATOM     36  C   UNL     1      18.321  -6.853  25.027  1.00  0.00     0.017 C 
ATOM     37  C   UNL     1      16.922  -6.981  24.415  1.00  0.00     0.012 C 
ATOM     38  C   UNL     1      19.236  -5.976  24.153  1.00  0.00     0.012 C 
ENDBRANCH   9  36
BRANCH   6  39
ATOM     39  C   UNL     1      17.141  -5.394  30.530  1.00  0.00     0.264 C 
ATOM     40  O   UNL     1      17.864  -5.454  31.560  1.00  0.00    -0.298 OA
ENDBRANCH   6  39
BRANCH   8  41
ATOM     41  O   UNL     1      18.771  -8.645  27.230  1.00  0.00    -0.504 OA
ATOM     42  H   UNL     1      19.174  -9.276  27.908  1.00  0.00     0.293 HD
ENDBRANCH   8  41
BRANCH   7  43
ATOM     43  O   UNL     1      17.831  -7.996  29.832  1.00  0.00    -0.504 OA
ATOM     44  H   UNL     1      17.135  -8.728  29.807  1.00  0.00     0.293 HD
ENDBRANCH   7  43
TORSDOF 11
ENDMDL
MODEL 5
REMARK VINA RESULT:    -7.572      2.932      4.719
REMARK INTER + INTRA:         -12.374
REMARK INTER:                 -11.127
REMARK INTRA:                  -1.247
REMARK UNBOUND:                -1.262
REMARK SMILES Cc1cc2c(C(C)C)c(O)c(O)c(C=O)c2c(O)c1-c1c(C)cc2c(C(C)C)c(O)c(O)c(C=O)c2c1O
REMARK SMILES IDX 1 1 2 2 3 3 4 4 16 5 13 6 11 7 9 8 5 9 17 10 19 11 20 12
REMARK SMILES IDX 37 13 21 14 36 15 23 16 22 17 24 18 33 19 25 20 31 21 29 22
REMARK SMILES IDX 38 23 34 25 35 26 26 27 27 28 28 29 32 30 30 32 18 34 6 36
REMARK SMILES IDX 7 37 8 38 14 39 15 40 10 41 12 43
REMARK H PARENT 38 24 32 31 30 33 18 35 10 42 12 44
REMARK Flexibility Score: inf
ROOT
ATOM      1  C   UNL     1      15.249  -0.966  28.066  1.00  0.00     0.045 C 
ATOM      2  C   UNL     1      16.536  -0.197  28.246  1.00  0.00    -0.039 A 
ATOM      3  C   UNL     1      16.487   1.137  28.649  1.00  0.00     0.013 A 
ATOM      4  C   UNL     1      17.655   1.919  28.792  1.00  0.00    -0.006 A 
ATOM      5  C   UNL     1      18.924   1.303  28.573  1.00  0.00     0.039 A 
ATOM      6  C   UNL     1      20.106   2.085  28.727  1.00  0.00     0.072 A 
ATOM      7  C   UNL     1      20.024   3.377  29.277  1.00  0.00     0.169 A 
ATOM      8  C   UNL     1      18.774   3.940  29.587  1.00  0.00     0.162 A 
ATOM      9  C   UNL     1      17.584   3.290  29.191  1.00  0.00     0.008 A 
ATOM     10  C   UNL     1      18.973  -0.088  28.253  1.00  0.00     0.132 A 
ATOM     11  C   UNL     1      17.782  -0.819  28.061  1.00  0.00     0.031 A 
ENDROOT
BRANCH  11  12
ATOM     12  C   UNL     1      17.840  -2.261  27.702  1.00  0.00     0.031 A 
ATOM     13  C   UNL     1      17.792  -3.246  28.710  1.00  0.00     0.132 A 
ATOM     14  C   UNL     1      17.951  -2.639  26.356  1.00  0.00    -0.039 A 
ATOM     15  C   UNL     1      17.833  -4.635  28.372  1.00  0.00     0.039 A 
ATOM     16  C   UNL     1      18.052  -3.991  26.027  1.00  0.00     0.013 A 
ATOM     17  C   UNL     1      17.985  -1.603  25.257  1.00  0.00     0.045 C 
ATOM     18  C   UNL     1      18.004  -5.010  27.001  1.00  0.00    -0.006 A 
ATOM     19  C   UNL     1      17.736  -5.659  29.363  1.00  0.00     0.072 A 
ATOM     20  C   UNL     1      18.129  -6.391  26.638  1.00  0.00     0.008 A 
ATOM     21  C   UNL     1      17.866  -7.011  28.993  1.00  0.00     0.169 A 
ATOM     22  C   UNL     1      18.092  -7.367  27.660  1.00  0.00     0.162 A 
BRANCH  13  23
ATOM     23  O   UNL     1      17.728  -2.842  30.049  1.00  0.00    -0.507 OA
ATOM     24  H   UNL     1      18.529  -2.782  30.664  1.00  0.00     0.293 HD
ENDBRANCH  13  23
BRANCH  19  25
ATOM     25  C   UNL     1      17.457  -5.351  30.781  1.00  0.00     0.264 C 
ATOM     26  O   UNL     1      18.286  -5.655  31.678  1.00  0.00    -0.298 OA
ENDBRANCH  19  25
BRANCH  20  27
ATOM     27  C   UNL     1      18.325  -6.885  25.189  1.00  0.00     0.017 C 
ATOM     28  C   UNL     1      19.311  -6.006  24.405  1.00  0.00     0.012 C 
ATOM     29  C   UNL     1      17.004  -7.145  24.433  1.00  0.00     0.012 C 
ENDBRANCH  20  27
BRANCH  21  30
ATOM     30  O   UNL     1      17.746  -8.043  29.932  1.00  0.00    -0.504 OA
ATOM     31  H   UNL     1      17.236  -7.966  30.801  1.00  0.00     0.293 HD
ENDBRANCH  21  30
BRANCH  22  32
ATOM     32  O   UNL     1      18.270  -8.719  27.343  1.00  0.00    -0.504 OA
ATOM     33  H   UNL     1      17.881  -9.150  26.514  1.00  0.00     0.293 HD
ENDBRANCH  22  32
ENDBRANCH  11  12
BRANCH  10  34
ATOM     34  O   UNL     1      20.203  -0.752  28.174  1.00  0.00    -0.507 OA
ATOM     35  H   UNL     1      21.033  -0.356  27.756  1.00  0.00     0.293 HD
ENDBRANCH  10  34
BRANCH   9  36
ATOM     36  C   UNL     1      16.246   4.050  29.253  1.00  0.00     0.017 C 
ATOM     37  C   UNL     1      15.577   4.093  27.874  1.00  0.00     0.012 C 
ATOM     38  C   UNL     1      15.276   3.521  30.327  1.00  0.00     0.012 C 
ENDBRANCH   9  36
BRANCH   6  39
ATOM     39  C   UNL     1      21.429   1.620  28.239  1.00  0.00     0.264 C 
ATOM     40  O   UNL     1      22.310   1.204  29.037  1.00  0.00    -0.298 OA
ENDBRANCH   6  39
BRANCH   8  41
ATOM     41  O   UNL     1      18.692   5.139  30.298  1.00  0.00    -0.504 OA
ATOM     42  H   UNL     1      19.030   6.026  29.953  1.00  0.00     0.293 HD
ENDBRANCH   8  41
BRANCH   7  43
ATOM     43  O   UNL     1      21.204   4.109  29.458  1.00  0.00    -0.504 OA
ATOM     44  H   UNL     1      22.125   3.763  29.231  1.00  0.00     0.293 HD
ENDBRANCH   7  43
TORSDOF 11
ENDMDL
MODEL 6
REMARK VINA RESULT:    -7.519      4.745      7.584
REMARK INTER + INTRA:         -12.298
REMARK INTER:                 -10.774
REMARK INTRA:                  -1.524
REMARK UNBOUND:                -1.262
REMARK SMILES Cc1cc2c(C(C)C)c(O)c(O)c(C=O)c2c(O)c1-c1c(C)cc2c(C(C)C)c(O)c(O)c(C=O)c2c1O
REMARK SMILES IDX 1 1 2 2 3 3 4 4 16 5 13 6 11 7 9 8 5 9 17 10 19 11 20 12
REMARK SMILES IDX 37 13 21 14 36 15 23 16 22 17 24 18 33 19 25 20 31 21 29 22
REMARK SMILES IDX 38 23 34 25 35 26 26 27 27 28 28 29 32 30 30 32 18 34 6 36
REMARK SMILES IDX 7 37 8 38 14 39 15 40 10 41 12 43
REMARK H PARENT 38 24 32 31 30 33 18 35 10 42 12 44
REMARK Flexibility Score: inf
ROOT
ATOM      1  C   UNL     1      15.816  -2.073  27.628  1.00  0.00     0.045 C 
ATOM      2  C   UNL     1      17.057  -1.217  27.549  1.00  0.00    -0.039 A 
ATOM      3  C   UNL     1      17.379  -0.377  28.616  1.00  0.00     0.013 A 
ATOM      4  C   UNL     1      18.503   0.479  28.581  1.00  0.00    -0.006 A 
ATOM      5  C   UNL     1      19.364   0.434  27.443  1.00  0.00     0.039 A 
ATOM      6  C   UNL     1      20.506   1.287  27.410  1.00  0.00     0.072 A 
ATOM      7  C   UNL     1      20.878   2.006  28.560  1.00  0.00     0.169 A 
ATOM      8  C   UNL     1      20.077   1.963  29.714  1.00  0.00     0.162 A 
ATOM      9  C   UNL     1      18.808   1.345  29.677  1.00  0.00     0.008 A 
ATOM     10  C   UNL     1      19.083  -0.496  26.397  1.00  0.00     0.132 A 
ATOM     11  C   UNL     1      17.918  -1.290  26.442  1.00  0.00     0.031 A 
ENDROOT
BRANCH  11  12
ATOM     12  C   UNL     1      17.617  -2.238  25.337  1.00  0.00     0.031 A 
ATOM     13  C   UNL     1      16.797  -1.838  24.260  1.00  0.00     0.132 A 
ATOM     14  C   UNL     1      18.145  -3.537  25.371  1.00  0.00    -0.039 A 
ATOM     15  C   UNL     1      16.515  -2.740  23.187  1.00  0.00     0.039 A 
ATOM     16  C   UNL     1      17.824  -4.438  24.356  1.00  0.00     0.013 A 
ATOM     17  C   UNL     1      19.042  -3.982  26.502  1.00  0.00     0.045 C 
ATOM     18  C   UNL     1      17.012  -4.081  23.259  1.00  0.00    -0.006 A 
ATOM     19  C   UNL     1      15.731  -2.352  22.058  1.00  0.00     0.072 A 
ATOM     20  C   UNL     1      16.680  -5.031  22.239  1.00  0.00     0.008 A 
ATOM     21  C   UNL     1      15.408  -3.298  21.067  1.00  0.00     0.169 A 
ATOM     22  C   UNL     1      15.847  -4.621  21.174  1.00  0.00     0.162 A 
BRANCH  13  23
ATOM     23  O   UNL     1      16.245  -0.552  24.273  1.00  0.00    -0.507 OA
ATOM     24  H   UNL     1      16.781   0.296  24.402  1.00  0.00     0.293 HD
ENDBRANCH  13  23
BRANCH  19  25
ATOM     25  C   UNL     1      15.272  -0.960  21.866  1.00  0.00     0.264 C 
ATOM     26  O   UNL     1      14.061  -0.657  22.030  1.00  0.00    -0.298 OA
ENDBRANCH  19  25
BRANCH  20  27
ATOM     27  C   UNL     1      17.163  -6.498  22.241  1.00  0.00     0.017 C 
ATOM     28  C   UNL     1      16.526  -7.317  23.373  1.00  0.00     0.012 C 
ATOM     29  C   UNL     1      18.698  -6.651  22.165  1.00  0.00     0.012 C 
ENDBRANCH  20  27
BRANCH  21  30
ATOM     30  O   UNL     1      14.668  -2.946  19.932  1.00  0.00    -0.504 OA
ATOM     31  H   UNL     1      14.879  -2.159  19.334  1.00  0.00     0.293 HD
ENDBRANCH  21  30
BRANCH  22  32
ATOM     32  O   UNL     1      15.459  -5.543  20.195  1.00  0.00    -0.504 OA
ATOM     33  H   UNL     1      14.884  -5.297  19.399  1.00  0.00     0.293 HD
ENDBRANCH  22  32
ENDBRANCH  11  12
BRANCH  10  34
ATOM     34  O   UNL     1      19.985  -0.665  25.340  1.00  0.00    -0.507 OA
ATOM     35  H   UNL     1      19.769  -1.165  24.488  1.00  0.00     0.293 HD
ENDBRANCH  10  34
BRANCH   9  36
ATOM     36  C   UNL     1      17.817   1.571  30.834  1.00  0.00     0.017 C 
ATOM     37  C   UNL     1      16.561   2.299  30.344  1.00  0.00     0.012 C 
ATOM     38  C   UNL     1      17.454   0.288  31.605  1.00  0.00     0.012 C 
ENDBRANCH   9  36
BRANCH   6  39
ATOM     39  C   UNL     1      21.278   1.522  26.163  1.00  0.00     0.264 C 
ATOM     40  O   UNL     1      22.430   1.037  26.007  1.00  0.00    -0.298 OA
ENDBRANCH   6  39
BRANCH   8  41
ATOM     41  O   UNL     1      20.529   2.521  30.913  1.00  0.00    -0.504 OA
ATOM     42  H   UNL     1      21.214   3.261  30.969  1.00  0.00     0.293 HD
ENDBRANCH   8  41
BRANCH   7  43
ATOM     43  O   UNL     1      22.028   2.803  28.515  1.00  0.00    -0.504 OA
ATOM     44  H   UNL     1      22.793   2.731  29.171  1.00  0.00     0.293 HD
ENDBRANCH   7  43
TORSDOF 11
ENDMDL
MODEL 7
REMARK VINA RESULT:    -7.507      1.983      3.438
REMARK INTER + INTRA:         -12.280
REMARK INTER:                 -10.768
REMARK INTRA:                  -1.512
REMARK UNBOUND:                -1.262
REMARK SMILES Cc1cc2c(C(C)C)c(O)c(O)c(C=O)c2c(O)c1-c1c(C)cc2c(C(C)C)c(O)c(O)c(C=O)c2c1O
REMARK SMILES IDX 1 1 2 2 3 3 4 4 16 5 13 6 11 7 9 8 5 9 17 10 19 11 20 12
REMARK SMILES IDX 37 13 21 14 36 15 23 16 22 17 24 18 33 19 25 20 31 21 29 22
REMARK SMILES IDX 38 23 34 25 35 26 26 27 27 28 28 29 32 30 30 32 18 34 6 36
REMARK SMILES IDX 7 37 8 38 14 39 15 40 10 41 12 43
REMARK H PARENT 38 24 32 31 30 33 18 35 10 42 12 44
REMARK Flexibility Score: inf
ROOT
ATOM      1  C   UNL     1      13.308  -2.569  28.673  1.00  0.00     0.045 C 
ATOM      2  C   UNL     1      14.218  -1.416  29.021  1.00  0.00    -0.039 A 
ATOM      3  C   UNL     1      13.668  -0.238  29.528  1.00  0.00     0.013 A 
ATOM      4  C   UNL     1      14.464   0.889  29.831  1.00  0.00    -0.006 A 
ATOM      5  C   UNL     1      15.879   0.793  29.667  1.00  0.00     0.039 A 
ATOM      6  C   UNL     1      16.687   1.925  29.983  1.00  0.00     0.072 A 
ATOM      7  C   UNL     1      16.116   3.036  30.629  1.00  0.00     0.169 A 
ATOM      8  C   UNL     1      14.734   3.078  30.880  1.00  0.00     0.162 A 
ATOM      9  C   UNL     1      13.881   2.093  30.335  1.00  0.00     0.008 A 
ATOM     10  C   UNL     1      16.445  -0.445  29.239  1.00  0.00     0.132 A 
ATOM     11  C   UNL     1      15.612  -1.528  28.889  1.00  0.00     0.031 A 
ENDROOT
BRANCH  11  12
ATOM     12  C   UNL     1      16.207  -2.807  28.418  1.00  0.00     0.031 A 
ATOM     13  C   UNL     1      16.617  -3.785  29.349  1.00  0.00     0.132 A 
ATOM     14  C   UNL     1      16.366  -3.036  27.044  1.00  0.00    -0.039 A 
ATOM     15  C   UNL     1      17.177  -5.023  28.903  1.00  0.00     0.039 A 
ATOM     16  C   UNL     1      16.966  -4.218  26.608  1.00  0.00     0.013 A 
ATOM     17  C   UNL     1      15.916  -2.014  26.027  1.00  0.00     0.045 C 
ATOM     18  C   UNL     1      17.388  -5.224  27.502  1.00  0.00    -0.006 A 
ATOM     19  C   UNL     1      17.557  -6.054  29.815  1.00  0.00     0.072 A 
ATOM     20  C   UNL     1      18.020  -6.420  27.029  1.00  0.00     0.008 A 
ATOM     21  C   UNL     1      18.182  -7.222  29.338  1.00  0.00     0.169 A 
ATOM     22  C   UNL     1      18.439  -7.385  27.973  1.00  0.00     0.162 A 
BRANCH  13  23
ATOM     23  O   UNL     1      16.490  -3.513  30.717  1.00  0.00    -0.507 OA
ATOM     24  H   UNL     1      15.681  -3.758  31.272  1.00  0.00     0.293 HD
ENDBRANCH  13  23
BRANCH  19  25
ATOM     25  C   UNL     1      17.276  -5.960  31.263  1.00  0.00     0.264 C 
ATOM     26  O   UNL     1      18.209  -5.762  32.085  1.00  0.00    -0.298 OA
ENDBRANCH  19  25
BRANCH  20  27
ATOM     27  C   UNL     1      18.296  -6.716  25.539  1.00  0.00     0.017 C 
ATOM     28  C   UNL     1      19.251  -5.691  24.911  1.00  0.00     0.012 C 
ATOM     29  C   UNL     1      17.019  -6.955  24.702  1.00  0.00     0.012 C 
ENDBRANCH  20  27
BRANCH  21  30
ATOM     30  O   UNL     1      18.540  -8.266  30.198  1.00  0.00    -0.504 OA
ATOM     31  H   UNL     1      19.484  -8.450  30.509  1.00  0.00     0.293 HD
ENDBRANCH  21  30
BRANCH  22  32
ATOM     32  O   UNL     1      19.111  -8.536  27.546  1.00  0.00    -0.504 OA
ATOM     33  H   UNL     1      20.094  -8.703  27.723  1.00  0.00     0.293 HD
ENDBRANCH  22  32
ENDBRANCH  11  12
BRANCH  10  34
ATOM     34  O   UNL     1      17.834  -0.615  29.207  1.00  0.00    -0.507 OA
ATOM     35  H   UNL     1      18.411  -0.406  28.404  1.00  0.00     0.293 HD
ENDBRANCH  10  34
BRANCH   9  36
ATOM     36  C   UNL     1      12.357   2.314  30.348  1.00  0.00     0.017 C 
ATOM     37  C   UNL     1      11.772   2.178  28.938  1.00  0.00     0.012 C 
ATOM     38  C   UNL     1      11.605   1.420  31.353  1.00  0.00     0.012 C 
ENDBRANCH   9  36
BRANCH   6  39
ATOM     39  C   UNL     1      18.111   2.017  29.569  1.00  0.00     0.264 C 
ATOM     40  O   UNL     1      19.043   1.905  30.409  1.00  0.00    -0.298 OA
ENDBRANCH   6  39
BRANCH   8  41
ATOM     41  O   UNL     1      14.187   4.086  31.679  1.00  0.00    -0.504 OA
ATOM     42  H   UNL     1      14.316   5.073  31.510  1.00  0.00     0.293 HD
ENDBRANCH   8  41
BRANCH   7  43
ATOM     43  O   UNL     1      16.939   4.117  30.968  1.00  0.00    -0.504 OA
ATOM     44  H   UNL     1      17.757   4.042  31.556  1.00  0.00     0.293 HD
ENDBRANCH   7  43
TORSDOF 11
ENDMDL
MODEL 8
REMARK VINA RESULT:    -7.442      6.065      9.427
REMARK INTER + INTRA:         -12.184
REMARK INTER:                 -10.965
REMARK INTRA:                  -1.219
REMARK UNBOUND:                -1.262
REMARK SMILES Cc1cc2c(C(C)C)c(O)c(O)c(C=O)c2c(O)c1-c1c(C)cc2c(C(C)C)c(O)c(O)c(C=O)c2c1O
REMARK SMILES IDX 1 1 2 2 3 3 4 4 16 5 13 6 11 7 9 8 5 9 17 10 19 11 20 12
REMARK SMILES IDX 37 13 21 14 36 15 23 16 22 17 24 18 33 19 25 20 31 21 29 22
REMARK SMILES IDX 38 23 34 25 35 26 26 27 27 28 28 29 32 30 30 32 18 34 6 36
REMARK SMILES IDX 7 37 8 38 14 39 15 40 10 41 12 43
REMARK H PARENT 38 24 32 31 30 33 18 35 10 42 12 44
REMARK Flexibility Score: inf
ROOT
ATOM      1  C   UNL     1      16.473  -3.567  22.011  1.00  0.00     0.045 C 
ATOM      2  C   UNL     1      16.778  -4.268  23.313  1.00  0.00    -0.039 A 
ATOM      3  C   UNL     1      17.108  -3.512  24.438  1.00  0.00     0.013 A 
ATOM      4  C   UNL     1      17.446  -4.114  25.671  1.00  0.00    -0.006 A 
ATOM      5  C   UNL     1      17.387  -5.537  25.778  1.00  0.00     0.039 A 
ATOM      6  C   UNL     1      17.715  -6.148  27.024  1.00  0.00     0.072 A 
ATOM      7  C   UNL     1      17.897  -5.351  28.169  1.00  0.00     0.169 A 
ATOM      8  C   UNL     1      17.851  -3.949  28.074  1.00  0.00     0.162 A 
ATOM      9  C   UNL     1      17.797  -3.324  26.809  1.00  0.00     0.008 A 
ATOM     10  C   UNL     1      16.956  -6.300  24.651  1.00  0.00     0.132 A 
ATOM     11  C   UNL     1      16.686  -5.666  23.420  1.00  0.00     0.031 A 
ENDROOT
BRANCH  11  12
ATOM     12  C   UNL     1      16.263  -6.469  22.243  1.00  0.00     0.031 A 
ATOM     13  C   UNL     1      14.907  -6.503  21.856  1.00  0.00     0.132 A 
ATOM     14  C   UNL     1      17.217  -7.200  21.521  1.00  0.00    -0.039 A 
ATOM     15  C   UNL     1      14.494  -7.263  20.717  1.00  0.00     0.039 A 
ATOM     16  C   UNL     1      16.809  -7.989  20.445  1.00  0.00     0.013 A 
ATOM     17  C   UNL     1      18.678  -7.164  21.903  1.00  0.00     0.045 C 
ATOM     18  C   UNL     1      15.465  -8.051  20.020  1.00  0.00    -0.006 A 
ATOM     19  C   UNL     1      13.139  -7.280  20.268  1.00  0.00     0.072 A 
ATOM     20  C   UNL     1      15.070  -8.885  18.924  1.00  0.00     0.008 A 
ATOM     21  C   UNL     1      12.763  -8.108  19.194  1.00  0.00     0.169 A 
ATOM     22  C   UNL     1      13.706  -8.920  18.557  1.00  0.00     0.162 A 
BRANCH  13  23
ATOM     23  O   UNL     1      13.967  -5.802  22.622  1.00  0.00    -0.507 OA
ATOM     24  H   UNL     1      12.994  -5.693  22.367  1.00  0.00     0.293 HD
ENDBRANCH  13  23
BRANCH  19  25
ATOM     25  C   UNL     1      12.104  -6.414  20.873  1.00  0.00     0.264 C 
ATOM     26  O   UNL     1      11.137  -6.917  21.503  1.00  0.00    -0.298 OA
ENDBRANCH  19  25
BRANCH  20  27
ATOM     27  C   UNL     1      16.046  -9.773  18.123  1.00  0.00     0.017 C 
ATOM     28  C   UNL     1      16.473 -11.022  18.910  1.00  0.00     0.012 C 
ATOM     29  C   UNL     1      17.235  -9.002  17.511  1.00  0.00     0.012 C 
ENDBRANCH  20  27
BRANCH  21  30
ATOM     30  O   UNL     1      11.450  -8.128  18.708  1.00  0.00    -0.504 OA
ATOM     31  H   UNL     1      11.184  -7.848  17.774  1.00  0.00     0.293 HD
ENDBRANCH  21  30
BRANCH  22  32
ATOM     32  O   UNL     1      13.280  -9.769  17.528  1.00  0.00    -0.504 OA
ATOM     33  H   UNL     1      12.624  -9.487  16.811  1.00  0.00     0.293 HD
ENDBRANCH  22  32
ENDBRANCH  11  12
BRANCH  10  34
ATOM     34  O   UNL     1      16.750  -7.679  24.768  1.00  0.00    -0.507 OA
ATOM     35  H   UNL     1      17.332  -8.292  25.324  1.00  0.00     0.293 HD
ENDBRANCH  10  34
BRANCH   9  36
ATOM     36  C   UNL     1      18.061  -1.810  26.697  1.00  0.00     0.017 C 
ATOM     37  C   UNL     1      16.843  -1.008  27.168  1.00  0.00     0.012 C 
ATOM     38  C   UNL     1      19.346  -1.345  27.408  1.00  0.00     0.012 C 
ENDBRANCH   9  36
BRANCH   6  39
ATOM     39  C   UNL     1      17.967  -7.606  27.145  1.00  0.00     0.264 C 
ATOM     40  O   UNL     1      17.132  -8.369  27.699  1.00  0.00    -0.298 OA
ENDBRANCH   6  39
BRANCH   8  41
ATOM     41  O   UNL     1      17.846  -3.159  29.226  1.00  0.00    -0.504 OA
ATOM     42  H   UNL     1      18.601  -2.542  29.491  1.00  0.00     0.293 HD
ENDBRANCH   8  41
BRANCH   7  43
ATOM     43  O   UNL     1      18.175  -5.977  29.390  1.00  0.00    -0.504 OA
ATOM     44  H   UNL     1      18.232  -5.493  30.275  1.00  0.00     0.293 HD
ENDBRANCH   7  43
TORSDOF 11
ENDMDL
MODEL 9
REMARK VINA RESULT:    -7.438      6.081     10.096
REMARK INTER + INTRA:         -12.179
REMARK INTER:                 -10.991
REMARK INTRA:                  -1.187
REMARK UNBOUND:                -1.262
REMARK SMILES Cc1cc2c(C(C)C)c(O)c(O)c(C=O)c2c(O)c1-c1c(C)cc2c(C(C)C)c(O)c(O)c(C=O)c2c1O
REMARK SMILES IDX 1 1 2 2 3 3 4 4 16 5 13 6 11 7 9 8 5 9 17 10 19 11 20 12
REMARK SMILES IDX 37 13 21 14 36 15 23 16 22 17 24 18 33 19 25 20 31 21 29 22
REMARK SMILES IDX 38 23 34 25 35 26 26 27 27 28 28 29 32 30 30 32 18 34 6 36
REMARK SMILES IDX 7 37 8 38 14 39 15 40 10 41 12 43
REMARK H PARENT 38 24 32 31 30 33 18 35 10 42 12 44
REMARK Flexibility Score: inf
ROOT
ATOM      1  C   UNL     1      18.633  -7.168  21.937  1.00  0.00     0.045 C 
ATOM      2  C   UNL     1      17.184  -7.252  21.522  1.00  0.00    -0.039 A 
ATOM      3  C   UNL     1      16.817  -8.109  20.484  1.00  0.00     0.013 A 
ATOM      4  C   UNL     1      15.484  -8.198  20.024  1.00  0.00    -0.006 A 
ATOM      5  C   UNL     1      14.478  -7.431  20.685  1.00  0.00     0.039 A 
ATOM      6  C   UNL     1      13.129  -7.527  20.231  1.00  0.00     0.072 A 
ATOM      7  C   UNL     1      12.776  -8.508  19.286  1.00  0.00     0.169 A 
ATOM      8  C   UNL     1      13.761  -9.331  18.714  1.00  0.00     0.162 A 
ATOM      9  C   UNL     1      15.129  -9.070  18.947  1.00  0.00     0.008 A 
ATOM     10  C   UNL     1      14.843  -6.629  21.807  1.00  0.00     0.132 A 
ATOM     11  C   UNL     1      16.194  -6.520  22.198  1.00  0.00     0.031 A 
ENDROOT
BRANCH  11  12
ATOM     12  C   UNL     1      16.572  -5.662  23.353  1.00  0.00     0.031 A 
ATOM     13  C   UNL     1      16.846  -6.243  24.609  1.00  0.00     0.132 A 
ATOM     14  C   UNL     1      16.646  -4.272  23.191  1.00  0.00    -0.039 A 
ATOM     15  C   UNL     1      17.223  -5.425  25.720  1.00  0.00     0.039 A 
ATOM     16  C   UNL     1      16.956  -3.467  24.287  1.00  0.00     0.013 A 
ATOM     17  C   UNL     1      16.376  -3.628  21.851  1.00  0.00     0.045 C 
ATOM     18  C   UNL     1      17.242  -4.003  25.560  1.00  0.00    -0.006 A 
ATOM     19  C   UNL     1      17.557  -5.983  26.992  1.00  0.00     0.072 A 
ATOM     20  C   UNL     1      17.537  -3.153  26.675  1.00  0.00     0.008 A 
ATOM     21  C   UNL     1      17.840  -5.136  28.080  1.00  0.00     0.169 A 
ATOM     22  C   UNL     1      17.797  -3.746  27.931  1.00  0.00     0.162 A 
BRANCH  13  23
ATOM     23  O   UNL     1      16.719  -7.629  24.756  1.00  0.00    -0.507 OA
ATOM     24  H   UNL     1      16.887  -8.126  25.621  1.00  0.00     0.293 HD
ENDBRANCH  13  23
BRANCH  19  25
ATOM     25  C   UNL     1      17.658  -7.443  27.203  1.00  0.00     0.264 C 
ATOM     26  O   UNL     1      18.783  -8.006  27.252  1.00  0.00    -0.298 OA
ENDBRANCH  19  25
BRANCH  20  27
ATOM     27  C   UNL     1      17.570  -1.611  26.597  1.00  0.00     0.017 C 
ATOM     28  C   UNL     1      16.189  -1.017  26.278  1.00  0.00     0.012 C 
ATOM     29  C   UNL     1      18.696  -1.054  25.699  1.00  0.00     0.012 C 
ENDBRANCH  20  27
BRANCH  21  30
ATOM     30  O   UNL     1      18.200  -5.647  29.333  1.00  0.00    -0.504 OA
ATOM     31  H   UNL     1      18.512  -6.595  29.494  1.00  0.00     0.293 HD
ENDBRANCH  21  30
BRANCH  22  32
ATOM     32  O   UNL     1      18.032  -2.940  29.051  1.00  0.00    -0.504 OA
ATOM     33  H   UNL     1      17.611  -2.028  29.176  1.00  0.00     0.293 HD
ENDBRANCH  22  32
ENDBRANCH  11  12
BRANCH  10  34
ATOM     34  O   UNL     1      13.860  -5.980  22.563  1.00  0.00    -0.507 OA
ATOM     35  H   UNL     1      13.206  -5.309  22.183  1.00  0.00     0.293 HD
ENDBRANCH  10  34
BRANCH   9  36
ATOM     36  C   UNL     1      16.196  -9.768  18.082  1.00  0.00     0.017 C 
ATOM     37  C   UNL     1      17.160  -8.745  17.473  1.00  0.00     0.012 C 
ATOM     38  C   UNL     1      16.959 -10.888  18.815  1.00  0.00     0.012 C 
ENDBRANCH   9  36
BRANCH   6  39
ATOM     39  C   UNL     1      12.084  -6.560  20.654  1.00  0.00     0.264 C 
ATOM     40  O   UNL     1      11.150  -6.905  21.425  1.00  0.00    -0.298 OA
ENDBRANCH   6  39
BRANCH   8  41
ATOM     41  O   UNL     1      13.401 -10.422  17.919  1.00  0.00    -0.504 OA
ATOM     42  H   UNL     1      13.998 -11.219  17.750  1.00  0.00     0.293 HD
ENDBRANCH   8  41
BRANCH   7  43
ATOM     43  O   UNL     1      11.437  -8.610  18.889  1.00  0.00    -0.504 OA
ATOM     44  H   UNL     1      11.008  -8.021  18.190  1.00  0.00     0.293 HD
ENDBRANCH   7  43
TORSDOF 11
ENDMDL
