MODEL 1
REMARK VINA RESULT:    32.107      0.000      0.000
REMARK INTER + INTRA:          49.856
REMARK INTER:                  49.938
REMARK INTRA:                  -0.083
REMARK UNBOUND:                -0.083
REMARK SMILES C[C@@]12C[C@@]3(O)O[C@@H](O1)[C@]1(COC(=O)c4ccccc4)[C@H]3C[C@@]12O[C@@H]1O[C@H](CO)[C@@H](O)[C@H](O)[C@H]1O
REMARK SMILES IDX 1 1 2 2 3 3 4 4 20 5 21 6 22 7 9 8 7 9 8 10 6 11 23 12 24 13
REMARK SMILES IDX 33 14 25 15 31 16 26 17 29 18 34 19 32 21 27 23 28 24 30 26
REMARK SMILES IDX 5 28 10 30 11 31 12 32 13 33 14 34 15 35 19 36 16 37 18 38
REMARK SMILES IDX 17 39
REMARK H PARENT 34 20 32 22 28 25 30 27 5 29
REMARK Flexibility Score: inf
ROOT
ATOM      1  C   UNL     1       4.920 -14.530  14.786  1.00  0.00     0.046 C 
ATOM      2  C   UNL     1       3.548 -14.057  15.263  1.00  0.00     0.104 C 
ATOM      3  C   UNL     1       2.992 -14.966  16.419  1.00  0.00     0.104 C 
ATOM      4  C   UNL     1       1.567 -14.366  16.706  1.00  0.00     0.175 C 
ATOM      5  C   UNL     1       0.767 -14.188  15.375  1.00  0.00     0.070 C 
ATOM      6  C   UNL     1       1.338 -15.008  14.213  1.00  0.00     0.050 C 
ATOM      7  C   UNL     1       2.462 -13.946  14.131  1.00  0.00     0.115 C 
ATOM      8  C   UNL     1       1.516 -12.978  14.841  1.00  0.00     0.096 C 
ATOM      9  C   UNL     1       2.277 -12.384  16.010  1.00  0.00     0.267 C 
ATOM     10  O   UNL     1       3.633 -12.753  15.807  1.00  0.00    -0.342 OA
ATOM     11  O   UNL     1       1.782 -13.045  17.164  1.00  0.00    -0.320 OA
ENDROOT
BRANCH   7  12
ATOM     12  O   UNL     1       2.885 -13.452  12.869  1.00  0.00    -0.339 OA
BRANCH  12  13
ATOM     13  C   UNL     1       2.634 -14.351  11.798  1.00  0.00     0.282 C 
ATOM     14  C   UNL     1       1.264 -13.956  11.159  1.00  0.00     0.202 C 
ATOM     15  O   UNL     1       3.717 -14.257  10.881  1.00  0.00    -0.341 OA
ATOM     16  C   UNL     1       1.455 -13.185   9.828  1.00  0.00     0.179 C 
ATOM     17  C   UNL     1       3.387 -14.861   9.648  1.00  0.00     0.178 C 
ATOM     18  C   UNL     1       2.430 -13.925   8.866  1.00  0.00     0.177 C 
BRANCH  14  19
ATOM     19  O   UNL     1       0.510 -15.120  10.925  1.00  0.00    -0.385 OA
ATOM     20  H   UNL     1      -0.115 -14.914  10.177  1.00  0.00     0.211 HD
ENDBRANCH  14  19
BRANCH  16  21
ATOM     21  O   UNL     1       1.895 -11.872  10.084  1.00  0.00    -0.387 OA
ATOM     22  H   UNL     1       1.123 -11.259   9.955  1.00  0.00     0.211 HD
ENDBRANCH  16  21
BRANCH  17  23
ATOM     23  C   UNL     1       4.675 -15.123   8.864  1.00  0.00     0.191 C 
BRANCH  23  24
ATOM     24  O   UNL     1       4.920 -14.069   7.974  1.00  0.00    -0.394 OA
ATOM     25  H   UNL     1       4.047 -13.621   7.820  1.00  0.00     0.210 HD
ENDBRANCH  23  24
ENDBRANCH  17  23
BRANCH  18  26
ATOM     26  O   UNL     1       1.722 -14.643   7.885  1.00  0.00    -0.387 OA
ATOM     27  H   UNL     1       0.805 -14.258   7.836  1.00  0.00     0.211 HD
ENDBRANCH  18  26
ENDBRANCH  12  13
ENDBRANCH   7  12
BRANCH   4  28
ATOM     28  O   UNL     1       0.849 -15.125  17.639  1.00  0.00    -0.365 OA
ATOM     29  H   UNL     1       1.128 -16.069  17.514  1.00  0.00     0.214 HD
ENDBRANCH   4  28
BRANCH   8  30
ATOM     30  C   UNL     1       0.700 -12.008  13.966  1.00  0.00     0.249 C 
BRANCH  30  31
ATOM     31  O   UNL     1      -0.429 -11.536  14.696  1.00  0.00    -0.461 OA
BRANCH  31  32
ATOM     32  C   UNL     1      -0.685 -10.179  14.906  1.00  0.00     0.338 C 
ATOM     33  O   UNL     1       0.183  -9.448  15.463  1.00  0.00    -0.246 OA
BRANCH  32  34
ATOM     34  C   UNL     1      -1.975  -9.604  14.467  1.00  0.00     0.060 A 
ATOM     35  C   UNL     1      -3.173  -9.940  15.124  1.00  0.00     0.015 A 
ATOM     36  C   UNL     1      -2.014  -8.686  13.400  1.00  0.00     0.015 A 
ATOM     37  C   UNL     1      -4.388  -9.378  14.712  1.00  0.00     0.001 A 
ATOM     38  C   UNL     1      -3.230  -8.127  12.992  1.00  0.00     0.001 A 
ATOM     39  C   UNL     1      -4.418  -8.486  13.637  1.00  0.00     0.000 A 
ENDBRANCH  32  34
ENDBRANCH  31  32
ENDBRANCH  30  31
ENDBRANCH   8  30
TORSDOF 12
ENDMDL
