MODEL 1
REMARK VINA RESULT:    -4.179      0.000      0.000
REMARK INTER + INTRA:          -7.009
REMARK INTER:                  -6.378
REMARK INTRA:                  -0.631
REMARK UNBOUND:                -0.631
REMARK SMILES CCCCCCCCCC=CC(=O)[O-]
REMARK SMILES IDX 7 1 8 2 9 3 10 4 11 5 12 6 13 7 14 8 6 9 5 10 4 11 3 12 2 13
REMARK SMILES IDX 1 14
REMARK H PARENT
REMARK Flexibility Score: inf
ROOT
ATOM      1  C   UNL     1     -45.215 -26.606   1.144  1.00  0.00     0.000 C 
ENDROOT
BRANCH   1   2
ATOM      2  C   UNL     1     -46.170 -26.240   2.295  1.00  0.00     0.004 C 
BRANCH   2   3
ATOM      3  C   UNL     1     -46.794 -27.450   3.012  1.00  0.00     0.027 C 
BRANCH   3   4
ATOM      4  C   UNL     1     -46.266 -27.633   4.408  1.00  0.00    -0.025 C 
ATOM      5  C   UNL     1     -46.201 -26.613   5.270  1.00  0.00     0.020 C 
BRANCH   5   6
ATOM      6  C   UNL     1     -45.684 -26.771   6.639  1.00  0.00     0.064 C 
ATOM      7  O   UNL     1     -45.823 -25.859   7.497  1.00  0.00    -0.545 OA
ATOM      8  O   UNL     1     -45.032 -27.945   6.992  1.00  0.00    -0.545 OA
ENDBRANCH   5   6
ENDBRANCH   3   4
ENDBRANCH   2   3
ENDBRANCH   1   2
BRANCH   1   9
ATOM      9  C   UNL     1     -45.303 -28.087   0.745  1.00  0.00     0.000 C 
BRANCH   9  10
ATOM     10  C   UNL     1     -44.473 -28.366  -0.515  1.00  0.00     0.000 C 
BRANCH  10  11
ATOM     11  C   UNL     1     -43.321 -27.363  -0.711  1.00  0.00    -0.000 C 
BRANCH  11  12
ATOM     12  C   UNL     1     -41.931 -27.878  -0.296  1.00  0.00    -0.000 C 
BRANCH  12  13
ATOM     13  C   UNL     1     -41.875 -29.405  -0.155  1.00  0.00    -0.003 C 
ATOM     14  C   UNL     1     -40.532 -29.856   0.413  1.00  0.00     0.004 C 
ENDBRANCH  12  13
ENDBRANCH  11  12
ENDBRANCH  10  11
ENDBRANCH   9  10
ENDBRANCH   1   9
TORSDOF 9
ENDMDL
MODEL 2
REMARK VINA RESULT:    -3.846      3.473      6.353
REMARK INTER + INTRA:          -6.501
REMARK INTER:                  -5.739
REMARK INTRA:                  -0.762
REMARK UNBOUND:                -0.631
REMARK SMILES CCCCCCCCCC=CC(=O)[O-]
REMARK SMILES IDX 7 1 8 2 9 3 10 4 11 5 12 6 13 7 14 8 6 9 5 10 4 11 3 12 2 13
REMARK SMILES IDX 1 14
REMARK H PARENT
REMARK Flexibility Score: inf
ROOT
ATOM      1  C   UNL     1     -46.193 -26.527   2.870  1.00  0.00     0.000 C 
ENDROOT
BRANCH   1   2
ATOM      2  C   UNL     1     -45.593 -26.205   1.489  1.00  0.00     0.004 C 
BRANCH   2   3
ATOM      3  C   UNL     1     -45.891 -27.257   0.407  1.00  0.00     0.027 C 
BRANCH   3   4
ATOM      4  C   UNL     1     -44.712 -28.146   0.122  1.00  0.00    -0.025 C 
ATOM      5  C   UNL     1     -43.480 -27.647  -0.028  1.00  0.00     0.020 C 
BRANCH   5   6
ATOM      6  C   UNL     1     -42.314 -28.499  -0.310  1.00  0.00     0.064 C 
ATOM      7  O   UNL     1     -42.435 -29.745  -0.445  1.00  0.00    -0.545 OA
ATOM      8  O   UNL     1     -41.058 -27.919  -0.430  1.00  0.00    -0.545 OA
ENDBRANCH   5   6
ENDBRANCH   3   4
ENDBRANCH   2   3
ENDBRANCH   1   2
BRANCH   1   9
ATOM      9  C   UNL     1     -46.941 -27.868   2.897  1.00  0.00     0.000 C 
BRANCH   9  10
ATOM     10  C   UNL     1     -46.159 -28.917   3.701  1.00  0.00     0.000 C 
BRANCH  10  11
ATOM     11  C   UNL     1     -46.473 -28.876   5.207  1.00  0.00    -0.000 C 
BRANCH  11  12
ATOM     12  C   UNL     1     -45.240 -28.886   6.131  1.00  0.00    -0.000 C 
BRANCH  12  13
ATOM     13  C   UNL     1     -45.208 -27.697   7.101  1.00  0.00    -0.003 C 
ATOM     14  C   UNL     1     -45.828 -26.455   6.468  1.00  0.00     0.004 C 
ENDBRANCH  12  13
ENDBRANCH  11  12
ENDBRANCH  10  11
ENDBRANCH   9  10
ENDBRANCH   1   9
TORSDOF 9
ENDMDL
MODEL 3
REMARK VINA RESULT:    -3.716      3.452      6.586
REMARK INTER + INTRA:          -6.302
REMARK INTER:                  -5.503
REMARK INTRA:                  -0.799
REMARK UNBOUND:                -0.631
REMARK SMILES CCCCCCCCCC=CC(=O)[O-]
REMARK SMILES IDX 7 1 8 2 9 3 10 4 11 5 12 6 13 7 14 8 6 9 5 10 4 11 3 12 2 13
REMARK SMILES IDX 1 14
REMARK H PARENT
REMARK Flexibility Score: inf
ROOT
ATOM      1  C   UNL     1     -46.358 -28.516   3.201  1.00  0.00     0.000 C 
ENDROOT
BRANCH   1   2
ATOM      2  C   UNL     1     -46.391 -26.988   3.392  1.00  0.00     0.004 C 
BRANCH   2   3
ATOM      3  C   UNL     1     -46.468 -26.187   2.080  1.00  0.00     0.027 C 
BRANCH   3   4
ATOM      4  C   UNL     1     -45.747 -26.860   0.945  1.00  0.00    -0.025 C 
ATOM      5  C   UNL     1     -44.434 -26.694   0.754  1.00  0.00     0.020 C 
BRANCH   5   6
ATOM      6  C   UNL     1     -43.711 -27.342  -0.352  1.00  0.00     0.064 C 
ATOM      7  O   UNL     1     -43.256 -28.511  -0.237  1.00  0.00    -0.545 OA
ATOM      8  O   UNL     1     -43.528 -26.652  -1.543  1.00  0.00    -0.545 OA
ENDBRANCH   5   6
ENDBRANCH   3   4
ENDBRANCH   2   3
ENDBRANCH   1   2
BRANCH   1   9
ATOM      9  C   UNL     1     -46.741 -29.285   4.474  1.00  0.00     0.000 C 
BRANCH   9  10
ATOM     10  C   UNL     1     -45.494 -29.841   5.175  1.00  0.00     0.000 C 
BRANCH  10  11
ATOM     11  C   UNL     1     -45.131 -29.070   6.457  1.00  0.00    -0.000 C 
BRANCH  11  12
ATOM     12  C   UNL     1     -46.316 -28.765   7.392  1.00  0.00    -0.000 C 
BRANCH  12  13
ATOM     13  C   UNL     1     -46.569 -27.261   7.568  1.00  0.00    -0.003 C 
ATOM     14  C   UNL     1     -45.496 -26.437   6.862  1.00  0.00     0.004 C 
ENDBRANCH  12  13
ENDBRANCH  11  12
ENDBRANCH  10  11
ENDBRANCH   9  10
ENDBRANCH   1   9
TORSDOF 9
ENDMDL
MODEL 4
REMARK VINA RESULT:    -3.649      7.015      9.194
REMARK INTER + INTRA:          -6.200
REMARK INTER:                  -5.673
REMARK INTRA:                  -0.527
REMARK UNBOUND:                -0.631
REMARK SMILES CCCCCCCCCC=CC(=O)[O-]
REMARK SMILES IDX 7 1 8 2 9 3 10 4 11 5 12 6 13 7 14 8 6 9 5 10 4 11 3 12 2 13
REMARK SMILES IDX 1 14
REMARK H PARENT
REMARK Flexibility Score: inf
ROOT
ATOM      1  C   UNL     1     -45.608 -28.658  -3.325  1.00  0.00     0.000 C 
ENDROOT
BRANCH   1   2
ATOM      2  C   UNL     1     -45.417 -27.480  -4.300  1.00  0.00     0.004 C 
BRANCH   2   3
ATOM      3  C   UNL     1     -46.208 -27.609  -5.613  1.00  0.00     0.027 C 
BRANCH   3   4
ATOM      4  C   UNL     1     -45.363 -28.106  -6.753  1.00  0.00    -0.025 C 
ATOM      5  C   UNL     1     -44.122 -27.651  -6.954  1.00  0.00     0.020 C 
BRANCH   5   6
ATOM      6  C   UNL     1     -43.280 -28.122  -8.065  1.00  0.00     0.064 C 
ATOM      7  O   UNL     1     -43.710 -28.134  -9.249  1.00  0.00    -0.545 OA
ATOM      8  O   UNL     1     -41.989 -28.562  -7.804  1.00  0.00    -0.545 OA
ENDBRANCH   5   6
ENDBRANCH   3   4
ENDBRANCH   2   3
ENDBRANCH   1   2
BRANCH   1   9
ATOM      9  C   UNL     1     -45.566 -28.226  -1.852  1.00  0.00     0.000 C 
BRANCH   9  10
ATOM     10  C   UNL     1     -44.958 -29.329  -0.974  1.00  0.00     0.000 C 
BRANCH  10  11
ATOM     11  C   UNL     1     -43.894 -28.800   0.005  1.00  0.00    -0.000 C 
BRANCH  11  12
ATOM     12  C   UNL     1     -43.023 -27.652  -0.537  1.00  0.00    -0.000 C 
BRANCH  12  13
ATOM     13  C   UNL     1     -41.519 -27.940  -0.432  1.00  0.00    -0.003 C 
ATOM     14  C   UNL     1     -41.263 -29.399  -0.064  1.00  0.00     0.004 C 
ENDBRANCH  12  13
ENDBRANCH  11  12
ENDBRANCH  10  11
ENDBRANCH   9  10
ENDBRANCH   1   9
TORSDOF 9
ENDMDL
MODEL 5
REMARK VINA RESULT:    -3.636      4.565      7.144
REMARK INTER + INTRA:          -6.181
REMARK INTER:                  -5.424
REMARK INTRA:                  -0.757
REMARK UNBOUND:                -0.631
REMARK SMILES CCCCCCCCCC=CC(=O)[O-]
REMARK SMILES IDX 7 1 8 2 9 3 10 4 11 5 12 6 13 7 14 8 6 9 5 10 4 11 3 12 2 13
REMARK SMILES IDX 1 14
REMARK H PARENT
REMARK Flexibility Score: inf
ROOT
ATOM      1  C   UNL     1     -44.820 -26.310   1.262  1.00  0.00     0.000 C 
ENDROOT
BRANCH   1   2
ATOM      2  C   UNL     1     -44.005 -27.121   0.237  1.00  0.00     0.004 C 
BRANCH   2   3
ATOM      3  C   UNL     1     -44.415 -28.600   0.129  1.00  0.00     0.027 C 
BRANCH   3   4
ATOM      4  C   UNL     1     -44.987 -28.947  -1.218  1.00  0.00    -0.025 C 
ATOM      5  C   UNL     1     -45.325 -28.000  -2.099  1.00  0.00     0.020 C 
BRANCH   5   6
ATOM      6  C   UNL     1     -45.889 -28.319  -3.420  1.00  0.00     0.064 C 
ATOM      7  O   UNL     1     -46.274 -29.486  -3.701  1.00  0.00    -0.545 OA
ATOM      8  O   UNL     1     -46.000 -27.317  -4.375  1.00  0.00    -0.545 OA
ENDBRANCH   5   6
ENDBRANCH   3   4
ENDBRANCH   2   3
ENDBRANCH   1   2
BRANCH   1   9
ATOM      9  C   UNL     1     -46.303 -26.705   1.293  1.00  0.00     0.000 C 
BRANCH   9  10
ATOM     10  C   UNL     1     -46.827 -26.760   2.735  1.00  0.00     0.000 C 
BRANCH  10  11
ATOM     11  C   UNL     1     -46.647 -28.143   3.387  1.00  0.00    -0.000 C 
BRANCH  11  12
ATOM     12  C   UNL     1     -46.031 -28.122   4.799  1.00  0.00    -0.000 C 
BRANCH  12  13
ATOM     13  C   UNL     1     -46.056 -26.729   5.443  1.00  0.00    -0.003 C 
ATOM     14  C   UNL     1     -45.451 -26.760   6.844  1.00  0.00     0.004 C 
ENDBRANCH  12  13
ENDBRANCH  11  12
ENDBRANCH  10  11
ENDBRANCH   9  10
ENDBRANCH   1   9
TORSDOF 9
ENDMDL
MODEL 6
REMARK VINA RESULT:    -3.613      7.423      9.749
REMARK INTER + INTRA:          -6.146
REMARK INTER:                  -5.671
REMARK INTRA:                  -0.475
REMARK UNBOUND:                -0.631
REMARK SMILES CCCCCCCCCC=CC(=O)[O-]
REMARK SMILES IDX 7 1 8 2 9 3 10 4 11 5 12 6 13 7 14 8 6 9 5 10 4 11 3 12 2 13
REMARK SMILES IDX 1 14
REMARK H PARENT
REMARK Flexibility Score: inf
ROOT
ATOM      1  C   UNL     1     -45.595 -27.999  -4.550  1.00  0.00     0.000 C 
ENDROOT
BRANCH   1   2
ATOM      2  C   UNL     1     -46.560 -27.387  -5.583  1.00  0.00     0.004 C 
BRANCH   2   3
ATOM      3  C   UNL     1     -45.983 -27.281  -7.005  1.00  0.00     0.027 C 
BRANCH   3   4
ATOM      4  C   UNL     1     -44.561 -27.760  -7.092  1.00  0.00    -0.025 C 
ATOM      5  C   UNL     1     -44.037 -28.188  -8.245  1.00  0.00     0.020 C 
BRANCH   5   6
ATOM      6  C   UNL     1     -42.648 -28.664  -8.351  1.00  0.00     0.064 C 
ATOM      7  O   UNL     1     -41.802 -28.410  -7.453  1.00  0.00    -0.545 OA
ATOM      8  O   UNL     1     -42.264 -29.407  -9.459  1.00  0.00    -0.545 OA
ENDBRANCH   5   6
ENDBRANCH   3   4
ENDBRANCH   2   3
ENDBRANCH   1   2
BRANCH   1   9
ATOM      9  C   UNL     1     -46.277 -28.315  -3.211  1.00  0.00     0.000 C 
BRANCH   9  10
ATOM     10  C   UNL     1     -45.236 -28.578  -2.114  1.00  0.00     0.000 C 
BRANCH  10  11
ATOM     11  C   UNL     1     -45.543 -27.832  -0.803  1.00  0.00    -0.000 C 
BRANCH  11  12
ATOM     12  C   UNL     1     -44.317 -27.534   0.081  1.00  0.00    -0.000 C 
BRANCH  12  13
ATOM     13  C   UNL     1     -43.040 -27.282  -0.732  1.00  0.00    -0.003 C 
ATOM     14  C   UNL     1     -41.907 -28.195  -0.273  1.00  0.00     0.004 C 
ENDBRANCH  12  13
ENDBRANCH  11  12
ENDBRANCH  10  11
ENDBRANCH   9  10
ENDBRANCH   1   9
TORSDOF 9
ENDMDL
MODEL 7
REMARK VINA RESULT:    -3.455      4.118      6.747
REMARK INTER + INTRA:          -5.904
REMARK INTER:                  -5.265
REMARK INTRA:                  -0.640
REMARK UNBOUND:                -0.631
REMARK SMILES CCCCCCCCCC=CC(=O)[O-]
REMARK SMILES IDX 7 1 8 2 9 3 10 4 11 5 12 6 13 7 14 8 6 9 5 10 4 11 3 12 2 13
REMARK SMILES IDX 1 14
REMARK H PARENT
REMARK Flexibility Score: inf
ROOT
ATOM      1  C   UNL     1     -46.087 -27.232   2.181  1.00  0.00     0.000 C 
ENDROOT
BRANCH   1   2
ATOM      2  C   UNL     1     -46.272 -28.738   2.450  1.00  0.00     0.004 C 
BRANCH   2   3
ATOM      3  C   UNL     1     -45.596 -29.655   1.415  1.00  0.00     0.027 C 
BRANCH   3   4
ATOM      4  C   UNL     1     -45.141 -28.912   0.190  1.00  0.00    -0.025 C 
ATOM      5  C   UNL     1     -45.831 -28.963  -0.954  1.00  0.00     0.020 C 
BRANCH   5   6
ATOM      6  C   UNL     1     -45.401 -28.246  -2.166  1.00  0.00     0.064 C 
ATOM      7  O   UNL     1     -44.819 -27.131  -2.091  1.00  0.00    -0.545 OA
ATOM      8  O   UNL     1     -45.641 -28.807  -3.412  1.00  0.00    -0.545 OA
ENDBRANCH   5   6
ENDBRANCH   3   4
ENDBRANCH   2   3
ENDBRANCH   1   2
BRANCH   1   9
ATOM      9  C   UNL     1     -46.141 -26.387   3.461  1.00  0.00     0.000 C 
BRANCH   9  10
ATOM     10  C   UNL     1     -46.685 -27.208   4.639  1.00  0.00     0.000 C 
BRANCH  10  11
ATOM     11  C   UNL     1     -46.176 -26.711   6.004  1.00  0.00    -0.000 C 
BRANCH  11  12
ATOM     12  C   UNL     1     -45.287 -27.708   6.770  1.00  0.00    -0.000 C 
BRANCH  12  13
ATOM     13  C   UNL     1     -45.288 -29.112   6.150  1.00  0.00    -0.003 C 
ATOM     14  C   UNL     1     -44.607 -30.120   7.071  1.00  0.00     0.004 C 
ENDBRANCH  12  13
ENDBRANCH  11  12
ENDBRANCH  10  11
ENDBRANCH   9  10
ENDBRANCH   1   9
TORSDOF 9
ENDMDL
MODEL 8
REMARK VINA RESULT:    -3.423      4.794      7.319
REMARK INTER + INTRA:          -5.856
REMARK INTER:                  -5.312
REMARK INTRA:                  -0.545
REMARK UNBOUND:                -0.631
REMARK SMILES CCCCCCCCCC=CC(=O)[O-]
REMARK SMILES IDX 7 1 8 2 9 3 10 4 11 5 12 6 13 7 14 8 6 9 5 10 4 11 3 12 2 13
REMARK SMILES IDX 1 14
REMARK H PARENT
REMARK Flexibility Score: inf
ROOT
ATOM      1  C   UNL     1     -44.056 -27.116   0.308  1.00  0.00     0.000 C 
ENDROOT
BRANCH   1   2
ATOM      2  C   UNL     1     -43.606 -28.393  -0.428  1.00  0.00     0.004 C 
BRANCH   2   3
ATOM      3  C   UNL     1     -44.741 -29.389  -0.722  1.00  0.00     0.027 C 
BRANCH   3   4
ATOM      4  C   UNL     1     -45.152 -29.390  -2.169  1.00  0.00    -0.025 C 
ATOM      5  C   UNL     1     -45.631 -28.291  -2.760  1.00  0.00     0.020 C 
BRANCH   5   6
ATOM      6  C   UNL     1     -46.041 -28.271  -4.173  1.00  0.00     0.064 C 
ATOM      7  O   UNL     1     -46.744 -27.333  -4.635  1.00  0.00    -0.545 OA
ATOM      8  O   UNL     1     -45.647 -29.305  -5.012  1.00  0.00    -0.545 OA
ENDBRANCH   5   6
ENDBRANCH   3   4
ENDBRANCH   2   3
ENDBRANCH   1   2
BRANCH   1   9
ATOM      9  C   UNL     1     -45.459 -27.244   0.919  1.00  0.00     0.000 C 
BRANCH   9  10
ATOM     10  C   UNL     1     -45.724 -26.116   1.926  1.00  0.00     0.000 C 
BRANCH  10  11
ATOM     11  C   UNL     1     -46.800 -26.478   2.965  1.00  0.00    -0.000 C 
BRANCH  11  12
ATOM     12  C   UNL     1     -46.259 -26.900   4.344  1.00  0.00    -0.000 C 
BRANCH  12  13
ATOM     13  C   UNL     1     -46.198 -28.424   4.522  1.00  0.00    -0.003 C 
ATOM     14  C   UNL     1     -45.410 -28.800   5.774  1.00  0.00     0.004 C 
ENDBRANCH  12  13
ENDBRANCH  11  12
ENDBRANCH  10  11
ENDBRANCH   9  10
ENDBRANCH   1   9
TORSDOF 9
ENDMDL
MODEL 9
REMARK VINA RESULT:    -3.366      1.736      3.214
REMARK INTER + INTRA:          -5.768
REMARK INTER:                  -5.144
REMARK INTRA:                  -0.624
REMARK UNBOUND:                -0.631
REMARK SMILES CCCCCCCCCC=CC(=O)[O-]
REMARK SMILES IDX 7 1 8 2 9 3 10 4 11 5 12 6 13 7 14 8 6 9 5 10 4 11 3 12 2 13
REMARK SMILES IDX 1 14
REMARK H PARENT
REMARK Flexibility Score: inf
ROOT
ATOM      1  C   UNL     1     -46.828 -28.733   4.085  1.00  0.00     0.000 C 
ENDROOT
BRANCH   1   2
ATOM      2  C   UNL     1     -45.619 -29.584   4.518  1.00  0.00     0.004 C 
BRANCH   2   3
ATOM      3  C   UNL     1     -45.215 -29.408   5.992  1.00  0.00     0.027 C 
BRANCH   3   4
ATOM      4  C   UNL     1     -46.101 -28.440   6.726  1.00  0.00    -0.025 C 
ATOM      5  C   UNL     1     -45.647 -27.254   7.142  1.00  0.00     0.020 C 
BRANCH   5   6
ATOM      6  C   UNL     1     -46.497 -26.294   7.865  1.00  0.00     0.064 C 
ATOM      7  O   UNL     1     -46.964 -26.565   9.003  1.00  0.00    -0.545 OA
ATOM      8  O   UNL     1     -46.790 -25.068   7.282  1.00  0.00    -0.545 OA
ENDBRANCH   5   6
ENDBRANCH   3   4
ENDBRANCH   2   3
ENDBRANCH   1   2
BRANCH   1   9
ATOM      9  C   UNL     1     -46.716 -28.231   2.638  1.00  0.00     0.000 C 
BRANCH   9  10
ATOM     10  C   UNL     1     -46.115 -26.819   2.592  1.00  0.00     0.000 C 
BRANCH  10  11
ATOM     11  C   UNL     1     -45.406 -26.511   1.261  1.00  0.00    -0.000 C 
BRANCH  11  12
ATOM     12  C   UNL     1     -45.820 -27.407   0.079  1.00  0.00    -0.000 C 
BRANCH  12  13
ATOM     13  C   UNL     1     -44.636 -27.809  -0.812  1.00  0.00    -0.003 C 
ATOM     14  C   UNL     1     -43.306 -27.489  -0.135  1.00  0.00     0.004 C 
ENDBRANCH  12  13
ENDBRANCH  11  12
ENDBRANCH  10  11
ENDBRANCH   9  10
ENDBRANCH   1   9
TORSDOF 9
ENDMDL
