MODEL 1
REMARK VINA RESULT:    -2.836      0.000      0.000
REMARK INTER + INTRA:          -5.940
REMARK INTER:                  -4.576
REMARK INTRA:                  -1.364
REMARK UNBOUND:                -1.364
REMARK SMILES CCCCCCCCCCCCO
REMARK SMILES IDX 7 1 6 2 5 3 4 4 3 5 2 6 1 7 8 8 9 9 10 10 11 11 12 12 13 13
REMARK H PARENT 13 14
REMARK Flexibility Score: inf
ROOT
ATOM      1  C   UNL     1      27.729 -23.545  22.842  1.00  0.00     0.000 C 
ENDROOT
BRANCH   1   2
ATOM      2  C   UNL     1      28.551 -23.693  21.550  1.00  0.00    -0.000 C 
BRANCH   2   3
ATOM      3  C   UNL     1      30.067 -23.685  21.813  1.00  0.00    -0.000 C 
BRANCH   3   4
ATOM      4  C   UNL     1      30.775 -22.467  21.193  1.00  0.00    -0.000 C 
BRANCH   4   5
ATOM      5  C   UNL     1      30.444 -21.112  21.850  1.00  0.00    -0.000 C 
BRANCH   5   6
ATOM      6  C   UNL     1      29.512 -20.203  21.031  1.00  0.00    -0.003 C 
ATOM      7  C   UNL     1      28.148 -20.000  21.689  1.00  0.00     0.004 C 
ENDBRANCH   5   6
ENDBRANCH   4   5
ENDBRANCH   3   4
ENDBRANCH   2   3
ENDBRANCH   1   2
BRANCH   1   8
ATOM      8  C   UNL     1      28.532 -23.923  24.099  1.00  0.00     0.000 C 
BRANCH   8   9
ATOM      9  C   UNL     1      28.210 -23.017  25.299  1.00  0.00     0.000 C 
BRANCH   9  10
ATOM     10  C   UNL     1      28.368 -21.525  24.976  1.00  0.00     0.002 C 
BRANCH  10  11
ATOM     11  C   UNL     1      29.766 -21.024  25.363  1.00  0.00     0.028 C 
BRANCH  11  12
ATOM     12  C   UNL     1      29.971 -21.009  26.881  1.00  0.00     0.156 C 
BRANCH  12  13
ATOM     13  O   UNL     1      30.882 -22.004  27.268  1.00  0.00    -0.396 OA
ATOM     14  H   UNL     1      31.733 -21.817  26.794  1.00  0.00     0.210 HD
ENDBRANCH  12  13
ENDBRANCH  11  12
ENDBRANCH  10  11
ENDBRANCH   9  10
ENDBRANCH   8   9
ENDBRANCH   1   8
TORSDOF 11
ENDMDL
MODEL 2
REMARK VINA RESULT:    -2.821      1.163      2.042
REMARK INTER + INTRA:          -5.916
REMARK INTER:                  -4.561
REMARK INTRA:                  -1.355
REMARK UNBOUND:                -1.364
REMARK SMILES CCCCCCCCCCCCO
REMARK SMILES IDX 7 1 6 2 5 3 4 4 3 5 2 6 1 7 8 8 9 9 10 10 11 11 12 12 13 13
REMARK H PARENT 13 14
REMARK Flexibility Score: inf
ROOT
ATOM      1  C   UNL     1      26.591 -22.470  22.921  1.00  0.00     0.000 C 
ENDROOT
BRANCH   1   2
ATOM      2  C   UNL     1      26.927 -21.671  21.651  1.00  0.00    -0.000 C 
BRANCH   2   3
ATOM      3  C   UNL     1      27.627 -22.529  20.582  1.00  0.00    -0.000 C 
BRANCH   3   4
ATOM      4  C   UNL     1      29.013 -21.986  20.194  1.00  0.00    -0.000 C 
BRANCH   4   5
ATOM      5  C   UNL     1      29.569 -20.885  21.118  1.00  0.00    -0.000 C 
BRANCH   5   6
ATOM      6  C   UNL     1      30.665 -21.346  22.093  1.00  0.00    -0.003 C 
ATOM      7  C   UNL     1      31.247 -22.712  21.733  1.00  0.00     0.004 C 
ENDBRANCH   5   6
ENDBRANCH   4   5
ENDBRANCH   3   4
ENDBRANCH   2   3
ENDBRANCH   1   2
BRANCH   1   8
ATOM      8  C   UNL     1      27.321 -23.824  22.976  1.00  0.00     0.000 C 
BRANCH   8   9
ATOM      9  C   UNL     1      28.506 -23.816  23.956  1.00  0.00     0.000 C 
BRANCH   9  10
ATOM     10  C   UNL     1      28.199 -23.058  25.255  1.00  0.00     0.002 C 
BRANCH  10  11
ATOM     11  C   UNL     1      29.254 -21.975  25.521  1.00  0.00     0.028 C 
BRANCH  11  12
ATOM     12  C   UNL     1      29.575 -21.840  27.012  1.00  0.00     0.156 C 
BRANCH  12  13
ATOM     13  O   UNL     1      30.956 -21.959  27.236  1.00  0.00    -0.396 OA
ATOM     14  H   UNL     1      31.397 -21.908  26.348  1.00  0.00     0.210 HD
ENDBRANCH  12  13
ENDBRANCH  11  12
ENDBRANCH  10  11
ENDBRANCH   9  10
ENDBRANCH   8   9
ENDBRANCH   1   8
TORSDOF 11
ENDMDL
MODEL 3
REMARK VINA RESULT:    -2.793      1.280      1.754
REMARK INTER + INTRA:          -5.871
REMARK INTER:                  -4.616
REMARK INTRA:                  -1.255
REMARK UNBOUND:                -1.364
REMARK SMILES CCCCCCCCCCCCO
REMARK SMILES IDX 7 1 6 2 5 3 4 4 3 5 2 6 1 7 8 8 9 9 10 10 11 11 12 12 13 13
REMARK H PARENT 13 14
REMARK Flexibility Score: inf
ROOT
ATOM      1  C   UNL     1      27.924 -23.001  23.728  1.00  0.00     0.000 C 
ENDROOT
BRANCH   1   2
ATOM      2  C   UNL     1      29.226 -23.773  23.453  1.00  0.00    -0.000 C 
BRANCH   2   3
ATOM      3  C   UNL     1      29.709 -23.614  22.000  1.00  0.00    -0.000 C 
BRANCH   3   4
ATOM      4  C   UNL     1      30.984 -22.760  21.885  1.00  0.00    -0.000 C 
BRANCH   4   5
ATOM      5  C   UNL     1      30.751 -21.236  21.844  1.00  0.00    -0.000 C 
BRANCH   5   6
ATOM      6  C   UNL     1      29.452 -20.795  21.148  1.00  0.00    -0.003 C 
ATOM      7  C   UNL     1      28.670 -19.756  21.950  1.00  0.00     0.004 C 
ENDBRANCH   5   6
ENDBRANCH   4   5
ENDBRANCH   3   4
ENDBRANCH   2   3
ENDBRANCH   1   2
BRANCH   1   8
ATOM      8  C   UNL     1      28.016 -22.120  24.987  1.00  0.00     0.000 C 
BRANCH   8   9
ATOM      9  C   UNL     1      29.430 -21.558  25.211  1.00  0.00     0.000 C 
BRANCH   9  10
ATOM     10  C   UNL     1      29.870 -21.626  26.680  1.00  0.00     0.002 C 
BRANCH  10  11
ATOM     11  C   UNL     1      28.891 -22.471  27.508  1.00  0.00     0.028 C 
BRANCH  11  12
ATOM     12  C   UNL     1      29.079 -22.259  29.012  1.00  0.00     0.156 C 
BRANCH  12  13
ATOM     13  O   UNL     1      30.303 -22.796  29.440  1.00  0.00    -0.396 OA
ATOM     14  H   UNL     1      30.702 -22.141  30.069  1.00  0.00     0.210 HD
ENDBRANCH  12  13
ENDBRANCH  11  12
ENDBRANCH  10  11
ENDBRANCH   9  10
ENDBRANCH   8   9
ENDBRANCH   1   8
TORSDOF 11
ENDMDL
MODEL 4
REMARK VINA RESULT:    -2.763      2.235      4.108
REMARK INTER + INTRA:          -5.823
REMARK INTER:                  -4.492
REMARK INTRA:                  -1.331
REMARK UNBOUND:                -1.364
REMARK SMILES CCCCCCCCCCCCO
REMARK SMILES IDX 7 1 6 2 5 3 4 4 3 5 2 6 1 7 8 8 9 9 10 10 11 11 12 12 13 13
REMARK H PARENT 13 14
REMARK Flexibility Score: inf
ROOT
ATOM      1  C   UNL     1      27.760 -23.713  22.739  1.00  0.00     0.000 C 
ENDROOT
BRANCH   1   2
ATOM      2  C   UNL     1      28.642 -23.718  24.000  1.00  0.00    -0.000 C 
BRANCH   2   3
ATOM      3  C   UNL     1      28.209 -22.657  25.026  1.00  0.00    -0.000 C 
BRANCH   3   4
ATOM      4  C   UNL     1      29.302 -21.610  25.302  1.00  0.00    -0.000 C 
BRANCH   4   5
ATOM      5  C   UNL     1      28.834 -20.142  25.248  1.00  0.00    -0.000 C 
BRANCH   5   6
ATOM      6  C   UNL     1      29.965 -19.100  25.231  1.00  0.00    -0.003 C 
ATOM      7  C   UNL     1      30.018 -18.299  23.931  1.00  0.00     0.004 C 
ENDBRANCH   5   6
ENDBRANCH   4   5
ENDBRANCH   3   4
ENDBRANCH   2   3
ENDBRANCH   1   2
BRANCH   1   8
ATOM      8  C   UNL     1      27.592 -22.305  22.143  1.00  0.00     0.000 C 
BRANCH   8   9
ATOM      9  C   UNL     1      28.580 -22.027  20.998  1.00  0.00     0.000 C 
BRANCH   9  10
ATOM     10  C   UNL     1      29.576 -20.908  21.331  1.00  0.00     0.002 C 
BRANCH  10  11
ATOM     11  C   UNL     1      30.849 -21.479  21.972  1.00  0.00     0.028 C 
BRANCH  11  12
ATOM     12  C   UNL     1      31.253 -22.819  21.352  1.00  0.00     0.156 C 
BRANCH  12  13
ATOM     13  O   UNL     1      32.617 -22.824  21.024  1.00  0.00    -0.396 OA
ATOM     14  H   UNL     1      32.973 -21.928  21.259  1.00  0.00     0.210 HD
ENDBRANCH  12  13
ENDBRANCH  11  12
ENDBRANCH  10  11
ENDBRANCH   9  10
ENDBRANCH   8   9
ENDBRANCH   1   8
TORSDOF 11
ENDMDL
MODEL 5
REMARK VINA RESULT:    -2.722      1.392      2.628
REMARK INTER + INTRA:          -5.757
REMARK INTER:                  -4.656
REMARK INTRA:                  -1.101
REMARK UNBOUND:                -1.364
REMARK SMILES CCCCCCCCCCCCO
REMARK SMILES IDX 7 1 6 2 5 3 4 4 3 5 2 6 1 7 8 8 9 9 10 10 11 11 12 12 13 13
REMARK H PARENT 13 14
REMARK Flexibility Score: inf
ROOT
ATOM      1  C   UNL     1      27.367 -22.660  24.272  1.00  0.00     0.000 C 
ENDROOT
BRANCH   1   2
ATOM      2  C   UNL     1      27.346 -21.165  23.910  1.00  0.00    -0.000 C 
BRANCH   2   3
ATOM      3  C   UNL     1      28.007 -20.879  22.550  1.00  0.00    -0.000 C 
BRANCH   3   4
ATOM      4  C   UNL     1      29.429 -20.305  22.685  1.00  0.00    -0.000 C 
BRANCH   4   5
ATOM      5  C   UNL     1      30.481 -20.929  21.747  1.00  0.00    -0.000 C 
BRANCH   5   6
ATOM      6  C   UNL     1      31.050 -22.279  22.215  1.00  0.00    -0.003 C 
ATOM      7  C   UNL     1      30.342 -23.476  21.582  1.00  0.00     0.004 C 
ENDBRANCH   5   6
ENDBRANCH   4   5
ENDBRANCH   3   4
ENDBRANCH   2   3
ENDBRANCH   1   2
BRANCH   1   8
ATOM      8  C   UNL     1      28.671 -23.079  24.973  1.00  0.00     0.000 C 
BRANCH   8   9
ATOM      9  C   UNL     1      28.861 -22.382  26.331  1.00  0.00     0.000 C 
BRANCH   9  10
ATOM     10  C   UNL     1      30.144 -21.540  26.393  1.00  0.00     0.002 C 
BRANCH  10  11
ATOM     11  C   UNL     1      30.574 -21.302  27.847  1.00  0.00     0.028 C 
BRANCH  11  12
ATOM     12  C   UNL     1      29.641 -21.996  28.843  1.00  0.00     0.156 C 
BRANCH  12  13
ATOM     13  O   UNL     1      30.343 -22.945  29.603  1.00  0.00    -0.396 OA
ATOM     14  H   UNL     1      30.480 -22.550  30.502  1.00  0.00     0.210 HD
ENDBRANCH  12  13
ENDBRANCH  11  12
ENDBRANCH  10  11
ENDBRANCH   9  10
ENDBRANCH   8   9
ENDBRANCH   1   8
TORSDOF 11
ENDMDL
MODEL 6
REMARK VINA RESULT:    -2.696     16.926     18.578
REMARK INTER + INTRA:          -5.715
REMARK INTER:                  -5.243
REMARK INTRA:                  -0.472
REMARK UNBOUND:                -1.364
REMARK SMILES CCCCCCCCCCCCO
REMARK SMILES IDX 7 1 6 2 5 3 4 4 3 5 2 6 1 7 8 8 9 9 10 10 11 11 12 12 13 13
REMARK H PARENT 13 14
REMARK Flexibility Score: inf
ROOT
ATOM      1  C   UNL     1      30.646  -7.524  31.385  1.00  0.00     0.000 C 
ENDROOT
BRANCH   1   2
ATOM      2  C   UNL     1      29.180  -7.592  31.847  1.00  0.00    -0.000 C 
BRANCH   2   3
ATOM      3  C   UNL     1      28.985  -7.037  33.269  1.00  0.00    -0.000 C 
BRANCH   3   4
ATOM      4  C   UNL     1      27.903  -7.792  34.061  1.00  0.00    -0.000 C 
BRANCH   4   5
ATOM      5  C   UNL     1      28.422  -8.631  35.246  1.00  0.00    -0.000 C 
BRANCH   5   6
ATOM      6  C   UNL     1      27.548  -8.579  36.511  1.00  0.00    -0.003 C 
ATOM      7  C   UNL     1      26.107  -8.162  36.223  1.00  0.00     0.004 C 
ENDBRANCH   5   6
ENDBRANCH   4   5
ENDBRANCH   3   4
ENDBRANCH   2   3
ENDBRANCH   1   2
BRANCH   1   8
ATOM      8  C   UNL     1      31.594  -7.047  32.499  1.00  0.00     0.000 C 
BRANCH   8   9
ATOM      9  C   UNL     1      32.614  -6.009  32.001  1.00  0.00     0.000 C 
BRANCH   9  10
ATOM     10  C   UNL     1      33.734  -5.742  33.016  1.00  0.00     0.002 C 
BRANCH  10  11
ATOM     11  C   UNL     1      35.113  -6.005  32.394  1.00  0.00     0.028 C 
BRANCH  11  12
ATOM     12  C   UNL     1      35.975  -6.917  33.270  1.00  0.00     0.156 C 
BRANCH  12  13
ATOM     13  O   UNL     1      35.173  -7.670  34.142  1.00  0.00    -0.396 OA
ATOM     14  H   UNL     1      34.820  -7.042  34.824  1.00  0.00     0.210 HD
ENDBRANCH  12  13
ENDBRANCH  11  12
ENDBRANCH  10  11
ENDBRANCH   9  10
ENDBRANCH   8   9
ENDBRANCH   1   8
TORSDOF 11
ENDMDL
MODEL 7
REMARK VINA RESULT:    -2.662     10.375     12.755
REMARK INTER + INTRA:          -5.659
REMARK INTER:                  -4.234
REMARK INTRA:                  -1.425
REMARK UNBOUND:                -1.364
REMARK SMILES CCCCCCCCCCCCO
REMARK SMILES IDX 7 1 6 2 5 3 4 4 3 5 2 6 1 7 8 8 9 9 10 10 11 11 12 12 13 13
REMARK H PARENT 13 14
REMARK Flexibility Score: inf
ROOT
ATOM      1  C   UNL     1      27.989 -19.088  33.757  1.00  0.00     0.000 C 
ENDROOT
BRANCH   1   2
ATOM      2  C   UNL     1      29.275 -18.915  34.583  1.00  0.00    -0.000 C 
BRANCH   2   3
ATOM      3  C   UNL     1      28.990 -18.717  36.082  1.00  0.00    -0.000 C 
BRANCH   3   4
ATOM      4  C   UNL     1      27.519 -18.984  36.451  1.00  0.00    -0.000 C 
BRANCH   4   5
ATOM      5  C   UNL     1      27.217 -20.407  36.959  1.00  0.00    -0.000 C 
BRANCH   5   6
ATOM      6  C   UNL     1      25.724 -20.764  37.044  1.00  0.00    -0.003 C 
ATOM      7  C   UNL     1      25.285 -21.755  35.966  1.00  0.00     0.004 C 
ENDBRANCH   5   6
ENDBRANCH   4   5
ENDBRANCH   3   4
ENDBRANCH   2   3
ENDBRANCH   1   2
BRANCH   1   8
ATOM      8  C   UNL     1      27.941 -20.436  33.016  1.00  0.00     0.000 C 
BRANCH   8   9
ATOM      9  C   UNL     1      29.035 -21.408  33.488  1.00  0.00     0.000 C 
BRANCH   9  10
ATOM     10  C   UNL     1      28.469 -22.618  34.245  1.00  0.00     0.002 C 
BRANCH  10  11
ATOM     11  C   UNL     1      29.323 -22.941  35.479  1.00  0.00     0.028 C 
BRANCH  11  12
ATOM     12  C   UNL     1      28.683 -24.024  36.353  1.00  0.00     0.156 C 
BRANCH  12  13
ATOM     13  O   UNL     1      28.583 -23.592  37.685  1.00  0.00    -0.396 OA
ATOM     14  H   UNL     1      28.961 -24.314  38.250  1.00  0.00     0.210 HD
ENDBRANCH  12  13
ENDBRANCH  11  12
ENDBRANCH  10  11
ENDBRANCH   9  10
ENDBRANCH   8   9
ENDBRANCH   1   8
TORSDOF 11
ENDMDL
MODEL 8
REMARK VINA RESULT:    -2.656     12.057     13.745
REMARK INTER + INTRA:          -5.649
REMARK INTER:                  -4.508
REMARK INTRA:                  -1.142
REMARK UNBOUND:                -1.364
REMARK SMILES CCCCCCCCCCCCO
REMARK SMILES IDX 7 1 6 2 5 3 4 4 3 5 2 6 1 7 8 8 9 9 10 10 11 11 12 12 13 13
REMARK H PARENT 13 14
REMARK Flexibility Score: inf
ROOT
ATOM      1  C   UNL     1      28.701 -22.123  35.150  1.00  0.00     0.000 C 
ENDROOT
BRANCH   1   2
ATOM      2  C   UNL     1      27.805 -22.595  36.308  1.00  0.00    -0.000 C 
BRANCH   2   3
ATOM      3  C   UNL     1      26.388 -22.972  35.841  1.00  0.00    -0.000 C 
BRANCH   3   4
ATOM      4  C   UNL     1      25.285 -22.265  36.647  1.00  0.00    -0.000 C 
BRANCH   4   5
ATOM      5  C   UNL     1      25.730 -20.991  37.392  1.00  0.00    -0.000 C 
BRANCH   5   6
ATOM      6  C   UNL     1      25.243 -19.671  36.771  1.00  0.00    -0.003 C 
ATOM      7  C   UNL     1      25.357 -18.484  37.727  1.00  0.00     0.004 C 
ENDBRANCH   5   6
ENDBRANCH   4   5
ENDBRANCH   3   4
ENDBRANCH   2   3
ENDBRANCH   1   2
BRANCH   1   8
ATOM      8  C   UNL     1      28.534 -20.624  34.848  1.00  0.00     0.000 C 
BRANCH   8   9
ATOM      9  C   UNL     1      28.906 -19.735  36.047  1.00  0.00     0.000 C 
BRANCH   9  10
ATOM     10  C   UNL     1      28.609 -18.250  35.800  1.00  0.00     0.002 C 
BRANCH  10  11
ATOM     11  C   UNL     1      29.704 -17.362  36.410  1.00  0.00     0.028 C 
BRANCH  11  12
ATOM     12  C   UNL     1      29.119 -16.217  37.240  1.00  0.00     0.156 C 
BRANCH  12  13
ATOM     13  O   UNL     1      28.447 -16.714  38.368  1.00  0.00    -0.396 OA
ATOM     14  H   UNL     1      28.103 -17.612  38.126  1.00  0.00     0.210 HD
ENDBRANCH  12  13
ENDBRANCH  11  12
ENDBRANCH  10  11
ENDBRANCH   9  10
ENDBRANCH   8   9
ENDBRANCH   1   8
TORSDOF 11
ENDMDL
MODEL 9
REMARK VINA RESULT:    -2.587      2.268      4.777
REMARK INTER + INTRA:          -5.538
REMARK INTER:                  -4.328
REMARK INTRA:                  -1.210
REMARK UNBOUND:                -1.364
REMARK SMILES CCCCCCCCCCCCO
REMARK SMILES IDX 7 1 6 2 5 3 4 4 3 5 2 6 1 7 8 8 9 9 10 10 11 11 12 12 13 13
REMARK H PARENT 13 14
REMARK Flexibility Score: inf
ROOT
ATOM      1  C   UNL     1      27.112 -21.264  22.413  1.00  0.00     0.000 C 
ENDROOT
BRANCH   1   2
ATOM      2  C   UNL     1      26.523 -22.416  23.246  1.00  0.00    -0.000 C 
BRANCH   2   3
ATOM      3  C   UNL     1      27.428 -23.661  23.253  1.00  0.00    -0.000 C 
BRANCH   3   4
ATOM      4  C   UNL     1      27.864 -24.074  24.669  1.00  0.00    -0.000 C 
BRANCH   4   5
ATOM      5  C   UNL     1      27.122 -23.363  25.819  1.00  0.00    -0.000 C 
BRANCH   5   6
ATOM      6  C   UNL     1      28.031 -22.678  26.854  1.00  0.00    -0.003 C 
ATOM      7  C   UNL     1      29.345 -22.178  26.255  1.00  0.00     0.004 C 
ENDBRANCH   5   6
ENDBRANCH   4   5
ENDBRANCH   3   4
ENDBRANCH   2   3
ENDBRANCH   1   2
BRANCH   1   8
ATOM      8  C   UNL     1      28.361 -20.644  23.064  1.00  0.00     0.000 C 
BRANCH   8   9
ATOM      9  C   UNL     1      29.630 -20.847  22.220  1.00  0.00     0.000 C 
BRANCH   9  10
ATOM     10  C   UNL     1      29.344 -21.517  20.869  1.00  0.00     0.002 C 
BRANCH  10  11
ATOM     11  C   UNL     1      30.304 -22.689  20.623  1.00  0.00     0.028 C 
BRANCH  11  12
ATOM     12  C   UNL     1      31.489 -22.674  21.593  1.00  0.00     0.156 C 
BRANCH  12  13
ATOM     13  O   UNL     1      32.696 -22.875  20.906  1.00  0.00    -0.396 OA
ATOM     14  H   UNL     1      33.346 -22.220  21.268  1.00  0.00     0.210 HD
ENDBRANCH  12  13
ENDBRANCH  11  12
ENDBRANCH  10  11
ENDBRANCH   9  10
ENDBRANCH   8   9
ENDBRANCH   1   8
TORSDOF 11
ENDMDL
