MODEL 1
REMARK VINA RESULT:    -4.370      0.000      0.000
REMARK INTER + INTRA:          -4.892
REMARK INTER:                  -5.136
REMARK INTRA:                   0.244
REMARK UNBOUND:                 0.244
REMARK SMILES O=c1c(O)c(-c2ccc(O)cc2)oc2cc(O)cc(O)c12
REMARK SMILES IDX 5 1 3 2 2 3 1 4 21 5 19 6 18 7 16 8 15 9 14 10 13 11 6 12
REMARK SMILES IDX 7 13 8 14 9 15 12 16 11 17 10 18 4 20 20 22 17 24
REMARK H PARENT 10 19 4 21 20 23 17 25
REMARK Flexibility Score: inf
ROOT
ATOM      1  C   UNL     1     178.601 173.073 168.840  1.00  0.00     0.180 A 
ATOM      2  C   UNL     1     179.146 172.410 167.727  1.00  0.00     0.208 A 
ATOM      3  C   UNL     1     180.375 172.847 167.207  1.00  0.00     0.238 A 
ATOM      4  O   UNL     1     180.830 172.284 166.178  1.00  0.00    -0.285 OA
ATOM      5  C   UNL     1     181.051 173.932 167.815  1.00  0.00     0.111 A 
ATOM      6  C   UNL     1     182.319 174.434 167.397  1.00  0.00     0.134 A 
ATOM      7  C   UNL     1     182.832 175.595 167.988  1.00  0.00     0.093 A 
ATOM      8  C   UNL     1     182.156 176.233 169.026  1.00  0.00     0.123 A 
ATOM      9  C   UNL     1     180.942 175.718 169.484  1.00  0.00     0.094 A 
ATOM     10  C   UNL     1     180.387 174.582 168.889  1.00  0.00     0.146 A 
ATOM     11  O   UNL     1     179.226 174.129 169.347  1.00  0.00    -0.452 OA
ENDROOT
BRANCH   1  12
ATOM     12  C   UNL     1     177.323 172.655 169.459  1.00  0.00     0.021 A 
ATOM     13  C   UNL     1     176.395 173.601 169.933  1.00  0.00     0.016 A 
ATOM     14  C   UNL     1     175.183 173.183 170.491  1.00  0.00     0.047 A 
ATOM     15  C   UNL     1     174.877 171.818 170.570  1.00  0.00     0.115 A 
ATOM     16  C   UNL     1     176.998 171.289 169.523  1.00  0.00     0.016 A 
ATOM     17  C   UNL     1     175.786 170.875 170.083  1.00  0.00     0.047 A 
BRANCH  15  18
ATOM     18  O   UNL     1     173.672 171.391 171.125  1.00  0.00    -0.508 OA
ATOM     19  H   UNL     1     172.780 171.693 170.752  1.00  0.00     0.293 HD
ENDBRANCH  15  18
ENDBRANCH   1  12
BRANCH   2  20
ATOM     20  O   UNL     1     178.452 171.354 167.129  1.00  0.00    -0.502 OA
ATOM     21  H   UNL     1     178.791 170.879 166.301  1.00  0.00     0.293 HD
ENDBRANCH   2  20
BRANCH   6  22
ATOM     22  O   UNL     1     183.121 173.818 166.431  1.00  0.00    -0.507 OA
ATOM     23  H   UNL     1     183.444 172.863 166.475  1.00  0.00     0.293 HD
ENDBRANCH   6  22
BRANCH   8  24
ATOM     24  O   UNL     1     182.704 177.378 169.602  1.00  0.00    -0.508 OA
ATOM     25  H   UNL     1     182.674 177.533 170.603  1.00  0.00     0.293 HD
ENDBRANCH   8  24
TORSDOF 5
ENDMDL
MODEL 2
REMARK VINA RESULT:    -3.993      1.015      1.457
REMARK INTER + INTRA:          -4.450
REMARK INTER:                  -4.150
REMARK INTRA:                  -0.300
REMARK UNBOUND:                 0.244
REMARK SMILES O=c1c(O)c(-c2ccc(O)cc2)oc2cc(O)cc(O)c12
REMARK SMILES IDX 5 1 3 2 2 3 1 4 21 5 19 6 18 7 16 8 15 9 14 10 13 11 6 12
REMARK SMILES IDX 7 13 8 14 9 15 12 16 11 17 10 18 4 20 20 22 17 24
REMARK H PARENT 10 19 4 21 20 23 17 25
REMARK Flexibility Score: inf
ROOT
ATOM      1  C   UNL     1     178.679 173.452 169.347  1.00  0.00     0.180 A 
ATOM      2  C   UNL     1     179.352 173.091 168.167  1.00  0.00     0.208 A 
ATOM      3  C   UNL     1     180.521 173.782 167.810  1.00  0.00     0.238 A 
ATOM      4  O   UNL     1     181.088 173.491 166.725  1.00  0.00    -0.285 OA
ATOM      5  C   UNL     1     181.010 174.816 168.645  1.00  0.00     0.111 A 
ATOM      6  C   UNL     1     182.206 175.557 168.402  1.00  0.00     0.134 A 
ATOM      7  C   UNL     1     182.523 176.644 169.224  1.00  0.00     0.093 A 
ATOM      8  C   UNL     1     181.726 176.977 170.318  1.00  0.00     0.123 A 
ATOM      9  C   UNL     1     180.586 176.223 170.600  1.00  0.00     0.094 A 
ATOM     10  C   UNL     1     180.223 175.155 169.777  1.00  0.00     0.146 A 
ATOM     11  O   UNL     1     179.126 174.469 170.073  1.00  0.00    -0.452 OA
ENDROOT
BRANCH   1  12
ATOM     12  C   UNL     1     177.455 172.753 169.801  1.00  0.00     0.021 A 
ATOM     13  C   UNL     1     177.526 171.608 170.616  1.00  0.00     0.016 A 
ATOM     14  C   UNL     1     176.356 170.980 171.054  1.00  0.00     0.047 A 
ATOM     15  C   UNL     1     175.103 171.494 170.695  1.00  0.00     0.115 A 
ATOM     16  C   UNL     1     176.194 173.274 169.464  1.00  0.00     0.016 A 
ATOM     17  C   UNL     1     175.027 172.642 169.902  1.00  0.00     0.047 A 
BRANCH  15  18
ATOM     18  O   UNL     1     173.931 170.875 171.125  1.00  0.00    -0.508 OA
ATOM     19  H   UNL     1     173.879 170.403 172.020  1.00  0.00     0.293 HD
ENDBRANCH  15  18
ENDBRANCH   1  12
BRANCH   2  20
ATOM     20  O   UNL     1     178.840 172.081 167.346  1.00  0.00    -0.502 OA
ATOM     21  H   UNL     1     178.255 171.335 167.702  1.00  0.00     0.293 HD
ENDBRANCH   2  20
BRANCH   6  22
ATOM     22  O   UNL     1     183.121 175.250 167.390  1.00  0.00    -0.507 OA
ATOM     23  H   UNL     1     182.883 174.810 166.514  1.00  0.00     0.293 HD
ENDBRANCH   6  22
BRANCH   8  24
ATOM     24  O   UNL     1     182.081 178.057 171.124  1.00  0.00    -0.508 OA
ATOM     25  H   UNL     1     183.018 178.444 171.107  1.00  0.00     0.293 HD
ENDBRANCH   8  24
TORSDOF 5
ENDMDL
MODEL 3
REMARK VINA RESULT:    -3.415      1.459      2.888
REMARK INTER + INTRA:          -3.770
REMARK INTER:                  -4.256
REMARK INTRA:                   0.486
REMARK UNBOUND:                 0.244
REMARK SMILES O=c1c(O)c(-c2ccc(O)cc2)oc2cc(O)cc(O)c12
REMARK SMILES IDX 5 1 3 2 2 3 1 4 21 5 19 6 18 7 16 8 15 9 14 10 13 11 6 12
REMARK SMILES IDX 7 13 8 14 9 15 12 16 11 17 10 18 4 20 20 22 17 24
REMARK H PARENT 10 19 4 21 20 23 17 25
REMARK Flexibility Score: inf
ROOT
ATOM      1  C   UNL     1     177.830 173.693 169.450  1.00  0.00     0.180 A 
ATOM      2  C   UNL     1     177.967 175.085 169.587  1.00  0.00     0.208 A 
ATOM      3  C   UNL     1     179.128 175.707 169.101  1.00  0.00     0.238 A 
ATOM      4  O   UNL     1     179.269 176.946 169.275  1.00  0.00    -0.285 OA
ATOM      5  C   UNL     1     180.131 174.932 168.470  1.00  0.00     0.111 A 
ATOM      6  C   UNL     1     181.330 175.462 167.905  1.00  0.00     0.134 A 
ATOM      7  C   UNL     1     182.311 174.588 167.424  1.00  0.00     0.093 A 
ATOM      8  C   UNL     1     182.111 173.208 167.426  1.00  0.00     0.123 A 
ATOM      9  C   UNL     1     180.917 172.682 167.922  1.00  0.00     0.094 A 
ATOM     10  C   UNL     1     179.934 173.526 168.443  1.00  0.00     0.146 A 
ATOM     11  O   UNL     1     178.817 172.985 168.914  1.00  0.00    -0.452 OA
ENDROOT
BRANCH   1  12
ATOM     12  C   UNL     1     176.625 172.970 169.915  1.00  0.00     0.021 A 
ATOM     13  C   UNL     1     175.656 173.602 170.717  1.00  0.00     0.016 A 
ATOM     14  C   UNL     1     174.513 172.906 171.124  1.00  0.00     0.047 A 
ATOM     15  C   UNL     1     174.317 171.578 170.724  1.00  0.00     0.115 A 
ATOM     16  C   UNL     1     176.410 171.644 169.502  1.00  0.00     0.016 A 
ATOM     17  C   UNL     1     175.267 170.951 169.912  1.00  0.00     0.047 A 
BRANCH  15  18
ATOM     18  O   UNL     1     173.183 170.875 171.125  1.00  0.00    -0.508 OA
ATOM     19  H   UNL     1     173.208 170.227 171.903  1.00  0.00     0.293 HD
ENDBRANCH  15  18
ENDBRANCH   1  12
BRANCH   2  20
ATOM     20  O   UNL     1     176.974 175.829 170.232  1.00  0.00    -0.502 OA
ATOM     21  H   UNL     1     176.206 176.259 169.731  1.00  0.00     0.293 HD
ENDBRANCH   2  20
BRANCH   6  22
ATOM     22  O   UNL     1     181.590 176.829 167.771  1.00  0.00    -0.507 OA
ATOM     23  H   UNL     1     182.509 177.231 167.660  1.00  0.00     0.293 HD
ENDBRANCH   6  22
BRANCH   8  24
ATOM     24  O   UNL     1     183.104 172.369 166.925  1.00  0.00    -0.508 OA
ATOM     25  H   UNL     1     182.991 171.361 166.917  1.00  0.00     0.293 HD
ENDBRANCH   8  24
TORSDOF 5
ENDMDL
MODEL 4
REMARK VINA RESULT:    -3.287      1.419      6.373
REMARK INTER + INTRA:          -3.619
REMARK INTER:                  -4.070
REMARK INTRA:                   0.451
REMARK UNBOUND:                 0.244
REMARK SMILES O=c1c(O)c(-c2ccc(O)cc2)oc2cc(O)cc(O)c12
REMARK SMILES IDX 5 1 3 2 2 3 1 4 21 5 19 6 18 7 16 8 15 9 14 10 13 11 6 12
REMARK SMILES IDX 7 13 8 14 9 15 12 16 11 17 10 18 4 20 20 22 17 24
REMARK H PARENT 10 19 4 21 20 23 17 25
REMARK Flexibility Score: inf
ROOT
ATOM      1  C   UNL     1     179.871 174.710 169.313  1.00  0.00     0.180 A 
ATOM      2  C   UNL     1     180.186 173.976 168.156  1.00  0.00     0.208 A 
ATOM      3  C   UNL     1     179.341 172.927 167.763  1.00  0.00     0.238 A 
ATOM      4  O   UNL     1     179.658 172.239 166.758  1.00  0.00    -0.285 OA
ATOM      5  C   UNL     1     178.183 172.632 168.523  1.00  0.00     0.111 A 
ATOM      6  C   UNL     1     177.235 171.617 168.196  1.00  0.00     0.134 A 
ATOM      7  C   UNL     1     176.198 171.326 169.090  1.00  0.00     0.093 A 
ATOM      8  C   UNL     1     176.035 172.057 170.266  1.00  0.00     0.123 A 
ATOM      9  C   UNL     1     176.921 173.092 170.567  1.00  0.00     0.094 A 
ATOM     10  C   UNL     1     177.988 173.381 169.713  1.00  0.00     0.146 A 
ATOM     11  O   UNL     1     178.815 174.367 170.041  1.00  0.00    -0.452 OA
ENDROOT
BRANCH   1  12
ATOM     12  C   UNL     1     180.700 175.845 169.777  1.00  0.00     0.021 A 
ATOM     13  C   UNL     1     182.009 176.040 169.299  1.00  0.00     0.016 A 
ATOM     14  C   UNL     1     182.764 177.134 169.732  1.00  0.00     0.047 A 
ATOM     15  C   UNL     1     182.217 178.054 170.636  1.00  0.00     0.115 A 
ATOM     16  C   UNL     1     180.152 176.785 170.666  1.00  0.00     0.016 A 
ATOM     17  C   UNL     1     180.910 177.877 171.099  1.00  0.00     0.047 A 
BRANCH  15  18
ATOM     18  O   UNL     1     182.961 179.147 171.075  1.00  0.00    -0.508 OA
ATOM     19  H   UNL     1     183.956 179.075 171.250  1.00  0.00     0.293 HD
ENDBRANCH  15  18
ENDBRANCH   1  12
BRANCH   2  20
ATOM     20  O   UNL     1     181.346 174.270 167.432  1.00  0.00    -0.502 OA
ATOM     21  H   UNL     1     182.042 174.927 167.763  1.00  0.00     0.293 HD
ENDBRANCH   2  20
BRANCH   6  22
ATOM     22  O   UNL     1     177.253 170.889 167.002  1.00  0.00    -0.507 OA
ATOM     23  H   UNL     1     176.527 170.913 166.303  1.00  0.00     0.293 HD
ENDBRANCH   6  22
BRANCH   8  24
ATOM     24  O   UNL     1     174.981 171.751 171.125  1.00  0.00    -0.508 OA
ATOM     25  H   UNL     1     174.965 172.084 172.082  1.00  0.00     0.293 HD
ENDBRANCH   8  24
TORSDOF 5
ENDMDL
