MODEL 1
REMARK VINA RESULT:    -1.855      0.000      0.000
REMARK INTER + INTRA:          -3.959
REMARK INTER:                  -2.939
REMARK INTRA:                  -1.020
REMARK UNBOUND:                -1.020
REMARK SMILES CCCCCCCCCCCC=O
REMARK SMILES IDX 7 1 6 2 5 3 4 4 3 5 2 6 1 7 8 8 9 9 10 10 11 11 12 12 13 13
REMARK H PARENT
REMARK Flexibility Score: inf
ROOT
ATOM      1  C   UNL     1     125.991 107.430 136.259  1.00  0.00     0.000 C 
ENDROOT
BRANCH   1   2
ATOM      2  C   UNL     1     125.302 108.090 137.460  1.00  0.00     0.000 C 
BRANCH   2   3
ATOM      3  C   UNL     1     126.333 108.614 138.468  1.00  0.00    -0.000 C 
BRANCH   3   4
ATOM      4  C   UNL     1     125.941 110.006 138.982  1.00  0.00    -0.000 C 
BRANCH   4   5
ATOM      5  C   UNL     1     126.844 111.125 138.431  1.00  0.00    -0.000 C 
BRANCH   5   6
ATOM      6  C   UNL     1     126.744 111.348 136.912  1.00  0.00    -0.003 C 
ATOM      7  C   UNL     1     125.324 111.669 136.446  1.00  0.00     0.004 C 
ENDBRANCH   5   6
ENDBRANCH   4   5
ENDBRANCH   3   4
ENDBRANCH   2   3
ENDBRANCH   1   2
BRANCH   1   8
ATOM      8  C   UNL     1     125.680 108.189 134.962  1.00  0.00     0.000 C 
BRANCH   8   9
ATOM      9  C   UNL     1     126.909 108.331 134.049  1.00  0.00     0.000 C 
BRANCH   9  10
ATOM     10  C   UNL     1     127.122 109.773 133.562  1.00  0.00     0.008 C 
BRANCH  10  11
ATOM     11  C   UNL     1     127.123 109.840 132.030  1.00  0.00     0.072 C 
BRANCH  11  12
ATOM     12  C   UNL     1     126.647 108.551 131.429  1.00  0.00     0.224 C 
ATOM     13  O   UNL     1     126.982 108.248 130.295  1.00  0.00    -0.303 OA
ENDBRANCH  11  12
ENDBRANCH  10  11
ENDBRANCH   9  10
ENDBRANCH   8   9
ENDBRANCH   1   8
TORSDOF 10
ENDMDL
MODEL 2
REMARK VINA RESULT:    -1.794      1.696      2.108
REMARK INTER + INTRA:          -3.863
REMARK INTER:                  -2.483
REMARK INTRA:                  -1.380
REMARK UNBOUND:                -1.020
REMARK SMILES CCCCCCCCCCCC=O
REMARK SMILES IDX 7 1 6 2 5 3 4 4 3 5 2 6 1 7 8 8 9 9 10 10 11 11 12 12 13 13
REMARK H PARENT
REMARK Flexibility Score: inf
ROOT
ATOM      1  C   UNL     1     124.667 110.138 135.942  1.00  0.00     0.000 C 
ENDROOT
BRANCH   1   2
ATOM      2  C   UNL     1     125.853 109.745 136.832  1.00  0.00     0.000 C 
BRANCH   2   3
ATOM      3  C   UNL     1     125.557 110.041 138.307  1.00  0.00    -0.000 C 
BRANCH   3   4
ATOM      4  C   UNL     1     125.786 111.524 138.628  1.00  0.00    -0.000 C 
BRANCH   4   5
ATOM      5  C   UNL     1     127.086 112.077 138.015  1.00  0.00    -0.000 C 
BRANCH   5   6
ATOM      6  C   UNL     1     126.910 113.342 137.158  1.00  0.00    -0.003 C 
ATOM      7  C   UNL     1     125.447 113.756 136.995  1.00  0.00     0.004 C 
ENDBRANCH   5   6
ENDBRANCH   4   5
ENDBRANCH   3   4
ENDBRANCH   2   3
ENDBRANCH   1   2
BRANCH   1   8
ATOM      8  C   UNL     1     125.150 110.819 134.653  1.00  0.00     0.000 C 
BRANCH   8   9
ATOM      9  C   UNL     1     126.678 110.761 134.488  1.00  0.00     0.000 C 
BRANCH   9  10
ATOM     10  C   UNL     1     127.109 109.993 133.229  1.00  0.00     0.008 C 
BRANCH  10  11
ATOM     11  C   UNL     1     127.125 108.482 133.486  1.00  0.00     0.072 C 
BRANCH  11  12
ATOM     12  C   UNL     1     126.249 107.755 132.510  1.00  0.00     0.224 C 
ATOM     13  O   UNL     1     125.125 107.412 132.838  1.00  0.00    -0.303 OA
ENDBRANCH  11  12
ENDBRANCH  10  11
ENDBRANCH   9  10
ENDBRANCH   8   9
ENDBRANCH   1   8
TORSDOF 10
ENDMDL
MODEL 3
REMARK VINA RESULT:    -1.731      2.531      4.757
REMARK INTER + INTRA:          -3.763
REMARK INTER:                  -2.215
REMARK INTRA:                  -1.548
REMARK UNBOUND:                -1.020
REMARK SMILES CCCCCCCCCCCC=O
REMARK SMILES IDX 7 1 6 2 5 3 4 4 3 5 2 6 1 7 8 8 9 9 10 10 11 11 12 12 13 13
REMARK H PARENT
REMARK Flexibility Score: inf
ROOT
ATOM      1  C   UNL     1     124.797 107.888 137.047  1.00  0.00     0.000 C 
ENDROOT
BRANCH   1   2
ATOM      2  C   UNL     1     123.833 108.979 136.565  1.00  0.00     0.000 C 
BRANCH   2   3
ATOM      3  C   UNL     1     123.983 109.222 135.058  1.00  0.00    -0.000 C 
BRANCH   3   4
ATOM      4  C   UNL     1     124.491 110.643 134.778  1.00  0.00    -0.000 C 
BRANCH   4   5
ATOM      5  C   UNL     1     125.810 110.664 133.982  1.00  0.00    -0.000 C 
BRANCH   5   6
ATOM      6  C   UNL     1     126.790 109.529 134.326  1.00  0.00    -0.003 C 
ATOM      7  C   UNL     1     127.125 108.643 133.127  1.00  0.00     0.004 C 
ENDBRANCH   5   6
ENDBRANCH   4   5
ENDBRANCH   3   4
ENDBRANCH   2   3
ENDBRANCH   1   2
BRANCH   1   8
ATOM      8  C   UNL     1     125.976 108.498 137.818  1.00  0.00     0.000 C 
BRANCH   8   9
ATOM      9  C   UNL     1     125.689 109.928 138.307  1.00  0.00     0.000 C 
BRANCH   9  10
ATOM     10  C   UNL     1     126.757 110.934 137.853  1.00  0.00     0.008 C 
BRANCH  10  11
ATOM     11  C   UNL     1     126.137 112.312 137.592  1.00  0.00     0.072 C 
BRANCH  11  12
ATOM     12  C   UNL     1     126.964 113.107 136.626  1.00  0.00     0.224 C 
ATOM     13  O   UNL     1     126.420 113.719 135.721  1.00  0.00    -0.303 OA
ENDBRANCH  11  12
ENDBRANCH  10  11
ENDBRANCH   9  10
ENDBRANCH   8   9
ENDBRANCH   1   8
TORSDOF 10
ENDMDL
MODEL 4
REMARK VINA RESULT:    -1.726      1.596      2.934
REMARK INTER + INTRA:          -3.754
REMARK INTER:                  -2.103
REMARK INTRA:                  -1.651
REMARK UNBOUND:                -1.020
REMARK SMILES CCCCCCCCCCCC=O
REMARK SMILES IDX 7 1 6 2 5 3 4 4 3 5 2 6 1 7 8 8 9 9 10 10 11 11 12 12 13 13
REMARK H PARENT
REMARK Flexibility Score: inf
ROOT
ATOM      1  C   UNL     1     123.625 110.127 135.537  1.00  0.00     0.000 C 
ENDROOT
BRANCH   1   2
ATOM      2  C   UNL     1     123.619 111.344 134.604  1.00  0.00     0.000 C 
BRANCH   2   3
ATOM      3  C   UNL     1     124.513 112.463 135.152  1.00  0.00    -0.000 C 
BRANCH   3   4
ATOM      4  C   UNL     1     124.833 112.236 136.636  1.00  0.00    -0.000 C 
BRANCH   4   5
ATOM      5  C   UNL     1     126.296 112.560 136.992  1.00  0.00    -0.000 C 
BRANCH   5   6
ATOM      6  C   UNL     1     127.064 111.413 137.671  1.00  0.00    -0.003 C 
ATOM      7  C   UNL     1     126.171 110.523 138.535  1.00  0.00     0.004 C 
ENDBRANCH   5   6
ENDBRANCH   4   5
ENDBRANCH   3   4
ENDBRANCH   2   3
ENDBRANCH   1   2
BRANCH   1   8
ATOM      8  C   UNL     1     124.347 108.939 134.886  1.00  0.00     0.000 C 
BRANCH   8   9
ATOM      9  C   UNL     1     125.834 108.866 135.271  1.00  0.00     0.000 C 
BRANCH   9  10
ATOM     10  C   UNL     1     126.765 108.949 134.052  1.00  0.00     0.008 C 
BRANCH  10  11
ATOM     11  C   UNL     1     127.124 110.405 133.735  1.00  0.00     0.072 C 
BRANCH  11  12
ATOM     12  C   UNL     1     126.722 110.773 132.337  1.00  0.00     0.224 C 
ATOM     13  O   UNL     1     125.625 110.446 131.914  1.00  0.00    -0.303 OA
ENDBRANCH  11  12
ENDBRANCH  10  11
ENDBRANCH   9  10
ENDBRANCH   8   9
ENDBRANCH   1   8
TORSDOF 10
ENDMDL
MODEL 5
REMARK VINA RESULT:    -1.685      2.977      5.397
REMARK INTER + INTRA:          -3.690
REMARK INTER:                  -2.666
REMARK INTRA:                  -1.025
REMARK UNBOUND:                -1.020
REMARK SMILES CCCCCCCCCCCC=O
REMARK SMILES IDX 7 1 6 2 5 3 4 4 3 5 2 6 1 7 8 8 9 9 10 10 11 11 12 12 13 13
REMARK H PARENT
REMARK Flexibility Score: inf
ROOT
ATOM      1  C   UNL     1     124.579 109.279 137.269  1.00  0.00     0.000 C 
ENDROOT
BRANCH   1   2
ATOM      2  C   UNL     1     124.605 108.199 136.181  1.00  0.00     0.000 C 
BRANCH   2   3
ATOM      3  C   UNL     1     125.947 107.457 136.172  1.00  0.00    -0.000 C 
BRANCH   3   4
ATOM      4  C   UNL     1     126.324 107.020 134.750  1.00  0.00    -0.000 C 
BRANCH   4   5
ATOM      5  C   UNL     1     126.088 108.122 133.701  1.00  0.00    -0.000 C 
BRANCH   5   6
ATOM      6  C   UNL     1     127.125 109.258 133.711  1.00  0.00    -0.003 C 
ATOM      7  C   UNL     1     126.517 110.627 133.406  1.00  0.00     0.004 C 
ENDBRANCH   5   6
ENDBRANCH   4   5
ENDBRANCH   3   4
ENDBRANCH   2   3
ENDBRANCH   1   2
BRANCH   1   8
ATOM      8  C   UNL     1     126.003 109.720 137.640  1.00  0.00     0.000 C 
BRANCH   8   9
ATOM      9  C   UNL     1     126.379 111.082 137.034  1.00  0.00     0.000 C 
BRANCH   9  10
ATOM     10  C   UNL     1     127.095 111.999 138.037  1.00  0.00     0.008 C 
BRANCH  10  11
ATOM     11  C   UNL     1     126.100 112.934 138.733  1.00  0.00     0.072 C 
BRANCH  11  12
ATOM     12  C   UNL     1     126.329 114.363 138.340  1.00  0.00     0.224 C 
ATOM     13  O   UNL     1     126.249 114.691 137.167  1.00  0.00    -0.303 OA
ENDBRANCH  11  12
ENDBRANCH  10  11
ENDBRANCH   9  10
ENDBRANCH   8   9
ENDBRANCH   1   8
TORSDOF 10
ENDMDL
MODEL 6
REMARK VINA RESULT:    -1.672      2.749      4.327
REMARK INTER + INTRA:          -3.669
REMARK INTER:                  -1.991
REMARK INTRA:                  -1.678
REMARK UNBOUND:                -1.020
REMARK SMILES CCCCCCCCCCCC=O
REMARK SMILES IDX 7 1 6 2 5 3 4 4 3 5 2 6 1 7 8 8 9 9 10 10 11 11 12 12 13 13
REMARK H PARENT
REMARK Flexibility Score: inf
ROOT
ATOM      1  C   UNL     1     124.872 109.775 132.572  1.00  0.00     0.000 C 
ENDROOT
BRANCH   1   2
ATOM      2  C   UNL     1     123.627 109.231 133.282  1.00  0.00     0.000 C 
BRANCH   2   3
ATOM      3  C   UNL     1     123.498 109.814 134.694  1.00  0.00    -0.000 C 
BRANCH   3   4
ATOM      4  C   UNL     1     123.678 108.723 135.759  1.00  0.00    -0.000 C 
BRANCH   4   5
ATOM      5  C   UNL     1     124.656 109.131 136.877  1.00  0.00    -0.000 C 
BRANCH   5   6
ATOM      6  C   UNL     1     125.910 108.246 136.994  1.00  0.00    -0.003 C 
ATOM      7  C   UNL     1     125.840 106.992 136.123  1.00  0.00     0.004 C 
ENDBRANCH   5   6
ENDBRANCH   4   5
ENDBRANCH   3   4
ENDBRANCH   2   3
ENDBRANCH   1   2
BRANCH   1   8
ATOM      8  C   UNL     1     126.103 108.911 132.881  1.00  0.00     0.000 C 
BRANCH   8   9
ATOM      9  C   UNL     1     127.125 109.634 133.775  1.00  0.00     0.000 C 
BRANCH   9  10
ATOM     10  C   UNL     1     126.907 111.154 133.813  1.00  0.00     0.008 C 
BRANCH  10  11
ATOM     11  C   UNL     1     126.866 111.666 135.257  1.00  0.00     0.072 C 
BRANCH  11  12
ATOM     12  C   UNL     1     125.849 112.758 135.418  1.00  0.00     0.224 C 
ATOM     13  O   UNL     1     125.034 112.700 136.325  1.00  0.00    -0.303 OA
ENDBRANCH  11  12
ENDBRANCH  10  11
ENDBRANCH   9  10
ENDBRANCH   8   9
ENDBRANCH   1   8
TORSDOF 10
ENDMDL
MODEL 7
REMARK VINA RESULT:    -1.645      3.032      5.693
REMARK INTER + INTRA:          -3.626
REMARK INTER:                  -2.214
REMARK INTRA:                  -1.411
REMARK UNBOUND:                -1.020
REMARK SMILES CCCCCCCCCCCC=O
REMARK SMILES IDX 7 1 6 2 5 3 4 4 3 5 2 6 1 7 8 8 9 9 10 10 11 11 12 12 13 13
REMARK H PARENT
REMARK Flexibility Score: inf
ROOT
ATOM      1  C   UNL     1     126.752 110.530 134.537  1.00  0.00     0.000 C 
ENDROOT
BRANCH   1   2
ATOM      2  C   UNL     1     127.095 110.159 133.089  1.00  0.00     0.000 C 
BRANCH   2   3
ATOM      3  C   UNL     1     127.125 108.638 132.901  1.00  0.00    -0.000 C 
BRANCH   3   4
ATOM      4  C   UNL     1     126.583 107.919 134.144  1.00  0.00    -0.000 C 
BRANCH   4   5
ATOM      5  C   UNL     1     125.343 107.056 133.846  1.00  0.00    -0.000 C 
BRANCH   5   6
ATOM      6  C   UNL     1     124.006 107.668 134.297  1.00  0.00    -0.003 C 
ATOM      7  C   UNL     1     123.393 108.603 133.255  1.00  0.00     0.004 C 
ENDBRANCH   5   6
ENDBRANCH   4   5
ENDBRANCH   3   4
ENDBRANCH   2   3
ENDBRANCH   1   2
BRANCH   1   8
ATOM      8  C   UNL     1     125.550 111.484 134.590  1.00  0.00     0.000 C 
BRANCH   8   9
ATOM      9  C   UNL     1     124.584 111.156 135.741  1.00  0.00     0.000 C 
BRANCH   9  10
ATOM     10  C   UNL     1     125.157 110.119 136.718  1.00  0.00     0.008 C 
BRANCH  10  11
ATOM     11  C   UNL     1     125.281 110.705 138.129  1.00  0.00     0.072 C 
BRANCH  11  12
ATOM     12  C   UNL     1     125.326 112.204 138.094  1.00  0.00     0.224 C 
ATOM     13  O   UNL     1     126.310 112.793 138.513  1.00  0.00    -0.303 OA
ENDBRANCH  11  12
ENDBRANCH  10  11
ENDBRANCH   9  10
ENDBRANCH   8   9
ENDBRANCH   1   8
TORSDOF 10
ENDMDL
MODEL 8
REMARK VINA RESULT:    -1.458      1.247      2.789
REMARK INTER + INTRA:          -3.330
REMARK INTER:                  -2.263
REMARK INTRA:                  -1.067
REMARK UNBOUND:                -1.020
REMARK SMILES CCCCCCCCCCCC=O
REMARK SMILES IDX 7 1 6 2 5 3 4 4 3 5 2 6 1 7 8 8 9 9 10 10 11 11 12 12 13 13
REMARK H PARENT
REMARK Flexibility Score: inf
ROOT
ATOM      1  C   UNL     1     126.226 111.046 134.545  1.00  0.00     0.000 C 
ENDROOT
BRANCH   1   2
ATOM      2  C   UNL     1     127.065 111.918 135.487  1.00  0.00     0.000 C 
BRANCH   2   3
ATOM      3  C   UNL     1     126.364 112.104 136.839  1.00  0.00    -0.000 C 
BRANCH   3   4
ATOM      4  C   UNL     1     127.125 111.378 137.957  1.00  0.00    -0.000 C 
BRANCH   4   5
ATOM      5  C   UNL     1     126.278 110.299 138.657  1.00  0.00    -0.000 C 
BRANCH   5   6
ATOM      6  C   UNL     1     126.020 109.035 137.819  1.00  0.00    -0.003 C 
ATOM      7  C   UNL     1     124.555 108.877 137.410  1.00  0.00     0.004 C 
ENDBRANCH   5   6
ENDBRANCH   4   5
ENDBRANCH   3   4
ENDBRANCH   2   3
ENDBRANCH   1   2
BRANCH   1   8
ATOM      8  C   UNL     1     127.125 110.165 133.667  1.00  0.00     0.000 C 
BRANCH   8   9
ATOM      9  C   UNL     1     126.869 108.663 133.875  1.00  0.00     0.000 C 
BRANCH   9  10
ATOM     10  C   UNL     1     125.372 108.318 133.918  1.00  0.00     0.008 C 
BRANCH  10  11
ATOM     11  C   UNL     1     124.886 107.819 132.553  1.00  0.00     0.072 C 
BRANCH  11  12
ATOM     12  C   UNL     1     125.942 107.011 131.860  1.00  0.00     0.224 C 
ATOM     13  O   UNL     1     126.258 107.278 130.712  1.00  0.00    -0.303 OA
ENDBRANCH  11  12
ENDBRANCH  10  11
ENDBRANCH   9  10
ENDBRANCH   8   9
ENDBRANCH   1   8
TORSDOF 10
ENDMDL
