MODEL 1
REMARK VINA RESULT:    -4.931      0.000      0.000
REMARK INTER + INTRA:          -6.338
REMARK INTER:                  -6.084
REMARK INTRA:                  -0.254
REMARK UNBOUND:                -0.254
REMARK SMILES [NH3+][C@H](Cc1ccc(O)cc1)C(=O)[O-]
REMARK SMILES IDX 3 1 2 2 1 3 11 7 12 8 13 9 4 10 5 11 10 12 6 13 9 14 7 15
REMARK SMILES IDX 8 16
REMARK H PARENT 1 4 1 5 1 6 8 17
REMARK Flexibility Score: inf
ROOT
ATOM      1  C   UNL     1      21.374  -3.285  -0.241  1.00  0.00     0.107 C 
ENDROOT
BRANCH   1   2
ATOM      2  C   UNL     1      22.827  -3.492  -0.717  1.00  0.00     0.232 C 
BRANCH   2   3
ATOM      3  N   UNL     1      22.970  -3.087  -2.120  1.00  0.00    -0.350 N 
ATOM      4  H   UNL     1      22.086  -2.651  -2.471  1.00  0.00     0.345 HD
ATOM      5  H   UNL     1      23.753  -2.400  -2.214  1.00  0.00     0.345 HD
ATOM      6  H   UNL     1      23.196  -3.922  -2.708  1.00  0.00     0.345 HD
ENDBRANCH   2   3
BRANCH   2   7
ATOM      7  C   UNL     1      23.791  -2.717   0.145  1.00  0.00     0.099 C 
ATOM      8  O   UNL     1      24.880  -3.238   0.502  1.00  0.00    -0.544 OA
ATOM      9  O   UNL     1      23.477  -1.430   0.566  1.00  0.00    -0.544 OA
ENDBRANCH   2   7
ENDBRANCH   1   2
BRANCH   1  10
ATOM     10  C   UNL     1      21.063  -4.115   0.980  1.00  0.00    -0.041 A 
ATOM     11  C   UNL     1      20.390  -3.547   2.075  1.00  0.00     0.008 A 
ATOM     12  C   UNL     1      21.483  -5.453   1.049  1.00  0.00     0.008 A 
ATOM     13  C   UNL     1      20.130  -4.312   3.215  1.00  0.00     0.046 A 
ATOM     14  C   UNL     1      21.220  -6.217   2.192  1.00  0.00     0.046 A 
ATOM     15  C   UNL     1      20.543  -5.650   3.276  1.00  0.00     0.115 A 
BRANCH  15  16
ATOM     16  O   UNL     1      20.289  -6.422   4.408  1.00  0.00    -0.508 OA
ATOM     17  H   UNL     1      19.564  -7.130   4.414  1.00  0.00     0.293 HD
ENDBRANCH  15  16
ENDBRANCH   1  10
TORSDOF 5
ENDMDL
MODEL 2
REMARK VINA RESULT:    -4.905      2.808      5.272
REMARK INTER + INTRA:          -6.307
REMARK INTER:                  -6.099
REMARK INTRA:                  -0.208
REMARK UNBOUND:                -0.254
REMARK SMILES [NH3+][C@H](Cc1ccc(O)cc1)C(=O)[O-]
REMARK SMILES IDX 3 1 2 2 1 3 11 7 12 8 13 9 4 10 5 11 10 12 6 13 9 14 7 15
REMARK SMILES IDX 8 16
REMARK H PARENT 1 4 1 5 1 6 8 17
REMARK Flexibility Score: inf
ROOT
ATOM      1  C   UNL     1      24.068  -3.113   0.195  1.00  0.00     0.107 C 
ENDROOT
BRANCH   1   2
ATOM      2  C   UNL     1      22.793  -2.856  -0.636  1.00  0.00     0.232 C 
BRANCH   2   3
ATOM      3  N   UNL     1      23.037  -3.147  -2.053  1.00  0.00    -0.350 N 
ATOM      4  H   UNL     1      23.780  -3.876  -2.159  1.00  0.00     0.345 HD
ATOM      5  H   UNL     1      22.156  -3.486  -2.503  1.00  0.00     0.345 HD
ATOM      6  H   UNL     1      23.341  -2.277  -2.546  1.00  0.00     0.345 HD
ENDBRANCH   2   3
BRANCH   2   7
ATOM      7  C   UNL     1      21.643  -3.688  -0.127  1.00  0.00     0.099 C 
ATOM      8  O   UNL     1      20.461  -3.274  -0.251  1.00  0.00    -0.544 OA
ATOM      9  O   UNL     1      21.881  -4.907   0.496  1.00  0.00    -0.544 OA
ENDBRANCH   2   7
ENDBRANCH   1   2
BRANCH   1  10
ATOM     10  C   UNL     1      24.469  -1.897   0.993  1.00  0.00    -0.041 A 
ATOM     11  C   UNL     1      23.730  -0.706   0.897  1.00  0.00     0.008 A 
ATOM     12  C   UNL     1      25.612  -1.933   1.807  1.00  0.00     0.008 A 
ATOM     13  C   UNL     1      24.122   0.426   1.616  1.00  0.00     0.046 A 
ATOM     14  C   UNL     1      26.002  -0.798   2.526  1.00  0.00     0.046 A 
ATOM     15  C   UNL     1      25.259   0.383   2.433  1.00  0.00     0.115 A 
BRANCH  15  16
ATOM     16  O   UNL     1      25.660   1.506   3.154  1.00  0.00    -0.508 OA
ATOM     17  H   UNL     1      25.930   2.365   2.689  1.00  0.00     0.293 HD
ENDBRANCH  15  16
ENDBRANCH   1  10
TORSDOF 5
ENDMDL
MODEL 3
REMARK VINA RESULT:    -4.890      0.290      1.621
REMARK INTER + INTRA:          -6.288
REMARK INTER:                  -6.056
REMARK INTRA:                  -0.232
REMARK UNBOUND:                -0.254
REMARK SMILES [NH3+][C@H](Cc1ccc(O)cc1)C(=O)[O-]
REMARK SMILES IDX 3 1 2 2 1 3 11 7 12 8 13 9 4 10 5 11 10 12 6 13 9 14 7 15
REMARK SMILES IDX 8 16
REMARK H PARENT 1 4 1 5 1 6 8 17
REMARK Flexibility Score: inf
ROOT
ATOM      1  C   UNL     1      21.529  -3.163  -0.116  1.00  0.00     0.107 C 
ENDROOT
BRANCH   1   2
ATOM      2  C   UNL     1      22.950  -3.365  -0.681  1.00  0.00     0.232 C 
BRANCH   2   3
ATOM      3  N   UNL     1      22.981  -3.054  -2.115  1.00  0.00    -0.350 N 
ATOM      4  H   UNL     1      23.865  -3.406  -2.551  1.00  0.00     0.345 HD
ATOM      5  H   UNL     1      22.162  -3.497  -2.593  1.00  0.00     0.345 HD
ATOM      6  H   UNL     1      22.920  -2.020  -2.254  1.00  0.00     0.345 HD
ENDBRANCH   2   3
BRANCH   2   7
ATOM      7  C   UNL     1      23.949  -2.510   0.055  1.00  0.00     0.099 C 
ATOM      8  O   UNL     1      23.808  -1.260   0.090  1.00  0.00    -0.544 OA
ATOM      9  O   UNL     1      25.042  -3.094   0.686  1.00  0.00    -0.544 OA
ENDBRANCH   2   7
ENDBRANCH   1   2
BRANCH   1  10
ATOM     10  C   UNL     1      21.261  -4.069   1.060  1.00  0.00    -0.041 A 
ATOM     11  C   UNL     1      21.472  -5.454   0.954  1.00  0.00     0.008 A 
ATOM     12  C   UNL     1      20.755  -3.540   2.258  1.00  0.00     0.008 A 
ATOM     13  C   UNL     1      21.195  -6.293   2.037  1.00  0.00     0.046 A 
ATOM     14  C   UNL     1      20.479  -4.382   3.340  1.00  0.00     0.046 A 
ATOM     15  C   UNL     1      20.698  -5.759   3.234  1.00  0.00     0.115 A 
BRANCH  15  16
ATOM     16  O   UNL     1      20.418  -6.586   4.319  1.00  0.00    -0.508 OA
ATOM     17  H   UNL     1      20.046  -7.520   4.191  1.00  0.00     0.293 HD
ENDBRANCH  15  16
ENDBRANCH   1  10
TORSDOF 5
ENDMDL
MODEL 4
REMARK VINA RESULT:    -4.772      2.635      4.493
REMARK INTER + INTRA:          -6.142
REMARK INTER:                  -5.990
REMARK INTRA:                  -0.152
REMARK UNBOUND:                -0.254
REMARK SMILES [NH3+][C@H](Cc1ccc(O)cc1)C(=O)[O-]
REMARK SMILES IDX 3 1 2 2 1 3 11 7 12 8 13 9 4 10 5 11 10 12 6 13 9 14 7 15
REMARK SMILES IDX 8 16
REMARK H PARENT 1 4 1 5 1 6 8 17
REMARK Flexibility Score: inf
ROOT
ATOM      1  C   UNL     1      21.423  -4.177   1.444  1.00  0.00     0.107 C 
ENDROOT
BRANCH   1   2
ATOM      2  C   UNL     1      20.819  -3.974   0.039  1.00  0.00     0.232 C 
BRANCH   2   3
ATOM      3  N   UNL     1      20.007  -5.135  -0.344  1.00  0.00    -0.350 N 
ATOM      4  H   UNL     1      19.081  -5.115   0.143  1.00  0.00     0.345 HD
ATOM      5  H   UNL     1      19.851  -5.135  -1.378  1.00  0.00     0.345 HD
ATOM      6  H   UNL     1      20.508  -6.016  -0.089  1.00  0.00     0.345 HD
ENDBRANCH   2   3
BRANCH   2   7
ATOM      7  C   UNL     1      19.985  -2.719  -0.013  1.00  0.00     0.099 C 
ATOM      8  O   UNL     1      19.999  -1.911   0.952  1.00  0.00    -0.544 OA
ATOM      9  O   UNL     1      19.183  -2.455  -1.117  1.00  0.00    -0.544 OA
ENDBRANCH   2   7
ENDBRANCH   1   2
BRANCH   1  10
ATOM     10  C   UNL     1      22.770  -3.510   1.575  1.00  0.00    -0.041 A 
ATOM     11  C   UNL     1      23.124  -2.847   2.762  1.00  0.00     0.008 A 
ATOM     12  C   UNL     1      23.665  -3.510   0.493  1.00  0.00     0.008 A 
ATOM     13  C   UNL     1      24.361  -2.207   2.869  1.00  0.00     0.046 A 
ATOM     14  C   UNL     1      24.903  -2.867   0.603  1.00  0.00     0.046 A 
ATOM     15  C   UNL     1      25.255  -2.216   1.789  1.00  0.00     0.115 A 
BRANCH  15  16
ATOM     16  O   UNL     1      26.491  -1.580   1.884  1.00  0.00    -0.508 OA
ATOM     17  H   UNL     1      26.829  -0.968   1.150  1.00  0.00     0.293 HD
ENDBRANCH  15  16
ENDBRANCH   1  10
TORSDOF 5
ENDMDL
MODEL 5
REMARK VINA RESULT:    -4.691      2.947      4.383
REMARK INTER + INTRA:          -6.042
REMARK INTER:                  -5.862
REMARK INTRA:                  -0.180
REMARK UNBOUND:                -0.254
REMARK SMILES [NH3+][C@H](Cc1ccc(O)cc1)C(=O)[O-]
REMARK SMILES IDX 3 1 2 2 1 3 11 7 12 8 13 9 4 10 5 11 10 12 6 13 9 14 7 15
REMARK SMILES IDX 8 16
REMARK H PARENT 1 4 1 5 1 6 8 17
REMARK Flexibility Score: inf
ROOT
ATOM      1  C   UNL     1      23.680  -3.735   0.058  1.00  0.00     0.107 C 
ENDROOT
BRANCH   1   2
ATOM      2  C   UNL     1      22.555  -2.995  -0.695  1.00  0.00     0.232 C 
BRANCH   2   3
ATOM      3  N   UNL     1      22.809  -3.009  -2.140  1.00  0.00    -0.350 N 
ATOM      4  H   UNL     1      22.128  -2.394  -2.641  1.00  0.00     0.345 HD
ATOM      5  H   UNL     1      23.781  -2.675  -2.333  1.00  0.00     0.345 HD
ATOM      6  H   UNL     1      22.721  -3.985  -2.505  1.00  0.00     0.345 HD
ENDBRANCH   2   3
BRANCH   2   7
ATOM      7  C   UNL     1      21.212  -3.614  -0.400  1.00  0.00     0.099 C 
ATOM      8  O   UNL     1      21.132  -4.828  -0.076  1.00  0.00    -0.544 OA
ATOM      9  O   UNL     1      20.052  -2.854  -0.499  1.00  0.00    -0.544 OA
ENDBRANCH   2   7
ENDBRANCH   1   2
BRANCH   1  10
ATOM     10  C   UNL     1      24.124  -2.977   1.284  1.00  0.00    -0.041 A 
ATOM     11  C   UNL     1      25.333  -2.261   1.280  1.00  0.00     0.008 A 
ATOM     12  C   UNL     1      23.352  -3.017   2.457  1.00  0.00     0.008 A 
ATOM     13  C   UNL     1      25.755  -1.584   2.428  1.00  0.00     0.046 A 
ATOM     14  C   UNL     1      23.777  -2.337   3.604  1.00  0.00     0.046 A 
ATOM     15  C   UNL     1      24.976  -1.620   3.593  1.00  0.00     0.115 A 
BRANCH  15  16
ATOM     16  O   UNL     1      25.387  -0.949   4.742  1.00  0.00    -0.508 OA
ATOM     17  H   UNL     1      25.111  -1.262   5.666  1.00  0.00     0.293 HD
ENDBRANCH  15  16
ENDBRANCH   1  10
TORSDOF 5
ENDMDL
MODEL 6
REMARK VINA RESULT:    -4.648      2.766      3.477
REMARK INTER + INTRA:          -5.989
REMARK INTER:                  -5.813
REMARK INTRA:                  -0.176
REMARK UNBOUND:                -0.254
REMARK SMILES [NH3+][C@H](Cc1ccc(O)cc1)C(=O)[O-]
REMARK SMILES IDX 3 1 2 2 1 3 11 7 12 8 13 9 4 10 5 11 10 12 6 13 9 14 7 15
REMARK SMILES IDX 8 16
REMARK H PARENT 1 4 1 5 1 6 8 17
REMARK Flexibility Score: inf
ROOT
ATOM      1  C   UNL     1      23.449  -1.761   2.132  1.00  0.00     0.107 C 
ENDROOT
BRANCH   1   2
ATOM      2  C   UNL     1      24.859  -2.375   2.009  1.00  0.00     0.232 C 
BRANCH   2   3
ATOM      3  N   UNL     1      25.286  -2.402   0.605  1.00  0.00    -0.350 N 
ATOM      4  H   UNL     1      24.981  -1.534   0.108  1.00  0.00     0.345 HD
ATOM      5  H   UNL     1      26.328  -2.480   0.552  1.00  0.00     0.345 HD
ATOM      6  H   UNL     1      24.872  -3.233   0.125  1.00  0.00     0.345 HD
ENDBRANCH   2   3
BRANCH   2   7
ATOM      7  C   UNL     1      25.856  -1.605   2.838  1.00  0.00     0.099 C 
ATOM      8  O   UNL     1      25.968  -1.838   4.070  1.00  0.00    -0.544 OA
ATOM      9  O   UNL     1      26.644  -0.621   2.252  1.00  0.00    -0.544 OA
ENDBRANCH   2   7
ENDBRANCH   1   2
BRANCH   1  10
ATOM     10  C   UNL     1      22.399  -2.645   1.507  1.00  0.00    -0.041 A 
ATOM     11  C   UNL     1      22.316  -4.005   1.850  1.00  0.00     0.008 A 
ATOM     12  C   UNL     1      21.521  -2.124   0.543  1.00  0.00     0.008 A 
ATOM     13  C   UNL     1      21.359  -4.826   1.246  1.00  0.00     0.046 A 
ATOM     14  C   UNL     1      20.564  -2.949  -0.059  1.00  0.00     0.046 A 
ATOM     15  C   UNL     1      20.480  -4.299   0.291  1.00  0.00     0.115 A 
BRANCH  15  16
ATOM     16  O   UNL     1      19.523  -5.109  -0.317  1.00  0.00    -0.508 OA
ATOM     17  H   UNL     1      18.611  -5.255   0.100  1.00  0.00     0.293 HD
ENDBRANCH  15  16
ENDBRANCH   1  10
TORSDOF 5
ENDMDL
MODEL 7
REMARK VINA RESULT:    -4.563      2.861      3.707
REMARK INTER + INTRA:          -5.885
REMARK INTER:                  -5.661
REMARK INTRA:                  -0.223
REMARK UNBOUND:                -0.254
REMARK SMILES [NH3+][C@H](Cc1ccc(O)cc1)C(=O)[O-]
REMARK SMILES IDX 3 1 2 2 1 3 11 7 12 8 13 9 4 10 5 11 10 12 6 13 9 14 7 15
REMARK SMILES IDX 8 16
REMARK H PARENT 1 4 1 5 1 6 8 17
REMARK Flexibility Score: inf
ROOT
ATOM      1  C   UNL     1      24.877  -2.041   0.996  1.00  0.00     0.107 C 
ENDROOT
BRANCH   1   2
ATOM      2  C   UNL     1      25.333  -1.295   2.267  1.00  0.00     0.232 C 
BRANCH   2   3
ATOM      3  N   UNL     1      26.781  -1.437   2.454  1.00  0.00    -0.350 N 
ATOM      4  H   UNL     1      27.113  -0.840   3.247  1.00  0.00     0.345 HD
ATOM      5  H   UNL     1      27.018  -2.436   2.654  1.00  0.00     0.345 HD
ATOM      6  H   UNL     1      27.280  -1.151   1.581  1.00  0.00     0.345 HD
ENDBRANCH   2   3
BRANCH   2   7
ATOM      7  C   UNL     1      24.961   0.164   2.197  1.00  0.00     0.099 C 
ATOM      8  O   UNL     1      24.051   0.548   1.417  1.00  0.00    -0.544 OA
ATOM      9  O   UNL     1      25.631   1.097   2.980  1.00  0.00    -0.544 OA
ENDBRANCH   2   7
ENDBRANCH   1   2
BRANCH   1  10
ATOM     10  C   UNL     1      23.715  -2.962   1.275  1.00  0.00    -0.041 A 
ATOM     11  C   UNL     1      23.116  -3.689   0.233  1.00  0.00     0.008 A 
ATOM     12  C   UNL     1      23.193  -3.065   2.575  1.00  0.00     0.008 A 
ATOM     13  C   UNL     1      22.021  -4.519   0.492  1.00  0.00     0.046 A 
ATOM     14  C   UNL     1      22.097  -3.896   2.831  1.00  0.00     0.046 A 
ATOM     15  C   UNL     1      21.509  -4.625   1.792  1.00  0.00     0.115 A 
BRANCH  15  16
ATOM     16  O   UNL     1      20.418  -5.448   2.061  1.00  0.00    -0.508 OA
ATOM     17  H   UNL     1      19.994  -5.482   2.982  1.00  0.00     0.293 HD
ENDBRANCH  15  16
ENDBRANCH   1  10
TORSDOF 5
ENDMDL
MODEL 8
REMARK VINA RESULT:    -4.440     14.882     15.491
REMARK INTER + INTRA:          -5.733
REMARK INTER:                  -5.546
REMARK INTRA:                  -0.187
REMARK UNBOUND:                -0.254
REMARK SMILES [NH3+][C@H](Cc1ccc(O)cc1)C(=O)[O-]
REMARK SMILES IDX 3 1 2 2 1 3 11 7 12 8 13 9 4 10 5 11 10 12 6 13 9 14 7 15
REMARK SMILES IDX 8 16
REMARK H PARENT 1 4 1 5 1 6 8 17
REMARK Flexibility Score: inf
ROOT
ATOM      1  C   UNL     1      32.399  -4.112  12.899  1.00  0.00     0.107 C 
ENDROOT
BRANCH   1   2
ATOM      2  C   UNL     1      33.315  -3.246  12.010  1.00  0.00     0.232 C 
BRANCH   2   3
ATOM      3  N   UNL     1      34.653  -3.139  12.602  1.00  0.00    -0.350 N 
ATOM      4  H   UNL     1      34.893  -4.008  13.133  1.00  0.00     0.345 HD
ATOM      5  H   UNL     1      35.364  -2.989  11.850  1.00  0.00     0.345 HD
ATOM      6  H   UNL     1      34.688  -2.321  13.252  1.00  0.00     0.345 HD
ENDBRANCH   2   3
BRANCH   2   7
ATOM      7  C   UNL     1      33.409  -3.816  10.617  1.00  0.00     0.099 C 
ATOM      8  O   UNL     1      33.469  -3.048   9.622  1.00  0.00    -0.544 OA
ATOM      9  O   UNL     1      33.414  -5.192  10.422  1.00  0.00    -0.544 OA
ENDBRANCH   2   7
ENDBRANCH   1   2
BRANCH   1  10
ATOM     10  C   UNL     1      31.245  -3.316  13.455  1.00  0.00    -0.041 A 
ATOM     11  C   UNL     1      30.665  -2.281  12.703  1.00  0.00     0.008 A 
ATOM     12  C   UNL     1      30.768  -3.575  14.751  1.00  0.00     0.008 A 
ATOM     13  C   UNL     1      29.615  -1.527  13.235  1.00  0.00     0.046 A 
ATOM     14  C   UNL     1      29.717  -2.819  15.280  1.00  0.00     0.046 A 
ATOM     15  C   UNL     1      29.138  -1.795  14.525  1.00  0.00     0.115 A 
BRANCH  15  16
ATOM     16  O   UNL     1      28.092  -1.050  15.065  1.00  0.00    -0.508 OA
ATOM     17  H   UNL     1      27.828  -0.150  14.678  1.00  0.00     0.293 HD
ENDBRANCH  15  16
ENDBRANCH   1  10
TORSDOF 5
ENDMDL
MODEL 9
REMARK VINA RESULT:    -4.393     16.443     17.372
REMARK INTER + INTRA:          -5.674
REMARK INTER:                  -5.494
REMARK INTRA:                  -0.181
REMARK UNBOUND:                -0.254
REMARK SMILES [NH3+][C@H](Cc1ccc(O)cc1)C(=O)[O-]
REMARK SMILES IDX 3 1 2 2 1 3 11 7 12 8 13 9 4 10 5 11 10 12 6 13 9 14 7 15
REMARK SMILES IDX 8 16
REMARK H PARENT 1 4 1 5 1 6 8 17
REMARK Flexibility Score: inf
ROOT
ATOM      1  C   UNL     1      22.333   6.502  15.272  1.00  0.00     0.107 C 
ENDROOT
BRANCH   1   2
ATOM      2  C   UNL     1      22.451   7.895  14.621  1.00  0.00     0.232 C 
BRANCH   2   3
ATOM      3  N   UNL     1      22.297   8.948  15.632  1.00  0.00    -0.350 N 
ATOM      4  H   UNL     1      23.190   9.089  16.159  1.00  0.00     0.345 HD
ATOM      5  H   UNL     1      22.025   9.847  15.170  1.00  0.00     0.345 HD
ATOM      6  H   UNL     1      21.542   8.685  16.305  1.00  0.00     0.345 HD
ENDBRANCH   2   3
BRANCH   2   7
ATOM      7  C   UNL     1      23.772   8.048  13.912  1.00  0.00     0.099 C 
ATOM      8  O   UNL     1      24.711   7.243  14.144  1.00  0.00    -0.544 OA
ATOM      9  O   UNL     1      23.967   9.088  13.010  1.00  0.00    -0.544 OA
ENDBRANCH   2   7
ENDBRANCH   1   2
BRANCH   1  10
ATOM     10  C   UNL     1      20.947   5.926  15.114  1.00  0.00    -0.041 A 
ATOM     11  C   UNL     1      20.439   5.634  13.837  1.00  0.00     0.008 A 
ATOM     12  C   UNL     1      20.136   5.718  16.241  1.00  0.00     0.008 A 
ATOM     13  C   UNL     1      19.144   5.128  13.693  1.00  0.00     0.046 A 
ATOM     14  C   UNL     1      18.841   5.211  16.093  1.00  0.00     0.046 A 
ATOM     15  C   UNL     1      18.342   4.914  14.822  1.00  0.00     0.115 A 
BRANCH  15  16
ATOM     16  O   UNL     1      17.050   4.410  14.690  1.00  0.00    -0.508 OA
ATOM     17  H   UNL     1      16.861   3.570  14.155  1.00  0.00     0.293 HD
ENDBRANCH  15  16
ENDBRANCH   1  10
TORSDOF 5
ENDMDL
