MODEL 1
REMARK VINA RESULT:    -3.551      0.000      0.000
REMARK INTER + INTRA:          -5.465
REMARK INTER:                  -4.901
REMARK INTRA:                  -0.564
REMARK UNBOUND:                -0.564
REMARK SMILES CCCCCCCCO
REMARK SMILES IDX 5 1 4 2 3 3 2 4 1 5 6 6 7 7 8 8 9 9
REMARK H PARENT 9 10
REMARK Flexibility Score: inf
ROOT
ATOM      1  C   UNL     1       9.000 -23.956  52.244  1.00  0.00     0.000 C 
ENDROOT
BRANCH   1   2
ATOM      2  C   UNL     1       8.369 -23.104  53.356  1.00  0.00    -0.000 C 
BRANCH   2   3
ATOM      3  C   UNL     1       9.416 -22.350  54.192  1.00  0.00    -0.000 C 
BRANCH   3   4
ATOM      4  C   UNL     1       9.163 -22.469  55.702  1.00  0.00    -0.003 C 
ATOM      5  C   UNL     1       7.874 -23.236  55.985  1.00  0.00     0.004 C 
ENDBRANCH   3   4
ENDBRANCH   2   3
ENDBRANCH   1   2
BRANCH   1   6
ATOM      6  C   UNL     1       8.366 -25.351  52.195  1.00  0.00     0.002 C 
BRANCH   6   7
ATOM      7  C   UNL     1       8.409 -26.023  53.573  1.00  0.00     0.028 C 
BRANCH   7   8
ATOM      8  C   UNL     1       9.835 -26.398  53.986  1.00  0.00     0.156 C 
BRANCH   8   9
ATOM      9  O   UNL     1      10.184 -25.773  55.193  1.00  0.00    -0.396 OA
ATOM     10  H   UNL     1      11.002 -26.227  55.526  1.00  0.00     0.210 HD
ENDBRANCH   8   9
ENDBRANCH   7   8
ENDBRANCH   6   7
ENDBRANCH   1   6
TORSDOF 7
ENDMDL
MODEL 2
REMARK VINA RESULT:    -3.453      2.179      4.530
REMARK INTER + INTRA:          -5.330
REMARK INTER:                  -5.008
REMARK INTRA:                  -0.322
REMARK UNBOUND:                -0.564
REMARK SMILES CCCCCCCCO
REMARK SMILES IDX 5 1 4 2 3 3 2 4 1 5 6 6 7 7 8 8 9 9
REMARK H PARENT 9 10
REMARK Flexibility Score: inf
ROOT
ATOM      1  C   UNL     1       9.307 -25.437  54.092  1.00  0.00     0.000 C 
ENDROOT
BRANCH   1   2
ATOM      2  C   UNL     1       8.194 -26.191  53.348  1.00  0.00    -0.000 C 
BRANCH   2   3
ATOM      3  C   UNL     1       8.263 -25.997  51.825  1.00  0.00    -0.000 C 
BRANCH   3   4
ATOM      4  C   UNL     1       9.243 -26.968  51.149  1.00  0.00    -0.003 C 
ATOM      5  C   UNL     1       8.910 -28.416  51.499  1.00  0.00     0.004 C 
ENDBRANCH   3   4
ENDBRANCH   2   3
ENDBRANCH   1   2
BRANCH   1   6
ATOM      6  C   UNL     1       8.718 -24.408  55.065  1.00  0.00     0.002 C 
BRANCH   6   7
ATOM      7  C   UNL     1       9.026 -22.978  54.605  1.00  0.00     0.028 C 
BRANCH   7   8
ATOM      8  C   UNL     1       8.129 -22.542  53.443  1.00  0.00     0.156 C 
BRANCH   8   9
ATOM      9  O   UNL     1       6.790 -22.880  53.694  1.00  0.00    -0.396 OA
ATOM     10  H   UNL     1       6.768 -23.332  54.578  1.00  0.00     0.210 HD
ENDBRANCH   8   9
ENDBRANCH   7   8
ENDBRANCH   6   7
ENDBRANCH   1   6
TORSDOF 7
ENDMDL
MODEL 3
REMARK VINA RESULT:    -3.446      2.209      4.535
REMARK INTER + INTRA:          -5.320
REMARK INTER:                  -4.755
REMARK INTRA:                  -0.565
REMARK UNBOUND:                -0.564
REMARK SMILES CCCCCCCCO
REMARK SMILES IDX 5 1 4 2 3 3 2 4 1 5 6 6 7 7 8 8 9 9
REMARK H PARENT 9 10
REMARK Flexibility Score: inf
ROOT
ATOM      1  C   UNL     1       8.583 -27.825  51.607  1.00  0.00     0.000 C 
ENDROOT
BRANCH   1   2
ATOM      2  C   UNL     1      10.065 -28.075  51.289  1.00  0.00    -0.000 C 
BRANCH   2   3
ATOM      3  C   UNL     1      10.723 -29.061  52.267  1.00  0.00    -0.000 C 
BRANCH   3   4
ATOM      4  C   UNL     1      11.253 -28.372  53.534  1.00  0.00    -0.003 C 
ATOM      5  C   UNL     1      10.501 -28.850  54.773  1.00  0.00     0.004 C 
ENDBRANCH   3   4
ENDBRANCH   2   3
ENDBRANCH   1   2
BRANCH   1   6
ATOM      6  C   UNL     1       8.331 -26.346  51.923  1.00  0.00     0.002 C 
BRANCH   6   7
ATOM      7  C   UNL     1       8.276 -26.110  53.438  1.00  0.00     0.028 C 
BRANCH   7   8
ATOM      8  C   UNL     1       9.318 -25.086  53.897  1.00  0.00     0.156 C 
BRANCH   8   9
ATOM      9  O   UNL     1       9.767 -25.382  55.194  1.00  0.00    -0.396 OA
ATOM     10  H   UNL     1       9.119 -26.026  55.583  1.00  0.00     0.210 HD
ENDBRANCH   8   9
ENDBRANCH   7   8
ENDBRANCH   6   7
ENDBRANCH   1   6
TORSDOF 7
ENDMDL
MODEL 4
REMARK VINA RESULT:    -3.421      2.021      4.392
REMARK INTER + INTRA:          -5.285
REMARK INTER:                  -5.024
REMARK INTRA:                  -0.262
REMARK UNBOUND:                -0.564
REMARK SMILES CCCCCCCCO
REMARK SMILES IDX 5 1 4 2 3 3 2 4 1 5 6 6 7 7 8 8 9 9
REMARK H PARENT 9 10
REMARK Flexibility Score: inf
ROOT
ATOM      1  C   UNL     1       8.294 -24.393  52.930  1.00  0.00     0.000 C 
ENDROOT
BRANCH   1   2
ATOM      2  C   UNL     1       8.249 -25.499  51.865  1.00  0.00    -0.000 C 
BRANCH   2   3
ATOM      3  C   UNL     1       8.313 -26.910  52.472  1.00  0.00    -0.000 C 
BRANCH   3   4
ATOM      4  C   UNL     1       8.974 -27.929  51.532  1.00  0.00    -0.003 C 
ATOM      5  C   UNL     1       9.770 -27.227  50.435  1.00  0.00     0.004 C 
ENDBRANCH   3   4
ENDBRANCH   2   3
ENDBRANCH   1   2
BRANCH   1   6
ATOM      6  C   UNL     1       8.911 -24.912  54.235  1.00  0.00     0.002 C 
BRANCH   6   7
ATOM      7  C   UNL     1       8.517 -24.023  55.421  1.00  0.00     0.028 C 
BRANCH   7   8
ATOM      8  C   UNL     1       9.340 -22.733  55.470  1.00  0.00     0.156 C 
BRANCH   8   9
ATOM      9  O   UNL     1       9.707 -22.426  56.789  1.00  0.00    -0.396 OA
ATOM     10  H   UNL     1      10.327 -21.652  56.744  1.00  0.00     0.210 HD
ENDBRANCH   8   9
ENDBRANCH   7   8
ENDBRANCH   6   7
ENDBRANCH   1   6
TORSDOF 7
ENDMDL
MODEL 5
REMARK VINA RESULT:    -3.384      2.564      4.988
REMARK INTER + INTRA:          -5.235
REMARK INTER:                  -4.892
REMARK INTRA:                  -0.343
REMARK UNBOUND:                -0.564
REMARK SMILES CCCCCCCCO
REMARK SMILES IDX 5 1 4 2 3 3 2 4 1 5 6 6 7 7 8 8 9 9
REMARK H PARENT 9 10
REMARK Flexibility Score: inf
ROOT
ATOM      1  C   UNL     1       8.921 -26.574  53.277  1.00  0.00     0.000 C 
ENDROOT
BRANCH   1   2
ATOM      2  C   UNL     1       8.343 -27.147  51.974  1.00  0.00    -0.000 C 
BRANCH   2   3
ATOM      3  C   UNL     1       9.254 -28.209  51.337  1.00  0.00    -0.000 C 
BRANCH   3   4
ATOM      4  C   UNL     1      10.328 -27.597  50.426  1.00  0.00    -0.003 C 
ATOM      5  C   UNL     1       9.787 -26.380  49.680  1.00  0.00     0.004 C 
ENDBRANCH   3   4
ENDBRANCH   2   3
ENDBRANCH   1   2
BRANCH   1   6
ATOM      6  C   UNL     1       8.239 -25.251  53.645  1.00  0.00     0.002 C 
BRANCH   6   7
ATOM      7  C   UNL     1       8.391 -24.222  52.518  1.00  0.00     0.028 C 
BRANCH   7   8
ATOM      8  C   UNL     1       7.958 -22.820  52.958  1.00  0.00     0.156 C 
BRANCH   8   9
ATOM      9  O   UNL     1       6.746 -22.872  53.663  1.00  0.00    -0.396 OA
ATOM     10  H   UNL     1       6.134 -22.219  53.233  1.00  0.00     0.210 HD
ENDBRANCH   8   9
ENDBRANCH   7   8
ENDBRANCH   6   7
ENDBRANCH   1   6
TORSDOF 7
ENDMDL
MODEL 6
REMARK VINA RESULT:    -3.384      3.455      5.696
REMARK INTER + INTRA:          -5.234
REMARK INTER:                  -4.743
REMARK INTRA:                  -0.491
REMARK UNBOUND:                -0.564
REMARK SMILES CCCCCCCCO
REMARK SMILES IDX 5 1 4 2 3 3 2 4 1 5 6 6 7 7 8 8 9 9
REMARK H PARENT 9 10
REMARK Flexibility Score: inf
ROOT
ATOM      1  C   UNL     1      11.461 -29.912  53.391  1.00  0.00     0.000 C 
ENDROOT
BRANCH   1   2
ATOM      2  C   UNL     1      10.995 -29.573  51.967  1.00  0.00    -0.000 C 
BRANCH   2   3
ATOM      3  C   UNL     1       9.465 -29.497  51.847  1.00  0.00    -0.000 C 
BRANCH   3   4
ATOM      4  C   UNL     1       8.983 -28.157  51.272  1.00  0.00    -0.003 C 
ATOM      5  C   UNL     1      10.126 -27.408  50.593  1.00  0.00     0.004 C 
ENDBRANCH   3   4
ENDBRANCH   2   3
ENDBRANCH   1   2
BRANCH   1   6
ATOM      6  C   UNL     1      10.566 -29.236  54.437  1.00  0.00     0.002 C 
BRANCH   6   7
ATOM      7  C   UNL     1      11.158 -27.893  54.882  1.00  0.00     0.028 C 
BRANCH   7   8
ATOM      8  C   UNL     1      10.296 -26.709  54.435  1.00  0.00     0.156 C 
BRANCH   8   9
ATOM      9  O   UNL     1      10.299 -25.696  55.407  1.00  0.00    -0.396 OA
ATOM     10  H   UNL     1      11.192 -25.716  55.840  1.00  0.00     0.210 HD
ENDBRANCH   8   9
ENDBRANCH   7   8
ENDBRANCH   6   7
ENDBRANCH   1   6
TORSDOF 7
ENDMDL
MODEL 7
REMARK VINA RESULT:    -3.360      2.105      4.574
REMARK INTER + INTRA:          -5.202
REMARK INTER:                  -4.869
REMARK INTRA:                  -0.332
REMARK UNBOUND:                -0.564
REMARK SMILES CCCCCCCCO
REMARK SMILES IDX 5 1 4 2 3 3 2 4 1 5 6 6 7 7 8 8 9 9
REMARK H PARENT 9 10
REMARK Flexibility Score: inf
ROOT
ATOM      1  C   UNL     1       8.294 -25.542  51.992  1.00  0.00     0.000 C 
ENDROOT
BRANCH   1   2
ATOM      2  C   UNL     1       8.308 -26.971  52.556  1.00  0.00    -0.000 C 
BRANCH   2   3
ATOM      3  C   UNL     1       8.677 -28.023  51.498  1.00  0.00    -0.000 C 
BRANCH   3   4
ATOM      4  C   UNL     1      10.183 -28.324  51.463  1.00  0.00    -0.003 C 
ATOM      5  C   UNL     1      10.839 -27.703  50.233  1.00  0.00     0.004 C 
ENDBRANCH   3   4
ENDBRANCH   2   3
ENDBRANCH   1   2
BRANCH   1   6
ATOM      6  C   UNL     1       9.185 -24.614  52.825  1.00  0.00     0.002 C 
BRANCH   6   7
ATOM      7  C   UNL     1       8.360 -23.849  53.867  1.00  0.00     0.028 C 
BRANCH   7   8
ATOM      8  C   UNL     1       8.703 -24.275  55.298  1.00  0.00     0.156 C 
BRANCH   8   9
ATOM      9  O   UNL     1       9.815 -25.131  55.308  1.00  0.00    -0.396 OA
ATOM     10  H   UNL     1       9.875 -25.538  54.404  1.00  0.00     0.210 HD
ENDBRANCH   8   9
ENDBRANCH   7   8
ENDBRANCH   6   7
ENDBRANCH   1   6
TORSDOF 7
ENDMDL
MODEL 8
REMARK VINA RESULT:    -3.356      2.388      4.364
REMARK INTER + INTRA:          -5.195
REMARK INTER:                  -4.658
REMARK INTRA:                  -0.537
REMARK UNBOUND:                -0.564
REMARK SMILES CCCCCCCCO
REMARK SMILES IDX 5 1 4 2 3 3 2 4 1 5 6 6 7 7 8 8 9 9
REMARK H PARENT 9 10
REMARK Flexibility Score: inf
ROOT
ATOM      1  C   UNL     1       9.457 -24.635  51.683  1.00  0.00     0.000 C 
ENDROOT
BRANCH   1   2
ATOM      2  C   UNL     1      10.225 -25.071  50.426  1.00  0.00    -0.000 C 
BRANCH   2   3
ATOM      3  C   UNL     1       9.779 -26.447  49.906  1.00  0.00    -0.000 C 
BRANCH   3   4
ATOM      4  C   UNL     1      10.869 -27.518  50.056  1.00  0.00    -0.003 C 
ATOM      5  C   UNL     1      10.496 -28.534  51.133  1.00  0.00     0.004 C 
ENDBRANCH   3   4
ENDBRANCH   2   3
ENDBRANCH   1   2
BRANCH   1   6
ATOM      6  C   UNL     1       8.276 -25.574  51.958  1.00  0.00     0.002 C 
BRANCH   6   7
ATOM      7  C   UNL     1       8.332 -26.124  53.388  1.00  0.00     0.028 C 
BRANCH   7   8
ATOM      8  C   UNL     1       9.755 -26.115  53.952  1.00  0.00     0.156 C 
BRANCH   8   9
ATOM      9  O   UNL     1       9.795 -25.456  55.190  1.00  0.00    -0.396 OA
ATOM     10  H   UNL     1       8.927 -24.985  55.295  1.00  0.00     0.210 HD
ENDBRANCH   8   9
ENDBRANCH   7   8
ENDBRANCH   6   7
ENDBRANCH   1   6
TORSDOF 7
ENDMDL
MODEL 9
REMARK VINA RESULT:    -3.313      1.149      3.432
REMARK INTER + INTRA:          -5.136
REMARK INTER:                  -4.546
REMARK INTRA:                  -0.591
REMARK UNBOUND:                -0.564
REMARK SMILES CCCCCCCCO
REMARK SMILES IDX 5 1 4 2 3 3 2 4 1 5 6 6 7 7 8 8 9 9
REMARK H PARENT 9 10
REMARK Flexibility Score: inf
ROOT
ATOM      1  C   UNL     1       9.176 -23.234  51.810  1.00  0.00     0.000 C 
ENDROOT
BRANCH   1   2
ATOM      2  C   UNL     1       9.517 -24.732  51.819  1.00  0.00    -0.000 C 
BRANCH   2   3
ATOM      3  C   UNL     1       8.267 -25.625  51.778  1.00  0.00    -0.000 C 
BRANCH   3   4
ATOM      4  C   UNL     1       8.222 -26.633  52.936  1.00  0.00    -0.003 C 
ATOM      5  C   UNL     1       9.544 -26.652  53.698  1.00  0.00     0.004 C 
ENDBRANCH   3   4
ENDBRANCH   2   3
ENDBRANCH   1   2
BRANCH   1   6
ATOM      6  C   UNL     1       8.101 -22.910  52.855  1.00  0.00     0.002 C 
BRANCH   6   7
ATOM      7  C   UNL     1       8.699 -22.882  54.267  1.00  0.00     0.028 C 
BRANCH   7   8
ATOM      8  C   UNL     1       7.844 -23.666  55.268  1.00  0.00     0.156 C 
BRANCH   8   9
ATOM      9  O   UNL     1       8.654 -24.311  56.215  1.00  0.00    -0.396 OA
ATOM     10  H   UNL     1       8.924 -25.180  55.819  1.00  0.00     0.210 HD
ENDBRANCH   8   9
ENDBRANCH   7   8
ENDBRANCH   6   7
ENDBRANCH   1   6
TORSDOF 7
ENDMDL
