MODEL 1
REMARK VINA RESULT:    -3.727      0.000      0.000
REMARK INTER + INTRA:         -10.104
REMARK INTER:                  -8.085
REMARK INTRA:                  -2.019
REMARK UNBOUND:                -2.019
REMARK SMILES CCCCCCCCCCCCCCCCCCCCCC(=O)[O-]
REMARK SMILES IDX 12 1 11 2 10 3 9 4 8 5 7 6 6 7 5 8 4 9 3 10 2 11 1 12 13 13
REMARK SMILES IDX 14 14 15 15 16 16 17 17 18 18 19 19 20 20 21 21 22 22 23 23
REMARK SMILES IDX 24 24
REMARK H PARENT
REMARK Flexibility Score: inf
ROOT
ATOM      1  C   UNL     1      -3.106  14.185  -4.631  1.00  0.00     0.000 C 
ENDROOT
BRANCH   1   2
ATOM      2  C   UNL     1      -3.310  12.661  -4.639  1.00  0.00     0.000 C 
BRANCH   2   3
ATOM      3  C   UNL     1      -1.981  11.887  -4.587  1.00  0.00     0.000 C 
BRANCH   3   4
ATOM      4  C   UNL     1      -0.754  12.800  -4.752  1.00  0.00    -0.000 C 
BRANCH   4   5
ATOM      5  C   UNL     1       0.408  12.515  -3.781  1.00  0.00    -0.000 C 
BRANCH   5   6
ATOM      6  C   UNL     1       0.198  11.262  -2.905  1.00  0.00    -0.000 C 
BRANCH   6   7
ATOM      7  C   UNL     1       1.446  10.912  -2.076  1.00  0.00    -0.000 C 
BRANCH   7   8
ATOM      8  C   UNL     1       2.416   9.987  -2.828  1.00  0.00    -0.000 C 
BRANCH   8   9
ATOM      9  C   UNL     1       3.264   9.119  -1.881  1.00  0.00    -0.000 C 
BRANCH   9  10
ATOM     10  C   UNL     1       2.420   8.101  -1.093  1.00  0.00    -0.000 C 
BRANCH  10  11
ATOM     11  C   UNL     1       2.480   8.262   0.436  1.00  0.00    -0.003 C 
ATOM     12  C   UNL     1       1.721   7.166   1.183  1.00  0.00     0.004 C 
ENDBRANCH  10  11
ENDBRANCH   9  10
ENDBRANCH   8   9
ENDBRANCH   7   8
ENDBRANCH   6   7
ENDBRANCH   5   6
ENDBRANCH   4   5
ENDBRANCH   3   4
ENDBRANCH   2   3
ENDBRANCH   1   2
BRANCH   1  13
ATOM     13  C   UNL     1      -3.188  14.800  -6.038  1.00  0.00     0.000 C 
BRANCH  13  14
ATOM     14  C   UNL     1      -2.358  16.090  -6.124  1.00  0.00     0.000 C 
BRANCH  14  15
ATOM     15  C   UNL     1      -3.217  17.354  -5.954  1.00  0.00     0.000 C 
BRANCH  15  16
ATOM     16  C   UNL     1      -2.400  18.554  -5.445  1.00  0.00     0.000 C 
BRANCH  16  17
ATOM     17  C   UNL     1      -0.932  18.511  -5.905  1.00  0.00     0.000 C 
BRANCH  17  18
ATOM     18  C   UNL     1       0.103  18.441  -4.767  1.00  0.00     0.000 C 
BRANCH  18  19
ATOM     19  C   UNL     1       0.951  17.151  -4.777  1.00  0.00     0.000 C 
BRANCH  19  20
ATOM     20  C   UNL     1       0.843  16.371  -3.457  1.00  0.00     0.006 C 
BRANCH  20  21
ATOM     21  C   UNL     1      -0.615  16.105  -3.057  1.00  0.00     0.053 C 
BRANCH  21  22
ATOM     22  C   UNL     1      -0.766  15.954  -1.575  1.00  0.00     0.041 C 
ATOM     23  O   UNL     1      -1.903  16.045  -1.041  1.00  0.00    -0.550 OA
ATOM     24  O   UNL     1       0.349  15.733  -0.779  1.00  0.00    -0.550 OA
ENDBRANCH  21  22
ENDBRANCH  20  21
ENDBRANCH  19  20
ENDBRANCH  18  19
ENDBRANCH  17  18
ENDBRANCH  16  17
ENDBRANCH  15  16
ENDBRANCH  14  15
ENDBRANCH  13  14
ENDBRANCH   1  13
TORSDOF 20
ENDMDL
MODEL 2
REMARK VINA RESULT:    -3.584      2.814      7.705
REMARK INTER + INTRA:          -9.793
REMARK INTER:                  -7.916
REMARK INTRA:                  -1.877
REMARK UNBOUND:                -2.019
REMARK SMILES CCCCCCCCCCCCCCCCCCCCCC(=O)[O-]
REMARK SMILES IDX 12 1 11 2 10 3 9 4 8 5 7 6 6 7 5 8 4 9 3 10 2 11 1 12 13 13
REMARK SMILES IDX 14 14 15 15 16 16 17 17 18 18 19 19 20 20 21 21 22 22 23 23
REMARK SMILES IDX 24 24
REMARK H PARENT
REMARK Flexibility Score: inf
ROOT
ATOM      1  C   UNL     1      -2.675  13.235  -5.082  1.00  0.00     0.000 C 
ENDROOT
BRANCH   1   2
ATOM      2  C   UNL     1      -3.367  14.606  -5.157  1.00  0.00     0.000 C 
BRANCH   2   3
ATOM      3  C   UNL     1      -2.509  15.663  -5.874  1.00  0.00     0.000 C 
BRANCH   3   4
ATOM      4  C   UNL     1      -3.269  16.977  -6.125  1.00  0.00    -0.000 C 
BRANCH   4   5
ATOM      5  C   UNL     1      -2.607  18.238  -5.538  1.00  0.00    -0.000 C 
BRANCH   5   6
ATOM      6  C   UNL     1      -1.115  18.387  -5.903  1.00  0.00    -0.000 C 
BRANCH   6   7
ATOM      7  C   UNL     1      -0.198  18.279  -4.671  1.00  0.00    -0.000 C 
BRANCH   7   8
ATOM      8  C   UNL     1       0.651  16.998  -4.677  1.00  0.00    -0.000 C 
BRANCH   8   9
ATOM      9  C   UNL     1       0.374  16.097  -3.459  1.00  0.00    -0.000 C 
BRANCH   9  10
ATOM     10  C   UNL     1      -0.832  16.573  -2.629  1.00  0.00    -0.000 C 
BRANCH  10  11
ATOM     11  C   UNL     1      -0.959  15.914  -1.244  1.00  0.00    -0.003 C 
ATOM     12  C   UNL     1       0.387  15.726  -0.546  1.00  0.00     0.004 C 
ENDBRANCH  10  11
ENDBRANCH   9  10
ENDBRANCH   8   9
ENDBRANCH   7   8
ENDBRANCH   6   7
ENDBRANCH   5   6
ENDBRANCH   4   5
ENDBRANCH   3   4
ENDBRANCH   2   3
ENDBRANCH   1   2
BRANCH   1  13
ATOM     13  C   UNL     1      -1.251  13.320  -4.508  1.00  0.00     0.000 C 
BRANCH  13  14
ATOM     14  C   UNL     1      -0.635  11.922  -4.353  1.00  0.00     0.000 C 
BRANCH  14  15
ATOM     15  C   UNL     1       0.588  11.920  -3.421  1.00  0.00     0.000 C 
BRANCH  15  16
ATOM     16  C   UNL     1       0.405  10.985  -2.213  1.00  0.00     0.000 C 
BRANCH  16  17
ATOM     17  C   UNL     1       1.702  10.253  -1.826  1.00  0.00     0.000 C 
BRANCH  17  18
ATOM     18  C   UNL     1       2.634   9.916  -3.006  1.00  0.00     0.000 C 
BRANCH  18  19
ATOM     19  C   UNL     1       3.934   9.198  -2.584  1.00  0.00     0.000 C 
BRANCH  19  20
ATOM     20  C   UNL     1       3.948   8.848  -1.087  1.00  0.00     0.006 C 
BRANCH  20  21
ATOM     21  C   UNL     1       3.305   7.484  -0.804  1.00  0.00     0.053 C 
BRANCH  21  22
ATOM     22  C   UNL     1       2.845   7.370   0.616  1.00  0.00     0.041 C 
ATOM     23  O   UNL     1       3.653   7.567   1.563  1.00  0.00    -0.550 OA
ATOM     24  O   UNL     1       1.530   7.025   0.898  1.00  0.00    -0.550 OA
ENDBRANCH  21  22
ENDBRANCH  20  21
ENDBRANCH  19  20
ENDBRANCH  18  19
ENDBRANCH  17  18
ENDBRANCH  16  17
ENDBRANCH  15  16
ENDBRANCH  14  15
ENDBRANCH  13  14
ENDBRANCH   1  13
TORSDOF 20
ENDMDL
MODEL 3
REMARK VINA RESULT:    -3.440      2.968      6.733
REMARK INTER + INTRA:          -9.482
REMARK INTER:                  -7.542
REMARK INTRA:                  -1.940
REMARK UNBOUND:                -2.019
REMARK SMILES CCCCCCCCCCCCCCCCCCCCCC(=O)[O-]
REMARK SMILES IDX 12 1 11 2 10 3 9 4 8 5 7 6 6 7 5 8 4 9 3 10 2 11 1 12 13 13
REMARK SMILES IDX 14 14 15 15 16 16 17 17 18 18 19 19 20 20 21 21 22 22 23 23
REMARK SMILES IDX 24 24
REMARK H PARENT
REMARK Flexibility Score: inf
ROOT
ATOM      1  C   UNL     1      -2.709  15.919  -5.517  1.00  0.00     0.000 C 
ENDROOT
BRANCH   1   2
ATOM      2  C   UNL     1      -1.298  15.966  -6.125  1.00  0.00     0.000 C 
BRANCH   2   3
ATOM      3  C   UNL     1      -0.667  17.368  -6.047  1.00  0.00     0.000 C 
BRANCH   3   4
ATOM      4  C   UNL     1      -0.354  17.800  -4.604  1.00  0.00    -0.000 C 
BRANCH   4   5
ATOM      5  C   UNL     1       0.773  17.008  -3.914  1.00  0.00    -0.000 C 
BRANCH   5   6
ATOM      6  C   UNL     1       0.271  15.835  -3.046  1.00  0.00    -0.000 C 
BRANCH   6   7
ATOM      7  C   UNL     1      -1.041  16.169  -2.314  1.00  0.00    -0.000 C 
BRANCH   7   8
ATOM      8  C   UNL     1      -0.955  15.916  -0.800  1.00  0.00    -0.000 C 
BRANCH   8   9
ATOM      9  C   UNL     1       0.433  16.245  -0.221  1.00  0.00    -0.000 C 
BRANCH   9  10
ATOM     10  C   UNL     1       0.363  17.194   0.989  1.00  0.00    -0.000 C 
BRANCH  10  11
ATOM     11  C   UNL     1       1.670  17.309   1.792  1.00  0.00    -0.003 C 
ATOM     12  C   UNL     1       2.252  15.952   2.184  1.00  0.00     0.004 C 
ENDBRANCH  10  11
ENDBRANCH   9  10
ENDBRANCH   8   9
ENDBRANCH   7   8
ENDBRANCH   6   7
ENDBRANCH   5   6
ENDBRANCH   4   5
ENDBRANCH   3   4
ENDBRANCH   2   3
ENDBRANCH   1   2
BRANCH   1  13
ATOM     13  C   UNL     1      -3.045  14.550  -4.904  1.00  0.00     0.000 C 
BRANCH  13  14
ATOM     14  C   UNL     1      -2.200  13.438  -5.544  1.00  0.00     0.000 C 
BRANCH  14  15
ATOM     15  C   UNL     1      -2.638  12.034  -5.093  1.00  0.00     0.000 C 
BRANCH  15  16
ATOM     16  C   UNL     1      -1.595  11.355  -4.190  1.00  0.00     0.000 C 
BRANCH  16  17
ATOM     17  C   UNL     1      -0.365  12.242  -3.933  1.00  0.00     0.000 C 
BRANCH  17  18
ATOM     18  C   UNL     1       0.804  11.541  -3.215  1.00  0.00     0.000 C 
BRANCH  18  19
ATOM     19  C   UNL     1       0.365  10.677  -2.013  1.00  0.00     0.000 C 
BRANCH  19  20
ATOM     20  C   UNL     1       1.539   9.904  -1.391  1.00  0.00     0.006 C 
BRANCH  20  21
ATOM     21  C   UNL     1       1.257   9.486   0.059  1.00  0.00     0.053 C 
BRANCH  21  22
ATOM     22  C   UNL     1       2.167   8.386   0.508  1.00  0.00     0.041 C 
ATOM     23  O   UNL     1       1.694   7.269   0.846  1.00  0.00    -0.550 OA
ATOM     24  O   UNL     1       3.537   8.598   0.575  1.00  0.00    -0.550 OA
ENDBRANCH  21  22
ENDBRANCH  20  21
ENDBRANCH  19  20
ENDBRANCH  18  19
ENDBRANCH  17  18
ENDBRANCH  16  17
ENDBRANCH  15  16
ENDBRANCH  14  15
ENDBRANCH  13  14
ENDBRANCH   1  13
TORSDOF 20
ENDMDL
MODEL 4
REMARK VINA RESULT:    -3.188      1.442      2.146
REMARK INTER + INTRA:          -8.935
REMARK INTER:                  -6.994
REMARK INTRA:                  -1.940
REMARK UNBOUND:                -2.019
REMARK SMILES CCCCCCCCCCCCCCCCCCCCCC(=O)[O-]
REMARK SMILES IDX 12 1 11 2 10 3 9 4 8 5 7 6 6 7 5 8 4 9 3 10 2 11 1 12 13 13
REMARK SMILES IDX 14 14 15 15 16 16 17 17 18 18 19 19 20 20 21 21 22 22 23 23
REMARK SMILES IDX 24 24
REMARK H PARENT
REMARK Flexibility Score: inf
ROOT
ATOM      1  C   UNL     1      -3.087  15.156  -4.703  1.00  0.00     0.000 C 
ENDROOT
BRANCH   1   2
ATOM      2  C   UNL     1      -3.341  13.651  -4.882  1.00  0.00     0.000 C 
BRANCH   2   3
ATOM      3  C   UNL     1      -2.096  12.895  -5.377  1.00  0.00     0.000 C 
BRANCH   3   4
ATOM      4  C   UNL     1      -1.494  11.973  -4.303  1.00  0.00    -0.000 C 
BRANCH   4   5
ATOM      5  C   UNL     1      -0.151  12.445  -3.714  1.00  0.00    -0.000 C 
BRANCH   5   6
ATOM      6  C   UNL     1       0.987  11.411  -3.845  1.00  0.00    -0.000 C 
BRANCH   6   7
ATOM      7  C   UNL     1       1.237  10.646  -2.534  1.00  0.00    -0.000 C 
BRANCH   7   8
ATOM      8  C   UNL     1       2.561   9.866  -2.546  1.00  0.00    -0.000 C 
BRANCH   8   9
ATOM      9  C   UNL     1       2.942   9.321  -1.158  1.00  0.00    -0.000 C 
BRANCH   9  10
ATOM     10  C   UNL     1       1.780   9.394  -0.151  1.00  0.00    -0.000 C 
BRANCH  10  11
ATOM     11  C   UNL     1       1.059   8.057   0.097  1.00  0.00    -0.003 C 
ATOM     12  C   UNL     1       1.792   7.159   1.092  1.00  0.00     0.004 C 
ENDBRANCH  10  11
ENDBRANCH   9  10
ENDBRANCH   8   9
ENDBRANCH   7   8
ENDBRANCH   6   7
ENDBRANCH   5   6
ENDBRANCH   4   5
ENDBRANCH   3   4
ENDBRANCH   2   3
ENDBRANCH   1   2
BRANCH   1  13
ATOM     13  C   UNL     1      -2.830  15.877  -6.037  1.00  0.00     0.000 C 
BRANCH  13  14
ATOM     14  C   UNL     1      -2.334  17.311  -5.803  1.00  0.00     0.000 C 
BRANCH  14  15
ATOM     15  C   UNL     1      -0.805  17.429  -5.911  1.00  0.00     0.000 C 
BRANCH  15  16
ATOM     16  C   UNL     1      -0.099  16.070  -5.758  1.00  0.00     0.000 C 
BRANCH  16  17
ATOM     17  C   UNL     1       0.794  16.004  -4.507  1.00  0.00     0.000 C 
BRANCH  17  18
ATOM     18  C   UNL     1       0.238  16.737  -3.272  1.00  0.00     0.000 C 
BRANCH  18  19
ATOM     19  C   UNL     1      -0.710  15.872  -2.411  1.00  0.00     0.000 C 
BRANCH  19  20
ATOM     20  C   UNL     1      -0.626  16.226  -0.918  1.00  0.00     0.006 C 
BRANCH  20  21
ATOM     21  C   UNL     1       0.713  15.807  -0.296  1.00  0.00     0.053 C 
BRANCH  21  22
ATOM     22  C   UNL     1       0.999  16.559   0.967  1.00  0.00     0.041 C 
ATOM     23  O   UNL     1       0.433  17.661   1.191  1.00  0.00    -0.550 OA
ATOM     24  O   UNL     1       1.907  16.055   1.888  1.00  0.00    -0.550 OA
ENDBRANCH  21  22
ENDBRANCH  20  21
ENDBRANCH  19  20
ENDBRANCH  18  19
ENDBRANCH  17  18
ENDBRANCH  16  17
ENDBRANCH  15  16
ENDBRANCH  14  15
ENDBRANCH  13  14
ENDBRANCH   1  13
TORSDOF 20
ENDMDL
MODEL 5
REMARK VINA RESULT:    -3.121      2.848      7.288
REMARK INTER + INTRA:          -8.790
REMARK INTER:                  -7.089
REMARK INTRA:                  -1.701
REMARK UNBOUND:                -2.019
REMARK SMILES CCCCCCCCCCCCCCCCCCCCCC(=O)[O-]
REMARK SMILES IDX 12 1 11 2 10 3 9 4 8 5 7 6 6 7 5 8 4 9 3 10 2 11 1 12 13 13
REMARK SMILES IDX 14 14 15 15 16 16 17 17 18 18 19 19 20 20 21 21 22 22 23 23
REMARK SMILES IDX 24 24
REMARK H PARENT
REMARK Flexibility Score: inf
ROOT
ATOM      1  C   UNL     1      -2.515  12.398  -5.063  1.00  0.00     0.000 C 
ENDROOT
BRANCH   1   2
ATOM      2  C   UNL     1      -2.350  13.896  -4.759  1.00  0.00     0.000 C 
BRANCH   2   3
ATOM      3  C   UNL     1      -2.065  14.728  -6.022  1.00  0.00     0.000 C 
BRANCH   3   4
ATOM      4  C   UNL     1      -0.662  15.359  -6.014  1.00  0.00    -0.000 C 
BRANCH   4   5
ATOM      5  C   UNL     1      -0.631  16.884  -5.796  1.00  0.00    -0.000 C 
BRANCH   5   6
ATOM      6  C   UNL     1      -0.625  17.303  -4.310  1.00  0.00    -0.000 C 
BRANCH   6   7
ATOM      7  C   UNL     1       0.013  16.235  -3.404  1.00  0.00    -0.000 C 
BRANCH   7   8
ATOM      8  C   UNL     1      -0.682  16.126  -2.038  1.00  0.00    -0.000 C 
BRANCH   8   9
ATOM      9  C   UNL     1       0.233  15.529  -0.953  1.00  0.00    -0.000 C 
BRANCH   9  10
ATOM     10  C   UNL     1       0.429  16.475   0.246  1.00  0.00    -0.000 C 
BRANCH  10  11
ATOM     11  C   UNL     1       1.566  16.074   1.202  1.00  0.00    -0.003 C 
ATOM     12  C   UNL     1       1.817  17.107   2.299  1.00  0.00     0.004 C 
ENDBRANCH  10  11
ENDBRANCH   9  10
ENDBRANCH   8   9
ENDBRANCH   7   8
ENDBRANCH   6   7
ENDBRANCH   5   6
ENDBRANCH   4   5
ENDBRANCH   3   4
ENDBRANCH   2   3
ENDBRANCH   1   2
BRANCH   1  13
ATOM     13  C   UNL     1      -1.503  11.524  -4.304  1.00  0.00     0.000 C 
BRANCH  13  14
ATOM     14  C   UNL     1      -0.291  12.352  -3.851  1.00  0.00     0.000 C 
BRANCH  14  15
ATOM     15  C   UNL     1       0.772  11.496  -3.142  1.00  0.00     0.000 C 
BRANCH  15  16
ATOM     16  C   UNL     1       1.890  11.040  -4.095  1.00  0.00     0.000 C 
BRANCH  16  17
ATOM     17  C   UNL     1       3.164  10.605  -3.350  1.00  0.00     0.000 C 
BRANCH  17  18
ATOM     18  C   UNL     1       3.475   9.098  -3.422  1.00  0.00     0.000 C 
BRANCH  18  19
ATOM     19  C   UNL     1       3.792   8.464  -2.050  1.00  0.00     0.000 C 
BRANCH  19  20
ATOM     20  C   UNL     1       3.329   9.346  -0.879  1.00  0.00     0.006 C 
BRANCH  20  21
ATOM     21  C   UNL     1       3.173   8.548   0.423  1.00  0.00     0.053 C 
BRANCH  21  22
ATOM     22  C   UNL     1       1.761   8.100   0.636  1.00  0.00     0.041 C 
ATOM     23  O   UNL     1       1.522   6.957   1.106  1.00  0.00    -0.550 OA
ATOM     24  O   UNL     1       0.706   8.936   0.295  1.00  0.00    -0.550 OA
ENDBRANCH  21  22
ENDBRANCH  20  21
ENDBRANCH  19  20
ENDBRANCH  18  19
ENDBRANCH  17  18
ENDBRANCH  16  17
ENDBRANCH  15  16
ENDBRANCH  14  15
ENDBRANCH  13  14
ENDBRANCH   1  13
TORSDOF 20
ENDMDL
MODEL 6
REMARK VINA RESULT:    -2.865      7.916     10.823
REMARK INTER + INTRA:          -8.235
REMARK INTER:                  -7.333
REMARK INTRA:                  -0.901
REMARK UNBOUND:                -2.019
REMARK SMILES CCCCCCCCCCCCCCCCCCCCCC(=O)[O-]
REMARK SMILES IDX 12 1 11 2 10 3 9 4 8 5 7 6 6 7 5 8 4 9 3 10 2 11 1 12 13 13
REMARK SMILES IDX 14 14 15 15 16 16 17 17 18 18 19 19 20 20 21 21 22 22 23 23
REMARK SMILES IDX 24 24
REMARK H PARENT
REMARK Flexibility Score: inf
ROOT
ATOM      1  C   UNL     1      -7.969  20.145  -4.778  1.00  0.00     0.000 C 
ENDROOT
BRANCH   1   2
ATOM      2  C   UNL     1      -7.221  19.343  -5.856  1.00  0.00     0.000 C 
BRANCH   2   3
ATOM      3  C   UNL     1      -5.802  19.880  -6.113  1.00  0.00     0.000 C 
BRANCH   3   4
ATOM      4  C   UNL     1      -4.738  18.768  -6.125  1.00  0.00    -0.000 C 
BRANCH   4   5
ATOM      5  C   UNL     1      -3.380  19.156  -5.510  1.00  0.00    -0.000 C 
BRANCH   5   6
ATOM      6  C   UNL     1      -2.204  18.280  -5.990  1.00  0.00    -0.000 C 
BRANCH   6   7
ATOM      7  C   UNL     1      -2.494  16.776  -5.838  1.00  0.00    -0.000 C 
BRANCH   7   8
ATOM      8  C   UNL     1      -1.965  16.203  -4.514  1.00  0.00    -0.000 C 
BRANCH   8   9
ATOM      9  C   UNL     1      -1.816  14.671  -4.548  1.00  0.00    -0.000 C 
BRANCH   9  10
ATOM     10  C   UNL     1      -3.172  13.943  -4.585  1.00  0.00    -0.000 C 
BRANCH  10  11
ATOM     11  C   UNL     1      -3.120  12.514  -5.156  1.00  0.00    -0.003 C 
ATOM     12  C   UNL     1      -1.933  11.706  -4.633  1.00  0.00     0.004 C 
ENDBRANCH  10  11
ENDBRANCH   9  10
ENDBRANCH   8   9
ENDBRANCH   7   8
ENDBRANCH   6   7
ENDBRANCH   5   6
ENDBRANCH   4   5
ENDBRANCH   3   4
ENDBRANCH   2   3
ENDBRANCH   1   2
BRANCH   1  13
ATOM     13  C   UNL     1      -7.994  21.654  -5.072  1.00  0.00     0.000 C 
BRANCH  13  14
ATOM     14  C   UNL     1      -9.179  22.019  -5.977  1.00  0.00     0.000 C 
BRANCH  14  15
ATOM     15  C   UNL     1     -10.417  22.456  -5.176  1.00  0.00     0.000 C 
BRANCH  15  16
ATOM     16  C   UNL     1     -10.817  21.426  -4.105  1.00  0.00     0.000 C 
BRANCH  16  17
ATOM     17  C   UNL     1     -12.111  20.675  -4.458  1.00  0.00     0.000 C 
BRANCH  17  18
ATOM     18  C   UNL     1     -12.829  21.176  -5.726  1.00  0.00     0.000 C 
BRANCH  18  19
ATOM     19  C   UNL     1     -14.200  21.829  -5.446  1.00  0.00     0.000 C 
BRANCH  19  20
ATOM     20  C   UNL     1     -14.425  22.094  -3.948  1.00  0.00     0.006 C 
BRANCH  20  21
ATOM     21  C   UNL     1     -13.734  23.380  -3.476  1.00  0.00     0.053 C 
BRANCH  21  22
ATOM     22  C   UNL     1     -13.439  23.346  -2.009  1.00  0.00     0.041 C 
ATOM     23  O   UNL     1     -12.248  23.325  -1.601  1.00  0.00    -0.550 OA
ATOM     24  O   UNL     1     -14.479  23.317  -1.089  1.00  0.00    -0.550 OA
ENDBRANCH  21  22
ENDBRANCH  20  21
ENDBRANCH  19  20
ENDBRANCH  18  19
ENDBRANCH  17  18
ENDBRANCH  16  17
ENDBRANCH  15  16
ENDBRANCH  14  15
ENDBRANCH  13  14
ENDBRANCH   1  13
TORSDOF 20
ENDMDL
MODEL 7
REMARK VINA RESULT:    -2.852      0.948      2.153
REMARK INTER + INTRA:          -8.206
REMARK INTER:                  -6.526
REMARK INTRA:                  -1.680
REMARK UNBOUND:                -2.019
REMARK SMILES CCCCCCCCCCCCCCCCCCCCCC(=O)[O-]
REMARK SMILES IDX 12 1 11 2 10 3 9 4 8 5 7 6 6 7 5 8 4 9 3 10 2 11 1 12 13 13
REMARK SMILES IDX 14 14 15 15 16 16 17 17 18 18 19 19 20 20 21 21 22 22 23 23
REMARK SMILES IDX 24 24
REMARK H PARENT
REMARK Flexibility Score: inf
ROOT
ATOM      1  C   UNL     1      -2.267  16.348  -6.048  1.00  0.00     0.000 C 
ENDROOT
BRANCH   1   2
ATOM      2  C   UNL     1      -2.616  15.315  -4.964  1.00  0.00     0.000 C 
BRANCH   2   3
ATOM      3  C   UNL     1      -3.397  14.112  -5.522  1.00  0.00     0.000 C 
BRANCH   3   4
ATOM      4  C   UNL     1      -2.495  12.899  -5.809  1.00  0.00    -0.000 C 
BRANCH   4   5
ATOM      5  C   UNL     1      -1.986  12.152  -4.561  1.00  0.00    -0.000 C 
BRANCH   5   6
ATOM      6  C   UNL     1      -0.523  12.477  -4.192  1.00  0.00    -0.000 C 
BRANCH   6   7
ATOM      7  C   UNL     1       0.234  11.245  -3.665  1.00  0.00    -0.000 C 
BRANCH   7   8
ATOM      8  C   UNL     1       0.715  11.420  -2.217  1.00  0.00    -0.000 C 
BRANCH   8   9
ATOM      9  C   UNL     1       1.329  10.134  -1.635  1.00  0.00    -0.000 C 
BRANCH   9  10
ATOM     10  C   UNL     1       0.507   9.557  -0.469  1.00  0.00    -0.000 C 
BRANCH  10  11
ATOM     11  C   UNL     1       1.149   8.349   0.236  1.00  0.00    -0.003 C 
ATOM     12  C   UNL     1       2.629   8.179  -0.103  1.00  0.00     0.004 C 
ENDBRANCH  10  11
ENDBRANCH   9  10
ENDBRANCH   8   9
ENDBRANCH   7   8
ENDBRANCH   6   7
ENDBRANCH   5   6
ENDBRANCH   4   5
ENDBRANCH   3   4
ENDBRANCH   2   3
ENDBRANCH   1   2
BRANCH   1  13
ATOM     13  C   UNL     1      -3.005  17.683  -5.854  1.00  0.00     0.000 C 
BRANCH  13  14
ATOM     14  C   UNL     1      -2.053  18.872  -6.051  1.00  0.00     0.000 C 
BRANCH  14  15
ATOM     15  C   UNL     1      -0.579  18.438  -6.122  1.00  0.00     0.000 C 
BRANCH  15  16
ATOM     16  C   UNL     1       0.223  18.878  -4.885  1.00  0.00     0.000 C 
BRANCH  16  17
ATOM     17  C   UNL     1       1.507  18.055  -4.687  1.00  0.00     0.000 C 
BRANCH  17  18
ATOM     18  C   UNL     1       1.588  16.765  -5.525  1.00  0.00     0.000 C 
BRANCH  18  19
ATOM     19  C   UNL     1       0.920  15.546  -4.854  1.00  0.00     0.000 C 
BRANCH  19  20
ATOM     20  C   UNL     1       0.857  15.684  -3.324  1.00  0.00     0.006 C 
BRANCH  20  21
ATOM     21  C   UNL     1      -0.562  15.994  -2.827  1.00  0.00     0.053 C 
BRANCH  21  22
ATOM     22  C   UNL     1      -0.641  15.990  -1.332  1.00  0.00     0.041 C 
ATOM     23  O   UNL     1      -1.760  16.005  -0.756  1.00  0.00    -0.550 OA
ATOM     24  O   UNL     1       0.521  15.990  -0.573  1.00  0.00    -0.550 OA
ENDBRANCH  21  22
ENDBRANCH  20  21
ENDBRANCH  19  20
ENDBRANCH  18  19
ENDBRANCH  17  18
ENDBRANCH  16  17
ENDBRANCH  15  16
ENDBRANCH  14  15
ENDBRANCH  13  14
ENDBRANCH   1  13
TORSDOF 20
ENDMDL
MODEL 8
REMARK VINA RESULT:    -2.439      2.983      7.781
REMARK INTER + INTRA:          -7.309
REMARK INTER:                  -6.504
REMARK INTRA:                  -0.805
REMARK UNBOUND:                -2.019
REMARK SMILES CCCCCCCCCCCCCCCCCCCCCC(=O)[O-]
REMARK SMILES IDX 12 1 11 2 10 3 9 4 8 5 7 6 6 7 5 8 4 9 3 10 2 11 1 12 13 13
REMARK SMILES IDX 14 14 15 15 16 16 17 17 18 18 19 19 20 20 21 21 22 22 23 23
REMARK SMILES IDX 24 24
REMARK H PARENT
REMARK Flexibility Score: inf
ROOT
ATOM      1  C   UNL     1      -1.862  12.776  -4.875  1.00  0.00     0.000 C 
ENDROOT
BRANCH   1   2
ATOM      2  C   UNL     1      -2.872  13.858  -4.459  1.00  0.00     0.000 C 
BRANCH   2   3
ATOM      3  C   UNL     1      -2.789  15.115  -5.343  1.00  0.00     0.000 C 
BRANCH   3   4
ATOM      4  C   UNL     1      -1.374  15.716  -5.391  1.00  0.00    -0.000 C 
BRANCH   4   5
ATOM      5  C   UNL     1      -1.248  17.140  -4.816  1.00  0.00    -0.000 C 
BRANCH   5   6
ATOM      6  C   UNL     1      -0.048  17.325  -3.864  1.00  0.00    -0.000 C 
BRANCH   6   7
ATOM      7  C   UNL     1       0.100  16.156  -2.874  1.00  0.00    -0.000 C 
BRANCH   7   8
ATOM      8  C   UNL     1      -1.165  15.933  -2.030  1.00  0.00    -0.000 C 
BRANCH   8   9
ATOM      9  C   UNL     1      -0.947  16.247  -0.540  1.00  0.00    -0.000 C 
BRANCH   9  10
ATOM     10  C   UNL     1       0.535  16.473  -0.190  1.00  0.00    -0.000 C 
BRANCH  10  11
ATOM     11  C   UNL     1       0.785  17.031   1.223  1.00  0.00    -0.003 C 
ATOM     12  C   UNL     1       1.874  16.273   1.980  1.00  0.00     0.004 C 
ENDBRANCH  10  11
ENDBRANCH   9  10
ENDBRANCH   8   9
ENDBRANCH   7   8
ENDBRANCH   6   7
ENDBRANCH   5   6
ENDBRANCH   4   5
ENDBRANCH   3   4
ENDBRANCH   2   3
ENDBRANCH   1   2
BRANCH   1  13
ATOM     13  C   UNL     1      -0.440  13.064  -4.365  1.00  0.00     0.000 C 
BRANCH  13  14
ATOM     14  C   UNL     1       0.279  11.765  -3.974  1.00  0.00     0.000 C 
BRANCH  14  15
ATOM     15  C   UNL     1       0.566  11.685  -2.465  1.00  0.00     0.000 C 
BRANCH  15  16
ATOM     16  C   UNL     1       0.686  10.234  -1.966  1.00  0.00     0.000 C 
BRANCH  16  17
ATOM     17  C   UNL     1       1.120  10.147  -0.493  1.00  0.00     0.000 C 
BRANCH  17  18
ATOM     18  C   UNL     1       0.638   8.888   0.253  1.00  0.00     0.000 C 
BRANCH  18  19
ATOM     19  C   UNL     1       1.472   7.626  -0.057  1.00  0.00     0.000 C 
BRANCH  19  20
ATOM     20  C   UNL     1       2.800   7.600   0.717  1.00  0.00     0.006 C 
BRANCH  20  21
ATOM     21  C   UNL     1       3.885   8.447   0.037  1.00  0.00     0.053 C 
BRANCH  21  22
ATOM     22  C   UNL     1       4.009   8.125  -1.420  1.00  0.00     0.041 C 
ATOM     23  O   UNL     1       4.029   6.926  -1.806  1.00  0.00    -0.550 OA
ATOM     24  O   UNL     1       4.125   9.147  -2.353  1.00  0.00    -0.550 OA
ENDBRANCH  21  22
ENDBRANCH  20  21
ENDBRANCH  19  20
ENDBRANCH  18  19
ENDBRANCH  17  18
ENDBRANCH  16  17
ENDBRANCH  15  16
ENDBRANCH  14  15
ENDBRANCH  13  14
ENDBRANCH   1  13
TORSDOF 20
ENDMDL
