MODEL 1
REMARK VINA RESULT:    -2.533      0.000      0.000
REMARK INTER + INTRA:          -3.796
REMARK INTER:                  -3.421
REMARK INTRA:                  -0.374
REMARK UNBOUND:                -0.374
REMARK SMILES CCCCCCCC(=O)[O-]
REMARK SMILES IDX 5 1 6 2 7 3 8 4 9 5 10 6 4 7 3 8 2 9 1 10
REMARK H PARENT
REMARK Flexibility Score: inf
ROOT
ATOM      1  C   UNL     1      -1.964  -9.635   3.409  1.00  0.00     0.000 C 
ENDROOT
BRANCH   1   2
ATOM      2  C   UNL     1      -3.210  -8.878   2.914  1.00  0.00     0.006 C 
BRANCH   2   3
ATOM      3  C   UNL     1      -3.762  -7.856   3.923  1.00  0.00     0.053 C 
BRANCH   3   4
ATOM      4  C   UNL     1      -4.863  -7.016   3.349  1.00  0.00     0.041 C 
ATOM      5  O   UNL     1      -4.788  -5.760   3.392  1.00  0.00    -0.550 OA
ATOM      6  O   UNL     1      -5.986  -7.618   2.798  1.00  0.00    -0.550 OA
ENDBRANCH   3   4
ENDBRANCH   2   3
ENDBRANCH   1   2
BRANCH   1   7
ATOM      7  C   UNL     1      -0.655  -8.876   3.150  1.00  0.00     0.000 C 
BRANCH   7   8
ATOM      8  C   UNL     1      -0.079  -8.311   4.454  1.00  0.00    -0.000 C 
BRANCH   8   9
ATOM      9  C   UNL     1       0.383  -6.861   4.269  1.00  0.00    -0.003 C 
ATOM     10  C   UNL     1      -0.594  -5.883   4.917  1.00  0.00     0.004 C 
ENDBRANCH   8   9
ENDBRANCH   7   8
ENDBRANCH   1   7
TORSDOF 6
ENDMDL
MODEL 2
REMARK VINA RESULT:    -2.497      2.644      4.294
REMARK INTER + INTRA:          -3.747
REMARK INTER:                  -3.261
REMARK INTRA:                  -0.486
REMARK UNBOUND:                -0.374
REMARK SMILES CCCCCCCC(=O)[O-]
REMARK SMILES IDX 5 1 6 2 7 3 8 4 9 5 10 6 4 7 3 8 2 9 1 10
REMARK H PARENT
REMARK Flexibility Score: inf
ROOT
ATOM      1  C   UNL     1      -1.579  -9.226   3.145  1.00  0.00     0.000 C 
ENDROOT
BRANCH   1   2
ATOM      2  C   UNL     1      -1.317  -8.854   4.615  1.00  0.00     0.006 C 
BRANCH   2   3
ATOM      3  C   UNL     1      -1.622  -7.383   4.950  1.00  0.00     0.053 C 
BRANCH   3   4
ATOM      4  C   UNL     1      -0.399  -6.518   4.912  1.00  0.00     0.041 C 
ATOM      5  O   UNL     1      -0.509  -5.264   4.956  1.00  0.00    -0.550 OA
ATOM      6  O   UNL     1       0.860  -7.092   4.791  1.00  0.00    -0.550 OA
ENDBRANCH   3   4
ENDBRANCH   2   3
ENDBRANCH   1   2
BRANCH   1   7
ATOM      7  C   UNL     1      -2.645 -10.319   2.981  1.00  0.00     0.000 C 
BRANCH   7   8
ATOM      8  C   UNL     1      -4.058  -9.728   3.070  1.00  0.00    -0.000 C 
BRANCH   8   9
ATOM      9  C   UNL     1      -4.177  -8.459   2.219  1.00  0.00    -0.003 C 
ATOM     10  C   UNL     1      -4.812  -7.321   3.012  1.00  0.00     0.004 C 
ENDBRANCH   8   9
ENDBRANCH   7   8
ENDBRANCH   1   7
TORSDOF 6
ENDMDL
MODEL 3
REMARK VINA RESULT:    -2.466     14.782     15.454
REMARK INTER + INTRA:          -3.706
REMARK INTER:                  -3.444
REMARK INTRA:                  -0.261
REMARK UNBOUND:                -0.374
REMARK SMILES CCCCCCCC(=O)[O-]
REMARK SMILES IDX 5 1 6 2 7 3 8 4 9 5 10 6 4 7 3 8 2 9 1 10
REMARK H PARENT
REMARK Flexibility Score: inf
ROOT
ATOM      1  C   UNL     1      12.055  -6.997   0.663  1.00  0.00     0.000 C 
ENDROOT
BRANCH   1   2
ATOM      2  C   UNL     1      13.072  -8.019   1.201  1.00  0.00     0.006 C 
BRANCH   2   3
ATOM      3  C   UNL     1      12.595  -9.479   1.116  1.00  0.00     0.053 C 
BRANCH   3   4
ATOM      4  C   UNL     1      11.950  -9.949   2.385  1.00  0.00     0.041 C 
ATOM      5  O   UNL     1      11.056 -10.835   2.350  1.00  0.00    -0.550 OA
ATOM      6  O   UNL     1      12.310  -9.385   3.602  1.00  0.00    -0.550 OA
ENDBRANCH   3   4
ENDBRANCH   2   3
ENDBRANCH   1   2
BRANCH   1   7
ATOM      7  C   UNL     1      12.489  -5.540   0.883  1.00  0.00     0.000 C 
BRANCH   7   8
ATOM      8  C   UNL     1      13.124  -5.358   2.267  1.00  0.00    -0.000 C 
BRANCH   8   9
ATOM      9  C   UNL     1      12.982  -3.911   2.751  1.00  0.00    -0.003 C 
ATOM     10  C   UNL     1      11.993  -3.134   1.887  1.00  0.00     0.004 C 
ENDBRANCH   8   9
ENDBRANCH   7   8
ENDBRANCH   1   7
TORSDOF 6
ENDMDL
MODEL 4
REMARK VINA RESULT:    -2.464     15.170     15.821
REMARK INTER + INTRA:          -3.703
REMARK INTER:                  -3.498
REMARK INTRA:                  -0.205
REMARK UNBOUND:                -0.374
REMARK SMILES CCCCCCCC(=O)[O-]
REMARK SMILES IDX 5 1 6 2 7 3 8 4 9 5 10 6 4 7 3 8 2 9 1 10
REMARK H PARENT
REMARK Flexibility Score: inf
ROOT
ATOM      1  C   UNL     1      12.548  -5.495   0.642  1.00  0.00     0.000 C 
ENDROOT
BRANCH   1   2
ATOM      2  C   UNL     1      12.059  -6.949   0.523  1.00  0.00     0.006 C 
BRANCH   2   3
ATOM      3  C   UNL     1      12.917  -7.962   1.303  1.00  0.00     0.053 C 
BRANCH   3   4
ATOM      4  C   UNL     1      12.597  -9.382   0.948  1.00  0.00     0.041 C 
ATOM      5  O   UNL     1      11.875 -10.078   1.710  1.00  0.00    -0.550 OA
ATOM      6  O   UNL     1      13.123  -9.950  -0.206  1.00  0.00    -0.550 OA
ENDBRANCH   3   4
ENDBRANCH   2   3
ENDBRANCH   1   2
BRANCH   1   7
ATOM      7  C   UNL     1      13.124  -5.163   2.026  1.00  0.00     0.000 C 
BRANCH   7   8
ATOM      8  C   UNL     1      13.115  -3.650   2.278  1.00  0.00    -0.000 C 
BRANCH   8   9
ATOM      9  C   UNL     1      12.380  -3.314   3.581  1.00  0.00    -0.003 C 
ATOM     10  C   UNL     1      12.814  -4.240   4.714  1.00  0.00     0.004 C 
ENDBRANCH   8   9
ENDBRANCH   7   8
ENDBRANCH   1   7
TORSDOF 6
ENDMDL
MODEL 5
REMARK VINA RESULT:    -2.414      3.076      4.700
REMARK INTER + INTRA:          -3.635
REMARK INTER:                  -3.252
REMARK INTRA:                  -0.382
REMARK UNBOUND:                -0.374
REMARK SMILES CCCCCCCC(=O)[O-]
REMARK SMILES IDX 5 1 6 2 7 3 8 4 9 5 10 6 4 7 3 8 2 9 1 10
REMARK H PARENT
REMARK Flexibility Score: inf
ROOT
ATOM      1  C   UNL     1      -4.041  -8.384   2.531  1.00  0.00     0.000 C 
ENDROOT
BRANCH   1   2
ATOM      2  C   UNL     1      -4.440  -7.515   3.737  1.00  0.00     0.006 C 
BRANCH   2   3
ATOM      3  C   UNL     1      -5.836  -6.879   3.614  1.00  0.00     0.053 C 
BRANCH   3   4
ATOM      4  C   UNL     1      -5.827  -5.409   3.909  1.00  0.00     0.041 C 
ATOM      5  O   UNL     1      -4.923  -4.674   3.432  1.00  0.00    -0.550 OA
ATOM      6  O   UNL     1      -6.795  -4.857   4.737  1.00  0.00    -0.550 OA
ENDBRANCH   3   4
ENDBRANCH   2   3
ENDBRANCH   1   2
BRANCH   1   7
ATOM      7  C   UNL     1      -4.695  -9.773   2.545  1.00  0.00     0.000 C 
BRANCH   7   8
ATOM      8  C   UNL     1      -5.403 -10.063   1.216  1.00  0.00    -0.000 C 
BRANCH   8   9
ATOM      9  C   UNL     1      -5.419  -8.819   0.320  1.00  0.00    -0.003 C 
ATOM     10  C   UNL     1      -6.661  -8.793  -0.566  1.00  0.00     0.004 C 
ENDBRANCH   8   9
ENDBRANCH   7   8
ENDBRANCH   1   7
TORSDOF 6
ENDMDL
MODEL 6
REMARK VINA RESULT:    -2.374     14.359     15.602
REMARK INTER + INTRA:          -3.581
REMARK INTER:                  -3.330
REMARK INTRA:                  -0.251
REMARK UNBOUND:                -0.374
REMARK SMILES CCCCCCCC(=O)[O-]
REMARK SMILES IDX 5 1 6 2 7 3 8 4 9 5 10 6 4 7 3 8 2 9 1 10
REMARK H PARENT
REMARK Flexibility Score: inf
ROOT
ATOM      1  C   UNL     1      12.330  -7.788   0.813  1.00  0.00     0.000 C 
ENDROOT
BRANCH   1   2
ATOM      2  C   UNL     1      13.119  -6.680   1.534  1.00  0.00     0.006 C 
BRANCH   2   3
ATOM      3  C   UNL     1      12.639  -5.256   1.203  1.00  0.00     0.053 C 
BRANCH   3   4
ATOM      4  C   UNL     1      12.794  -4.313   2.357  1.00  0.00     0.041 C 
ATOM      5  O   UNL     1      13.111  -4.752   3.494  1.00  0.00    -0.550 OA
ATOM      6  O   UNL     1      12.554  -2.955   2.188  1.00  0.00    -0.550 OA
ENDBRANCH   3   4
ENDBRANCH   2   3
ENDBRANCH   1   2
BRANCH   1   7
ATOM      7  C   UNL     1      13.125  -9.093   0.662  1.00  0.00     0.000 C 
BRANCH   7   8
ATOM      8  C   UNL     1      12.660 -10.142   1.680  1.00  0.00    -0.000 C 
BRANCH   8   9
ATOM      9  C   UNL     1      11.178  -9.956   2.024  1.00  0.00    -0.003 C 
ATOM     10  C   UNL     1      10.844 -10.571   3.380  1.00  0.00     0.004 C 
ENDBRANCH   8   9
ENDBRANCH   7   8
ENDBRANCH   1   7
TORSDOF 6
ENDMDL
MODEL 7
REMARK VINA RESULT:    -2.369      2.723      4.519
REMARK INTER + INTRA:          -3.574
REMARK INTER:                  -3.255
REMARK INTRA:                  -0.319
REMARK UNBOUND:                -0.374
REMARK SMILES CCCCCCCC(=O)[O-]
REMARK SMILES IDX 5 1 6 2 7 3 8 4 9 5 10 6 4 7 3 8 2 9 1 10
REMARK H PARENT
REMARK Flexibility Score: inf
ROOT
ATOM      1  C   UNL     1      -1.461  -9.314   3.143  1.00  0.00     0.000 C 
ENDROOT
BRANCH   1   2
ATOM      2  C   UNL     1      -1.117  -9.039   4.618  1.00  0.00     0.006 C 
BRANCH   2   3
ATOM      3  C   UNL     1      -1.444  -7.607   5.078  1.00  0.00     0.053 C 
BRANCH   3   4
ATOM      4  C   UNL     1      -0.296  -6.664   4.882  1.00  0.00     0.041 C 
ATOM      5  O   UNL     1       0.871  -7.110   4.728  1.00  0.00    -0.550 OA
ATOM      6  O   UNL     1      -0.508  -5.291   4.906  1.00  0.00    -0.550 OA
ENDBRANCH   3   4
ENDBRANCH   2   3
ENDBRANCH   1   2
BRANCH   1   7
ATOM      7  C   UNL     1      -2.302 -10.585   2.946  1.00  0.00     0.000 C 
BRANCH   7   8
ATOM      8  C   UNL     1      -3.761 -10.235   2.633  1.00  0.00    -0.000 C 
BRANCH   8   9
ATOM      9  C   UNL     1      -3.920  -8.736   2.352  1.00  0.00    -0.003 C 
ATOM     10  C   UNL     1      -5.220  -8.449   1.605  1.00  0.00     0.004 C 
ENDBRANCH   8   9
ENDBRANCH   7   8
ENDBRANCH   1   7
TORSDOF 6
ENDMDL
MODEL 8
REMARK VINA RESULT:    -2.318      1.651      1.907
REMARK INTER + INTRA:          -3.506
REMARK INTER:                  -3.191
REMARK INTRA:                  -0.315
REMARK UNBOUND:                -0.374
REMARK SMILES CCCCCCCC(=O)[O-]
REMARK SMILES IDX 5 1 6 2 7 3 8 4 9 5 10 6 4 7 3 8 2 9 1 10
REMARK H PARENT
REMARK Flexibility Score: inf
ROOT
ATOM      1  C   UNL     1      -2.775  -9.062   3.016  1.00  0.00     0.000 C 
ENDROOT
BRANCH   1   2
ATOM      2  C   UNL     1      -3.930  -8.270   3.655  1.00  0.00     0.006 C 
BRANCH   2   3
ATOM      3  C   UNL     1      -4.865  -7.597   2.635  1.00  0.00     0.053 C 
BRANCH   3   4
ATOM      4  C   UNL     1      -5.402  -8.561   1.621  1.00  0.00     0.041 C 
ATOM      5  O   UNL     1      -5.072  -8.456   0.410  1.00  0.00    -0.550 OA
ATOM      6  O   UNL     1      -6.295  -9.554   2.005  1.00  0.00    -0.550 OA
ENDBRANCH   3   4
ENDBRANCH   2   3
ENDBRANCH   1   2
BRANCH   1   7
ATOM      7  C   UNL     1      -1.423  -8.813   3.699  1.00  0.00     0.000 C 
BRANCH   7   8
ATOM      8  C   UNL     1      -1.538  -7.714   4.763  1.00  0.00    -0.000 C 
BRANCH   8   9
ATOM      9  C   UNL     1      -0.263  -6.864   4.816  1.00  0.00    -0.003 C 
ATOM     10  C   UNL     1      -0.593  -5.374   4.823  1.00  0.00     0.004 C 
ENDBRANCH   8   9
ENDBRANCH   7   8
ENDBRANCH   1   7
TORSDOF 6
ENDMDL
MODEL 9
REMARK VINA RESULT:    -2.295      1.692      2.730
REMARK INTER + INTRA:          -3.474
REMARK INTER:                  -3.081
REMARK INTRA:                  -0.393
REMARK UNBOUND:                -0.374
REMARK SMILES CCCCCCCC(=O)[O-]
REMARK SMILES IDX 5 1 6 2 7 3 8 4 9 5 10 6 4 7 3 8 2 9 1 10
REMARK H PARENT
REMARK Flexibility Score: inf
ROOT
ATOM      1  C   UNL     1      -4.281  -9.753   2.404  1.00  0.00     0.000 C 
ENDROOT
BRANCH   1   2
ATOM      2  C   UNL     1      -4.536  -8.272   2.073  1.00  0.00     0.006 C 
BRANCH   2   3
ATOM      3  C   UNL     1      -4.478  -7.339   3.296  1.00  0.00     0.053 C 
BRANCH   3   4
ATOM      4  C   UNL     1      -5.770  -6.619   3.532  1.00  0.00     0.041 C 
ATOM      5  O   UNL     1      -6.867  -7.216   3.367  1.00  0.00    -0.550 OA
ATOM      6  O   UNL     1      -5.767  -5.280   3.901  1.00  0.00    -0.550 OA
ENDBRANCH   3   4
ENDBRANCH   2   3
ENDBRANCH   1   2
BRANCH   1   7
ATOM      7  C   UNL     1      -3.126  -9.960   3.395  1.00  0.00     0.000 C 
BRANCH   7   8
ATOM      8  C   UNL     1      -2.133 -11.005   2.872  1.00  0.00    -0.000 C 
BRANCH   8   9
ATOM      9  C   UNL     1      -0.725 -10.412   2.745  1.00  0.00    -0.003 C 
ATOM     10  C   UNL     1      -0.703  -8.947   3.173  1.00  0.00     0.004 C 
ENDBRANCH   8   9
ENDBRANCH   7   8
ENDBRANCH   1   7
TORSDOF 6
ENDMDL
