MODEL 1
REMARK VINA RESULT:    -5.485      0.000      0.000
REMARK INTER + INTRA:          -6.444
REMARK INTER:                  -6.287
REMARK INTRA:                  -0.158
REMARK UNBOUND:                -0.158
REMARK SMILES CC=Cc1ccc(O)c(OC)c1
REMARK SMILES IDX 4 1 12 2 9 3 7 4 6 5 5 6 3 7 1 8 2 9 10 10 11 11 8 12
REMARK H PARENT 8 13
REMARK Flexibility Score: inf
ROOT
ATOM      1  C   UNL     1      28.451   7.131  32.497  1.00  0.00    -0.022 A 
ATOM      2  C   UNL     1      29.767   6.758  32.161  1.00  0.00     0.058 A 
ATOM      3  C   UNL     1      30.065   5.431  31.790  1.00  0.00     0.161 A 
ATOM      4  C   UNL     1      29.040   4.476  31.767  1.00  0.00     0.157 A 
ATOM      5  C   UNL     1      27.734   4.840  32.117  1.00  0.00     0.051 A 
ATOM      6  C   UNL     1      27.444   6.154  32.484  1.00  0.00     0.012 A 
ENDROOT
BRANCH   1   7
ATOM      7  C   UNL     1      28.091   8.512  32.903  1.00  0.00     0.003 C 
ATOM      8  C   UNL     1      27.006  10.710  32.646  1.00  0.00     0.035 C 
ATOM      9  C   UNL     1      27.339   9.335  32.161  1.00  0.00    -0.030 C 
ENDBRANCH   1   7
BRANCH   3  10
ATOM     10  O   UNL     1      31.363   5.023  31.442  1.00  0.00    -0.493 OA
ATOM     11  C   UNL     1      32.506   5.872  31.451  1.00  0.00     0.278 C 
ENDBRANCH   3  10
BRANCH   4  12
ATOM     12  O   UNL     1      29.328   3.163  31.399  1.00  0.00    -0.504 OA
ATOM     13  H   UNL     1      28.779   2.674  30.700  1.00  0.00     0.293 HD
ENDBRANCH   4  12
TORSDOF 3
ENDMDL
MODEL 2
REMARK VINA RESULT:    -5.340      3.069      5.007
REMARK INTER + INTRA:          -6.279
REMARK INTER:                  -6.134
REMARK INTRA:                  -0.145
REMARK UNBOUND:                -0.158
REMARK SMILES CC=Cc1ccc(O)c(OC)c1
REMARK SMILES IDX 4 1 12 2 9 3 7 4 6 5 5 6 3 7 1 8 2 9 10 10 11 11 8 12
REMARK H PARENT 8 13
REMARK Flexibility Score: inf
ROOT
ATOM      1  C   UNL     1      27.523   6.934  32.423  1.00  0.00    -0.022 A 
ATOM      2  C   UNL     1      28.395   7.547  33.345  1.00  0.00     0.058 A 
ATOM      3  C   UNL     1      28.310   8.930  33.605  1.00  0.00     0.161 A 
ATOM      4  C   UNL     1      27.353   9.699  32.929  1.00  0.00     0.157 A 
ATOM      5  C   UNL     1      26.497   9.097  32.000  1.00  0.00     0.051 A 
ATOM      6  C   UNL     1      26.585   7.728  31.745  1.00  0.00     0.012 A 
ENDROOT
BRANCH   1   7
ATOM      7  C   UNL     1      27.581   5.485  32.110  1.00  0.00     0.003 C 
ATOM      8  C   UNL     1      28.637   3.408  31.308  1.00  0.00     0.035 C 
ATOM      9  C   UNL     1      28.650   4.878  31.581  1.00  0.00    -0.030 C 
ENDBRANCH   1   7
BRANCH   3  10
ATOM     10  O   UNL     1      29.157   9.573  34.522  1.00  0.00    -0.493 OA
ATOM     11  C   UNL     1      30.324   8.989  35.091  1.00  0.00     0.278 C 
ENDBRANCH   3  10
BRANCH   4  12
ATOM     12  O   UNL     1      27.264  11.067  33.184  1.00  0.00    -0.504 OA
ATOM     13  H   UNL     1      27.107  11.737  32.439  1.00  0.00     0.293 HD
ENDBRANCH   4  12
TORSDOF 3
ENDMDL
MODEL 3
REMARK VINA RESULT:    -5.211      2.464      4.135
REMARK INTER + INTRA:          -6.130
REMARK INTER:                  -5.985
REMARK INTRA:                  -0.145
REMARK UNBOUND:                -0.158
REMARK SMILES CC=Cc1ccc(O)c(OC)c1
REMARK SMILES IDX 4 1 12 2 9 3 7 4 6 5 5 6 3 7 1 8 2 9 10 10 11 11 8 12
REMARK H PARENT 8 13
REMARK Flexibility Score: inf
ROOT
ATOM      1  C   UNL     1      28.444   4.491  31.458  1.00  0.00    -0.022 A 
ATOM      2  C   UNL     1      27.590   3.704  30.661  1.00  0.00     0.058 A 
ATOM      3  C   UNL     1      28.117   2.822  29.696  1.00  0.00     0.161 A 
ATOM      4  C   UNL     1      29.506   2.739  29.526  1.00  0.00     0.157 A 
ATOM      5  C   UNL     1      30.357   3.531  30.304  1.00  0.00     0.051 A 
ATOM      6  C   UNL     1      29.831   4.403  31.258  1.00  0.00     0.012 A 
ENDROOT
BRANCH   1   7
ATOM      7  C   UNL     1      27.936   5.440  32.479  1.00  0.00     0.003 C 
ATOM      8  C   UNL     1      26.791   7.472  33.274  1.00  0.00     0.035 C 
ATOM      9  C   UNL     1      27.288   6.574  32.187  1.00  0.00    -0.030 C 
ENDBRANCH   1   7
BRANCH   3  10
ATOM     10  O   UNL     1      27.297   2.018  28.887  1.00  0.00    -0.493 OA
ATOM     11  C   UNL     1      25.876   2.099  28.844  1.00  0.00     0.278 C 
ENDBRANCH   3  10
BRANCH   4  12
ATOM     12  O   UNL     1      30.032   1.867  28.575  1.00  0.00    -0.504 OA
ATOM     13  H   UNL     1      29.459   1.480  27.833  1.00  0.00     0.293 HD
ENDBRANCH   4  12
TORSDOF 3
ENDMDL
MODEL 4
REMARK VINA RESULT:    -5.142      1.470      2.859
REMARK INTER + INTRA:          -6.051
REMARK INTER:                  -5.876
REMARK INTRA:                  -0.176
REMARK UNBOUND:                -0.158
REMARK SMILES CC=Cc1ccc(O)c(OC)c1
REMARK SMILES IDX 4 1 12 2 9 3 7 4 6 5 5 6 3 7 1 8 2 9 10 10 11 11 8 12
REMARK H PARENT 8 13
REMARK Flexibility Score: inf
ROOT
ATOM      1  C   UNL     1      28.231   5.935  32.145  1.00  0.00    -0.022 A 
ATOM      2  C   UNL     1      27.810   4.659  31.723  1.00  0.00     0.058 A 
ATOM      3  C   UNL     1      28.748   3.699  31.290  1.00  0.00     0.161 A 
ATOM      4  C   UNL     1      30.110   4.027  31.273  1.00  0.00     0.157 A 
ATOM      5  C   UNL     1      30.531   5.300  31.676  1.00  0.00     0.051 A 
ATOM      6  C   UNL     1      29.599   6.247  32.103  1.00  0.00     0.012 A 
ENDROOT
BRANCH   1   7
ATOM      7  C   UNL     1      27.281   6.980  32.600  1.00  0.00     0.003 C 
ATOM      8  C   UNL     1      25.893   9.001  32.359  1.00  0.00     0.035 C 
ATOM      9  C   UNL     1      26.865   7.995  31.833  1.00  0.00    -0.030 C 
ENDBRANCH   1   7
BRANCH   3  10
ATOM     10  O   UNL     1      28.367   2.415  30.869  1.00  0.00    -0.493 OA
ATOM     11  C   UNL     1      27.806   2.116  29.594  1.00  0.00     0.278 C 
ENDBRANCH   3  10
BRANCH   4  12
ATOM     12  O   UNL     1      31.042   3.082  30.848  1.00  0.00    -0.504 OA
ATOM     13  H   UNL     1      32.035   3.200  31.019  1.00  0.00     0.293 HD
ENDBRANCH   4  12
TORSDOF 3
ENDMDL
MODEL 5
REMARK VINA RESULT:    -5.134      2.368      4.997
REMARK INTER + INTRA:          -6.042
REMARK INTER:                  -5.882
REMARK INTRA:                  -0.160
REMARK UNBOUND:                -0.158
REMARK SMILES CC=Cc1ccc(O)c(OC)c1
REMARK SMILES IDX 4 1 12 2 9 3 7 4 6 5 5 6 3 7 1 8 2 9 10 10 11 11 8 12
REMARK H PARENT 8 13
REMARK Flexibility Score: inf
ROOT
ATOM      1  C   UNL     1      28.510   4.310  31.391  1.00  0.00    -0.022 A 
ATOM      2  C   UNL     1      27.781   5.345  32.010  1.00  0.00     0.058 A 
ATOM      3  C   UNL     1      28.433   6.508  32.467  1.00  0.00     0.161 A 
ATOM      4  C   UNL     1      29.820   6.627  32.310  1.00  0.00     0.157 A 
ATOM      5  C   UNL     1      30.549   5.594  31.711  1.00  0.00     0.051 A 
ATOM      6  C   UNL     1      29.901   4.443  31.260  1.00  0.00     0.012 A 
ENDROOT
BRANCH   1   7
ATOM      7  C   UNL     1      27.870   3.063  30.903  1.00  0.00     0.003 C 
ATOM      8  C   UNL     1      26.446   1.713  29.412  1.00  0.00     0.035 C 
ATOM      9  C   UNL     1      27.040   3.012  29.853  1.00  0.00    -0.030 C 
ENDBRANCH   1   7
BRANCH   3  10
ATOM     10  O   UNL     1      27.739   7.563  33.082  1.00  0.00    -0.493 OA
ATOM     11  C   UNL     1      27.052   8.596  32.382  1.00  0.00     0.278 C 
ENDBRANCH   3  10
BRANCH   4  12
ATOM     12  O   UNL     1      30.468   7.777  32.758  1.00  0.00    -0.504 OA
ATOM     13  H   UNL     1      31.453   7.937  32.574  1.00  0.00     0.293 HD
ENDBRANCH   4  12
TORSDOF 3
ENDMDL
MODEL 6
REMARK VINA RESULT:    -5.116      1.688      2.394
REMARK INTER + INTRA:          -6.021
REMARK INTER:                  -5.875
REMARK INTRA:                  -0.146
REMARK UNBOUND:                -0.158
REMARK SMILES CC=Cc1ccc(O)c(OC)c1
REMARK SMILES IDX 4 1 12 2 9 3 7 4 6 5 5 6 3 7 1 8 2 9 10 10 11 11 8 12
REMARK H PARENT 8 13
REMARK Flexibility Score: inf
ROOT
ATOM      1  C   UNL     1      28.365   4.817  31.676  1.00  0.00    -0.022 A 
ATOM      2  C   UNL     1      29.752   4.900  31.441  1.00  0.00     0.058 A 
ATOM      3  C   UNL     1      30.384   4.010  30.549  1.00  0.00     0.161 A 
ATOM      4  C   UNL     1      29.623   3.031  29.898  1.00  0.00     0.157 A 
ATOM      5  C   UNL     1      28.248   2.935  30.141  1.00  0.00     0.051 A 
ATOM      6  C   UNL     1      27.626   3.817  31.026  1.00  0.00     0.012 A 
ENDROOT
BRANCH   1   7
ATOM      7  C   UNL     1      27.658   5.724  32.612  1.00  0.00     0.003 C 
ATOM      8  C   UNL     1      26.625   7.845  33.324  1.00  0.00     0.035 C 
ATOM      9  C   UNL     1      27.354   6.997  32.332  1.00  0.00    -0.030 C 
ENDBRANCH   1   7
BRANCH   3  10
ATOM     10  O   UNL     1      31.763   4.067  30.285  1.00  0.00    -0.493 OA
ATOM     11  C   UNL     1      32.568   5.230  30.443  1.00  0.00     0.278 C 
ENDBRANCH   3  10
BRANCH   4  12
ATOM     12  O   UNL     1      30.243   2.151  29.013  1.00  0.00    -0.504 OA
ATOM     13  H   UNL     1      30.853   2.483  28.274  1.00  0.00     0.293 HD
ENDBRANCH   4  12
TORSDOF 3
ENDMDL
MODEL 7
REMARK VINA RESULT:    -5.082      2.021      4.275
REMARK INTER + INTRA:          -5.983
REMARK INTER:                  -5.820
REMARK INTRA:                  -0.162
REMARK UNBOUND:                -0.158
REMARK SMILES CC=Cc1ccc(O)c(OC)c1
REMARK SMILES IDX 4 1 12 2 9 3 7 4 6 5 5 6 3 7 1 8 2 9 10 10 11 11 8 12
REMARK H PARENT 8 13
REMARK Flexibility Score: inf
ROOT
ATOM      1  C   UNL     1      28.395   4.370  31.467  1.00  0.00    -0.022 A 
ATOM      2  C   UNL     1      29.790   4.559  31.396  1.00  0.00     0.058 A 
ATOM      3  C   UNL     1      30.379   5.746  31.878  1.00  0.00     0.161 A 
ATOM      4  C   UNL     1      29.564   6.747  32.422  1.00  0.00     0.157 A 
ATOM      5  C   UNL     1      28.177   6.570  32.479  1.00  0.00     0.051 A 
ATOM      6  C   UNL     1      27.597   5.394  32.001  1.00  0.00     0.012 A 
ENDROOT
BRANCH   1   7
ATOM      7  C   UNL     1      27.729   3.143  30.966  1.00  0.00     0.003 C 
ATOM      8  C   UNL     1      26.398   1.807  29.380  1.00  0.00     0.035 C 
ATOM      9  C   UNL     1      27.028   3.087  29.827  1.00  0.00    -0.030 C 
ENDBRANCH   1   7
BRANCH   3  10
ATOM     10  O   UNL     1      31.765   5.968  31.829  1.00  0.00    -0.493 OA
ATOM     11  C   UNL     1      32.609   5.576  30.751  1.00  0.00     0.278 C 
ENDBRANCH   3  10
BRANCH   4  12
ATOM     12  O   UNL     1      30.142   7.922  32.902  1.00  0.00    -0.504 OA
ATOM     13  H   UNL     1      31.146   8.012  33.014  1.00  0.00     0.293 HD
ENDBRANCH   4  12
TORSDOF 3
ENDMDL
MODEL 8
REMARK VINA RESULT:    -4.973      3.553      5.172
REMARK INTER + INTRA:          -5.858
REMARK INTER:                  -5.704
REMARK INTRA:                  -0.154
REMARK UNBOUND:                -0.158
REMARK SMILES CC=Cc1ccc(O)c(OC)c1
REMARK SMILES IDX 4 1 12 2 9 3 7 4 6 5 5 6 3 7 1 8 2 9 10 10 11 11 8 12
REMARK H PARENT 8 13
REMARK Flexibility Score: inf
ROOT
ATOM      1  C   UNL     1      28.864  10.364  35.476  1.00  0.00    -0.022 A 
ATOM      2  C   UNL     1      27.891  10.167  34.476  1.00  0.00     0.058 A 
ATOM      3  C   UNL     1      28.064   9.173  33.491  1.00  0.00     0.161 A 
ATOM      4  C   UNL     1      29.221   8.384  33.506  1.00  0.00     0.157 A 
ATOM      5  C   UNL     1      30.197   8.588  34.489  1.00  0.00     0.051 A 
ATOM      6  C   UNL     1      30.022   9.573  35.462  1.00  0.00     0.012 A 
ENDROOT
BRANCH   1   7
ATOM      7  C   UNL     1      28.730  11.402  36.528  1.00  0.00     0.003 C 
ATOM      8  C   UNL     1      27.979  13.553  37.468  1.00  0.00     0.035 C 
ATOM      9  C   UNL     1      28.084  12.562  36.353  1.00  0.00    -0.030 C 
ENDBRANCH   1   7
BRANCH   3  10
ATOM     10  O   UNL     1      27.113   8.944  32.483  1.00  0.00    -0.493 OA
ATOM     11  C   UNL     1      26.540   9.960  31.667  1.00  0.00     0.278 C 
ENDBRANCH   3  10
BRANCH   4  12
ATOM     12  O   UNL     1      29.396   7.398  32.536  1.00  0.00    -0.504 OA
ATOM     13  H   UNL     1      29.274   6.414  32.750  1.00  0.00     0.293 HD
ENDBRANCH   4  12
TORSDOF 3
ENDMDL
MODEL 9
REMARK VINA RESULT:    -4.776      2.942      5.761
REMARK INTER + INTRA:          -5.631
REMARK INTER:                  -5.487
REMARK INTRA:                  -0.144
REMARK UNBOUND:                -0.158
REMARK SMILES CC=Cc1ccc(O)c(OC)c1
REMARK SMILES IDX 4 1 12 2 9 3 7 4 6 5 5 6 3 7 1 8 2 9 10 10 11 11 8 12
REMARK H PARENT 8 13
REMARK Flexibility Score: inf
ROOT
ATOM      1  C   UNL     1      30.347   3.362  29.490  1.00  0.00    -0.022 A 
ATOM      2  C   UNL     1      29.483   3.891  30.469  1.00  0.00     0.058 A 
ATOM      3  C   UNL     1      29.947   4.845  31.397  1.00  0.00     0.161 A 
ATOM      4  C   UNL     1      31.284   5.262  31.346  1.00  0.00     0.157 A 
ATOM      5  C   UNL     1      32.149   4.727  30.386  1.00  0.00     0.051 A 
ATOM      6  C   UNL     1      31.687   3.782  29.469  1.00  0.00     0.012 A 
ENDROOT
BRANCH   1   7
ATOM      7  C   UNL     1      29.908   2.349  28.499  1.00  0.00     0.003 C 
ATOM      8  C   UNL     1      28.442   1.415  26.753  1.00  0.00     0.035 C 
ATOM      9  C   UNL     1      28.811   2.474  27.742  1.00  0.00    -0.030 C 
ENDBRANCH   1   7
BRANCH   3  10
ATOM     10  O   UNL     1      29.113   5.399  32.383  1.00  0.00    -0.493 OA
ATOM     11  C   UNL     1      27.693   5.463  32.298  1.00  0.00     0.278 C 
ENDBRANCH   3  10
BRANCH   4  12
ATOM     12  O   UNL     1      31.746   6.207  32.260  1.00  0.00    -0.504 OA
ATOM     13  H   UNL     1      31.763   6.019  33.257  1.00  0.00     0.293 HD
ENDBRANCH   4  12
TORSDOF 3
ENDMDL
