MODEL 1
REMARK VINA RESULT:    -3.011      0.000      0.000
REMARK INTER + INTRA:          -6.257
REMARK INTER:                  -5.475
REMARK INTRA:                  -0.781
REMARK UNBOUND:                -0.781
REMARK SMILES CCCCCC=CCC=CCCCCCCCC(=O)[O-]
REMARK SMILES IDX 11 1 12 2 13 3 14 4 15 5 16 6 17 7 18 8 19 9 20 10 10 11
REMARK SMILES IDX 9 12 8 13 7 14 6 15 5 16 4 17 3 18 2 19 1 20
REMARK H PARENT
REMARK Flexibility Score: inf
ROOT
ATOM      1  C   UNL     1     -14.944 -12.051  18.889  1.00  0.00     0.027 C 
ENDROOT
BRANCH   1   2
ATOM      2  C   UNL     1     -15.123 -11.983  20.413  1.00  0.00     0.004 C 
BRANCH   2   3
ATOM      3  C   UNL     1     -14.314 -13.061  21.153  1.00  0.00     0.000 C 
BRANCH   3   4
ATOM      4  C   UNL     1     -12.812 -12.743  21.207  1.00  0.00     0.000 C 
BRANCH   4   5
ATOM      5  C   UNL     1     -11.978 -13.953  20.769  1.00  0.00     0.000 C 
BRANCH   5   6
ATOM      6  C   UNL     1     -11.373 -13.731  19.379  1.00  0.00     0.006 C 
BRANCH   6   7
ATOM      7  C   UNL     1     -11.143 -12.240  19.112  1.00  0.00     0.053 C 
BRANCH   7   8
ATOM      8  C   UNL     1     -11.436 -11.913  17.682  1.00  0.00     0.041 C 
ATOM      9  O   UNL     1     -11.334 -12.801  16.795  1.00  0.00    -0.550 OA
ATOM     10  O   UNL     1     -11.773 -10.615  17.320  1.00  0.00    -0.550 OA
ENDBRANCH   7   8
ENDBRANCH   6   7
ENDBRANCH   5   6
ENDBRANCH   4   5
ENDBRANCH   3   4
ENDBRANCH   2   3
ENDBRANCH   1   2
BRANCH   1  11
ATOM     11  C   UNL     1     -15.101 -13.460  18.387  1.00  0.00    -0.031 C 
ATOM     12  C   UNL     1     -14.943 -14.517  19.197  1.00  0.00    -0.027 C 
BRANCH  12  13
ATOM     13  C   UNL     1     -15.125 -15.924  18.704  1.00  0.00     0.054 C 
BRANCH  13  14
ATOM     14  C   UNL     1     -14.679 -16.914  19.743  1.00  0.00    -0.027 C 
ATOM     15  C   UNL     1     -14.809 -16.665  21.055  1.00  0.00    -0.031 C 
BRANCH  15  16
ATOM     16  C   UNL     1     -14.338 -17.646  22.092  1.00  0.00     0.027 C 
BRANCH  16  17
ATOM     17  C   UNL     1     -15.124 -17.490  23.400  1.00  0.00     0.004 C 
BRANCH  17  18
ATOM     18  C   UNL     1     -14.227 -16.946  24.518  1.00  0.00     0.000 C 
BRANCH  18  19
ATOM     19  C   UNL     1     -14.787 -15.635  25.083  1.00  0.00    -0.003 C 
ATOM     20  C   UNL     1     -14.479 -14.461  24.158  1.00  0.00     0.004 C 
ENDBRANCH  18  19
ENDBRANCH  17  18
ENDBRANCH  16  17
ENDBRANCH  15  16
ENDBRANCH  13  14
ENDBRANCH  12  13
ENDBRANCH   1  11
TORSDOF 14
ENDMDL
MODEL 2
REMARK VINA RESULT:    -2.380      2.515      5.978
REMARK INTER + INTRA:          -5.109
REMARK INTER:                  -4.353
REMARK INTRA:                  -0.757
REMARK UNBOUND:                -0.781
REMARK SMILES CCCCCC=CCC=CCCCCCCCC(=O)[O-]
REMARK SMILES IDX 11 1 12 2 13 3 14 4 15 5 16 6 17 7 18 8 19 9 20 10 10 11
REMARK SMILES IDX 9 12 8 13 7 14 6 15 5 16 4 17 3 18 2 19 1 20
REMARK H PARENT
REMARK Flexibility Score: inf
ROOT
ATOM      1  C   UNL     1     -15.010 -15.807  19.036  1.00  0.00     0.027 C 
ENDROOT
BRANCH   1   2
ATOM      2  C   UNL     1     -13.608 -16.435  19.009  1.00  0.00     0.004 C 
BRANCH   2   3
ATOM      3  C   UNL     1     -13.330 -17.313  20.240  1.00  0.00     0.000 C 
BRANCH   3   4
ATOM      4  C   UNL     1     -14.594 -18.008  20.771  1.00  0.00     0.000 C 
BRANCH   4   5
ATOM      5  C   UNL     1     -15.119 -17.304  22.028  1.00  0.00     0.000 C 
BRANCH   5   6
ATOM      6  C   UNL     1     -14.060 -17.291  23.135  1.00  0.00     0.006 C 
BRANCH   6   7
ATOM      7  C   UNL     1     -14.378 -16.222  24.186  1.00  0.00     0.053 C 
BRANCH   7   8
ATOM      8  C   UNL     1     -13.916 -14.877  23.722  1.00  0.00     0.041 C 
ATOM      9  O   UNL     1     -14.569 -13.844  24.026  1.00  0.00    -0.550 OA
ATOM     10  O   UNL     1     -12.792 -14.769  22.913  1.00  0.00    -0.550 OA
ENDBRANCH   7   8
ENDBRANCH   6   7
ENDBRANCH   5   6
ENDBRANCH   4   5
ENDBRANCH   3   4
ENDBRANCH   2   3
ENDBRANCH   1   2
BRANCH   1  11
ATOM     11  C   UNL     1     -14.935 -14.321  19.254  1.00  0.00    -0.031 C 
ATOM     12  C   UNL     1     -15.118 -13.779  20.467  1.00  0.00    -0.027 C 
BRANCH  12  13
ATOM     13  C   UNL     1     -15.018 -12.297  20.692  1.00  0.00     0.054 C 
BRANCH  13  14
ATOM     14  C   UNL     1     -14.013 -11.684  19.759  1.00  0.00    -0.027 C 
ATOM     15  C   UNL     1     -13.926 -12.057  18.473  1.00  0.00    -0.031 C 
BRANCH  15  16
ATOM     16  C   UNL     1     -12.902 -11.460  17.548  1.00  0.00     0.027 C 
BRANCH  16  17
ATOM     17  C   UNL     1     -11.546 -12.163  17.693  1.00  0.00     0.004 C 
BRANCH  17  18
ATOM     18  C   UNL     1     -11.718 -13.577  18.261  1.00  0.00     0.000 C 
BRANCH  18  19
ATOM     19  C   UNL     1     -11.219 -13.652  19.708  1.00  0.00    -0.003 C 
ATOM     20  C   UNL     1     -10.393 -12.420  20.071  1.00  0.00     0.004 C 
ENDBRANCH  18  19
ENDBRANCH  17  18
ENDBRANCH  16  17
ENDBRANCH  15  16
ENDBRANCH  13  14
ENDBRANCH  12  13
ENDBRANCH   1  11
TORSDOF 14
ENDMDL
MODEL 3
REMARK VINA RESULT:    -2.285      2.309      4.217
REMARK INTER + INTRA:          -4.937
REMARK INTER:                  -4.426
REMARK INTRA:                  -0.511
REMARK UNBOUND:                -0.781
REMARK SMILES CCCCCC=CCC=CCCCCCCCC(=O)[O-]
REMARK SMILES IDX 11 1 12 2 13 3 14 4 15 5 16 6 17 7 18 8 19 9 20 10 10 11
REMARK SMILES IDX 9 12 8 13 7 14 6 15 5 16 4 17 3 18 2 19 1 20
REMARK H PARENT
REMARK Flexibility Score: inf
ROOT
ATOM      1  C   UNL     1     -11.380 -11.645  18.130  1.00  0.00     0.027 C 
ENDROOT
BRANCH   1   2
ATOM      2  C   UNL     1     -12.910 -11.519  18.150  1.00  0.00     0.004 C 
BRANCH   2   3
ATOM      3  C   UNL     1     -13.618 -12.882  18.077  1.00  0.00     0.000 C 
BRANCH   3   4
ATOM      4  C   UNL     1     -15.060 -12.830  18.604  1.00  0.00     0.000 C 
BRANCH   4   5
ATOM      5  C   UNL     1     -15.125 -13.276  20.070  1.00  0.00     0.000 C 
BRANCH   5   6
ATOM      6  C   UNL     1     -15.071 -14.803  20.184  1.00  0.00     0.006 C 
BRANCH   6   7
ATOM      7  C   UNL     1     -14.229 -15.409  19.057  1.00  0.00     0.053 C 
BRANCH   7   8
ATOM      8  C   UNL     1     -13.783 -16.790  19.420  1.00  0.00     0.041 C 
ATOM      9  O   UNL     1     -13.711 -17.135  20.629  1.00  0.00    -0.550 OA
ATOM     10  O   UNL     1     -13.398 -17.681  18.427  1.00  0.00    -0.550 OA
ENDBRANCH   7   8
ENDBRANCH   6   7
ENDBRANCH   5   6
ENDBRANCH   4   5
ENDBRANCH   3   4
ENDBRANCH   2   3
ENDBRANCH   1   2
BRANCH   1  11
ATOM     11  C   UNL     1     -10.909 -12.702  19.091  1.00  0.00    -0.031 C 
ATOM     12  C   UNL     1     -11.728 -13.228  20.014  1.00  0.00    -0.027 C 
BRANCH  12  13
ATOM     13  C   UNL     1     -11.268 -14.303  20.957  1.00  0.00     0.054 C 
BRANCH  13  14
ATOM     14  C   UNL     1     -12.153 -14.361  22.169  1.00  0.00    -0.027 C 
ATOM     15  C   UNL     1     -12.571 -13.248  22.792  1.00  0.00    -0.031 C 
BRANCH  15  16
ATOM     16  C   UNL     1     -13.435 -13.309  24.020  1.00  0.00     0.027 C 
BRANCH  16  17
ATOM     17  C   UNL     1     -14.669 -14.190  23.787  1.00  0.00     0.004 C 
BRANCH  17  18
ATOM     18  C   UNL     1     -15.125 -14.853  25.092  1.00  0.00     0.000 C 
BRANCH  18  19
ATOM     19  C   UNL     1     -14.784 -16.348  25.096  1.00  0.00    -0.003 C 
ATOM     20  C   UNL     1     -14.572 -16.869  23.677  1.00  0.00     0.004 C 
ENDBRANCH  18  19
ENDBRANCH  17  18
ENDBRANCH  16  17
ENDBRANCH  15  16
ENDBRANCH  13  14
ENDBRANCH  12  13
ENDBRANCH   1  11
TORSDOF 14
ENDMDL
MODEL 4
REMARK VINA RESULT:    -2.096      1.127      3.439
REMARK INTER + INTRA:          -4.593
REMARK INTER:                  -4.350
REMARK INTRA:                  -0.244
REMARK UNBOUND:                -0.781
REMARK SMILES CCCCCC=CCC=CCCCCCCCC(=O)[O-]
REMARK SMILES IDX 11 1 12 2 13 3 14 4 15 5 16 6 17 7 18 8 19 9 20 10 10 11
REMARK SMILES IDX 9 12 8 13 7 14 6 15 5 16 4 17 3 18 2 19 1 20
REMARK H PARENT
REMARK Flexibility Score: inf
ROOT
ATOM      1  C   UNL     1     -11.506 -13.904  19.788  1.00  0.00     0.027 C 
ENDROOT
BRANCH   1   2
ATOM      2  C   UNL     1     -12.251 -15.205  19.457  1.00  0.00     0.004 C 
BRANCH   2   3
ATOM      3  C   UNL     1     -13.614 -14.954  18.793  1.00  0.00     0.000 C 
BRANCH   3   4
ATOM      4  C   UNL     1     -14.634 -14.322  19.752  1.00  0.00     0.000 C 
BRANCH   4   5
ATOM      5  C   UNL     1     -15.125 -12.970  19.218  1.00  0.00     0.000 C 
BRANCH   5   6
ATOM      6  C   UNL     1     -14.302 -12.526  18.004  1.00  0.00     0.006 C 
BRANCH   6   7
ATOM      7  C   UNL     1     -13.390 -11.347  18.361  1.00  0.00     0.053 C 
BRANCH   7   8
ATOM      8  C   UNL     1     -12.141 -11.384  17.539  1.00  0.00     0.041 C 
ATOM      9  O   UNL     1     -11.742 -12.470  17.041  1.00  0.00    -0.550 OA
ATOM     10  O   UNL     1     -11.390 -10.229  17.363  1.00  0.00    -0.550 OA
ENDBRANCH   7   8
ENDBRANCH   6   7
ENDBRANCH   5   6
ENDBRANCH   4   5
ENDBRANCH   3   4
ENDBRANCH   2   3
ENDBRANCH   1   2
BRANCH   1  11
ATOM     11  C   UNL     1     -12.012 -13.298  21.068  1.00  0.00    -0.031 C 
ATOM     12  C   UNL     1     -12.710 -14.019  21.958  1.00  0.00    -0.027 C 
BRANCH  12  13
ATOM     13  C   UNL     1     -13.194 -13.423  23.250  1.00  0.00     0.054 C 
BRANCH  13  14
ATOM     14  C   UNL     1     -13.537 -14.502  24.237  1.00  0.00    -0.027 C 
ATOM     15  C   UNL     1     -14.656 -15.234  24.121  1.00  0.00    -0.031 C 
BRANCH  15  16
ATOM     16  C   UNL     1     -15.010 -16.295  25.125  1.00  0.00     0.027 C 
BRANCH  16  17
ATOM     17  C   UNL     1     -14.829 -17.700  24.535  1.00  0.00     0.004 C 
BRANCH  17  18
ATOM     18  C   UNL     1     -14.103 -17.639  23.186  1.00  0.00     0.000 C 
BRANCH  18  19
ATOM     19  C   UNL     1     -15.095 -17.432  22.037  1.00  0.00    -0.003 C 
ATOM     20  C   UNL     1     -14.493 -17.866  20.703  1.00  0.00     0.004 C 
ENDBRANCH  18  19
ENDBRANCH  17  18
ENDBRANCH  16  17
ENDBRANCH  15  16
ENDBRANCH  13  14
ENDBRANCH  12  13
ENDBRANCH   1  11
TORSDOF 14
ENDMDL
MODEL 5
REMARK VINA RESULT:    -2.006     18.743     23.252
REMARK INTER + INTRA:          -4.429
REMARK INTER:                  -3.870
REMARK INTRA:                  -0.559
REMARK UNBOUND:                -0.781
REMARK SMILES CCCCCC=CCC=CCCCCCCCC(=O)[O-]
REMARK SMILES IDX 11 1 12 2 13 3 14 4 15 5 16 6 17 7 18 8 19 9 20 10 10 11
REMARK SMILES IDX 9 12 8 13 7 14 6 15 5 16 4 17 3 18 2 19 1 20
REMARK H PARENT
REMARK Flexibility Score: inf
ROOT
ATOM      1  C   UNL     1       3.595  -2.925  11.520  1.00  0.00     0.027 C 
ENDROOT
BRANCH   1   2
ATOM      2  C   UNL     1       3.978  -4.397  11.730  1.00  0.00     0.004 C 
BRANCH   2   3
ATOM      3  C   UNL     1       4.848  -4.610  12.979  1.00  0.00     0.000 C 
BRANCH   3   4
ATOM      4  C   UNL     1       4.209  -5.576  13.990  1.00  0.00     0.000 C 
BRANCH   4   5
ATOM      5  C   UNL     1       2.687  -5.631  13.809  1.00  0.00     0.000 C 
BRANCH   5   6
ATOM      6  C   UNL     1       2.108  -6.917  14.409  1.00  0.00     0.006 C 
BRANCH   6   7
ATOM      7  C   UNL     1       1.097  -6.600  15.516  1.00  0.00     0.053 C 
BRANCH   7   8
ATOM      8  C   UNL     1      -0.032  -7.581  15.491  1.00  0.00     0.041 C 
ATOM      9  O   UNL     1      -1.206  -7.203  15.750  1.00  0.00    -0.550 OA
ATOM     10  O   UNL     1       0.217  -8.922  15.229  1.00  0.00    -0.550 OA
ENDBRANCH   7   8
ENDBRANCH   6   7
ENDBRANCH   5   6
ENDBRANCH   4   5
ENDBRANCH   3   4
ENDBRANCH   2   3
ENDBRANCH   1   2
BRANCH   1  11
ATOM     11  C   UNL     1       4.388  -2.312  10.399  1.00  0.00    -0.031 C 
ATOM     12  C   UNL     1       4.184  -2.663   9.121  1.00  0.00    -0.027 C 
BRANCH  12  13
ATOM     13  C   UNL     1       4.956  -2.033   7.996  1.00  0.00     0.054 C 
BRANCH  13  14
ATOM     14  C   UNL     1       5.117  -0.557   8.223  1.00  0.00    -0.027 C 
ATOM     15  C   UNL     1       4.135   0.186   8.757  1.00  0.00    -0.031 C 
BRANCH  15  16
ATOM     16  C   UNL     1       4.289   1.668   8.958  1.00  0.00     0.027 C 
BRANCH  16  17
ATOM     17  C   UNL     1       5.069   1.975  10.243  1.00  0.00     0.004 C 
BRANCH  17  18
ATOM     18  C   UNL     1       4.677   1.010  11.368  1.00  0.00     0.000 C 
BRANCH  18  19
ATOM     19  C   UNL     1       4.361   1.771  12.660  1.00  0.00    -0.003 C 
ATOM     20  C   UNL     1       4.770   0.965  13.889  1.00  0.00     0.004 C 
ENDBRANCH  18  19
ENDBRANCH  17  18
ENDBRANCH  16  17
ENDBRANCH  15  16
ENDBRANCH  13  14
ENDBRANCH  12  13
ENDBRANCH   1  11
TORSDOF 14
ENDMDL
MODEL 6
REMARK VINA RESULT:    -1.962     18.306     21.996
REMARK INTER + INTRA:          -4.350
REMARK INTER:                  -3.464
REMARK INTRA:                  -0.886
REMARK UNBOUND:                -0.781
REMARK SMILES CCCCCC=CCC=CCCCCCCCC(=O)[O-]
REMARK SMILES IDX 11 1 12 2 13 3 14 4 15 5 16 6 17 7 18 8 19 9 20 10 10 11
REMARK SMILES IDX 9 12 8 13 7 14 6 15 5 16 4 17 3 18 2 19 1 20
REMARK H PARENT
REMARK Flexibility Score: inf
ROOT
ATOM      1  C   UNL     1       4.141  -3.345   9.537  1.00  0.00     0.027 C 
ENDROOT
BRANCH   1   2
ATOM      2  C   UNL     1       5.054  -2.224   9.019  1.00  0.00     0.004 C 
BRANCH   2   3
ATOM      3  C   UNL     1       4.265  -1.010   8.502  1.00  0.00     0.000 C 
BRANCH   3   4
ATOM      4  C   UNL     1       4.863   0.327   8.967  1.00  0.00     0.000 C 
BRANCH   4   5
ATOM      5  C   UNL     1       3.757   1.333   9.307  1.00  0.00     0.000 C 
BRANCH   5   6
ATOM      6  C   UNL     1       3.890   1.831  10.751  1.00  0.00     0.006 C 
BRANCH   6   7
ATOM      7  C   UNL     1       5.117   1.217  11.432  1.00  0.00     0.053 C 
BRANCH   7   8
ATOM      8  C   UNL     1       4.717   0.489  12.676  1.00  0.00     0.041 C 
ATOM      9  O   UNL     1       4.408   1.132  13.715  1.00  0.00    -0.550 OA
ATOM     10  O   UNL     1       4.731  -0.899  12.705  1.00  0.00    -0.550 OA
ENDBRANCH   7   8
ENDBRANCH   6   7
ENDBRANCH   5   6
ENDBRANCH   4   5
ENDBRANCH   3   4
ENDBRANCH   2   3
ENDBRANCH   1   2
BRANCH   1  11
ATOM     11  C   UNL     1       4.551  -3.788  10.914  1.00  0.00    -0.031 C 
ATOM     12  C   UNL     1       3.656  -4.242  11.803  1.00  0.00    -0.027 C 
BRANCH  12  13
ATOM     13  C   UNL     1       4.067  -4.710  13.170  1.00  0.00     0.054 C 
BRANCH  13  14
ATOM     14  C   UNL     1       3.402  -6.013  13.508  1.00  0.00    -0.027 C 
ATOM     15  C   UNL     1       2.270  -6.062  14.227  1.00  0.00    -0.031 C 
BRANCH  15  16
ATOM     16  C   UNL     1       1.620  -7.369  14.586  1.00  0.00     0.027 C 
BRANCH  16  17
ATOM     17  C   UNL     1       0.623  -7.196  15.738  1.00  0.00     0.004 C 
BRANCH  17  18
ATOM     18  C   UNL     1      -0.648  -8.019  15.493  1.00  0.00     0.000 C 
BRANCH  18  19
ATOM     19  C   UNL     1      -1.900  -7.223  15.877  1.00  0.00    -0.003 C 
ATOM     20  C   UNL     1      -1.568  -6.126  16.886  1.00  0.00     0.004 C 
ENDBRANCH  18  19
ENDBRANCH  17  18
ENDBRANCH  16  17
ENDBRANCH  15  16
ENDBRANCH  13  14
ENDBRANCH  12  13
ENDBRANCH   1  11
TORSDOF 14
ENDMDL
MODEL 7
REMARK VINA RESULT:    -1.763      2.491      4.474
REMARK INTER + INTRA:          -3.987
REMARK INTER:                  -3.581
REMARK INTRA:                  -0.407
REMARK UNBOUND:                -0.781
REMARK SMILES CCCCCC=CCC=CCCCCCCCC(=O)[O-]
REMARK SMILES IDX 11 1 12 2 13 3 14 4 15 5 16 6 17 7 18 8 19 9 20 10 10 11
REMARK SMILES IDX 9 12 8 13 7 14 6 15 5 16 4 17 3 18 2 19 1 20
REMARK H PARENT
REMARK Flexibility Score: inf
ROOT
ATOM      1  C   UNL     1     -10.785 -11.289  17.187  1.00  0.00     0.027 C 
ENDROOT
BRANCH   1   2
ATOM      2  C   UNL     1     -10.302 -12.575  17.874  1.00  0.00     0.004 C 
BRANCH   2   3
ATOM      3  C   UNL     1     -11.015 -12.835  19.211  1.00  0.00     0.000 C 
BRANCH   3   4
ATOM      4  C   UNL     1     -11.023 -14.322  19.599  1.00  0.00     0.000 C 
BRANCH   4   5
ATOM      5  C   UNL     1     -11.789 -14.543  20.909  1.00  0.00     0.000 C 
BRANCH   5   6
ATOM      6  C   UNL     1     -12.668 -13.334  21.245  1.00  0.00     0.006 C 
BRANCH   6   7
ATOM      7  C   UNL     1     -12.967 -13.272  22.746  1.00  0.00     0.053 C 
BRANCH   7   8
ATOM      8  C   UNL     1     -14.441 -13.189  22.984  1.00  0.00     0.041 C 
ATOM      9  O   UNL     1     -15.097 -12.202  22.558  1.00  0.00    -0.550 OA
ATOM     10  O   UNL     1     -15.083 -14.178  23.719  1.00  0.00    -0.550 OA
ENDBRANCH   7   8
ENDBRANCH   6   7
ENDBRANCH   5   6
ENDBRANCH   4   5
ENDBRANCH   3   4
ENDBRANCH   2   3
ENDBRANCH   1   2
BRANCH   1  11
ATOM     11  C   UNL     1     -12.275 -11.132  17.316  1.00  0.00    -0.031 C 
ATOM     12  C   UNL     1     -12.993 -11.896  18.151  1.00  0.00    -0.027 C 
BRANCH  12  13
ATOM     13  C   UNL     1     -14.478 -11.723  18.300  1.00  0.00     0.054 C 
BRANCH  13  14
ATOM     14  C   UNL     1     -15.114 -12.990  18.795  1.00  0.00    -0.027 C 
ATOM     15  C   UNL     1     -14.474 -14.169  18.742  1.00  0.00    -0.031 C 
BRANCH  15  16
ATOM     16  C   UNL     1     -15.123 -15.439  19.214  1.00  0.00     0.027 C 
BRANCH  16  17
ATOM     17  C   UNL     1     -14.114 -16.593  19.264  1.00  0.00     0.004 C 
BRANCH  17  18
ATOM     18  C   UNL     1     -14.515 -17.628  20.322  1.00  0.00     0.000 C 
BRANCH  18  19
ATOM     19  C   UNL     1     -14.411 -17.039  21.733  1.00  0.00    -0.003 C 
ATOM     20  C   UNL     1     -14.570 -18.123  22.796  1.00  0.00     0.004 C 
ENDBRANCH  18  19
ENDBRANCH  17  18
ENDBRANCH  16  17
ENDBRANCH  15  16
ENDBRANCH  13  14
ENDBRANCH  12  13
ENDBRANCH   1  11
TORSDOF 14
ENDMDL
