MODEL 1
REMARK VINA RESULT:    -3.466      0.000      0.000
REMARK INTER + INTRA:          -8.450
REMARK INTER:                  -6.303
REMARK INTRA:                  -2.147
REMARK UNBOUND:                -2.147
REMARK SMILES CCCCCCCCCCCCCCCCC
REMARK SMILES IDX 9 1 8 2 7 3 6 4 5 5 4 6 3 7 2 8 1 9 10 10 11 11 12 12 13 13
REMARK SMILES IDX 14 14 15 15 16 16 17 17
REMARK H PARENT
REMARK Flexibility Score: inf
ROOT
ATOM      1  C   UNL     1      30.127  -7.317 -31.815  1.00  0.00    -0.000 C 
ENDROOT
BRANCH   1   2
ATOM      2  C   UNL     1      28.747  -7.998 -31.860  1.00  0.00    -0.000 C 
BRANCH   2   3
ATOM      3  C   UNL     1      27.691  -7.267 -31.014  1.00  0.00    -0.000 C 
BRANCH   3   4
ATOM      4  C   UNL     1      27.455  -7.929 -29.644  1.00  0.00    -0.000 C 
BRANCH   4   5
ATOM      5  C   UNL     1      26.914  -6.993 -28.547  1.00  0.00    -0.000 C 
BRANCH   5   6
ATOM      6  C   UNL     1      28.015  -6.449 -27.625  1.00  0.00    -0.000 C 
BRANCH   6   7
ATOM      7  C   UNL     1      29.359  -7.125 -27.916  1.00  0.00    -0.000 C 
BRANCH   7   8
ATOM      8  C   UNL     1      30.516  -6.126 -27.794  1.00  0.00    -0.003 C 
ATOM      9  C   UNL     1      30.524  -5.147 -28.963  1.00  0.00     0.004 C 
ENDBRANCH   7   8
ENDBRANCH   6   7
ENDBRANCH   5   6
ENDBRANCH   4   5
ENDBRANCH   3   4
ENDBRANCH   2   3
ENDBRANCH   1   2
BRANCH   1  10
ATOM     10  C   UNL     1      31.275  -8.194 -31.278  1.00  0.00    -0.000 C 
BRANCH  10  11
ATOM     11  C   UNL     1      32.671  -7.541 -31.320  1.00  0.00    -0.000 C 
BRANCH  11  12
ATOM     12  C   UNL     1      33.457  -7.595 -29.995  1.00  0.00    -0.000 C 
BRANCH  12  13
ATOM     13  C   UNL     1      32.876  -8.548 -28.934  1.00  0.00    -0.000 C 
BRANCH  13  14
ATOM     14  C   UNL     1      33.706  -8.581 -27.642  1.00  0.00    -0.000 C 
BRANCH  14  15
ATOM     15  C   UNL     1      32.797  -8.700 -26.409  1.00  0.00    -0.000 C 
BRANCH  15  16
ATOM     16  C   UNL     1      31.977 -10.000 -26.404  1.00  0.00    -0.003 C 
ATOM     17  C   UNL     1      31.156 -10.176 -25.128  1.00  0.00     0.004 C 
ENDBRANCH  15  16
ENDBRANCH  14  15
ENDBRANCH  13  14
ENDBRANCH  12  13
ENDBRANCH  11  12
ENDBRANCH  10  11
ENDBRANCH   1  10
TORSDOF 14
ENDMDL
MODEL 2
REMARK VINA RESULT:    -3.458      1.231      3.207
REMARK INTER + INTRA:          -8.435
REMARK INTER:                  -6.469
REMARK INTRA:                  -1.966
REMARK UNBOUND:                -2.147
REMARK SMILES CCCCCCCCCCCCCCCCC
REMARK SMILES IDX 9 1 8 2 7 3 6 4 5 5 4 6 3 7 2 8 1 9 10 10 11 11 12 12 13 13
REMARK SMILES IDX 14 14 15 15 16 16 17 17
REMARK H PARENT
REMARK Flexibility Score: inf
ROOT
ATOM      1  C   UNL     1      30.401  -5.612 -28.716  1.00  0.00    -0.000 C 
ENDROOT
BRANCH   1   2
ATOM      2  C   UNL     1      31.098  -5.708 -30.085  1.00  0.00    -0.000 C 
BRANCH   2   3
ATOM      3  C   UNL     1      30.112  -5.917 -31.247  1.00  0.00    -0.000 C 
BRANCH   3   4
ATOM      4  C   UNL     1      29.939  -7.398 -31.629  1.00  0.00    -0.000 C 
BRANCH   4   5
ATOM      5  C   UNL     1      28.488  -7.845 -31.884  1.00  0.00    -0.000 C 
BRANCH   5   6
ATOM      6  C   UNL     1      27.486  -7.226 -30.898  1.00  0.00    -0.000 C 
BRANCH   6   7
ATOM      7  C   UNL     1      27.424  -8.036 -29.597  1.00  0.00    -0.000 C 
BRANCH   7   8
ATOM      8  C   UNL     1      26.935  -7.168 -28.431  1.00  0.00    -0.003 C 
ATOM      9  C   UNL     1      26.788  -5.710 -28.854  1.00  0.00     0.004 C 
ENDBRANCH   7   8
ENDBRANCH   6   7
ENDBRANCH   5   6
ENDBRANCH   4   5
ENDBRANCH   3   4
ENDBRANCH   2   3
ENDBRANCH   1   2
BRANCH   1  10
ATOM     10  C   UNL     1      30.741  -6.743 -27.725  1.00  0.00    -0.000 C 
BRANCH  10  11
ATOM     11  C   UNL     1      30.774  -8.158 -28.335  1.00  0.00    -0.000 C 
BRANCH  11  12
ATOM     12  C   UNL     1      32.156  -8.843 -28.320  1.00  0.00    -0.000 C 
BRANCH  12  13
ATOM     13  C   UNL     1      32.655  -9.267 -26.926  1.00  0.00    -0.000 C 
BRANCH  13  14
ATOM     14  C   UNL     1      31.663 -10.179 -26.190  1.00  0.00    -0.000 C 
BRANCH  14  15
ATOM     15  C   UNL     1      31.098  -9.479 -24.944  1.00  0.00    -0.000 C 
BRANCH  15  16
ATOM     16  C   UNL     1      31.115 -10.382 -23.701  1.00  0.00    -0.003 C 
ATOM     17  C   UNL     1      32.218 -10.007 -22.713  1.00  0.00     0.004 C 
ENDBRANCH  15  16
ENDBRANCH  14  15
ENDBRANCH  13  14
ENDBRANCH  12  13
ENDBRANCH  11  12
ENDBRANCH  10  11
ENDBRANCH   1  10
TORSDOF 14
ENDMDL
MODEL 3
REMARK VINA RESULT:    -3.457      1.286      2.310
REMARK INTER + INTRA:          -8.434
REMARK INTER:                  -6.206
REMARK INTRA:                  -2.228
REMARK UNBOUND:                -2.147
REMARK SMILES CCCCCCCCCCCCCCCCC
REMARK SMILES IDX 9 1 8 2 7 3 6 4 5 5 4 6 3 7 2 8 1 9 10 10 11 11 12 12 13 13
REMARK SMILES IDX 14 14 15 15 16 16 17 17
REMARK H PARENT
REMARK Flexibility Score: inf
ROOT
ATOM      1  C   UNL     1      30.061  -5.957 -30.599  1.00  0.00    -0.000 C 
ENDROOT
BRANCH   1   2
ATOM      2  C   UNL     1      30.140  -7.098 -31.630  1.00  0.00    -0.000 C 
BRANCH   2   3
ATOM      3  C   UNL     1      28.877  -7.974 -31.651  1.00  0.00    -0.000 C 
BRANCH   3   4
ATOM      4  C   UNL     1      27.678  -7.319 -30.942  1.00  0.00    -0.000 C 
BRANCH   4   5
ATOM      5  C   UNL     1      27.105  -8.112 -29.752  1.00  0.00    -0.000 C 
BRANCH   5   6
ATOM      6  C   UNL     1      26.783  -7.226 -28.539  1.00  0.00    -0.000 C 
BRANCH   6   7
ATOM      7  C   UNL     1      26.749  -5.745 -28.934  1.00  0.00    -0.000 C 
BRANCH   7   8
ATOM      8  C   UNL     1      27.614  -4.903 -27.989  1.00  0.00    -0.003 C 
ATOM      9  C   UNL     1      27.764  -3.475 -28.504  1.00  0.00     0.004 C 
ENDBRANCH   7   8
ENDBRANCH   6   7
ENDBRANCH   5   6
ENDBRANCH   4   5
ENDBRANCH   3   4
ENDBRANCH   2   3
ENDBRANCH   1   2
BRANCH   1  10
ATOM     10  C   UNL     1      30.961  -6.127 -29.359  1.00  0.00    -0.000 C 
BRANCH  10  11
ATOM     11  C   UNL     1      30.464  -7.159 -28.327  1.00  0.00    -0.000 C 
BRANCH  11  12
ATOM     12  C   UNL     1      31.243  -8.489 -28.306  1.00  0.00    -0.000 C 
BRANCH  12  13
ATOM     13  C   UNL     1      32.659  -8.403 -27.708  1.00  0.00    -0.000 C 
BRANCH  13  14
ATOM     14  C   UNL     1      32.892  -9.415 -26.577  1.00  0.00    -0.000 C 
BRANCH  14  15
ATOM     15  C   UNL     1      31.611 -10.213 -26.285  1.00  0.00    -0.000 C 
BRANCH  15  16
ATOM     16  C   UNL     1      31.205 -10.157 -24.804  1.00  0.00    -0.003 C 
ATOM     17  C   UNL     1      30.320  -8.955 -24.479  1.00  0.00     0.004 C 
ENDBRANCH  15  16
ENDBRANCH  14  15
ENDBRANCH  13  14
ENDBRANCH  12  13
ENDBRANCH  11  12
ENDBRANCH  10  11
ENDBRANCH   1  10
TORSDOF 14
ENDMDL
MODEL 4
REMARK VINA RESULT:    -3.455      1.721      3.542
REMARK INTER + INTRA:          -8.429
REMARK INTER:                  -5.746
REMARK INTRA:                  -2.684
REMARK UNBOUND:                -2.147
REMARK SMILES CCCCCCCCCCCCCCCCC
REMARK SMILES IDX 9 1 8 2 7 3 6 4 5 5 4 6 3 7 2 8 1 9 10 10 11 11 12 12 13 13
REMARK SMILES IDX 14 14 15 15 16 16 17 17
REMARK H PARENT
REMARK Flexibility Score: inf
ROOT
ATOM      1  C   UNL     1      31.186  -3.897 -30.121  1.00  0.00    -0.000 C 
ENDROOT
BRANCH   1   2
ATOM      2  C   UNL     1      30.350  -5.175 -29.926  1.00  0.00    -0.000 C 
BRANCH   2   3
ATOM      3  C   UNL     1      29.523  -5.545 -31.168  1.00  0.00    -0.000 C 
BRANCH   3   4
ATOM      4  C   UNL     1      29.843  -6.952 -31.706  1.00  0.00    -0.000 C 
BRANCH   4   5
ATOM      5  C   UNL     1      28.695  -7.972 -31.602  1.00  0.00    -0.000 C 
BRANCH   5   6
ATOM      6  C   UNL     1      27.437  -7.396 -30.933  1.00  0.00    -0.000 C 
BRANCH   6   7
ATOM      7  C   UNL     1      27.079  -8.181 -29.667  1.00  0.00    -0.000 C 
BRANCH   7   8
ATOM      8  C   UNL     1      27.113  -7.276 -28.429  1.00  0.00    -0.003 C 
ATOM      9  C   UNL     1      26.689  -5.853 -28.776  1.00  0.00     0.004 C 
ENDBRANCH   7   8
ENDBRANCH   6   7
ENDBRANCH   5   6
ENDBRANCH   4   5
ENDBRANCH   3   4
ENDBRANCH   2   3
ENDBRANCH   1   2
BRANCH   1  10
ATOM     10  C   UNL     1      32.648  -4.128 -30.553  1.00  0.00    -0.000 C 
BRANCH  10  11
ATOM     11  C   UNL     1      32.869  -4.243 -32.075  1.00  0.00    -0.000 C 
BRANCH  11  12
ATOM     12  C   UNL     1      33.209  -5.660 -32.579  1.00  0.00    -0.000 C 
BRANCH  12  13
ATOM     13  C   UNL     1      34.080  -6.497 -31.625  1.00  0.00    -0.000 C 
BRANCH  13  14
ATOM     14  C   UNL     1      33.414  -7.817 -31.212  1.00  0.00    -0.000 C 
BRANCH  14  15
ATOM     15  C   UNL     1      33.067  -7.811 -29.714  1.00  0.00    -0.000 C 
BRANCH  15  16
ATOM     16  C   UNL     1      31.873  -8.717 -29.381  1.00  0.00    -0.003 C 
ATOM     17  C   UNL     1      31.088  -8.237 -28.161  1.00  0.00     0.004 C 
ENDBRANCH  15  16
ENDBRANCH  14  15
ENDBRANCH  13  14
ENDBRANCH  12  13
ENDBRANCH  11  12
ENDBRANCH  10  11
ENDBRANCH   1  10
TORSDOF 14
ENDMDL
MODEL 5
REMARK VINA RESULT:    -3.444      1.573      5.044
REMARK INTER + INTRA:          -8.409
REMARK INTER:                  -5.578
REMARK INTRA:                  -2.831
REMARK UNBOUND:                -2.147
REMARK SMILES CCCCCCCCCCCCCCCCC
REMARK SMILES IDX 9 1 8 2 7 3 6 4 5 5 4 6 3 7 2 8 1 9 10 10 11 11 12 12 13 13
REMARK SMILES IDX 14 14 15 15 16 16 17 17
REMARK H PARENT
REMARK Flexibility Score: inf
ROOT
ATOM      1  C   UNL     1      31.166  -6.586 -31.997  1.00  0.00    -0.000 C 
ENDROOT
BRANCH   1   2
ATOM      2  C   UNL     1      31.816  -7.917 -31.578  1.00  0.00    -0.000 C 
BRANCH   2   3
ATOM      3  C   UNL     1      33.165  -7.726 -30.864  1.00  0.00    -0.000 C 
BRANCH   3   4
ATOM      4  C   UNL     1      33.098  -8.039 -29.359  1.00  0.00    -0.000 C 
BRANCH   4   5
ATOM      5  C   UNL     1      31.873  -8.859 -28.912  1.00  0.00    -0.000 C 
BRANCH   5   6
ATOM      6  C   UNL     1      30.843  -8.026 -28.135  1.00  0.00    -0.000 C 
BRANCH   6   7
ATOM      7  C   UNL     1      31.490  -6.773 -27.534  1.00  0.00    -0.000 C 
BRANCH   7   8
ATOM      8  C   UNL     1      30.743  -5.506 -27.966  1.00  0.00    -0.003 C 
ATOM      9  C   UNL     1      31.640  -4.591 -28.794  1.00  0.00     0.004 C 
ENDBRANCH   7   8
ENDBRANCH   6   7
ENDBRANCH   5   6
ENDBRANCH   4   5
ENDBRANCH   3   4
ENDBRANCH   2   3
ENDBRANCH   1   2
BRANCH   1  10
ATOM     10  C   UNL     1      29.747  -6.345 -31.444  1.00  0.00    -0.000 C 
BRANCH  10  11
ATOM     11  C   UNL     1      28.834  -7.587 -31.422  1.00  0.00    -0.000 C 
BRANCH  11  12
ATOM     12  C   UNL     1      27.425  -7.351 -30.844  1.00  0.00    -0.000 C 
BRANCH  12  13
ATOM     13  C   UNL     1      27.142  -8.067 -29.510  1.00  0.00    -0.000 C 
BRANCH  13  14
ATOM     14  C   UNL     1      27.229  -7.126 -28.299  1.00  0.00    -0.000 C 
BRANCH  14  15
ATOM     15  C   UNL     1      26.366  -5.873 -28.515  1.00  0.00    -0.000 C 
BRANCH  15  16
ATOM     16  C   UNL     1      27.094  -4.580 -28.120  1.00  0.00    -0.003 C 
ATOM     17  C   UNL     1      27.803  -3.916 -29.300  1.00  0.00     0.004 C 
ENDBRANCH  15  16
ENDBRANCH  14  15
ENDBRANCH  13  14
ENDBRANCH  12  13
ENDBRANCH  11  12
ENDBRANCH  10  11
ENDBRANCH   1  10
TORSDOF 14
ENDMDL
MODEL 6
REMARK VINA RESULT:    -3.421      1.686      4.166
REMARK INTER + INTRA:          -8.367
REMARK INTER:                  -5.806
REMARK INTRA:                  -2.561
REMARK UNBOUND:                -2.147
REMARK SMILES CCCCCCCCCCCCCCCCC
REMARK SMILES IDX 9 1 8 2 7 3 6 4 5 5 4 6 3 7 2 8 1 9 10 10 11 11 12 12 13 13
REMARK SMILES IDX 14 14 15 15 16 16 17 17
REMARK H PARENT
REMARK Flexibility Score: inf
ROOT
ATOM      1  C   UNL     1      27.610  -7.357 -31.001  1.00  0.00    -0.000 C 
ENDROOT
BRANCH   1   2
ATOM      2  C   UNL     1      27.094  -8.118 -29.766  1.00  0.00    -0.000 C 
BRANCH   2   3
ATOM      3  C   UNL     1      27.043  -7.244 -28.502  1.00  0.00    -0.000 C 
BRANCH   3   4
ATOM      4  C   UNL     1      27.167  -5.740 -28.806  1.00  0.00    -0.000 C 
BRANCH   4   5
ATOM      5  C   UNL     1      28.469  -5.076 -28.320  1.00  0.00    -0.000 C 
BRANCH   5   6
ATOM      6  C   UNL     1      29.455  -6.074 -27.695  1.00  0.00    -0.000 C 
BRANCH   6   7
ATOM      7  C   UNL     1      30.873  -5.856 -28.234  1.00  0.00    -0.000 C 
BRANCH   7   8
ATOM      8  C   UNL     1      31.749  -7.092 -27.997  1.00  0.00    -0.003 C 
ATOM      9  C   UNL     1      31.020  -8.369 -28.402  1.00  0.00     0.004 C 
ENDBRANCH   7   8
ENDBRANCH   6   7
ENDBRANCH   5   6
ENDBRANCH   4   5
ENDBRANCH   3   4
ENDBRANCH   2   3
ENDBRANCH   1   2
BRANCH   1  10
ATOM     10  C   UNL     1      28.793  -8.021 -31.735  1.00  0.00    -0.000 C 
BRANCH  10  11
ATOM     11  C   UNL     1      30.115  -7.229 -31.692  1.00  0.00    -0.000 C 
BRANCH  11  12
ATOM     12  C   UNL     1      29.957  -5.696 -31.653  1.00  0.00    -0.000 C 
BRANCH  12  13
ATOM     13  C   UNL     1      31.255  -4.903 -31.895  1.00  0.00    -0.000 C 
BRANCH  13  14
ATOM     14  C   UNL     1      32.061  -5.429 -33.091  1.00  0.00    -0.000 C 
BRANCH  14  15
ATOM     15  C   UNL     1      33.469  -5.863 -32.655  1.00  0.00    -0.000 C 
BRANCH  15  16
ATOM     16  C   UNL     1      33.630  -7.390 -32.612  1.00  0.00    -0.003 C 
ATOM     17  C   UNL     1      33.742  -7.934 -31.189  1.00  0.00     0.004 C 
ENDBRANCH  15  16
ENDBRANCH  14  15
ENDBRANCH  13  14
ENDBRANCH  12  13
ENDBRANCH  11  12
ENDBRANCH  10  11
ENDBRANCH   1  10
TORSDOF 14
ENDMDL
MODEL 7
REMARK VINA RESULT:    -3.395      0.830      5.180
REMARK INTER + INTRA:          -8.321
REMARK INTER:                  -6.193
REMARK INTRA:                  -2.128
REMARK UNBOUND:                -2.147
REMARK SMILES CCCCCCCCCCCCCCCCC
REMARK SMILES IDX 9 1 8 2 7 3 6 4 5 5 4 6 3 7 2 8 1 9 10 10 11 11 12 12 13 13
REMARK SMILES IDX 14 14 15 15 16 16 17 17
REMARK H PARENT
REMARK Flexibility Score: inf
ROOT
ATOM      1  C   UNL     1      30.817  -6.462 -32.025  1.00  0.00    -0.000 C 
ENDROOT
BRANCH   1   2
ATOM      2  C   UNL     1      32.319  -6.255 -31.758  1.00  0.00    -0.000 C 
BRANCH   2   3
ATOM      3  C   UNL     1      33.193  -7.369 -32.355  1.00  0.00    -0.000 C 
BRANCH   3   4
ATOM      4  C   UNL     1      34.065  -8.078 -31.303  1.00  0.00    -0.000 C 
BRANCH   4   5
ATOM      5  C   UNL     1      34.000  -7.481 -29.885  1.00  0.00    -0.000 C 
BRANCH   5   6
ATOM      6  C   UNL     1      33.381  -8.442 -28.857  1.00  0.00    -0.000 C 
BRANCH   6   7
ATOM      7  C   UNL     1      33.944  -8.182 -27.455  1.00  0.00    -0.000 C 
BRANCH   7   8
ATOM      8  C   UNL     1      32.988  -8.699 -26.374  1.00  0.00    -0.003 C 
ATOM      9  C   UNL     1      31.886  -9.562 -26.980  1.00  0.00     0.004 C 
ENDBRANCH   7   8
ENDBRANCH   6   7
ENDBRANCH   5   6
ENDBRANCH   4   5
ENDBRANCH   3   4
ENDBRANCH   2   3
ENDBRANCH   1   2
BRANCH   1  10
ATOM     10  C   UNL     1      30.213  -7.747 -31.423  1.00  0.00    -0.000 C 
BRANCH  10  11
ATOM     11  C   UNL     1      28.772  -8.064 -31.870  1.00  0.00    -0.000 C 
BRANCH  11  12
ATOM     12  C   UNL     1      27.669  -7.329 -31.083  1.00  0.00    -0.000 C 
BRANCH  12  13
ATOM     13  C   UNL     1      27.146  -8.079 -29.844  1.00  0.00    -0.000 C 
BRANCH  13  14
ATOM     14  C   UNL     1      27.053  -7.184 -28.600  1.00  0.00    -0.000 C 
BRANCH  14  15
ATOM     15  C   UNL     1      28.211  -6.174 -28.564  1.00  0.00    -0.000 C 
BRANCH  15  16
ATOM     16  C   UNL     1      29.464  -6.737 -27.876  1.00  0.00    -0.003 C 
ATOM     17  C   UNL     1      30.723  -5.927 -28.183  1.00  0.00     0.004 C 
ENDBRANCH  15  16
ENDBRANCH  14  15
ENDBRANCH  13  14
ENDBRANCH  12  13
ENDBRANCH  11  12
ENDBRANCH  10  11
ENDBRANCH   1  10
TORSDOF 14
ENDMDL
MODEL 8
REMARK VINA RESULT:    -3.379      0.925      4.793
REMARK INTER + INTRA:          -8.292
REMARK INTER:                  -5.613
REMARK INTRA:                  -2.680
REMARK UNBOUND:                -2.147
REMARK SMILES CCCCCCCCCCCCCCCCC
REMARK SMILES IDX 9 1 8 2 7 3 6 4 5 5 4 6 3 7 2 8 1 9 10 10 11 11 12 12 13 13
REMARK SMILES IDX 14 14 15 15 16 16 17 17
REMARK H PARENT
REMARK Flexibility Score: inf
ROOT
ATOM      1  C   UNL     1      28.946  -8.075 -31.860  1.00  0.00    -0.000 C 
ENDROOT
BRANCH   1   2
ATOM      2  C   UNL     1      30.315  -7.411 -31.622  1.00  0.00    -0.000 C 
BRANCH   2   3
ATOM      3  C   UNL     1      31.414  -8.419 -31.250  1.00  0.00    -0.000 C 
BRANCH   3   4
ATOM      4  C   UNL     1      31.712  -8.453 -29.740  1.00  0.00    -0.000 C 
BRANCH   4   5
ATOM      5  C   UNL     1      33.163  -8.115 -29.349  1.00  0.00    -0.000 C 
BRANCH   5   6
ATOM      6  C   UNL     1      33.488  -8.462 -27.888  1.00  0.00    -0.000 C 
BRANCH   6   7
ATOM      7  C   UNL     1      32.315  -9.190 -27.222  1.00  0.00    -0.000 C 
BRANCH   7   8
ATOM      8  C   UNL     1      32.052  -8.640 -25.816  1.00  0.00    -0.003 C 
ATOM      9  C   UNL     1      33.165  -7.693 -25.378  1.00  0.00     0.004 C 
ENDBRANCH   7   8
ENDBRANCH   6   7
ENDBRANCH   5   6
ENDBRANCH   4   5
ENDBRANCH   3   4
ENDBRANCH   2   3
ENDBRANCH   1   2
BRANCH   1  10
ATOM     10  C   UNL     1      27.750  -7.374 -31.186  1.00  0.00    -0.000 C 
BRANCH  10  11
ATOM     11  C   UNL     1      27.298  -7.995 -29.848  1.00  0.00    -0.000 C 
BRANCH  11  12
ATOM     12  C   UNL     1      27.403  -7.060 -28.627  1.00  0.00    -0.000 C 
BRANCH  12  13
ATOM     13  C   UNL     1      28.796  -7.001 -27.973  1.00  0.00    -0.000 C 
BRANCH  13  14
ATOM     14  C   UNL     1      29.577  -5.733 -28.346  1.00  0.00    -0.000 C 
BRANCH  14  15
ATOM     15  C   UNL     1      30.813  -5.567 -27.448  1.00  0.00    -0.000 C 
BRANCH  15  16
ATOM     16  C   UNL     1      31.975  -4.865 -28.167  1.00  0.00    -0.003 C 
ATOM     17  C   UNL     1      31.700  -4.636 -29.653  1.00  0.00     0.004 C 
ENDBRANCH  15  16
ENDBRANCH  14  15
ENDBRANCH  13  14
ENDBRANCH  12  13
ENDBRANCH  11  12
ENDBRANCH  10  11
ENDBRANCH   1  10
TORSDOF 14
ENDMDL
MODEL 9
REMARK VINA RESULT:    -3.373      1.779      5.475
REMARK INTER + INTRA:          -8.280
REMARK INTER:                  -5.827
REMARK INTRA:                  -2.453
REMARK UNBOUND:                -2.147
REMARK SMILES CCCCCCCCCCCCCCCCC
REMARK SMILES IDX 9 1 8 2 7 3 6 4 5 5 4 6 3 7 2 8 1 9 10 10 11 11 12 12 13 13
REMARK SMILES IDX 14 14 15 15 16 16 17 17
REMARK H PARENT
REMARK Flexibility Score: inf
ROOT
ATOM      1  C   UNL     1      30.438  -5.138 -30.463  1.00  0.00    -0.000 C 
ENDROOT
BRANCH   1   2
ATOM      2  C   UNL     1      31.319  -4.464 -31.530  1.00  0.00    -0.000 C 
BRANCH   2   3
ATOM      3  C   UNL     1      31.552  -5.353 -32.764  1.00  0.00    -0.000 C 
BRANCH   3   4
ATOM      4  C   UNL     1      32.856  -6.166 -32.681  1.00  0.00    -0.000 C 
BRANCH   4   5
ATOM      5  C   UNL     1      32.713  -7.578 -32.082  1.00  0.00    -0.000 C 
BRANCH   5   6
ATOM      6  C   UNL     1      33.823  -7.920 -31.078  1.00  0.00    -0.000 C 
BRANCH   6   7
ATOM      7  C   UNL     1      33.245  -8.148 -29.676  1.00  0.00    -0.000 C 
BRANCH   7   8
ATOM      8  C   UNL     1      31.772  -8.567 -29.750  1.00  0.00    -0.003 C 
ATOM      9  C   UNL     1      31.042  -8.246 -28.450  1.00  0.00     0.004 C 
ENDBRANCH   7   8
ENDBRANCH   6   7
ENDBRANCH   5   6
ENDBRANCH   4   5
ENDBRANCH   3   4
ENDBRANCH   2   3
ENDBRANCH   1   2
BRANCH   1  10
ATOM     10  C   UNL     1      29.013  -5.506 -30.924  1.00  0.00    -0.000 C 
BRANCH  10  11
ATOM     11  C   UNL     1      28.791  -7.000 -31.233  1.00  0.00    -0.000 C 
BRANCH  11  12
ATOM     12  C   UNL     1      27.395  -7.542 -30.867  1.00  0.00    -0.000 C 
BRANCH  12  13
ATOM     13  C   UNL     1      27.284  -8.147 -29.455  1.00  0.00    -0.000 C 
BRANCH  13  14
ATOM     14  C   UNL     1      26.712  -7.161 -28.427  1.00  0.00    -0.000 C 
BRANCH  14  15
ATOM     15  C   UNL     1      27.828  -6.580 -27.545  1.00  0.00    -0.000 C 
BRANCH  15  16
ATOM     16  C   UNL     1      27.789  -5.046 -27.476  1.00  0.00    -0.003 C 
ATOM     17  C   UNL     1      26.655  -4.446 -28.307  1.00  0.00     0.004 C 
ENDBRANCH  15  16
ENDBRANCH  14  15
ENDBRANCH  13  14
ENDBRANCH  12  13
ENDBRANCH  11  12
ENDBRANCH  10  11
ENDBRANCH   1  10
TORSDOF 14
ENDMDL
