MODEL 1
REMARK VINA RESULT:    -5.677      0.000      0.000
REMARK INTER + INTRA:          -6.613
REMARK INTER:                  -6.507
REMARK INTRA:                  -0.106
REMARK UNBOUND:                -0.106
REMARK SMILES COc1ccc(C(C)=O)cc1O
REMARK SMILES IDX 6 1 10 2 11 3 3 4 4 5 5 6 7 7 8 8 9 9 12 10 2 12 1 13
REMARK H PARENT 12 11
REMARK Flexibility Score: inf
ROOT
ATOM      1  C   UNL     1      17.905 -11.090  66.853  1.00  0.00     0.021 A 
ATOM      2  C   UNL     1      18.287 -10.158  67.835  1.00  0.00     0.062 A 
ATOM      3  C   UNL     1      19.187 -10.508  68.847  1.00  0.00     0.158 A 
ATOM      4  C   UNL     1      19.727 -11.804  68.896  1.00  0.00     0.160 A 
ATOM      5  C   UNL     1      19.349 -12.740  67.915  1.00  0.00     0.051 A 
ATOM      6  C   UNL     1      18.449 -12.387  66.907  1.00  0.00     0.016 A 
ENDROOT
BRANCH   1   7
ATOM      7  C   UNL     1      16.945 -10.697  65.785  1.00  0.00     0.159 C 
ATOM      8  C   UNL     1      15.713 -11.500  65.492  1.00  0.00     0.093 C 
ATOM      9  O   UNL     1      17.161  -9.661  65.100  1.00  0.00    -0.295 OA
ENDBRANCH   1   7
BRANCH   3  10
ATOM     10  O   UNL     1      19.534  -9.548  69.798  1.00  0.00    -0.504 OA
ATOM     11  H   UNL     1      20.479  -9.192  69.887  1.00  0.00     0.293 HD
ENDBRANCH   3  10
BRANCH   4  12
ATOM     12  O   UNL     1      20.629 -12.126  69.922  1.00  0.00    -0.493 OA
ATOM     13  C   UNL     1      21.391 -13.328  69.980  1.00  0.00     0.278 C 
ENDBRANCH   4  12
TORSDOF 3
ENDMDL
MODEL 2
REMARK VINA RESULT:    -5.291      1.945      5.096
REMARK INTER + INTRA:          -6.171
REMARK INTER:                  -6.075
REMARK INTRA:                  -0.095
REMARK UNBOUND:                -0.106
REMARK SMILES COc1ccc(C(C)=O)cc1O
REMARK SMILES IDX 6 1 10 2 11 3 3 4 4 5 5 6 7 7 8 8 9 9 12 10 2 12 1 13
REMARK H PARENT 12 11
REMARK Flexibility Score: inf
ROOT
ATOM      1  C   UNL     1      19.088 -10.302  67.503  1.00  0.00     0.021 A 
ATOM      2  C   UNL     1      20.069  -9.998  66.541  1.00  0.00     0.062 A 
ATOM      3  C   UNL     1      19.713  -9.701  65.221  1.00  0.00     0.158 A 
ATOM      4  C   UNL     1      18.362  -9.702  64.835  1.00  0.00     0.160 A 
ATOM      5  C   UNL     1      17.378 -10.005  65.794  1.00  0.00     0.051 A 
ATOM      6  C   UNL     1      17.737 -10.301  67.111  1.00  0.00     0.016 A 
ENDROOT
BRANCH   1   7
ATOM      7  C   UNL     1      19.488 -10.614  68.902  1.00  0.00     0.159 C 
ATOM      8  C   UNL     1      20.009 -11.965  69.294  1.00  0.00     0.093 C 
ATOM      9  O   UNL     1      19.394  -9.728  69.794  1.00  0.00    -0.295 OA
ENDBRANCH   1   7
BRANCH   3  10
ATOM     10  O   UNL     1      20.723  -9.407  64.304  1.00  0.00    -0.504 OA
ATOM     11  H   UNL     1      20.766  -8.521  63.813  1.00  0.00     0.293 HD
ENDBRANCH   3  10
BRANCH   4  12
ATOM     12  O   UNL     1      18.036  -9.399  63.503  1.00  0.00    -0.493 OA
ATOM     13  C   UNL     1      16.878  -9.879  62.828  1.00  0.00     0.278 C 
ENDBRANCH   4  12
TORSDOF 3
ENDMDL
MODEL 3
REMARK VINA RESULT:    -5.181      2.290      3.243
REMARK INTER + INTRA:          -6.044
REMARK INTER:                  -5.934
REMARK INTRA:                  -0.111
REMARK UNBOUND:                -0.106
REMARK SMILES COc1ccc(C(C)=O)cc1O
REMARK SMILES IDX 6 1 10 2 11 3 3 4 4 5 5 6 7 7 8 8 9 9 12 10 2 12 1 13
REMARK H PARENT 12 11
REMARK Flexibility Score: inf
ROOT
ATOM      1  C   UNL     1      17.515 -10.181  64.470  1.00  0.00     0.021 A 
ATOM      2  C   UNL     1      18.849  -9.815  64.728  1.00  0.00     0.062 A 
ATOM      3  C   UNL     1      19.304  -9.633  66.038  1.00  0.00     0.158 A 
ATOM      4  C   UNL     1      18.429  -9.814  67.122  1.00  0.00     0.160 A 
ATOM      5  C   UNL     1      17.094 -10.180  66.869  1.00  0.00     0.051 A 
ATOM      6  C   UNL     1      16.644 -10.361  65.559  1.00  0.00     0.016 A 
ENDROOT
BRANCH   1   7
ATOM      7  C   UNL     1      17.052 -10.370  63.068  1.00  0.00     0.159 C 
ATOM      8  C   UNL     1      16.392  -9.267  62.296  1.00  0.00     0.093 C 
ATOM      9  O   UNL     1      17.214 -11.484  62.500  1.00  0.00    -0.295 OA
ENDBRANCH   1   7
BRANCH   3  10
ATOM     10  O   UNL     1      20.636  -9.270  66.242  1.00  0.00    -0.504 OA
ATOM     11  H   UNL     1      21.356  -9.952  66.451  1.00  0.00     0.293 HD
ENDBRANCH   3  10
BRANCH   4  12
ATOM     12  O   UNL     1      18.914  -9.625  68.426  1.00  0.00    -0.493 OA
ATOM     13  C   UNL     1      19.446 -10.660  69.247  1.00  0.00     0.278 C 
ENDBRANCH   4  12
TORSDOF 3
ENDMDL
MODEL 4
REMARK VINA RESULT:    -5.162      1.556      5.153
REMARK INTER + INTRA:          -6.023
REMARK INTER:                  -5.909
REMARK INTRA:                  -0.114
REMARK UNBOUND:                -0.106
REMARK SMILES COc1ccc(C(C)=O)cc1O
REMARK SMILES IDX 6 1 10 2 11 3 3 4 4 5 5 6 7 7 8 8 9 9 12 10 2 12 1 13
REMARK H PARENT 12 11
REMARK Flexibility Score: inf
ROOT
ATOM      1  C   UNL     1      18.502 -11.165  67.801  1.00  0.00     0.021 A 
ATOM      2  C   UNL     1      18.258 -12.357  67.096  1.00  0.00     0.062 A 
ATOM      3  C   UNL     1      17.359 -12.389  66.024  1.00  0.00     0.158 A 
ATOM      4  C   UNL     1      16.682 -11.220  65.635  1.00  0.00     0.160 A 
ATOM      5  C   UNL     1      16.922 -10.025  66.337  1.00  0.00     0.051 A 
ATOM      6  C   UNL     1      17.821  -9.998  67.406  1.00  0.00     0.016 A 
ENDROOT
BRANCH   1   7
ATOM      7  C   UNL     1      19.462 -11.154  68.937  1.00  0.00     0.159 C 
ATOM      8  C   UNL     1      20.339 -12.331  69.246  1.00  0.00     0.093 C 
ATOM      9  O   UNL     1      19.554 -10.132  69.670  1.00  0.00    -0.295 OA
ENDBRANCH   1   7
BRANCH   3  10
ATOM     10  O   UNL     1      17.151 -13.596  65.357  1.00  0.00    -0.504 OA
ATOM     11  H   UNL     1      16.497 -13.683  64.588  1.00  0.00     0.293 HD
ENDBRANCH   3  10
BRANCH   4  12
ATOM     12  O   UNL     1      15.786 -11.282  64.556  1.00  0.00    -0.493 OA
ATOM     13  C   UNL     1      14.382 -11.483  64.683  1.00  0.00     0.278 C 
ENDBRANCH   4  12
TORSDOF 3
ENDMDL
MODEL 5
REMARK VINA RESULT:    -4.921      1.548      5.061
REMARK INTER + INTRA:          -5.747
REMARK INTER:                  -5.635
REMARK INTRA:                  -0.112
REMARK UNBOUND:                -0.106
REMARK SMILES COc1ccc(C(C)=O)cc1O
REMARK SMILES IDX 6 1 10 2 11 3 3 4 4 5 5 6 7 7 8 8 9 9 12 10 2 12 1 13
REMARK H PARENT 12 11
REMARK Flexibility Score: inf
ROOT
ATOM      1  C   UNL     1      18.716 -10.830  67.592  1.00  0.00     0.021 A 
ATOM      2  C   UNL     1      17.501 -11.511  67.396  1.00  0.00     0.062 A 
ATOM      3  C   UNL     1      16.769 -11.352  66.215  1.00  0.00     0.158 A 
ATOM      4  C   UNL     1      17.242 -10.503  65.200  1.00  0.00     0.160 A 
ATOM      5  C   UNL     1      18.457  -9.820  65.391  1.00  0.00     0.051 A 
ATOM      6  C   UNL     1      19.184  -9.982  66.572  1.00  0.00     0.016 A 
ENDROOT
BRANCH   1   7
ATOM      7  C   UNL     1      19.478 -11.014  68.857  1.00  0.00     0.159 C 
ATOM      8  C   UNL     1      20.239 -12.273  69.148  1.00  0.00     0.093 C 
ATOM      9  O   UNL     1      19.496 -10.092  69.717  1.00  0.00    -0.295 OA
ENDBRANCH   1   7
BRANCH   3  10
ATOM     10  O   UNL     1      15.569 -12.049  66.069  1.00  0.00    -0.504 OA
ATOM     11  H   UNL     1      15.506 -13.051  66.213  1.00  0.00     0.293 HD
ENDBRANCH   3  10
BRANCH   4  12
ATOM     12  O   UNL     1      16.486 -10.364  64.024  1.00  0.00    -0.493 OA
ATOM     13  C   UNL     1      16.703 -11.111  62.832  1.00  0.00     0.278 C 
ENDBRANCH   4  12
TORSDOF 3
ENDMDL
MODEL 6
REMARK VINA RESULT:    -4.903      1.855      2.456
REMARK INTER + INTRA:          -5.726
REMARK INTER:                  -5.589
REMARK INTRA:                  -0.136
REMARK UNBOUND:                -0.106
REMARK SMILES COc1ccc(C(C)=O)cc1O
REMARK SMILES IDX 6 1 10 2 11 3 3 4 4 5 5 6 7 7 8 8 9 9 12 10 2 12 1 13
REMARK H PARENT 12 11
REMARK Flexibility Score: inf
ROOT
ATOM      1  C   UNL     1      17.177 -10.651  65.928  1.00  0.00     0.021 A 
ATOM      2  C   UNL     1      16.769 -11.802  66.627  1.00  0.00     0.062 A 
ATOM      3  C   UNL     1      17.466 -12.241  67.758  1.00  0.00     0.158 A 
ATOM      4  C   UNL     1      18.591 -11.533  68.214  1.00  0.00     0.160 A 
ATOM      5  C   UNL     1      19.003 -10.382  67.518  1.00  0.00     0.051 A 
ATOM      6  C   UNL     1      18.304  -9.947  66.389  1.00  0.00     0.016 A 
ENDROOT
BRANCH   1   7
ATOM      7  C   UNL     1      16.421 -10.202  64.727  1.00  0.00     0.159 C 
ATOM      8  C   UNL     1      16.987  -9.203  63.762  1.00  0.00     0.093 C 
ATOM      9  O   UNL     1      15.271 -10.666  64.501  1.00  0.00    -0.295 OA
ENDBRANCH   1   7
BRANCH   3  10
ATOM     10  O   UNL     1      17.022 -13.387  68.417  1.00  0.00    -0.504 OA
ATOM     11  H   UNL     1      17.263 -14.320  68.101  1.00  0.00     0.293 HD
ENDBRANCH   3  10
BRANCH   4  12
ATOM     12  O   UNL     1      19.270 -11.997  69.352  1.00  0.00    -0.493 OA
ATOM     13  C   UNL     1      20.543 -12.634  69.328  1.00  0.00     0.278 C 
ENDBRANCH   4  12
TORSDOF 3
ENDMDL
MODEL 7
REMARK VINA RESULT:    -4.853      2.679      4.361
REMARK INTER + INTRA:          -5.668
REMARK INTER:                  -5.559
REMARK INTRA:                  -0.109
REMARK UNBOUND:                -0.106
REMARK SMILES COc1ccc(C(C)=O)cc1O
REMARK SMILES IDX 6 1 10 2 11 3 3 4 4 5 5 6 7 7 8 8 9 9 12 10 2 12 1 13
REMARK H PARENT 12 11
REMARK Flexibility Score: inf
ROOT
ATOM      1  C   UNL     1      16.521 -11.514  63.593  1.00  0.00     0.021 A 
ATOM      2  C   UNL     1      15.868 -11.956  64.758  1.00  0.00     0.062 A 
ATOM      3  C   UNL     1      16.156 -11.387  66.004  1.00  0.00     0.158 A 
ATOM      4  C   UNL     1      17.107 -10.358  66.108  1.00  0.00     0.160 A 
ATOM      5  C   UNL     1      17.763  -9.913  64.946  1.00  0.00     0.051 A 
ATOM      6  C   UNL     1      17.473 -10.484  63.704  1.00  0.00     0.016 A 
ENDROOT
BRANCH   1   7
ATOM      7  C   UNL     1      16.200 -12.133  62.278  1.00  0.00     0.159 C 
ATOM      8  C   UNL     1      14.963 -11.771  61.512  1.00  0.00     0.093 C 
ATOM      9  O   UNL     1      16.983 -12.988  61.781  1.00  0.00    -0.295 OA
ENDBRANCH   1   7
BRANCH   3  10
ATOM     10  O   UNL     1      15.481 -11.860  67.129  1.00  0.00    -0.504 OA
ATOM     11  H   UNL     1      14.840 -11.280  67.659  1.00  0.00     0.293 HD
ENDBRANCH   3  10
BRANCH   4  12
ATOM     12  O   UNL     1      17.374  -9.806  67.371  1.00  0.00    -0.493 OA
ATOM     13  C   UNL     1      18.624  -9.905  68.047  1.00  0.00     0.278 C 
ENDBRANCH   4  12
TORSDOF 3
ENDMDL
MODEL 8
REMARK VINA RESULT:    -4.720      3.300      6.813
REMARK INTER + INTRA:          -5.516
REMARK INTER:                  -5.402
REMARK INTRA:                  -0.114
REMARK UNBOUND:                -0.106
REMARK SMILES COc1ccc(C(C)=O)cc1O
REMARK SMILES IDX 6 1 10 2 11 3 3 4 4 5 5 6 7 7 8 8 9 9 12 10 2 12 1 13
REMARK H PARENT 12 11
REMARK Flexibility Score: inf
ROOT
ATOM      1  C   UNL     1      16.113 -10.811  65.037  1.00  0.00     0.021 A 
ATOM      2  C   UNL     1      15.286 -11.880  65.427  1.00  0.00     0.062 A 
ATOM      3  C   UNL     1      14.042 -12.086  64.821  1.00  0.00     0.158 A 
ATOM      4  C   UNL     1      13.599 -11.221  63.805  1.00  0.00     0.160 A 
ATOM      5  C   UNL     1      14.423 -10.150  63.412  1.00  0.00     0.051 A 
ATOM      6  C   UNL     1      15.665  -9.949  64.020  1.00  0.00     0.016 A 
ENDROOT
BRANCH   1   7
ATOM      7  C   UNL     1      17.433 -10.611  65.696  1.00  0.00     0.159 C 
ATOM      8  C   UNL     1      17.557  -9.958  67.040  1.00  0.00     0.093 C 
ATOM      9  O   UNL     1      18.486 -10.999  65.120  1.00  0.00    -0.295 OA
ENDBRANCH   1   7
BRANCH   3  10
ATOM     10  O   UNL     1      13.258 -13.160  65.243  1.00  0.00    -0.504 OA
ATOM     11  H   UNL     1      12.389 -13.407  64.785  1.00  0.00     0.293 HD
ENDBRANCH   3  10
BRANCH   4  12
ATOM     12  O   UNL     1      12.347 -11.452  63.214  1.00  0.00    -0.493 OA
ATOM     13  C   UNL     1      12.154 -12.088  61.955  1.00  0.00     0.278 C 
ENDBRANCH   4  12
TORSDOF 3
ENDMDL
MODEL 9
REMARK VINA RESULT:    -4.705      3.047      4.219
REMARK INTER + INTRA:          -5.499
REMARK INTER:                  -5.393
REMARK INTRA:                  -0.105
REMARK UNBOUND:                -0.106
REMARK SMILES COc1ccc(C(C)=O)cc1O
REMARK SMILES IDX 6 1 10 2 11 3 3 4 4 5 5 6 7 7 8 8 9 9 12 10 2 12 1 13
REMARK H PARENT 12 11
REMARK Flexibility Score: inf
ROOT
ATOM      1  C   UNL     1      16.661  -9.982  64.261  1.00  0.00     0.021 A 
ATOM      2  C   UNL     1      17.750  -9.808  63.387  1.00  0.00     0.062 A 
ATOM      3  C   UNL     1      19.061  -9.760  63.872  1.00  0.00     0.158 A 
ATOM      4  C   UNL     1      19.310  -9.885  65.249  1.00  0.00     0.160 A 
ATOM      5  C   UNL     1      18.225 -10.059  66.128  1.00  0.00     0.051 A 
ATOM      6  C   UNL     1      16.917 -10.107  65.639  1.00  0.00     0.016 A 
ENDROOT
BRANCH   1   7
ATOM      7  C   UNL     1      15.274 -10.031  63.724  1.00  0.00     0.159 C 
ATOM      8  C   UNL     1      14.746  -8.978  62.795  1.00  0.00     0.093 C 
ATOM      9  O   UNL     1      14.509 -10.979  64.050  1.00  0.00    -0.295 OA
ENDBRANCH   1   7
BRANCH   3  10
ATOM     10  O   UNL     1      20.106  -9.586  62.965  1.00  0.00    -0.504 OA
ATOM     11  H   UNL     1      20.423  -8.668  62.674  1.00  0.00     0.293 HD
ENDBRANCH   3  10
BRANCH   4  12
ATOM     12  O   UNL     1      20.637  -9.833  65.707  1.00  0.00    -0.493 OA
ATOM     13  C   UNL     1      21.284 -10.878  66.426  1.00  0.00     0.278 C 
ENDBRANCH   4  12
TORSDOF 3
ENDMDL
