MODEL 1
REMARK VINA RESULT:    -5.755      0.000      0.000
REMARK INTER + INTRA:          -7.348
REMARK INTER:                  -6.933
REMARK INTRA:                  -0.415
REMARK UNBOUND:                -0.415
REMARK SMILES O=c1c(O)c(-c2ccc(O)cc2O)oc2cc(O)cc(O)c12
REMARK SMILES IDX 5 1 3 2 2 3 1 4 22 5 20 6 19 7 17 8 16 9 15 10 14 11 6 12
REMARK SMILES IDX 8 13 7 14 9 15 11 16 12 17 10 18 13 20 4 22 21 24 18 26
REMARK H PARENT 10 19 13 21 4 23 21 25 18 27
REMARK Flexibility Score: inf
ROOT
ATOM      1  C   UNL     1       2.070  37.748   6.225  1.00  0.00     0.184 A 
ATOM      2  C   UNL     1       2.408  38.730   5.282  1.00  0.00     0.208 A 
ATOM      3  C   UNL     1       3.675  39.332   5.351  1.00  0.00     0.238 A 
ATOM      4  O   UNL     1       3.953  40.250   4.536  1.00  0.00    -0.285 OA
ATOM      5  C   UNL     1       4.591  38.930   6.353  1.00  0.00     0.111 A 
ATOM      6  C   UNL     1       5.916  39.442   6.492  1.00  0.00     0.134 A 
ATOM      7  C   UNL     1       6.689  39.067   7.599  1.00  0.00     0.093 A 
ATOM      8  C   UNL     1       6.210  38.149   8.533  1.00  0.00     0.123 A 
ATOM      9  C   UNL     1       4.939  37.597   8.375  1.00  0.00     0.094 A 
ATOM     10  C   UNL     1       4.130  37.979   7.302  1.00  0.00     0.146 A 
ATOM     11  O   UNL     1       2.922  37.438   7.193  1.00  0.00    -0.451 OA
ENDROOT
BRANCH   1  12
ATOM     12  C   UNL     1       0.759  37.064   6.198  1.00  0.00     0.063 A 
ATOM     13  C   UNL     1      -1.631  37.138   6.638  1.00  0.00     0.047 A 
ATOM     14  C   UNL     1      -0.378  37.756   6.645  1.00  0.00     0.020 A 
ATOM     15  C   UNL     1      -1.760  35.816   6.197  1.00  0.00     0.119 A 
ATOM     16  C   UNL     1      -0.630  35.112   5.773  1.00  0.00     0.093 A 
ATOM     17  C   UNL     1       0.633  35.723   5.781  1.00  0.00     0.130 A 
BRANCH  15  18
ATOM     18  O   UNL     1      -3.005  35.191   6.183  1.00  0.00    -0.508 OA
ATOM     19  H   UNL     1      -3.234  34.482   5.496  1.00  0.00     0.293 HD
ENDBRANCH  15  18
BRANCH  17  20
ATOM     20  O   UNL     1       1.760  34.994   5.401  1.00  0.00    -0.507 OA
ATOM     21  H   UNL     1       2.298  34.459   6.073  1.00  0.00     0.293 HD
ENDBRANCH  17  20
ENDBRANCH   1  12
BRANCH   2  22
ATOM     22  O   UNL     1       1.478  39.121   4.315  1.00  0.00    -0.502 OA
ATOM     23  H   UNL     1       0.609  39.584   4.553  1.00  0.00     0.293 HD
ENDBRANCH   2  22
BRANCH   6  24
ATOM     24  O   UNL     1       6.525  40.293   5.565  1.00  0.00    -0.507 OA
ATOM     25  H   UNL     1       7.099  39.988   4.794  1.00  0.00     0.293 HD
ENDBRANCH   6  24
BRANCH   8  26
ATOM     26  O   UNL     1       7.013  37.787   9.612  1.00  0.00    -0.508 OA
ATOM     27  H   UNL     1       6.783  36.994  10.202  1.00  0.00     0.293 HD
ENDBRANCH   8  26
TORSDOF 6
ENDMDL
MODEL 2
REMARK VINA RESULT:    -5.500      4.302      7.285
REMARK INTER + INTRA:          -7.040
REMARK INTER:                  -6.794
REMARK INTRA:                  -0.246
REMARK UNBOUND:                -0.415
REMARK SMILES O=c1c(O)c(-c2ccc(O)cc2O)oc2cc(O)cc(O)c12
REMARK SMILES IDX 5 1 3 2 2 3 1 4 22 5 20 6 19 7 17 8 16 9 15 10 14 11 6 12
REMARK SMILES IDX 8 13 7 14 9 15 11 16 12 17 10 18 13 20 4 22 21 24 18 26
REMARK H PARENT 10 19 13 21 4 23 21 25 18 27
REMARK Flexibility Score: inf
ROOT
ATOM      1  C   UNL     1      -2.459  39.604   7.845  1.00  0.00     0.184 A 
ATOM      2  C   UNL     1      -1.115  39.750   7.470  1.00  0.00     0.208 A 
ATOM      3  C   UNL     1      -0.419  38.631   6.984  1.00  0.00     0.238 A 
ATOM      4  O   UNL     1       0.801  38.755   6.701  1.00  0.00    -0.285 OA
ATOM      5  C   UNL     1      -1.083  37.386   6.865  1.00  0.00     0.111 A 
ATOM      6  C   UNL     1      -0.489  36.197   6.347  1.00  0.00     0.134 A 
ATOM      7  C   UNL     1      -1.200  34.991   6.396  1.00  0.00     0.093 A 
ATOM      8  C   UNL     1      -2.506  34.945   6.882  1.00  0.00     0.123 A 
ATOM      9  C   UNL     1      -3.119  36.113   7.336  1.00  0.00     0.094 A 
ATOM     10  C   UNL     1      -2.422  37.324   7.334  1.00  0.00     0.146 A 
ATOM     11  O   UNL     1      -3.037  38.411   7.785  1.00  0.00    -0.451 OA
ENDROOT
BRANCH   1  12
ATOM     12  C   UNL     1      -3.253  40.745   8.348  1.00  0.00     0.063 A 
ATOM     13  C   UNL     1      -4.035  43.027   8.041  1.00  0.00     0.047 A 
ATOM     14  C   UNL     1      -3.299  41.927   7.592  1.00  0.00     0.020 A 
ATOM     15  C   UNL     1      -4.722  42.963   9.259  1.00  0.00     0.119 A 
ATOM     16  C   UNL     1      -4.662  41.798  10.030  1.00  0.00     0.093 A 
ATOM     17  C   UNL     1      -3.921  40.691   9.589  1.00  0.00     0.130 A 
BRANCH  15  18
ATOM     18  O   UNL     1      -5.462  44.052   9.715  1.00  0.00    -0.508 OA
ATOM     19  H   UNL     1      -5.590  44.880   9.146  1.00  0.00     0.293 HD
ENDBRANCH  15  18
BRANCH  17  20
ATOM     20  O   UNL     1      -3.830  39.553  10.391  1.00  0.00    -0.507 OA
ATOM     21  H   UNL     1      -3.053  38.908  10.310  1.00  0.00     0.293 HD
ENDBRANCH  17  20
ENDBRANCH   1  12
BRANCH   2  22
ATOM     22  O   UNL     1      -0.478  40.985   7.615  1.00  0.00    -0.502 OA
ATOM     23  H   UNL     1       0.135  41.368   6.905  1.00  0.00     0.293 HD
ENDBRANCH   2  22
BRANCH   6  24
ATOM     24  O   UNL     1       0.777  36.151   5.754  1.00  0.00    -0.507 OA
ATOM     25  H   UNL     1       1.641  36.371   6.225  1.00  0.00     0.293 HD
ENDBRANCH   6  24
BRANCH   8  26
ATOM     26  O   UNL     1      -3.189  33.731   6.901  1.00  0.00    -0.508 OA
ATOM     27  H   UNL     1      -3.448  33.281   7.772  1.00  0.00     0.293 HD
ENDBRANCH   8  26
TORSDOF 6
ENDMDL
MODEL 3
REMARK VINA RESULT:    -5.370      3.620      6.204
REMARK INTER + INTRA:          -6.884
REMARK INTER:                  -6.524
REMARK INTRA:                  -0.360
REMARK UNBOUND:                -0.415
REMARK SMILES O=c1c(O)c(-c2ccc(O)cc2O)oc2cc(O)cc(O)c12
REMARK SMILES IDX 5 1 3 2 2 3 1 4 22 5 20 6 19 7 17 8 16 9 15 10 14 11 6 12
REMARK SMILES IDX 8 13 7 14 9 15 11 16 12 17 10 18 13 20 4 22 21 24 18 26
REMARK H PARENT 10 19 13 21 4 23 21 25 18 27
REMARK Flexibility Score: inf
ROOT
ATOM      1  C   UNL     1      -2.033  38.772   7.623  1.00  0.00     0.184 A 
ATOM      2  C   UNL     1      -2.600  37.570   7.172  1.00  0.00     0.208 A 
ATOM      3  C   UNL     1      -1.777  36.627   6.536  1.00  0.00     0.238 A 
ATOM      4  O   UNL     1      -2.300  35.576   6.084  1.00  0.00    -0.285 OA
ATOM      5  C   UNL     1      -0.395  36.893   6.376  1.00  0.00     0.111 A 
ATOM      6  C   UNL     1       0.540  35.992   5.785  1.00  0.00     0.134 A 
ATOM      7  C   UNL     1       1.858  36.412   5.561  1.00  0.00     0.093 A 
ATOM      8  C   UNL     1       2.290  37.674   5.968  1.00  0.00     0.123 A 
ATOM      9  C   UNL     1       1.399  38.541   6.601  1.00  0.00     0.094 A 
ATOM     10  C   UNL     1       0.069  38.165   6.805  1.00  0.00     0.146 A 
ATOM     11  O   UNL     1      -0.749  39.023   7.402  1.00  0.00    -0.451 OA
ENDROOT
BRANCH   1  12
ATOM     12  C   UNL     1      -2.841  39.800   8.315  1.00  0.00     0.063 A 
ATOM     13  C   UNL     1      -4.227  40.421  10.213  1.00  0.00     0.047 A 
ATOM     14  C   UNL     1      -3.452  39.475   9.536  1.00  0.00     0.020 A 
ATOM     15  C   UNL     1      -4.411  41.697   9.670  1.00  0.00     0.119 A 
ATOM     16  C   UNL     1      -3.826  42.021   8.443  1.00  0.00     0.093 A 
ATOM     17  C   UNL     1      -3.051  41.077   7.754  1.00  0.00     0.130 A 
BRANCH  15  18
ATOM     18  O   UNL     1      -5.179  42.649  10.338  1.00  0.00    -0.508 OA
ATOM     19  H   UNL     1      -6.057  42.982   9.959  1.00  0.00     0.293 HD
ENDBRANCH  15  18
BRANCH  17  20
ATOM     20  O   UNL     1      -2.512  41.396   6.507  1.00  0.00    -0.507 OA
ATOM     21  H   UNL     1      -3.092  41.736   5.749  1.00  0.00     0.293 HD
ENDBRANCH  17  20
ENDBRANCH   1  12
BRANCH   2  22
ATOM     22  O   UNL     1      -3.970  37.342   7.325  1.00  0.00    -0.502 OA
ATOM     23  H   UNL     1      -4.566  37.958   7.866  1.00  0.00     0.293 HD
ENDBRANCH   2  22
BRANCH   6  24
ATOM     24  O   UNL     1       0.236  34.675   5.425  1.00  0.00    -0.507 OA
ATOM     25  H   UNL     1       0.919  33.972   5.188  1.00  0.00     0.293 HD
ENDBRANCH   6  24
BRANCH   8  26
ATOM     26  O   UNL     1       3.611  38.052   5.744  1.00  0.00    -0.508 OA
ATOM     27  H   UNL     1       4.088  38.705   6.356  1.00  0.00     0.293 HD
ENDBRANCH   8  26
TORSDOF 6
ENDMDL
MODEL 4
REMARK VINA RESULT:    -5.342      3.765      5.529
REMARK INTER + INTRA:          -6.851
REMARK INTER:                  -6.555
REMARK INTRA:                  -0.295
REMARK UNBOUND:                -0.415
REMARK SMILES O=c1c(O)c(-c2ccc(O)cc2O)oc2cc(O)cc(O)c12
REMARK SMILES IDX 5 1 3 2 2 3 1 4 22 5 20 6 19 7 17 8 16 9 15 10 14 11 6 12
REMARK SMILES IDX 8 13 7 14 9 15 11 16 12 17 10 18 13 20 4 22 21 24 18 26
REMARK H PARENT 10 19 13 21 4 23 21 25 18 27
REMARK Flexibility Score: inf
ROOT
ATOM      1  C   UNL     1      -0.645  40.055   6.843  1.00  0.00     0.184 A 
ATOM      2  C   UNL     1       0.659  40.562   6.730  1.00  0.00     0.208 A 
ATOM      3  C   UNL     1       1.689  39.702   6.318  1.00  0.00     0.238 A 
ATOM      4  O   UNL     1       2.865  40.148   6.271  1.00  0.00    -0.285 OA
ATOM      5  C   UNL     1       1.397  38.352   6.008  1.00  0.00     0.111 A 
ATOM      6  C   UNL     1       2.355  37.403   5.541  1.00  0.00     0.134 A 
ATOM      7  C   UNL     1       1.981  36.061   5.389  1.00  0.00     0.093 A 
ATOM      8  C   UNL     1       0.670  35.648   5.624  1.00  0.00     0.123 A 
ATOM      9  C   UNL     1      -0.289  36.579   6.023  1.00  0.00     0.094 A 
ATOM     10  C   UNL     1       0.062  37.918   6.218  1.00  0.00     0.146 A 
ATOM     11  O   UNL     1      -0.878  38.770   6.610  1.00  0.00    -0.451 OA
ENDROOT
BRANCH   1  12
ATOM     12  C   UNL     1      -1.778  40.911   7.256  1.00  0.00     0.063 A 
ATOM     13  C   UNL     1      -3.110  42.912   6.890  1.00  0.00     0.047 A 
ATOM     14  C   UNL     1      -2.051  42.077   6.524  1.00  0.00     0.020 A 
ATOM     15  C   UNL     1      -3.900  42.598   8.002  1.00  0.00     0.119 A 
ATOM     16  C   UNL     1      -3.620  41.452   8.752  1.00  0.00     0.093 A 
ATOM     17  C   UNL     1      -2.555  40.611   8.394  1.00  0.00     0.130 A 
BRANCH  15  18
ATOM     18  O   UNL     1      -4.960  43.421   8.375  1.00  0.00    -0.508 OA
ATOM     19  H   UNL     1      -5.872  43.338   7.941  1.00  0.00     0.293 HD
ENDBRANCH  15  18
BRANCH  17  20
ATOM     20  O   UNL     1      -2.256  39.497   9.178  1.00  0.00    -0.507 OA
ATOM     21  H   UNL     1      -1.430  39.465   9.763  1.00  0.00     0.293 HD
ENDBRANCH  17  20
ENDBRANCH   1  12
BRANCH   2  22
ATOM     22  O   UNL     1       0.922  41.894   7.061  1.00  0.00    -0.502 OA
ATOM     23  H   UNL     1       1.846  42.216   7.323  1.00  0.00     0.293 HD
ENDBRANCH   2  22
BRANCH   6  24
ATOM     24  O   UNL     1       3.669  37.727   5.189  1.00  0.00    -0.507 OA
ATOM     25  H   UNL     1       4.405  37.938   5.845  1.00  0.00     0.293 HD
ENDBRANCH   6  24
BRANCH   8  26
ATOM     26  O   UNL     1       0.329  34.310   5.448  1.00  0.00    -0.508 OA
ATOM     27  H   UNL     1       0.814  33.722   4.778  1.00  0.00     0.293 HD
ENDBRANCH   8  26
TORSDOF 6
ENDMDL
MODEL 5
REMARK VINA RESULT:    -5.329      2.077      6.740
REMARK INTER + INTRA:          -6.834
REMARK INTER:                  -6.422
REMARK INTRA:                  -0.413
REMARK UNBOUND:                -0.415
REMARK SMILES O=c1c(O)c(-c2ccc(O)cc2O)oc2cc(O)cc(O)c12
REMARK SMILES IDX 5 1 3 2 2 3 1 4 22 5 20 6 19 7 17 8 16 9 15 10 14 11 6 12
REMARK SMILES IDX 8 13 7 14 9 15 11 16 12 17 10 18 13 20 4 22 21 24 18 26
REMARK H PARENT 10 19 13 21 4 23 21 25 18 27
REMARK Flexibility Score: inf
ROOT
ATOM      1  C   UNL     1       2.205  38.263   6.832  1.00  0.00     0.184 A 
ATOM      2  C   UNL     1       1.647  37.208   6.094  1.00  0.00     0.208 A 
ATOM      3  C   UNL     1       0.252  37.143   5.948  1.00  0.00     0.238 A 
ATOM      4  O   UNL     1      -0.246  36.164   5.332  1.00  0.00    -0.285 OA
ATOM      5  C   UNL     1      -0.564  38.144   6.529  1.00  0.00     0.111 A 
ATOM      6  C   UNL     1      -1.985  38.200   6.410  1.00  0.00     0.134 A 
ATOM      7  C   UNL     1      -2.701  39.163   7.134  1.00  0.00     0.093 A 
ATOM      8  C   UNL     1      -2.043  40.110   7.918  1.00  0.00     0.123 A 
ATOM      9  C   UNL     1      -0.650  40.101   7.995  1.00  0.00     0.094 A 
ATOM     10  C   UNL     1       0.090  39.131   7.313  1.00  0.00     0.146 A 
ATOM     11  O   UNL     1       1.413  39.150   7.420  1.00  0.00    -0.451 OA
ENDROOT
BRANCH   1  12
ATOM     12  C   UNL     1       3.666  38.399   7.010  1.00  0.00     0.063 A 
ATOM     13  C   UNL     1       5.685  37.736   8.191  1.00  0.00     0.047 A 
ATOM     14  C   UNL     1       4.306  37.629   7.993  1.00  0.00     0.020 A 
ATOM     15  C   UNL     1       6.438  38.627   7.418  1.00  0.00     0.119 A 
ATOM     16  C   UNL     1       5.806  39.415   6.453  1.00  0.00     0.093 A 
ATOM     17  C   UNL     1       4.421  39.317   6.250  1.00  0.00     0.130 A 
BRANCH  15  18
ATOM     18  O   UNL     1       7.815  38.740   7.605  1.00  0.00    -0.508 OA
ATOM     19  H   UNL     1       8.472  38.417   6.905  1.00  0.00     0.293 HD
ENDBRANCH  15  18
BRANCH  17  20
ATOM     20  O   UNL     1       3.795  40.144   5.318  1.00  0.00    -0.507 OA
ATOM     21  H   UNL     1       4.313  40.835   4.789  1.00  0.00     0.293 HD
ENDBRANCH  17  20
ENDBRANCH   1  12
BRANCH   2  22
ATOM     22  O   UNL     1       2.474  36.223   5.547  1.00  0.00    -0.502 OA
ATOM     23  H   UNL     1       3.484  36.304   5.541  1.00  0.00     0.293 HD
ENDBRANCH   2  22
BRANCH   6  24
ATOM     24  O   UNL     1      -2.733  37.359   5.581  1.00  0.00    -0.507 OA
ATOM     25  H   UNL     1      -3.732  37.233   5.642  1.00  0.00     0.293 HD
ENDBRANCH   6  24
BRANCH   8  26
ATOM     26  O   UNL     1      -2.786  41.062   8.612  1.00  0.00    -0.508 OA
ATOM     27  H   UNL     1      -2.947  40.986   9.610  1.00  0.00     0.293 HD
ENDBRANCH   8  26
TORSDOF 6
ENDMDL
MODEL 6
REMARK VINA RESULT:    -5.241      9.547     11.372
REMARK INTER + INTRA:          -6.729
REMARK INTER:                  -6.323
REMARK INTRA:                  -0.406
REMARK UNBOUND:                -0.415
REMARK SMILES O=c1c(O)c(-c2ccc(O)cc2O)oc2cc(O)cc(O)c12
REMARK SMILES IDX 5 1 3 2 2 3 1 4 22 5 20 6 19 7 17 8 16 9 15 10 14 11 6 12
REMARK SMILES IDX 8 13 7 14 9 15 11 16 12 17 10 18 13 20 4 22 21 24 18 26
REMARK H PARENT 10 19 13 21 4 23 21 25 18 27
REMARK Flexibility Score: inf
ROOT
ATOM      1  C   UNL     1      -4.670  44.520   8.579  1.00  0.00     0.184 A 
ATOM      2  C   UNL     1      -5.707  44.924   7.724  1.00  0.00     0.208 A 
ATOM      3  C   UNL     1      -5.924  46.296   7.521  1.00  0.00     0.238 A 
ATOM      4  O   UNL     1      -6.890  46.654   6.797  1.00  0.00    -0.285 OA
ATOM      5  C   UNL     1      -5.091  47.244   8.164  1.00  0.00     0.111 A 
ATOM      6  C   UNL     1      -5.195  48.658   7.999  1.00  0.00     0.134 A 
ATOM      7  C   UNL     1      -4.403  49.505   8.785  1.00  0.00     0.093 A 
ATOM      8  C   UNL     1      -3.465  48.989   9.679  1.00  0.00     0.123 A 
ATOM      9  C   UNL     1      -3.314  47.608   9.806  1.00  0.00     0.094 A 
ATOM     10  C   UNL     1      -4.115  46.738   9.063  1.00  0.00     0.146 A 
ATOM     11  O   UNL     1      -3.947  45.430   9.220  1.00  0.00    -0.451 OA
ENDROOT
BRANCH   1  12
ATOM     12  C   UNL     1      -4.377  43.091   8.823  1.00  0.00     0.063 A 
ATOM     13  C   UNL     1      -3.248  41.055   8.124  1.00  0.00     0.047 A 
ATOM     14  C   UNL     1      -3.541  42.407   7.927  1.00  0.00     0.020 A 
ATOM     15  C   UNL     1      -3.800  40.367   9.211  1.00  0.00     0.119 A 
ATOM     16  C   UNL     1      -4.653  41.035  10.094  1.00  0.00     0.093 A 
ATOM     17  C   UNL     1      -4.956  42.391   9.901  1.00  0.00     0.130 A 
BRANCH  15  18
ATOM     18  O   UNL     1      -3.512  39.020   9.419  1.00  0.00    -0.508 OA
ATOM     19  H   UNL     1      -3.969  38.488  10.150  1.00  0.00     0.293 HD
ENDBRANCH  15  18
BRANCH  17  20
ATOM     20  O   UNL     1      -5.847  43.033  10.762  1.00  0.00    -0.507 OA
ATOM     21  H   UNL     1      -5.600  43.892  11.238  1.00  0.00     0.293 HD
ENDBRANCH  17  20
ENDBRANCH   1  12
BRANCH   2  22
ATOM     22  O   UNL     1      -6.526  43.969   7.117  1.00  0.00    -0.502 OA
ATOM     23  H   UNL     1      -6.667  43.046   7.511  1.00  0.00     0.293 HD
ENDBRANCH   2  22
BRANCH   6  24
ATOM     24  O   UNL     1      -6.034  49.276   7.067  1.00  0.00    -0.507 OA
ATOM     25  H   UNL     1      -7.014  49.465   7.212  1.00  0.00     0.293 HD
ENDBRANCH   6  24
BRANCH   8  26
ATOM     26  O   UNL     1      -2.683  49.861  10.432  1.00  0.00    -0.508 OA
ATOM     27  H   UNL     1      -1.673  49.881  10.341  1.00  0.00     0.293 HD
ENDBRANCH   8  26
TORSDOF 6
ENDMDL
MODEL 7
REMARK VINA RESULT:    -4.990      5.920      8.889
REMARK INTER + INTRA:          -6.426
REMARK INTER:                  -6.086
REMARK INTRA:                  -0.341
REMARK UNBOUND:                -0.415
REMARK SMILES O=c1c(O)c(-c2ccc(O)cc2O)oc2cc(O)cc(O)c12
REMARK SMILES IDX 5 1 3 2 2 3 1 4 22 5 20 6 19 7 17 8 16 9 15 10 14 11 6 12
REMARK SMILES IDX 8 13 7 14 9 15 11 16 12 17 10 18 13 20 4 22 21 24 18 26
REMARK H PARENT 10 19 13 21 4 23 21 25 18 27
REMARK Flexibility Score: inf
ROOT
ATOM      1  C   UNL     1      -2.597  40.762   7.916  1.00  0.00     0.184 A 
ATOM      2  C   UNL     1      -3.298  40.317   9.047  1.00  0.00     0.208 A 
ATOM      3  C   UNL     1      -4.225  41.178   9.656  1.00  0.00     0.238 A 
ATOM      4  O   UNL     1      -4.810  40.794  10.702  1.00  0.00    -0.285 OA
ATOM      5  C   UNL     1      -4.448  42.468   9.114  1.00  0.00     0.111 A 
ATOM      6  C   UNL     1      -5.393  43.408   9.624  1.00  0.00     0.134 A 
ATOM      7  C   UNL     1      -5.438  44.702   9.088  1.00  0.00     0.093 A 
ATOM      8  C   UNL     1      -4.620  45.067   8.019  1.00  0.00     0.123 A 
ATOM      9  C   UNL     1      -3.735  44.137   7.474  1.00  0.00     0.094 A 
ATOM     10  C   UNL     1      -3.641  42.850   8.010  1.00  0.00     0.146 A 
ATOM     11  O   UNL     1      -2.778  41.998   7.469  1.00  0.00    -0.451 OA
ENDROOT
BRANCH   1  12
ATOM     12  C   UNL     1      -1.620  39.898   7.219  1.00  0.00     0.063 A 
ATOM     13  C   UNL     1      -1.080  38.500   5.305  1.00  0.00     0.047 A 
ATOM     14  C   UNL     1      -1.977  39.325   5.988  1.00  0.00     0.020 A 
ATOM     15  C   UNL     1       0.179  38.226   5.852  1.00  0.00     0.119 A 
ATOM     16  C   UNL     1       0.534  38.773   7.088  1.00  0.00     0.093 A 
ATOM     17  C   UNL     1      -0.363  39.599   7.783  1.00  0.00     0.130 A 
BRANCH  15  18
ATOM     18  O   UNL     1       1.082  37.407   5.177  1.00  0.00    -0.508 OA
ATOM     19  H   UNL     1       0.909  36.416   5.054  1.00  0.00     0.293 HD
ENDBRANCH  15  18
BRANCH  17  20
ATOM     20  O   UNL     1      -0.016  40.099   9.038  1.00  0.00    -0.507 OA
ATOM     21  H   UNL     1       0.950  40.262   9.296  1.00  0.00     0.293 HD
ENDBRANCH  17  20
ENDBRANCH   1  12
BRANCH   2  22
ATOM     22  O   UNL     1      -3.045  39.047   9.572  1.00  0.00    -0.502 OA
ATOM     23  H   UNL     1      -2.107  38.675   9.665  1.00  0.00     0.293 HD
ENDBRANCH   2  22
BRANCH   6  24
ATOM     24  O   UNL     1      -6.320  43.117  10.629  1.00  0.00    -0.507 OA
ATOM     25  H   UNL     1      -7.305  42.965  10.476  1.00  0.00     0.293 HD
ENDBRANCH   6  24
BRANCH   8  26
ATOM     26  O   UNL     1      -4.703  46.357   7.501  1.00  0.00    -0.508 OA
ATOM     27  H   UNL     1      -5.132  46.541   6.601  1.00  0.00     0.293 HD
ENDBRANCH   8  26
TORSDOF 6
ENDMDL
MODEL 8
REMARK VINA RESULT:    -4.987     11.636     13.477
REMARK INTER + INTRA:          -6.423
REMARK INTER:                  -6.007
REMARK INTRA:                  -0.416
REMARK UNBOUND:                -0.415
REMARK SMILES O=c1c(O)c(-c2ccc(O)cc2O)oc2cc(O)cc(O)c12
REMARK SMILES IDX 5 1 3 2 2 3 1 4 22 5 20 6 19 7 17 8 16 9 15 10 14 11 6 12
REMARK SMILES IDX 8 13 7 14 9 15 11 16 12 17 10 18 13 20 4 22 21 24 18 26
REMARK H PARENT 10 19 13 21 4 23 21 25 18 27
REMARK Flexibility Score: inf
ROOT
ATOM      1  C   UNL     1      -4.568  47.088   8.688  1.00  0.00     0.184 A 
ATOM      2  C   UNL     1      -3.768  47.704   9.663  1.00  0.00     0.208 A 
ATOM      3  C   UNL     1      -4.000  49.051   9.982  1.00  0.00     0.238 A 
ATOM      4  O   UNL     1      -3.244  49.613  10.817  1.00  0.00    -0.285 OA
ATOM      5  C   UNL     1      -5.041  49.759   9.333  1.00  0.00     0.111 A 
ATOM      6  C   UNL     1      -5.391  51.115   9.606  1.00  0.00     0.134 A 
ATOM      7  C   UNL     1      -6.353  51.754   8.812  1.00  0.00     0.093 A 
ATOM      8  C   UNL     1      -7.021  51.067   7.799  1.00  0.00     0.123 A 
ATOM      9  C   UNL     1      -6.729  49.724   7.562  1.00  0.00     0.094 A 
ATOM     10  C   UNL     1      -5.749  49.069   8.313  1.00  0.00     0.146 A 
ATOM     11  O   UNL     1      -5.492  47.794   8.049  1.00  0.00    -0.451 OA
ENDROOT
BRANCH   1  12
ATOM     12  C   UNL     1      -4.387  45.668   8.318  1.00  0.00     0.063 A 
ATOM     13  C   UNL     1      -4.761  43.323   8.838  1.00  0.00     0.047 A 
ATOM     14  C   UNL     1      -4.919  44.675   9.155  1.00  0.00     0.020 A 
ATOM     15  C   UNL     1      -4.057  42.949   7.688  1.00  0.00     0.119 A 
ATOM     16  C   UNL     1      -3.503  43.930   6.862  1.00  0.00     0.093 A 
ATOM     17  C   UNL     1      -3.652  45.290   7.175  1.00  0.00     0.130 A 
BRANCH  15  18
ATOM     18  O   UNL     1      -3.896  41.604   7.361  1.00  0.00    -0.508 OA
ATOM     19  H   UNL     1      -4.681  40.964   7.351  1.00  0.00     0.293 HD
ENDBRANCH  15  18
BRANCH  17  20
ATOM     20  O   UNL     1      -3.054  46.258   6.369  1.00  0.00    -0.507 OA
ATOM     21  H   UNL     1      -3.592  46.807   5.709  1.00  0.00     0.293 HD
ENDBRANCH  17  20
ENDBRANCH   1  12
BRANCH   2  22
ATOM     22  O   UNL     1      -2.736  46.987  10.275  1.00  0.00    -0.502 OA
ATOM     23  H   UNL     1      -2.793  45.990  10.443  1.00  0.00     0.293 HD
ENDBRANCH   2  22
BRANCH   6  24
ATOM     24  O   UNL     1      -4.850  51.866  10.654  1.00  0.00    -0.507 OA
ATOM     25  H   UNL     1      -5.391  52.387  11.327  1.00  0.00     0.293 HD
ENDBRANCH   6  24
BRANCH   8  26
ATOM     26  O   UNL     1      -7.983  51.729   7.040  1.00  0.00    -0.508 OA
ATOM     27  H   UNL     1      -8.119  52.731   7.113  1.00  0.00     0.293 HD
ENDBRANCH   8  26
TORSDOF 6
ENDMDL
MODEL 9
REMARK VINA RESULT:    -4.887      3.737      8.345
REMARK INTER + INTRA:          -6.302
REMARK INTER:                  -5.895
REMARK INTRA:                  -0.407
REMARK UNBOUND:                -0.415
REMARK SMILES O=c1c(O)c(-c2ccc(O)cc2O)oc2cc(O)cc(O)c12
REMARK SMILES IDX 5 1 3 2 2 3 1 4 22 5 20 6 19 7 17 8 16 9 15 10 14 11 6 12
REMARK SMILES IDX 8 13 7 14 9 15 11 16 12 17 10 18 13 20 4 22 21 24 18 26
REMARK H PARENT 10 19 13 21 4 23 21 25 18 27
REMARK Flexibility Score: inf
ROOT
ATOM      1  C   UNL     1      -2.002  35.327   7.655  1.00  0.00     0.184 A 
ATOM      2  C   UNL     1      -3.292  35.247   7.109  1.00  0.00     0.208 A 
ATOM      3  C   UNL     1      -4.357  34.854   7.935  1.00  0.00     0.238 A 
ATOM      4  O   UNL     1      -5.502  34.731   7.427  1.00  0.00    -0.285 OA
ATOM      5  C   UNL     1      -4.119  34.563   9.301  1.00  0.00     0.111 A 
ATOM      6  C   UNL     1      -5.129  34.195  10.239  1.00  0.00     0.134 A 
ATOM      7  C   UNL     1      -4.761  33.804  11.533  1.00  0.00     0.093 A 
ATOM      8  C   UNL     1      -3.427  33.831  11.940  1.00  0.00     0.123 A 
ATOM      9  C   UNL     1      -2.438  34.245  11.049  1.00  0.00     0.094 A 
ATOM     10  C   UNL     1      -2.770  34.607   9.741  1.00  0.00     0.146 A 
ATOM     11  O   UNL     1      -1.797  34.985   8.920  1.00  0.00    -0.451 OA
ENDROOT
BRANCH   1  12
ATOM     12  C   UNL     1      -0.841  35.750   6.844  1.00  0.00     0.063 A 
ATOM     13  C   UNL     1       0.999  35.141   5.374  1.00  0.00     0.047 A 
ATOM     14  C   UNL     1      -0.108  34.777   6.146  1.00  0.00     0.020 A 
ATOM     15  C   UNL     1       1.395  36.482   5.304  1.00  0.00     0.119 A 
ATOM     16  C   UNL     1       0.686  37.454   6.014  1.00  0.00     0.093 A 
ATOM     17  C   UNL     1      -0.424  37.097   6.795  1.00  0.00     0.130 A 
BRANCH  15  18
ATOM     18  O   UNL     1       2.494  36.857   4.535  1.00  0.00    -0.508 OA
ATOM     19  H   UNL     1       3.414  36.969   4.945  1.00  0.00     0.293 HD
ENDBRANCH  15  18
BRANCH  17  20
ATOM     20  O   UNL     1      -1.093  38.069   7.538  1.00  0.00    -0.507 OA
ATOM     21  H   UNL     1      -1.110  38.046   8.551  1.00  0.00     0.293 HD
ENDBRANCH  17  20
ENDBRANCH   1  12
BRANCH   2  22
ATOM     22  O   UNL     1      -3.496  35.521   5.754  1.00  0.00    -0.502 OA
ATOM     23  H   UNL     1      -2.786  35.951   5.174  1.00  0.00     0.293 HD
ENDBRANCH   2  22
BRANCH   6  24
ATOM     24  O   UNL     1      -6.499  34.223   9.962  1.00  0.00    -0.507 OA
ATOM     25  H   UNL     1      -7.004  35.033   9.636  1.00  0.00     0.293 HD
ENDBRANCH   6  24
BRANCH   8  26
ATOM     26  O   UNL     1      -3.099  33.450  13.239  1.00  0.00    -0.508 OA
ATOM     27  H   UNL     1      -2.357  32.785  13.426  1.00  0.00     0.293 HD
ENDBRANCH   8  26
TORSDOF 6
ENDMDL
