MODEL 1
REMARK VINA RESULT:    -3.963      0.000      0.000
REMARK INTER + INTRA:          -7.836
REMARK INTER:                  -6.280
REMARK INTRA:                  -1.556
REMARK UNBOUND:                -1.556
REMARK SMILES CCCCCCCCCCCC(=O)[O-]
REMARK SMILES IDX 7 1 8 2 9 3 10 4 11 5 12 6 13 7 14 8 6 9 5 10 4 11 3 12 2 13
REMARK SMILES IDX 1 14
REMARK H PARENT
REMARK Flexibility Score: inf
ROOT
ATOM      1  C   UNL     1      16.224   7.428   6.084  1.00  0.00     0.000 C 
ENDROOT
BRANCH   1   2
ATOM      2  C   UNL     1      16.598   8.922   6.015  1.00  0.00     0.000 C 
BRANCH   2   3
ATOM      3  C   UNL     1      16.976   9.437   4.614  1.00  0.00     0.000 C 
BRANCH   3   4
ATOM      4  C   UNL     1      18.462   9.231   4.284  1.00  0.00     0.006 C 
BRANCH   4   5
ATOM      5  C   UNL     1      18.674   7.929   3.506  1.00  0.00     0.053 C 
BRANCH   5   6
ATOM      6  C   UNL     1      18.037   8.015   2.155  1.00  0.00     0.041 C 
ATOM      7  O   UNL     1      17.072   7.262   1.861  1.00  0.00    -0.550 OA
ATOM      8  O   UNL     1      18.476   8.962   1.239  1.00  0.00    -0.550 OA
ENDBRANCH   5   6
ENDBRANCH   4   5
ENDBRANCH   3   4
ENDBRANCH   2   3
ENDBRANCH   1   2
BRANCH   1   9
ATOM      9  C   UNL     1      17.087   6.578   7.035  1.00  0.00     0.000 C 
BRANCH   9  10
ATOM     10  C   UNL     1      18.196   7.392   7.724  1.00  0.00    -0.000 C 
BRANCH  10  11
ATOM     11  C   UNL     1      19.593   7.070   7.170  1.00  0.00    -0.000 C 
BRANCH  11  12
ATOM     12  C   UNL     1      20.544   8.279   7.222  1.00  0.00    -0.000 C 
BRANCH  12  13
ATOM     13  C   UNL     1      19.962   9.451   8.027  1.00  0.00    -0.003 C 
ATOM     14  C   UNL     1      19.952  10.762   7.240  1.00  0.00     0.004 C 
ENDBRANCH  12  13
ENDBRANCH  11  12
ENDBRANCH  10  11
ENDBRANCH   9  10
ENDBRANCH   1   9
TORSDOF 10
ENDMDL
MODEL 2
REMARK VINA RESULT:    -3.957      1.624      3.672
REMARK INTER + INTRA:          -7.826
REMARK INTER:                  -6.425
REMARK INTRA:                  -1.401
REMARK UNBOUND:                -1.556
REMARK SMILES CCCCCCCCCCCC(=O)[O-]
REMARK SMILES IDX 7 1 8 2 9 3 10 4 11 5 12 6 13 7 14 8 6 9 5 10 4 11 3 12 2 13
REMARK SMILES IDX 1 14
REMARK H PARENT
REMARK Flexibility Score: inf
ROOT
ATOM      1  C   UNL     1      19.951   8.023   6.675  1.00  0.00     0.000 C 
ENDROOT
BRANCH   1   2
ATOM      2  C   UNL     1      19.953   9.363   7.438  1.00  0.00     0.000 C 
BRANCH   2   3
ATOM      3  C   UNL     1      19.570  10.594   6.597  1.00  0.00     0.000 C 
BRANCH   3   4
ATOM      4  C   UNL     1      18.288  10.382   5.779  1.00  0.00     0.006 C 
BRANCH   4   5
ATOM      5  C   UNL     1      18.594  10.347   4.279  1.00  0.00     0.053 C 
BRANCH   5   6
ATOM      6  C   UNL     1      17.342  10.546   3.484  1.00  0.00     0.041 C 
ATOM      7  O   UNL     1      17.408  10.793   2.251  1.00  0.00    -0.550 OA
ATOM      8  O   UNL     1      16.102  10.409   4.094  1.00  0.00    -0.550 OA
ENDBRANCH   5   6
ENDBRANCH   4   5
ENDBRANCH   3   4
ENDBRANCH   2   3
ENDBRANCH   1   2
BRANCH   1   9
ATOM      9  C   UNL     1      19.175   6.880   7.356  1.00  0.00     0.000 C 
BRANCH   9  10
ATOM     10  C   UNL     1      17.792   7.318   7.866  1.00  0.00    -0.000 C 
BRANCH  10  11
ATOM     11  C   UNL     1      16.641   6.621   7.123  1.00  0.00    -0.000 C 
BRANCH  11  12
ATOM     12  C   UNL     1      16.188   7.393   5.872  1.00  0.00    -0.000 C 
BRANCH  12  13
ATOM     13  C   UNL     1      16.316   6.558   4.588  1.00  0.00    -0.003 C 
ATOM     14  C   UNL     1      17.700   6.668   3.947  1.00  0.00     0.004 C 
ENDBRANCH  12  13
ENDBRANCH  11  12
ENDBRANCH  10  11
ENDBRANCH   9  10
ENDBRANCH   1   9
TORSDOF 10
ENDMDL
MODEL 3
REMARK VINA RESULT:    -3.922      1.303      2.812
REMARK INTER + INTRA:          -7.770
REMARK INTER:                  -6.256
REMARK INTRA:                  -1.515
REMARK UNBOUND:                -1.556
REMARK SMILES CCCCCCCCCCCC(=O)[O-]
REMARK SMILES IDX 7 1 8 2 9 3 10 4 11 5 12 6 13 7 14 8 6 9 5 10 4 11 3 12 2 13
REMARK SMILES IDX 1 14
REMARK H PARENT
REMARK Flexibility Score: inf
ROOT
ATOM      1  C   UNL     1      18.903  10.370   5.467  1.00  0.00     0.000 C 
ENDROOT
BRANCH   1   2
ATOM      2  C   UNL     1      17.390  10.651   5.359  1.00  0.00     0.000 C 
BRANCH   2   3
ATOM      3  C   UNL     1      16.492   9.401   5.374  1.00  0.00     0.000 C 
BRANCH   3   4
ATOM      4  C   UNL     1      16.189   8.867   3.967  1.00  0.00     0.006 C 
BRANCH   4   5
ATOM      5  C   UNL     1      16.753   7.455   3.783  1.00  0.00     0.053 C 
BRANCH   5   6
ATOM      6  C   UNL     1      18.141   7.513   3.227  1.00  0.00     0.041 C 
ATOM      7  O   UNL     1      18.959   6.586   3.469  1.00  0.00    -0.550 OA
ATOM      8  O   UNL     1      18.516   8.565   2.403  1.00  0.00    -0.550 OA
ENDBRANCH   5   6
ENDBRANCH   4   5
ENDBRANCH   3   4
ENDBRANCH   2   3
ENDBRANCH   1   2
BRANCH   1   9
ATOM      9  C   UNL     1      19.511  10.569   6.868  1.00  0.00     0.000 C 
BRANCH   9  10
ATOM     10  C   UNL     1      20.121   9.281   7.442  1.00  0.00    -0.000 C 
BRANCH  10  11
ATOM     11  C   UNL     1      19.890   8.063   6.533  1.00  0.00    -0.000 C 
BRANCH  11  12
ATOM     12  C   UNL     1      19.462   6.809   7.317  1.00  0.00    -0.000 C 
BRANCH  12  13
ATOM     13  C   UNL     1      17.992   6.436   7.070  1.00  0.00    -0.003 C 
ATOM     14  C   UNL     1      17.043   7.065   8.090  1.00  0.00     0.004 C 
ENDBRANCH  12  13
ENDBRANCH  11  12
ENDBRANCH  10  11
ENDBRANCH   9  10
ENDBRANCH   1   9
TORSDOF 10
ENDMDL
MODEL 4
REMARK VINA RESULT:    -3.915      0.850      3.094
REMARK INTER + INTRA:          -7.759
REMARK INTER:                  -6.217
REMARK INTRA:                  -1.542
REMARK UNBOUND:                -1.556
REMARK SMILES CCCCCCCCCCCC(=O)[O-]
REMARK SMILES IDX 7 1 8 2 9 3 10 4 11 5 12 6 13 7 14 8 6 9 5 10 4 11 3 12 2 13
REMARK SMILES IDX 1 14
REMARK H PARENT
REMARK Flexibility Score: inf
ROOT
ATOM      1  C   UNL     1      19.984  10.817   7.461  1.00  0.00     0.000 C 
ENDROOT
BRANCH   1   2
ATOM      2  C   UNL     1      19.243  11.092   6.136  1.00  0.00     0.000 C 
BRANCH   2   3
ATOM      3  C   UNL     1      17.850  10.449   6.021  1.00  0.00     0.000 C 
BRANCH   3   4
ATOM      4  C   UNL     1      17.496  10.045   4.582  1.00  0.00     0.006 C 
BRANCH   4   5
ATOM      5  C   UNL     1      18.602   9.184   3.967  1.00  0.00     0.053 C 
BRANCH   5   6
ATOM      6  C   UNL     1      18.121   8.534   2.708  1.00  0.00     0.041 C 
ATOM      7  O   UNL     1      18.485   8.978   1.588  1.00  0.00    -0.550 OA
ATOM      8  O   UNL     1      17.312   7.407   2.773  1.00  0.00    -0.550 OA
ENDBRANCH   5   6
ENDBRANCH   4   5
ENDBRANCH   3   4
ENDBRANCH   2   3
ENDBRANCH   1   2
BRANCH   1   9
ATOM      9  C   UNL     1      19.704   9.443   8.097  1.00  0.00     0.000 C 
BRANCH   9  10
ATOM     10  C   UNL     1      20.655   8.346   7.590  1.00  0.00    -0.000 C 
BRANCH  10  11
ATOM     11  C   UNL     1      19.930   7.275   6.760  1.00  0.00    -0.000 C 
BRANCH  11  12
ATOM     12  C   UNL     1      18.540   6.927   7.323  1.00  0.00    -0.000 C 
BRANCH  12  13
ATOM     13  C   UNL     1      17.590   6.380   6.247  1.00  0.00    -0.003 C 
ATOM     14  C   UNL     1      16.239   7.095   6.233  1.00  0.00     0.004 C 
ENDBRANCH  12  13
ENDBRANCH  11  12
ENDBRANCH  10  11
ENDBRANCH   9  10
ENDBRANCH   1   9
TORSDOF 10
ENDMDL
MODEL 5
REMARK VINA RESULT:    -3.866      1.244      2.597
REMARK INTER + INTRA:          -7.681
REMARK INTER:                  -6.378
REMARK INTRA:                  -1.303
REMARK UNBOUND:                -1.556
REMARK SMILES CCCCCCCCCCCC(=O)[O-]
REMARK SMILES IDX 7 1 8 2 9 3 10 4 11 5 12 6 13 7 14 8 6 9 5 10 4 11 3 12 2 13
REMARK SMILES IDX 1 14
REMARK H PARENT
REMARK Flexibility Score: inf
ROOT
ATOM      1  C   UNL     1      16.630   9.592   6.444  1.00  0.00     0.000 C 
ENDROOT
BRANCH   1   2
ATOM      2  C   UNL     1      16.242   8.308   5.684  1.00  0.00     0.000 C 
BRANCH   2   3
ATOM      3  C   UNL     1      16.910   7.019   6.194  1.00  0.00     0.000 C 
BRANCH   3   4
ATOM      4  C   UNL     1      17.586   6.214   5.074  1.00  0.00     0.006 C 
BRANCH   4   5
ATOM      5  C   UNL     1      18.569   7.087   4.289  1.00  0.00     0.053 C 
BRANCH   5   6
ATOM      6  C   UNL     1      18.185   7.139   2.844  1.00  0.00     0.041 C 
ATOM      7  O   UNL     1      17.460   6.237   2.348  1.00  0.00    -0.550 OA
ATOM      8  O   UNL     1      18.588   8.209   2.055  1.00  0.00    -0.550 OA
ENDBRANCH   5   6
ENDBRANCH   4   5
ENDBRANCH   3   4
ENDBRANCH   2   3
ENDBRANCH   1   2
BRANCH   1   9
ATOM      9  C   UNL     1      17.349  10.663   5.603  1.00  0.00     0.000 C 
BRANCH   9  10
ATOM     10  C   UNL     1      18.880  10.521   5.638  1.00  0.00    -0.000 C 
BRANCH  10  11
ATOM     11  C   UNL     1      19.499  11.125   6.909  1.00  0.00    -0.000 C 
BRANCH  11  12
ATOM     12  C   UNL     1      20.432  10.142   7.639  1.00  0.00    -0.000 C 
BRANCH  12  13
ATOM     13  C   UNL     1      19.888   8.705   7.639  1.00  0.00    -0.003 C 
ATOM     14  C   UNL     1      20.924   7.682   7.175  1.00  0.00     0.004 C 
ENDBRANCH  12  13
ENDBRANCH  11  12
ENDBRANCH  10  11
ENDBRANCH   9  10
ENDBRANCH   1   9
TORSDOF 10
ENDMDL
MODEL 6
REMARK VINA RESULT:    -3.838      2.585      4.232
REMARK INTER + INTRA:          -7.638
REMARK INTER:                  -6.568
REMARK INTRA:                  -1.070
REMARK UNBOUND:                -1.556
REMARK SMILES CCCCCCCCCCCC(=O)[O-]
REMARK SMILES IDX 7 1 8 2 9 3 10 4 11 5 12 6 13 7 14 8 6 9 5 10 4 11 3 12 2 13
REMARK SMILES IDX 1 14
REMARK H PARENT
REMARK Flexibility Score: inf
ROOT
ATOM      1  C   UNL     1      18.608   8.115   3.141  1.00  0.00     0.000 C 
ENDROOT
BRANCH   1   2
ATOM      2  C   UNL     1      17.606   7.114   2.531  1.00  0.00     0.000 C 
BRANCH   2   3
ATOM      3  C   UNL     1      16.406   6.762   3.428  1.00  0.00     0.000 C 
BRANCH   3   4
ATOM      4  C   UNL     1      16.826   6.286   4.826  1.00  0.00     0.006 C 
BRANCH   4   5
ATOM      5  C   UNL     1      16.274   7.215   5.911  1.00  0.00     0.053 C 
BRANCH   5   6
ATOM      6  C   UNL     1      17.170   7.214   7.109  1.00  0.00     0.041 C 
ATOM      7  O   UNL     1      17.107   8.150   7.948  1.00  0.00    -0.550 OA
ATOM      8  O   UNL     1      18.041   6.154   7.324  1.00  0.00    -0.550 OA
ENDBRANCH   5   6
ENDBRANCH   4   5
ENDBRANCH   3   4
ENDBRANCH   2   3
ENDBRANCH   1   2
BRANCH   1   9
ATOM      9  C   UNL     1      18.344   9.596   2.807  1.00  0.00     0.000 C 
BRANCH   9  10
ATOM     10  C   UNL     1      18.152  10.465   4.060  1.00  0.00    -0.000 C 
BRANCH  10  11
ATOM     11  C   UNL     1      18.877   9.896   5.290  1.00  0.00    -0.000 C 
BRANCH  11  12
ATOM     12  C   UNL     1      19.218  10.977   6.331  1.00  0.00    -0.000 C 
BRANCH  12  13
ATOM     13  C   UNL     1      20.029  10.420   7.511  1.00  0.00    -0.003 C 
ATOM     14  C   UNL     1      20.396   8.947   7.334  1.00  0.00     0.004 C 
ENDBRANCH  12  13
ENDBRANCH  11  12
ENDBRANCH  10  11
ENDBRANCH   9  10
ENDBRANCH   1   9
TORSDOF 10
ENDMDL
MODEL 7
REMARK VINA RESULT:    -3.829      2.466      4.027
REMARK INTER + INTRA:          -7.623
REMARK INTER:                  -6.531
REMARK INTRA:                  -1.092
REMARK UNBOUND:                -1.556
REMARK SMILES CCCCCCCCCCCC(=O)[O-]
REMARK SMILES IDX 7 1 8 2 9 3 10 4 11 5 12 6 13 7 14 8 6 9 5 10 4 11 3 12 2 13
REMARK SMILES IDX 1 14
REMARK H PARENT
REMARK Flexibility Score: inf
ROOT
ATOM      1  C   UNL     1      18.731  10.964   6.447  1.00  0.00     0.000 C 
ENDROOT
BRANCH   1   2
ATOM      2  C   UNL     1      18.789  10.305   5.053  1.00  0.00     0.000 C 
BRANCH   2   3
ATOM      3  C   UNL     1      18.031   8.972   4.928  1.00  0.00     0.000 C 
BRANCH   3   4
ATOM      4  C   UNL     1      16.676   8.986   5.652  1.00  0.00     0.006 C 
BRANCH   4   5
ATOM      5  C   UNL     1      16.189   7.562   5.932  1.00  0.00     0.053 C 
BRANCH   5   6
ATOM      6  C   UNL     1      17.087   6.885   6.920  1.00  0.00     0.041 C 
ATOM      7  O   UNL     1      17.687   5.823   6.607  1.00  0.00    -0.550 OA
ATOM      8  O   UNL     1      17.299   7.454   8.169  1.00  0.00    -0.550 OA
ENDBRANCH   5   6
ENDBRANCH   4   5
ENDBRANCH   3   4
ENDBRANCH   2   3
ENDBRANCH   1   2
BRANCH   1   9
ATOM      9  C   UNL     1      20.020  10.853   7.281  1.00  0.00     0.000 C 
BRANCH   9  10
ATOM     10  C   UNL     1      19.983   9.689   8.286  1.00  0.00    -0.000 C 
BRANCH  10  11
ATOM     11  C   UNL     1      21.112   8.672   8.052  1.00  0.00    -0.000 C 
BRANCH  11  12
ATOM     12  C   UNL     1      20.752   7.621   6.987  1.00  0.00    -0.000 C 
BRANCH  12  13
ATOM     13  C   UNL     1      21.870   6.587   6.782  1.00  0.00    -0.003 C 
ATOM     14  C   UNL     1      23.155   6.951   7.525  1.00  0.00     0.004 C 
ENDBRANCH  12  13
ENDBRANCH  11  12
ENDBRANCH  10  11
ENDBRANCH   9  10
ENDBRANCH   1   9
TORSDOF 10
ENDMDL
MODEL 8
REMARK VINA RESULT:    -3.824      2.385      4.901
REMARK INTER + INTRA:          -7.615
REMARK INTER:                  -6.226
REMARK INTRA:                  -1.390
REMARK UNBOUND:                -1.556
REMARK SMILES CCCCCCCCCCCC(=O)[O-]
REMARK SMILES IDX 7 1 8 2 9 3 10 4 11 5 12 6 13 7 14 8 6 9 5 10 4 11 3 12 2 13
REMARK SMILES IDX 1 14
REMARK H PARENT
REMARK Flexibility Score: inf
ROOT
ATOM      1  C   UNL     1      18.797  10.591   5.208  1.00  0.00     0.000 C 
ENDROOT
BRANCH   1   2
ATOM      2  C   UNL     1      19.322  10.764   6.647  1.00  0.00     0.000 C 
BRANCH   2   3
ATOM      3  C   UNL     1      19.986   9.515   7.256  1.00  0.00     0.000 C 
BRANCH   3   4
ATOM      4  C   UNL     1      19.776   8.254   6.405  1.00  0.00     0.006 C 
BRANCH   4   5
ATOM      5  C   UNL     1      19.529   7.030   7.290  1.00  0.00     0.053 C 
BRANCH   5   6
ATOM      6  C   UNL     1      18.080   6.660   7.282  1.00  0.00     0.041 C 
ATOM      7  O   UNL     1      17.630   5.880   6.402  1.00  0.00    -0.550 OA
ATOM      8  O   UNL     1      17.235   7.138   8.275  1.00  0.00    -0.550 OA
ENDBRANCH   5   6
ENDBRANCH   4   5
ENDBRANCH   3   4
ENDBRANCH   2   3
ENDBRANCH   1   2
BRANCH   1   9
ATOM      9  C   UNL     1      17.277  10.772   5.036  1.00  0.00     0.000 C 
BRANCH   9  10
ATOM     10  C   UNL     1      16.462   9.693   5.767  1.00  0.00    -0.000 C 
BRANCH  10  11
ATOM     11  C   UNL     1      16.046   8.539   4.839  1.00  0.00    -0.000 C 
BRANCH  11  12
ATOM     12  C   UNL     1      15.970   8.964   3.362  1.00  0.00    -0.000 C 
BRANCH  12  13
ATOM     13  C   UNL     1      16.882   8.119   2.460  1.00  0.00    -0.003 C 
ATOM     14  C   UNL     1      18.023   7.455   3.231  1.00  0.00     0.004 C 
ENDBRANCH  12  13
ENDBRANCH  11  12
ENDBRANCH  10  11
ENDBRANCH   9  10
ENDBRANCH   1   9
TORSDOF 10
ENDMDL
MODEL 9
REMARK VINA RESULT:    -3.795      1.150      3.102
REMARK INTER + INTRA:          -7.569
REMARK INTER:                  -6.160
REMARK INTRA:                  -1.408
REMARK UNBOUND:                -1.556
REMARK SMILES CCCCCCCCCCCC(=O)[O-]
REMARK SMILES IDX 7 1 8 2 9 3 10 4 11 5 12 6 13 7 14 8 6 9 5 10 4 11 3 12 2 13
REMARK SMILES IDX 1 14
REMARK H PARENT
REMARK Flexibility Score: inf
ROOT
ATOM      1  C   UNL     1      18.896  10.703   5.636  1.00  0.00     0.000 C 
ENDROOT
BRANCH   1   2
ATOM      2  C   UNL     1      17.417  10.618   5.208  1.00  0.00     0.000 C 
BRANCH   2   3
ATOM      3  C   UNL     1      17.182  10.164   3.756  1.00  0.00     0.000 C 
BRANCH   3   4
ATOM      4  C   UNL     1      18.489   9.879   3.001  1.00  0.00     0.006 C 
BRANCH   4   5
ATOM      5  C   UNL     1      18.582   8.402   2.606  1.00  0.00     0.053 C 
BRANCH   5   6
ATOM      6  C   UNL     1      17.886   8.163   1.303  1.00  0.00     0.041 C 
ATOM      7  O   UNL     1      17.946   9.024   0.386  1.00  0.00    -0.550 OA
ATOM      8  O   UNL     1      17.214   6.968   1.084  1.00  0.00    -0.550 OA
ENDBRANCH   5   6
ENDBRANCH   4   5
ENDBRANCH   3   4
ENDBRANCH   2   3
ENDBRANCH   1   2
BRANCH   1   9
ATOM      9  C   UNL     1      19.258   9.916   6.909  1.00  0.00     0.000 C 
BRANCH   9  10
ATOM     10  C   UNL     1      19.231   8.393   6.697  1.00  0.00    -0.000 C 
BRANCH  10  11
ATOM     11  C   UNL     1      18.204   7.690   7.599  1.00  0.00    -0.000 C 
BRANCH  11  12
ATOM     12  C   UNL     1      17.390   6.621   6.849  1.00  0.00    -0.000 C 
BRANCH  12  13
ATOM     13  C   UNL     1      16.236   7.225   6.033  1.00  0.00    -0.003 C 
ATOM     14  C   UNL     1      16.129   6.628   4.630  1.00  0.00     0.004 C 
ENDBRANCH  12  13
ENDBRANCH  11  12
ENDBRANCH  10  11
ENDBRANCH   9  10
ENDBRANCH   1   9
TORSDOF 10
ENDMDL
