MODEL 1
REMARK VINA RESULT:    -5.102      0.000      0.000
REMARK INTER + INTRA:          -5.251
REMARK INTER:                  -5.251
REMARK INTRA:                   0.000
REMARK UNBOUND:                 0.000
REMARK SMILES Oc1ccc2[nH]ccc2c1
REMARK SMILES IDX 3 1 4 2 5 3 9 4 8 5 7 6 6 7 10 8 2 9 1 11
REMARK H PARENT 6 10 1 12
REMARK Flexibility Score: inf
ROOT
ATOM      1  C   UNL     1      10.127   4.948  80.896  1.00  0.00     0.048 A 
ATOM      2  C   UNL     1      10.510   5.723  82.006  1.00  0.00     0.030 A 
ATOM      3  C   UNL     1      11.855   5.715  82.374  1.00  0.00     0.046 A 
ATOM      4  C   UNL     1      12.784   4.980  81.686  1.00  0.00     0.003 A 
ATOM      5  C   UNL     1      14.003   5.185  82.294  1.00  0.00     0.028 A 
ATOM      6  C   UNL     1      13.742   6.058  83.347  1.00  0.00     0.083 A 
ATOM      7  N   UNL     1      12.428   6.378  83.391  1.00  0.00    -0.361 N 
ATOM      8  C   UNL     1      12.438   4.201  80.584  1.00  0.00     0.056 A 
ATOM      9  C   UNL     1      11.088   4.186  80.185  1.00  0.00     0.116 A 
ATOM     10  H   UNL     1      11.960   7.012  84.077  1.00  0.00     0.166 HD
ENDROOT
BRANCH   9  11
ATOM     11  O   UNL     1      10.709   3.418  79.087  1.00  0.00    -0.508 OA
ATOM     12  H   UNL     1       9.933   3.690  78.494  1.00  0.00     0.293 HD
ENDBRANCH   9  11
TORSDOF 1
ENDMDL
MODEL 2
REMARK VINA RESULT:    -5.082      0.794      2.232
REMARK INTER + INTRA:          -5.231
REMARK INTER:                  -5.231
REMARK INTRA:                   0.000
REMARK UNBOUND:                 0.000
REMARK SMILES Oc1ccc2[nH]ccc2c1
REMARK SMILES IDX 3 1 4 2 5 3 9 4 8 5 7 6 6 7 10 8 2 9 1 11
REMARK H PARENT 6 10 1 12
REMARK Flexibility Score: inf
ROOT
ATOM      1  C   UNL     1      12.581   4.111  80.468  1.00  0.00     0.048 A 
ATOM      2  C   UNL     1      13.002   4.882  81.568  1.00  0.00     0.030 A 
ATOM      3  C   UNL     1      12.034   5.600  82.268  1.00  0.00     0.046 A 
ATOM      4  C   UNL     1      10.713   5.567  81.908  1.00  0.00     0.003 A 
ATOM      5  C   UNL     1      10.025   6.372  82.789  1.00  0.00     0.028 A 
ATOM      6  C   UNL     1      10.992   6.865  83.660  1.00  0.00     0.083 A 
ATOM      7  N   UNL     1      12.217   6.390  83.338  1.00  0.00    -0.361 N 
ATOM      8  C   UNL     1      10.263   4.815  80.824  1.00  0.00     0.056 A 
ATOM      9  C   UNL     1      11.215   4.077  80.095  1.00  0.00     0.116 A 
ATOM     10  H   UNL     1      13.118   6.599  83.824  1.00  0.00     0.166 HD
ENDROOT
BRANCH   9  11
ATOM     11  O   UNL     1      10.799   3.315  79.006  1.00  0.00    -0.508 OA
ATOM     12  H   UNL     1      10.420   3.748  78.171  1.00  0.00     0.293 HD
ENDBRANCH   9  11
TORSDOF 1
ENDMDL
MODEL 3
REMARK VINA RESULT:    -5.070      1.717      2.363
REMARK INTER + INTRA:          -5.218
REMARK INTER:                  -5.218
REMARK INTRA:                   0.000
REMARK UNBOUND:                 0.000
REMARK SMILES Oc1ccc2[nH]ccc2c1
REMARK SMILES IDX 3 1 4 2 5 3 9 4 8 5 7 6 6 7 10 8 2 9 1 11
REMARK H PARENT 6 10 1 12
REMARK Flexibility Score: inf
ROOT
ATOM      1  C   UNL     1      10.213   4.736  80.631  1.00  0.00     0.048 A 
ATOM      2  C   UNL     1      11.576   4.402  80.527  1.00  0.00     0.030 A 
ATOM      3  C   UNL     1      12.435   4.853  81.527  1.00  0.00     0.046 A 
ATOM      4  C   UNL     1      11.982   5.598  82.583  1.00  0.00     0.003 A 
ATOM      5  C   UNL     1      13.067   5.880  83.383  1.00  0.00     0.028 A 
ATOM      6  C   UNL     1      14.150   5.275  82.754  1.00  0.00     0.083 A 
ATOM      7  N   UNL     1      13.759   4.648  81.620  1.00  0.00    -0.361 N 
ATOM      8  C   UNL     1      10.640   5.947  82.716  1.00  0.00     0.056 A 
ATOM      9  C   UNL     1       9.743   5.508  81.723  1.00  0.00     0.116 A 
ATOM     10  H   UNL     1      14.366   4.116  80.956  1.00  0.00     0.166 HD
ENDROOT
BRANCH   9  11
ATOM     11  O   UNL     1       8.395   5.839  81.826  1.00  0.00    -0.508 OA
ATOM     12  H   UNL     1       8.044   6.734  81.504  1.00  0.00     0.293 HD
ENDBRANCH   9  11
TORSDOF 1
ENDMDL
MODEL 4
REMARK VINA RESULT:    -5.039     10.119     11.245
REMARK INTER + INTRA:          -5.187
REMARK INTER:                  -5.187
REMARK INTRA:                   0.000
REMARK UNBOUND:                 0.000
REMARK SMILES Oc1ccc2[nH]ccc2c1
REMARK SMILES IDX 3 1 4 2 5 3 9 4 8 5 7 6 6 7 10 8 2 9 1 11
REMARK H PARENT 6 10 1 12
REMARK Flexibility Score: inf
ROOT
ATOM      1  C   UNL     1      19.279  -3.001  77.057  1.00  0.00     0.048 A 
ATOM      2  C   UNL     1      19.956  -2.465  75.947  1.00  0.00     0.030 A 
ATOM      3  C   UNL     1      19.741  -1.122  75.639  1.00  0.00     0.046 A 
ATOM      4  C   UNL     1      18.902  -0.339  76.385  1.00  0.00     0.003 A 
ATOM      5  C   UNL     1      18.909   0.921  75.826  1.00  0.00     0.028 A 
ATOM      6  C   UNL     1      19.776   0.832  74.742  1.00  0.00     0.083 A 
ATOM      7  N   UNL     1      20.283  -0.418  74.632  1.00  0.00    -0.361 N 
ATOM      8  C   UNL     1      18.215  -0.838  77.490  1.00  0.00     0.056 A 
ATOM      9  C   UNL     1      18.409  -2.191  77.829  1.00  0.00     0.116 A 
ATOM     10  H   UNL     1      20.955  -0.761  73.910  1.00  0.00     0.166 HD
ENDROOT
BRANCH   9  11
ATOM     11  O   UNL     1      17.738  -2.722  78.928  1.00  0.00    -0.508 OA
ATOM     12  H   UNL     1      18.212  -3.314  79.601  1.00  0.00     0.293 HD
ENDBRANCH   9  11
TORSDOF 1
ENDMDL
MODEL 5
REMARK VINA RESULT:    -5.036     10.760     11.631
REMARK INTER + INTRA:          -5.183
REMARK INTER:                  -5.183
REMARK INTRA:                   0.000
REMARK UNBOUND:                 0.000
REMARK SMILES Oc1ccc2[nH]ccc2c1
REMARK SMILES IDX 3 1 4 2 5 3 9 4 8 5 7 6 6 7 10 8 2 9 1 11
REMARK H PARENT 6 10 1 12
REMARK Flexibility Score: inf
ROOT
ATOM      1  C   UNL     1      19.094  -2.957  77.418  1.00  0.00     0.048 A 
ATOM      2  C   UNL     1      18.557  -1.659  77.499  1.00  0.00     0.030 A 
ATOM      3  C   UNL     1      18.889  -0.754  76.492  1.00  0.00     0.046 A 
ATOM      4  C   UNL     1      19.710  -1.102  75.453  1.00  0.00     0.003 A 
ATOM      5  C   UNL     1      19.838   0.003  74.641  1.00  0.00     0.028 A 
ATOM      6  C   UNL     1      19.067   0.990  75.247  1.00  0.00     0.083 A 
ATOM      7  N   UNL     1      18.489   0.523  76.378  1.00  0.00    -0.361 N 
ATOM      8  C   UNL     1      20.259  -2.378  75.344  1.00  0.00     0.056 A 
ATOM      9  C   UNL     1      19.944  -3.319  76.344  1.00  0.00     0.116 A 
ATOM     10  H   UNL     1      17.862   1.051  77.025  1.00  0.00     0.166 HD
ENDROOT
BRANCH   9  11
ATOM     11  O   UNL     1      20.476  -4.603  76.264  1.00  0.00    -0.508 OA
ATOM     12  H   UNL     1      20.469  -5.229  77.062  1.00  0.00     0.293 HD
ENDBRANCH   9  11
TORSDOF 1
ENDMDL
MODEL 6
REMARK VINA RESULT:    -5.028     10.555     11.620
REMARK INTER + INTRA:          -5.175
REMARK INTER:                  -5.175
REMARK INTRA:                   0.000
REMARK UNBOUND:                 0.000
REMARK SMILES Oc1ccc2[nH]ccc2c1
REMARK SMILES IDX 3 1 4 2 5 3 9 4 8 5 7 6 6 7 10 8 2 9 1 11
REMARK H PARENT 6 10 1 12
REMARK Flexibility Score: inf
ROOT
ATOM      1  C   UNL     1      18.061  -0.771  77.604  1.00  0.00     0.048 A 
ATOM      2  C   UNL     1      18.747  -0.169  76.533  1.00  0.00     0.030 A 
ATOM      3  C   UNL     1      19.643  -0.954  75.810  1.00  0.00     0.046 A 
ATOM      4  C   UNL     1      19.859  -2.271  76.120  1.00  0.00     0.003 A 
ATOM      5  C   UNL     1      20.789  -2.757  75.228  1.00  0.00     0.028 A 
ATOM      6  C   UNL     1      21.096  -1.681  74.401  1.00  0.00     0.083 A 
ATOM      7  N   UNL     1      20.393  -0.582  74.761  1.00  0.00    -0.361 N 
ATOM      8  C   UNL     1      19.198  -2.898  77.174  1.00  0.00     0.056 A 
ATOM      9  C   UNL     1      18.285  -2.133  77.926  1.00  0.00     0.116 A 
ATOM     10  H   UNL     1      20.430   0.361  74.311  1.00  0.00     0.166 HD
ENDROOT
BRANCH   9  11
ATOM     11  O   UNL     1      17.606  -2.729  78.987  1.00  0.00    -0.508 OA
ATOM     12  H   UNL     1      17.782  -2.456  79.947  1.00  0.00     0.293 HD
ENDBRANCH   9  11
TORSDOF 1
ENDMDL
MODEL 7
REMARK VINA RESULT:    -4.979      1.845      2.574
REMARK INTER + INTRA:          -5.124
REMARK INTER:                  -5.124
REMARK INTRA:                   0.000
REMARK UNBOUND:                 0.000
REMARK SMILES Oc1ccc2[nH]ccc2c1
REMARK SMILES IDX 3 1 4 2 5 3 9 4 8 5 7 6 6 7 10 8 2 9 1 11
REMARK H PARENT 6 10 1 12
REMARK Flexibility Score: inf
ROOT
ATOM      1  C   UNL     1      10.462   6.079  82.933  1.00  0.00     0.048 A 
ATOM      2  C   UNL     1      11.852   5.874  83.001  1.00  0.00     0.030 A 
ATOM      3  C   UNL     1      12.456   5.166  81.964  1.00  0.00     0.046 A 
ATOM      4  C   UNL     1      11.734   4.680  80.906  1.00  0.00     0.003 A 
ATOM      5  C   UNL     1      12.615   4.038  80.065  1.00  0.00     0.028 A 
ATOM      6  C   UNL     1      13.860   4.171  80.672  1.00  0.00     0.083 A 
ATOM      7  N   UNL     1      13.758   4.862  81.832  1.00  0.00    -0.361 N 
ATOM      8  C   UNL     1      10.356   4.865  80.809  1.00  0.00     0.056 A 
ATOM      9  C   UNL     1       9.713   5.576  81.841  1.00  0.00     0.116 A 
ATOM     10  H   UNL     1      14.534   5.105  82.487  1.00  0.00     0.166 HD
ENDROOT
BRANCH   9  11
ATOM     11  O   UNL     1       8.336   5.779  81.774  1.00  0.00    -0.508 OA
ATOM     12  H   UNL     1       7.932   6.458  81.139  1.00  0.00     0.293 HD
ENDBRANCH   9  11
TORSDOF 1
ENDMDL
MODEL 8
REMARK VINA RESULT:    -4.945     10.271     11.362
REMARK INTER + INTRA:          -5.090
REMARK INTER:                  -5.090
REMARK INTRA:                   0.000
REMARK UNBOUND:                 0.000
REMARK SMILES Oc1ccc2[nH]ccc2c1
REMARK SMILES IDX 3 1 4 2 5 3 9 4 8 5 7 6 6 7 10 8 2 9 1 11
REMARK H PARENT 6 10 1 12
REMARK Flexibility Score: inf
ROOT
ATOM      1  C   UNL     1      20.306  -2.465  75.187  1.00  0.00     0.048 A 
ATOM      2  C   UNL     1      19.903  -1.118  75.135  1.00  0.00     0.030 A 
ATOM      3  C   UNL     1      19.137  -0.627  76.190  1.00  0.00     0.046 A 
ATOM      4  C   UNL     1      18.781  -1.417  77.250  1.00  0.00     0.003 A 
ATOM      5  C   UNL     1      18.036  -0.642  78.111  1.00  0.00     0.028 A 
ATOM      6  C   UNL     1      17.978   0.613  77.511  1.00  0.00     0.083 A 
ATOM      7  N   UNL     1      18.653   0.617  76.338  1.00  0.00    -0.361 N 
ATOM      8  C   UNL     1      19.162  -2.755  77.332  1.00  0.00     0.056 A 
ATOM      9  C   UNL     1      19.937  -3.285  76.282  1.00  0.00     0.116 A 
ATOM     10  H   UNL     1      18.770   1.424  75.685  1.00  0.00     0.166 HD
ENDROOT
BRANCH   9  11
ATOM     11  O   UNL     1      20.336  -4.618  76.333  1.00  0.00    -0.508 OA
ATOM     12  H   UNL     1      20.518  -5.082  77.216  1.00  0.00     0.293 HD
ENDBRANCH   9  11
TORSDOF 1
ENDMDL
MODEL 9
REMARK VINA RESULT:    -4.886      2.522      3.885
REMARK INTER + INTRA:          -5.029
REMARK INTER:                  -5.029
REMARK INTRA:                   0.000
REMARK UNBOUND:                 0.000
REMARK SMILES Oc1ccc2[nH]ccc2c1
REMARK SMILES IDX 3 1 4 2 5 3 9 4 8 5 7 6 6 7 10 8 2 9 1 11
REMARK H PARENT 6 10 1 12
REMARK Flexibility Score: inf
ROOT
ATOM      1  C   UNL     1      13.588   4.603  81.754  1.00  0.00     0.048 A 
ATOM      2  C   UNL     1      12.521   4.434  80.854  1.00  0.00     0.030 A 
ATOM      3  C   UNL     1      11.276   4.945  81.218  1.00  0.00     0.046 A 
ATOM      4  C   UNL     1      11.084   5.592  82.409  1.00  0.00     0.003 A 
ATOM      5  C   UNL     1       9.760   5.970  82.464  1.00  0.00     0.028 A 
ATOM      6  C   UNL     1       9.204   5.520  81.270  1.00  0.00     0.083 A 
ATOM      7  N   UNL     1      10.134   4.894  80.512  1.00  0.00    -0.361 N 
ATOM      8  C   UNL     1      12.119   5.775  83.323  1.00  0.00     0.056 A 
ATOM      9  C   UNL     1      13.391   5.271  82.988  1.00  0.00     0.116 A 
ATOM     10  H   UNL     1       9.989   4.462  79.572  1.00  0.00     0.166 HD
ENDROOT
BRANCH   9  11
ATOM     11  O   UNL     1      14.448   5.438  83.879  1.00  0.00    -0.508 OA
ATOM     12  H   UNL     1      14.500   4.907  84.742  1.00  0.00     0.293 HD
ENDBRANCH   9  11
TORSDOF 1
ENDMDL
