MODEL 1
REMARK VINA RESULT:    -1.762      0.000      0.000
REMARK INTER + INTRA:          -0.501
REMARK INTER:                  -2.174
REMARK INTRA:                   1.673
REMARK UNBOUND:                 1.673
REMARK SMILES C=C1CC[C@H]2[C@@H]([C@H]3[C@@H]1CC[C@@H]3C)C2(C)C
REMARK SMILES IDX 3 1 2 2 1 3 8 4 12 5 11 6 10 7 7 8 9 9 4 11 5 12 6 13 13 14
REMARK SMILES IDX 14 16 15 17
REMARK H PARENT
REMARK Flexibility Score: 80.00
ROOT
ATOM      1  C   UNL     1     164.640 161.652 139.529  1.00  0.00     0.031 C 
ENDROOT
BRANCH   1   2
ATOM      2  C   UNL     1     165.525 161.090 138.429  1.00  0.00    -0.074 C 
ATOM      3  C   UNL     1     166.190 161.951 137.637  1.00  0.00     0.008 C 
BRANCH   2   4
ATOM      4  C   UNL     1     165.743 159.586 138.253  1.00  0.00     0.018 C 
ATOM      5  C   UNL     1     164.055 156.227 138.227  1.00  0.00     0.008 C 
ATOM      6  C   UNL     1     164.452 157.559 138.883  1.00  0.00    -0.010 C 
ATOM      7  C   UNL     1     165.861 157.493 139.473  1.00  0.00     0.004 C 
ATOM      8  C   UNL     1     164.494 158.735 137.881  1.00  0.00     0.003 CG0
ATOM      9  C   UNL     1     166.352 158.931 139.495  1.00  0.00     0.008 C 
ATOM     10  G   UNL     1     163.187 159.512 137.491  1.00  0.00     0.000 G0
ENDBRANCH   2   4
ENDBRANCH   1   2
BRANCH   1  11
ATOM     11  C   UNL     1     163.369 160.831 139.732  1.00  0.00     0.009 C 
BRANCH  11  12
ATOM     12  C   UNL     1     162.646 160.645 138.388  1.00  0.00    -0.001 C 
ATOM     13  C   UNL     1     163.190 159.526 137.478  1.00  0.00     0.002 CG0
ATOM     14  C   UNL     1     161.769 159.416 138.094  1.00  0.00    -0.029 C 
ATOM     15  G   UNL     1     164.484 158.735 137.884  1.00  0.00     0.000 G0
ATOM     16  C   UNL     1     160.637 159.688 137.090  1.00  0.00     0.011 C 
ATOM     17  C   UNL     1     161.361 158.515 139.277  1.00  0.00     0.011 C 
ENDBRANCH  11  12
ENDBRANCH   1  11
TORSDOF 0
ENDMDL
MODEL 2
REMARK VINA RESULT:    -1.581     13.406     15.175
REMARK INTER + INTRA:          -0.278
REMARK INTER:                  -1.996
REMARK INTRA:                   1.717
REMARK UNBOUND:                 1.673
REMARK SMILES C=C1CC[C@H]2[C@@H]([C@H]3[C@@H]1CC[C@@H]3C)C2(C)C
REMARK SMILES IDX 3 1 2 2 1 3 8 4 12 5 11 6 10 7 7 8 9 9 4 11 5 12 6 13 13 14
REMARK SMILES IDX 14 16 15 17
REMARK H PARENT
REMARK Flexibility Score: 80.00
ROOT
ATOM      1  C   UNL     1     168.596 172.759 142.101  1.00  0.00     0.031 C 
ENDROOT
BRANCH   1   2
ATOM      2  C   UNL     1     167.139 172.548 142.480  1.00  0.00    -0.074 C 
ATOM      3  C   UNL     1     166.812 171.447 143.181  1.00  0.00     0.008 C 
BRANCH   2   4
ATOM      4  C   UNL     1     166.061 173.584 142.160  1.00  0.00     0.018 C 
ATOM      5  C   UNL     1     164.765 175.954 139.546  1.00  0.00     0.008 C 
ATOM      6  C   UNL     1     165.848 175.412 140.492  1.00  0.00    -0.010 C 
ATOM      7  C   UNL     1     165.681 175.966 141.907  1.00  0.00     0.004 C 
ATOM      8  C   UNL     1     165.792 173.877 140.655  1.00  0.00     0.003 CG0
ATOM      9  C   UNL     1     166.334 174.939 142.817  1.00  0.00     0.008 C 
ATOM     10  G   UNL     1     166.474 172.927 139.608  1.00  0.00     0.000 G0
ENDBRANCH   2   4
ENDBRANCH   1   2
BRANCH   1  11
ATOM     11  C   UNL     1     168.754 173.393 140.721  1.00  0.00     0.009 C 
BRANCH  11  12
ATOM     12  C   UNL     1     167.948 172.595 139.683  1.00  0.00    -0.001 C 
ATOM     13  C   UNL     1     166.439 172.904 139.618  1.00  0.00     0.002 CG0
ATOM     14  C   UNL     1     167.365 173.251 138.420  1.00  0.00    -0.029 C 
ATOM     15  G   UNL     1     165.787 173.888 140.653  1.00  0.00     0.000 G0
ATOM     16  C   UNL     1     167.223 172.287 137.231  1.00  0.00     0.011 C 
ATOM     17  C   UNL     1     167.862 174.659 138.037  1.00  0.00     0.011 C 
ENDBRANCH  11  12
ENDBRANCH   1  11
TORSDOF 0
ENDMDL
MODEL 3
REMARK VINA RESULT:    -1.550     12.548     14.922
REMARK INTER + INTRA:          -0.239
REMARK INTER:                  -1.791
REMARK INTRA:                   1.552
REMARK UNBOUND:                 1.673
REMARK SMILES C=C1CC[C@H]2[C@@H]([C@H]3[C@@H]1CC[C@@H]3C)C2(C)C
REMARK SMILES IDX 3 1 2 2 1 3 8 4 12 5 11 6 10 7 7 8 9 9 4 11 5 12 6 13 13 14
REMARK SMILES IDX 14 16 15 17
REMARK H PARENT
REMARK Flexibility Score: 80.00
ROOT
ATOM      1  C   UNL     1     166.055 171.058 140.909  1.00  0.00     0.031 C 
ENDROOT
BRANCH   1   2
ATOM      2  C   UNL     1     167.570 171.123 140.999  1.00  0.00    -0.074 C 
ATOM      3  C   UNL     1     168.207 170.216 141.763  1.00  0.00     0.008 C 
BRANCH   2   4
ATOM      4  C   UNL     1     168.387 172.128 140.187  1.00  0.00     0.018 C 
ATOM      5  C   UNL     1     168.597 175.707 139.056  1.00  0.00     0.008 C 
ATOM      6  C   UNL     1     167.903 174.341 139.167  1.00  0.00    -0.010 C 
ATOM      7  C   UNL     1     168.410 173.368 138.102  1.00  0.00     0.004 C 
ATOM      8  C   UNL     1     168.174 173.635 140.514  1.00  0.00     0.003 CG0
ATOM      9  C   UNL     1     168.168 171.984 138.679  1.00  0.00     0.008 C 
ATOM     10  G   UNL     1     167.328 173.977 141.791  1.00  0.00     0.000 G0
ENDBRANCH   2   4
ENDBRANCH   1   2
BRANCH   1  11
ATOM     11  C   UNL     1     165.413 172.442 140.870  1.00  0.00     0.009 C 
BRANCH  11  12
ATOM     12  C   UNL     1     165.945 173.299 142.029  1.00  0.00    -0.001 C 
ATOM     13  C   UNL     1     167.318 173.964 141.801  1.00  0.00     0.002 CG0
ATOM     14  C   UNL     1     166.037 174.833 141.938  1.00  0.00    -0.029 C 
ATOM     15  G   UNL     1     168.142 173.654 140.502  1.00  0.00     0.000 G0
ATOM     16  C   UNL     1     165.915 175.542 143.296  1.00  0.00     0.011 C 
ATOM     17  C   UNL     1     165.293 175.538 140.787  1.00  0.00     0.011 C 
ENDBRANCH  11  12
ENDBRANCH   1  11
TORSDOF 0
ENDMDL
MODEL 4
REMARK VINA RESULT:    -1.536      1.520      3.904
REMARK INTER + INTRA:          -0.222
REMARK INTER:                  -1.785
REMARK INTRA:                   1.563
REMARK UNBOUND:                 1.673
REMARK SMILES C=C1CC[C@H]2[C@@H]([C@H]3[C@@H]1CC[C@@H]3C)C2(C)C
REMARK SMILES IDX 3 1 2 2 1 3 8 4 12 5 11 6 10 7 7 8 9 9 4 11 5 12 6 13 13 14
REMARK SMILES IDX 14 16 15 17
REMARK H PARENT
REMARK Flexibility Score: 80.00
ROOT
ATOM      1  C   UNL     1     164.684 161.911 139.621  1.00  0.00     0.031 C 
ENDROOT
BRANCH   1   2
ATOM      2  C   UNL     1     163.359 161.217 139.888  1.00  0.00    -0.074 C 
ATOM      3  C   UNL     1     162.461 161.832 140.679  1.00  0.00     0.008 C 
BRANCH   2   4
ATOM      4  C   UNL     1     162.990 159.891 139.222  1.00  0.00     0.018 C 
ATOM      5  C   UNL     1     164.259 156.484 138.263  1.00  0.00     0.008 C 
ATOM      6  C   UNL     1     164.294 158.020 138.236  1.00  0.00    -0.010 C 
ATOM      7  C   UNL     1     163.315 158.583 137.206  1.00  0.00     0.004 C 
ATOM      8  C   UNL     1     163.870 158.657 139.578  1.00  0.00     0.003 CG0
ATOM      9  C   UNL     1     162.981 159.982 137.694  1.00  0.00     0.008 C 
ATOM     10  G   UNL     1     164.897 158.826 140.753  1.00  0.00     0.000 G0
ENDBRANCH   2   4
ENDBRANCH   1   2
BRANCH   1  11
ATOM     11  C   UNL     1     165.850 160.929 139.537  1.00  0.00     0.009 C 
BRANCH  11  12
ATOM     12  C   UNL     1     165.873 160.035 140.788  1.00  0.00    -0.001 C 
ATOM     13  C   UNL     1     164.914 158.828 140.771  1.00  0.00     0.002 CG0
ATOM     14  C   UNL     1     166.451 158.610 140.764  1.00  0.00    -0.029 C 
ATOM     15  G   UNL     1     163.903 158.636 139.585  1.00  0.00     0.000 G0
ATOM     16  C   UNL     1     167.016 158.148 142.117  1.00  0.00     0.011 C 
ATOM     17  C   UNL     1     167.301 158.190 139.548  1.00  0.00     0.011 C 
ENDBRANCH  11  12
ENDBRANCH   1  11
TORSDOF 0
ENDMDL
MODEL 5
REMARK VINA RESULT:    -1.531      1.494      3.833
REMARK INTER + INTRA:          -0.216
REMARK INTER:                  -1.855
REMARK INTRA:                   1.639
REMARK UNBOUND:                 1.673
REMARK SMILES C=C1CC[C@H]2[C@@H]([C@H]3[C@@H]1CC[C@@H]3C)C2(C)C
REMARK SMILES IDX 3 1 2 2 1 3 8 4 12 5 11 6 10 7 7 8 9 9 4 11 5 12 6 13 13 14
REMARK SMILES IDX 14 16 15 17
REMARK H PARENT
REMARK Flexibility Score: 80.00
ROOT
ATOM      1  C   UNL     1     162.317 159.784 137.918  1.00  0.00     0.031 C 
ENDROOT
BRANCH   1   2
ATOM      2  C   UNL     1     162.031 158.910 139.129  1.00  0.00    -0.074 C 
ATOM      3  C   UNL     1     160.863 159.072 139.776  1.00  0.00     0.008 C 
BRANCH   2   4
ATOM      4  C   UNL     1     162.992 157.807 139.575  1.00  0.00     0.018 C 
ATOM      5  C   UNL     1     166.603 156.929 140.140  1.00  0.00     0.008 C 
ATOM      6  C   UNL     1     165.422 157.391 139.273  1.00  0.00    -0.010 C 
ATOM      7  C   UNL     1     164.614 156.203 138.751  1.00  0.00     0.004 C 
ATOM      8  C   UNL     1     164.404 158.255 140.051  1.00  0.00     0.003 CG0
ATOM      9  C   UNL     1     163.221 156.752 138.490  1.00  0.00     0.008 C 
ATOM     10  G   UNL     1     164.637 159.795 140.252  1.00  0.00     0.000 G0
ENDBRANCH   2   4
ENDBRANCH   1   2
BRANCH   1  11
ATOM     11  C   UNL     1     163.780 160.210 137.838  1.00  0.00     0.009 C 
BRANCH  11  12
ATOM     12  C   UNL     1     164.227 160.802 139.185  1.00  0.00    -0.001 C 
ATOM     13  C   UNL     1     164.612 159.782 140.275  1.00  0.00     0.002 CG0
ATOM     14  C   UNL     1     165.686 160.725 139.668  1.00  0.00    -0.029 C 
ATOM     15  G   UNL     1     164.421 158.245 140.024  1.00  0.00     0.000 G0
ATOM     16  C   UNL     1     166.092 161.879 140.598  1.00  0.00     0.011 C 
ATOM     17  C   UNL     1     166.770 160.326 138.647  1.00  0.00     0.011 C 
ENDBRANCH  11  12
ENDBRANCH   1  11
TORSDOF 0
ENDMDL
MODEL 6
REMARK VINA RESULT:    -1.513     13.086     14.560
REMARK INTER + INTRA:          -0.194
REMARK INTER:                  -1.838
REMARK INTRA:                   1.644
REMARK UNBOUND:                 1.673
REMARK SMILES C=C1CC[C@H]2[C@@H]([C@H]3[C@@H]1CC[C@@H]3C)C2(C)C
REMARK SMILES IDX 3 1 2 2 1 3 8 4 12 5 11 6 10 7 7 8 9 9 4 11 5 12 6 13 13 14
REMARK SMILES IDX 14 16 15 17
REMARK H PARENT
REMARK Flexibility Score: 80.00
ROOT
ATOM      1  C   UNL     1     168.229 171.298 141.565  1.00  0.00     0.031 C 
ENDROOT
BRANCH   1   2
ATOM      2  C   UNL     1     169.714 171.464 141.840  1.00  0.00    -0.074 C 
ATOM      3  C   UNL     1     170.115 171.644 143.111  1.00  0.00     0.008 C 
BRANCH   2   4
ATOM      4  C   UNL     1     170.761 171.351 140.730  1.00  0.00     0.018 C 
ATOM      5  C   UNL     1     171.605 172.328 137.200  1.00  0.00     0.008 C 
ATOM      6  C   UNL     1     170.722 171.662 138.266  1.00  0.00    -0.010 C 
ATOM      7  C   UNL     1     171.226 170.262 138.614  1.00  0.00     0.004 C 
ATOM      8  C   UNL     1     170.715 172.428 139.608  1.00  0.00     0.003 CG0
ATOM      9  C   UNL     1     170.723 169.994 140.022  1.00  0.00     0.008 C 
ATOM     10  G   UNL     1     169.764 173.657 139.833  1.00  0.00     0.000 G0
ENDBRANCH   2   4
ENDBRANCH   1   2
BRANCH   1  11
ATOM     11  C   UNL     1     167.797 171.974 140.266  1.00  0.00     0.009 C 
BRANCH  11  12
ATOM     12  C   UNL     1     168.279 173.433 140.250  1.00  0.00    -0.001 C 
ATOM     13  C   UNL     1     169.750 173.653 139.844  1.00  0.00     0.002 CG0
ATOM     14  C   UNL     1     168.600 174.174 138.940  1.00  0.00    -0.029 C 
ATOM     15  G   UNL     1     170.695 172.424 139.594  1.00  0.00     0.000 G0
ATOM     16  C   UNL     1     168.391 175.695 139.022  1.00  0.00     0.011 C 
ATOM     17  C   UNL     1     168.131 173.542 137.614  1.00  0.00     0.011 C 
ENDBRANCH  11  12
ENDBRANCH   1  11
TORSDOF 0
ENDMDL
MODEL 7
REMARK VINA RESULT:    -1.483     11.480     13.915
REMARK INTER + INTRA:          -0.157
REMARK INTER:                  -1.774
REMARK INTRA:                   1.617
REMARK UNBOUND:                 1.673
REMARK SMILES C=C1CC[C@H]2[C@@H]([C@H]3[C@@H]1CC[C@@H]3C)C2(C)C
REMARK SMILES IDX 3 1 2 2 1 3 8 4 12 5 11 6 10 7 7 8 9 9 4 11 5 12 6 13 13 14
REMARK SMILES IDX 14 16 15 17
REMARK H PARENT
REMARK Flexibility Score: 80.00
ROOT
ATOM      1  C   UNL     1     164.883 173.080 141.096  1.00  0.00     0.031 C 
ENDROOT
BRANCH   1   2
ATOM      2  C   UNL     1     164.836 174.151 140.019  1.00  0.00    -0.074 C 
ATOM      3  C   UNL     1     163.700 174.854 139.863  1.00  0.00     0.008 C 
BRANCH   2   4
ATOM      4  C   UNL     1     166.061 174.504 139.174  1.00  0.00     0.018 C 
ATOM      5  C   UNL     1     168.968 173.096 137.251  1.00  0.00     0.008 C 
ATOM      6  C   UNL     1     168.130 173.294 138.524  1.00  0.00    -0.010 C 
ATOM      7  C   UNL     1     168.483 174.605 139.227  1.00  0.00     0.004 C 
ATOM      8  C   UNL     1     166.614 173.389 138.240  1.00  0.00     0.003 CG0
ATOM      9  C   UNL     1     167.244 174.978 140.022  1.00  0.00     0.008 C 
ATOM     10  G   UNL     1     165.740 172.096 138.072  1.00  0.00     0.000 G0
ENDBRANCH   2   4
ENDBRANCH   1   2
BRANCH   1  11
ATOM     11  C   UNL     1     165.712 171.868 140.678  1.00  0.00     0.009 C 
BRANCH  11  12
ATOM     12  C   UNL     1     165.215 171.335 139.325  1.00  0.00    -0.001 C 
ATOM     13  C   UNL     1     165.739 172.070 138.076  1.00  0.00     0.002 CG0
ATOM     14  C   UNL     1     166.143 170.595 138.346  1.00  0.00    -0.029 C 
ATOM     15  G   UNL     1     166.623 173.359 138.228  1.00  0.00     0.000 G0
ATOM     16  C   UNL     1     165.415 169.581 137.448  1.00  0.00     0.011 C 
ATOM     17  C   UNL     1     167.511 170.111 138.866  1.00  0.00     0.011 C 
ENDBRANCH  11  12
ENDBRANCH   1  11
TORSDOF 0
ENDMDL
MODEL 8
REMARK VINA RESULT:    -1.473     11.413     14.423
REMARK INTER + INTRA:          -0.145
REMARK INTER:                  -1.779
REMARK INTRA:                   1.634
REMARK UNBOUND:                 1.673
REMARK SMILES C=C1CC[C@H]2[C@@H]([C@H]3[C@@H]1CC[C@@H]3C)C2(C)C
REMARK SMILES IDX 3 1 2 2 1 3 8 4 12 5 11 6 10 7 7 8 9 9 4 11 5 12 6 13 13 14
REMARK SMILES IDX 14 16 15 17
REMARK H PARENT
REMARK Flexibility Score: 80.00
ROOT
ATOM      1  C   UNL     1     168.522 169.950 140.131  1.00  0.00     0.031 C 
ENDROOT
BRANCH   1   2
ATOM      2  C   UNL     1     167.448 170.514 139.216  1.00  0.00    -0.074 C 
ATOM      3  C   UNL     1     166.677 169.655 138.526  1.00  0.00     0.008 C 
BRANCH   2   4
ATOM      4  C   UNL     1     167.169 172.015 139.125  1.00  0.00     0.018 C 
ATOM      5  C   UNL     1     168.749 175.420 138.907  1.00  0.00     0.008 C 
ATOM      6  C   UNL     1     168.503 174.061 139.581  1.00  0.00    -0.010 C 
ATOM      7  C   UNL     1     167.217 174.073 140.408  1.00  0.00     0.004 C 
ATOM      8  C   UNL     1     168.315 172.910 138.568  1.00  0.00     0.003 CG0
ATOM      9  C   UNL     1     166.770 172.623 140.473  1.00  0.00     0.008 C 
ATOM     10  G   UNL     1     169.552 172.179 137.936  1.00  0.00     0.000 G0
ENDBRANCH   2   4
ENDBRANCH   1   2
BRANCH   1  11
ATOM     11  C   UNL     1     169.794 170.794 140.130  1.00  0.00     0.009 C 
BRANCH  11  12
ATOM     12  C   UNL     1     170.261 171.034 138.685  1.00  0.00    -0.001 C 
ATOM     13  C   UNL     1     169.542 172.165 137.923  1.00  0.00     0.002 CG0
ATOM     14  C   UNL     1     171.049 172.292 138.278  1.00  0.00    -0.029 C 
ATOM     15  G   UNL     1     168.328 172.914 138.577  1.00  0.00     0.000 G0
ATOM     16  C   UNL     1     171.987 172.074 137.080  1.00  0.00     0.011 C 
ATOM     17  C   UNL     1     171.646 173.169 139.397  1.00  0.00     0.011 C 
ENDBRANCH  11  12
ENDBRANCH   1  11
TORSDOF 0
ENDMDL
MODEL 9
REMARK VINA RESULT:    -1.175     12.874     14.473
REMARK INTER + INTRA:           0.223
REMARK INTER:                  -1.448
REMARK INTRA:                   1.671
REMARK UNBOUND:                 1.673
REMARK SMILES C=C1CC[C@H]2[C@@H]([C@H]3[C@@H]1CC[C@@H]3C)C2(C)C
REMARK SMILES IDX 3 1 2 2 1 3 8 4 12 5 11 6 10 7 7 8 9 9 4 11 5 12 6 13 13 14
REMARK SMILES IDX 14 16 15 17
REMARK H PARENT
REMARK Flexibility Score: 80.00
ROOT
ATOM      1  C   UNL     1     167.812 171.549 138.310  1.00  0.00     0.031 C 
ENDROOT
BRANCH   1   2
ATOM      2  C   UNL     1     168.037 172.884 139.000  1.00  0.00    -0.074 C 
ATOM      3  C   UNL     1     167.435 173.976 138.496  1.00  0.00     0.008 C 
BRANCH   2   4
ATOM      4  C   UNL     1     168.854 173.001 140.288  1.00  0.00     0.018 C 
ATOM      5  C   UNL     1     171.976 171.875 142.053  1.00  0.00     0.008 C 
ATOM      6  C   UNL     1     170.632 171.630 141.350  1.00  0.00    -0.010 C 
ATOM      7  C   UNL     1     169.458 171.809 142.312  1.00  0.00     0.004 C 
ATOM      8  C   UNL     1     170.362 172.627 140.200  1.00  0.00     0.003 CG0
ATOM      9  C   UNL     1     168.272 172.167 141.432  1.00  0.00     0.008 C 
ATOM     10  G   UNL     1     170.959 172.391 138.768  1.00  0.00     0.000 G0
ENDBRANCH   2   4
ENDBRANCH   1   2
BRANCH   1  11
ATOM     11  C   UNL     1     169.060 170.670 138.317  1.00  0.00     0.009 C 
BRANCH  11  12
ATOM     12  C   UNL     1     170.260 171.459 137.768  1.00  0.00    -0.001 C 
ATOM     13  C   UNL     1     170.959 172.404 138.765  1.00  0.00     0.002 CG0
ATOM     14  C   UNL     1     171.704 171.162 138.206  1.00  0.00    -0.029 C 
ATOM     15  G   UNL     1     170.370 172.612 140.205  1.00  0.00     0.000 G0
ATOM     16  C   UNL     1     172.757 171.502 137.139  1.00  0.00     0.011 C 
ATOM     17  C   UNL     1     171.977 169.850 138.968  1.00  0.00     0.011 C 
ENDBRANCH  11  12
ENDBRANCH   1  11
TORSDOF 0
ENDMDL
