MODEL 1
REMARK VINA RESULT:    -4.661      0.000      0.000
REMARK INTER + INTRA:          -5.225
REMARK INTER:                  -5.070
REMARK INTRA:                  -0.155
REMARK UNBOUND:                -0.155
REMARK SMILES C=C(C)[C@@H]1CC[C@H](C)C[C@@H]1O
REMARK SMILES IDX 8 1 7 2 6 3 5 4 4 5 10 6 9 7 11 8 2 10 1 11 3 12
REMARK H PARENT 11 9
REMARK Flexibility Score: inf
ROOT
ATOM      1  C   UNL     1     182.031 177.611 183.712  1.00  0.00     0.008 C 
ATOM      2  C   UNL     1     180.647 178.162 184.080  1.00  0.00    -0.012 C 
ATOM      3  C   UNL     1     180.632 178.720 185.528  1.00  0.00     0.004 C 
ATOM      4  C   UNL     1     180.787 180.244 185.558  1.00  0.00     0.011 C 
ATOM      5  C   UNL     1     179.605 180.935 184.835  1.00  0.00     0.043 C 
ATOM      6  C   UNL     1     179.106 180.139 183.583  1.00  0.00     0.121 C 
ATOM      7  C   UNL     1     180.189 179.202 183.025  1.00  0.00     0.035 C 
ENDROOT
BRANCH   6   8
ATOM      8  O   UNL     1     178.660 180.995 182.561  1.00  0.00    -0.392 OA
ATOM      9  H   UNL     1     179.430 181.575 182.320  1.00  0.00     0.210 HD
ENDBRANCH   6   8
BRANCH   5  10
ATOM     10  C   UNL     1     179.931 182.400 184.546  1.00  0.00    -0.075 C 
ATOM     11  C   UNL     1     181.125 182.767 184.052  1.00  0.00     0.008 C 
ATOM     12  C   UNL     1     178.903 183.471 184.805  1.00  0.00     0.039 C 
ENDBRANCH   5  10
TORSDOF 2
ENDMDL
MODEL 2
REMARK VINA RESULT:    -4.527      2.175      3.555
REMARK INTER + INTRA:          -5.078
REMARK INTER:                  -4.942
REMARK INTRA:                  -0.136
REMARK UNBOUND:                -0.155
REMARK SMILES C=C(C)[C@@H]1CC[C@H](C)C[C@@H]1O
REMARK SMILES IDX 8 1 7 2 6 3 5 4 4 5 10 6 9 7 11 8 2 10 1 11 3 12
REMARK H PARENT 11 9
REMARK Flexibility Score: inf
ROOT
ATOM      1  C   UNL     1     180.225 180.150 181.966  1.00  0.00     0.008 C 
ATOM      2  C   UNL     1     179.776 179.968 183.422  1.00  0.00    -0.012 C 
ATOM      3  C   UNL     1     180.153 178.560 183.954  1.00  0.00     0.004 C 
ATOM      4  C   UNL     1     181.436 178.585 184.790  1.00  0.00     0.011 C 
ATOM      5  C   UNL     1     181.260 179.470 186.048  1.00  0.00     0.043 C 
ATOM      6  C   UNL     1     180.370 180.731 185.788  1.00  0.00     0.121 C 
ATOM      7  C   UNL     1     180.336 181.117 184.301  1.00  0.00     0.035 C 
ENDROOT
BRANCH   6   8
ATOM      8  O   UNL     1     180.792 181.836 186.545  1.00  0.00    -0.392 OA
ATOM      9  H   UNL     1     181.634 181.566 186.999  1.00  0.00     0.210 HD
ENDBRANCH   6   8
BRANCH   5  10
ATOM     10  C   UNL     1     182.616 179.790 186.677  1.00  0.00    -0.075 C 
ATOM     11  C   UNL     1     183.688 180.078 185.921  1.00  0.00     0.008 C 
ATOM     12  C   UNL     1     182.773 179.797 188.177  1.00  0.00     0.039 C 
ENDBRANCH   5  10
TORSDOF 2
ENDMDL
MODEL 3
REMARK VINA RESULT:    -4.347      1.734      4.413
REMARK INTER + INTRA:          -4.883
REMARK INTER:                  -4.723
REMARK INTRA:                  -0.161
REMARK UNBOUND:                -0.155
REMARK SMILES C=C(C)[C@@H]1CC[C@H](C)C[C@@H]1O
REMARK SMILES IDX 8 1 7 2 6 3 5 4 4 5 10 6 9 7 11 8 2 10 1 11 3 12
REMARK H PARENT 11 9
REMARK Flexibility Score: inf
ROOT
ATOM      1  C   UNL     1     180.266 183.102 183.783  1.00  0.00     0.008 C 
ATOM      2  C   UNL     1     179.588 181.811 184.263  1.00  0.00    -0.012 C 
ATOM      3  C   UNL     1     179.036 180.989 183.067  1.00  0.00     0.004 C 
ATOM      4  C   UNL     1     179.981 179.852 182.668  1.00  0.00     0.011 C 
ATOM      5  C   UNL     1     180.148 178.837 183.826  1.00  0.00     0.043 C 
ATOM      6  C   UNL     1     180.158 179.518 185.236  1.00  0.00     0.121 C 
ATOM      7  C   UNL     1     180.559 180.999 185.160  1.00  0.00     0.035 C 
ENDROOT
BRANCH   6   8
ATOM      8  O   UNL     1     181.010 178.852 186.133  1.00  0.00    -0.392 OA
ATOM      9  H   UNL     1     180.731 179.126 187.047  1.00  0.00     0.210 HD
ENDBRANCH   6   8
BRANCH   5  10
ATOM     10  C   UNL     1     181.345 177.922 183.574  1.00  0.00    -0.075 C 
ATOM     11  C   UNL     1     181.229 176.585 183.627  1.00  0.00     0.008 C 
ATOM     12  C   UNL     1     182.695 178.511 183.248  1.00  0.00     0.039 C 
ENDBRANCH   5  10
TORSDOF 2
ENDMDL
MODEL 4
REMARK VINA RESULT:    -4.299      1.570      2.046
REMARK INTER + INTRA:          -4.831
REMARK INTER:                  -4.717
REMARK INTRA:                  -0.113
REMARK UNBOUND:                -0.155
REMARK SMILES C=C(C)[C@@H]1CC[C@H](C)C[C@@H]1O
REMARK SMILES IDX 8 1 7 2 6 3 5 4 4 5 10 6 9 7 11 8 2 10 1 11 3 12
REMARK H PARENT 11 9
REMARK Flexibility Score: inf
ROOT
ATOM      1  C   UNL     1     181.223 176.975 183.473  1.00  0.00     0.008 C 
ATOM      2  C   UNL     1     181.438 178.136 184.454  1.00  0.00    -0.012 C 
ATOM      3  C   UNL     1     182.283 179.267 183.810  1.00  0.00     0.004 C 
ATOM      4  C   UNL     1     181.410 180.414 183.293  1.00  0.00     0.011 C 
ATOM      5  C   UNL     1     180.634 181.086 184.452  1.00  0.00     0.043 C 
ATOM      6  C   UNL     1     180.169 180.067 185.546  1.00  0.00     0.121 C 
ATOM      7  C   UNL     1     180.074 178.635 184.999  1.00  0.00     0.035 C 
ENDROOT
BRANCH   6   8
ATOM      8  O   UNL     1     178.936 180.432 186.112  1.00  0.00    -0.392 OA
ATOM      9  H   UNL     1     178.648 181.265 185.653  1.00  0.00     0.210 HD
ENDBRANCH   6   8
BRANCH   5  10
ATOM     10  C   UNL     1     179.509 181.966 183.911  1.00  0.00    -0.075 C 
ATOM     11  C   UNL     1     178.796 181.607 182.831  1.00  0.00     0.008 C 
ATOM     12  C   UNL     1     179.170 183.268 184.593  1.00  0.00     0.039 C 
ENDBRANCH   5  10
TORSDOF 2
ENDMDL
MODEL 5
REMARK VINA RESULT:    -4.284      1.791      4.269
REMARK INTER + INTRA:          -4.815
REMARK INTER:                  -4.664
REMARK INTRA:                  -0.151
REMARK UNBOUND:                -0.155
REMARK SMILES C=C(C)[C@@H]1CC[C@H](C)C[C@@H]1O
REMARK SMILES IDX 8 1 7 2 6 3 5 4 4 5 10 6 9 7 11 8 2 10 1 11 3 12
REMARK H PARENT 11 9
REMARK Flexibility Score: inf
ROOT
ATOM      1  C   UNL     1     180.550 183.374 181.987  1.00  0.00     0.008 C 
ATOM      2  C   UNL     1     179.682 182.109 182.034  1.00  0.00    -0.012 C 
ATOM      3  C   UNL     1     180.207 181.030 181.049  1.00  0.00     0.004 C 
ATOM      4  C   UNL     1     181.058 179.971 181.758  1.00  0.00     0.011 C 
ATOM      5  C   UNL     1     180.221 179.200 182.808  1.00  0.00     0.043 C 
ATOM      6  C   UNL     1     179.178 180.109 183.542  1.00  0.00     0.121 C 
ATOM      7  C   UNL     1     179.569 181.593 183.493  1.00  0.00     0.035 C 
ENDROOT
BRANCH   6   8
ATOM      8  O   UNL     1     178.996 179.720 184.880  1.00  0.00    -0.392 OA
ATOM      9  H   UNL     1     179.398 180.435 185.441  1.00  0.00     0.210 HD
ENDBRANCH   6   8
BRANCH   5  10
ATOM     10  C   UNL     1     181.130 178.416 183.752  1.00  0.00    -0.075 C 
ATOM     11  C   UNL     1     180.978 177.093 183.933  1.00  0.00     0.008 C 
ATOM     12  C   UNL     1     182.233 179.120 184.502  1.00  0.00     0.039 C 
ENDBRANCH   5  10
TORSDOF 2
ENDMDL
MODEL 6
REMARK VINA RESULT:    -4.253      2.266      3.370
REMARK INTER + INTRA:          -4.781
REMARK INTER:                  -4.617
REMARK INTRA:                  -0.163
REMARK UNBOUND:                -0.155
REMARK SMILES C=C(C)[C@@H]1CC[C@H](C)C[C@@H]1O
REMARK SMILES IDX 8 1 7 2 6 3 5 4 4 5 10 6 9 7 11 8 2 10 1 11 3 12
REMARK H PARENT 11 9
REMARK Flexibility Score: inf
ROOT
ATOM      1  C   UNL     1     183.681 176.447 181.815  1.00  0.00     0.008 C 
ATOM      2  C   UNL     1     182.258 177.021 181.782  1.00  0.00    -0.012 C 
ATOM      3  C   UNL     1     181.305 176.214 182.703  1.00  0.00     0.004 C 
ATOM      4  C   UNL     1     181.102 176.895 184.060  1.00  0.00     0.011 C 
ATOM      5  C   UNL     1     180.435 178.282 183.888  1.00  0.00     0.043 C 
ATOM      6  C   UNL     1     180.916 179.035 182.603  1.00  0.00     0.121 C 
ATOM      7  C   UNL     1     182.285 178.536 182.118  1.00  0.00     0.035 C 
ENDROOT
BRANCH   6   8
ATOM      8  O   UNL     1     180.971 180.425 182.799  1.00  0.00    -0.392 OA
ATOM      9  H   UNL     1     180.711 180.590 183.744  1.00  0.00     0.210 HD
ENDBRANCH   6   8
BRANCH   5  10
ATOM     10  C   UNL     1     180.562 179.105 185.169  1.00  0.00    -0.075 C 
ATOM     11  C   UNL     1     179.495 179.694 185.733  1.00  0.00     0.008 C 
ATOM     12  C   UNL     1     181.905 179.265 185.837  1.00  0.00     0.039 C 
ENDBRANCH   5  10
TORSDOF 2
ENDMDL
MODEL 7
REMARK VINA RESULT:    -4.163      1.632      4.012
REMARK INTER + INTRA:          -4.683
REMARK INTER:                  -4.531
REMARK INTRA:                  -0.152
REMARK UNBOUND:                -0.155
REMARK SMILES C=C(C)[C@@H]1CC[C@H](C)C[C@@H]1O
REMARK SMILES IDX 8 1 7 2 6 3 5 4 4 5 10 6 9 7 11 8 2 10 1 11 3 12
REMARK H PARENT 11 9
REMARK Flexibility Score: inf
ROOT
ATOM      1  C   UNL     1     179.876 184.717 182.297  1.00  0.00     0.008 C 
ATOM      2  C   UNL     1     180.065 183.226 181.988  1.00  0.00    -0.012 C 
ATOM      3  C   UNL     1     181.504 182.758 182.335  1.00  0.00     0.004 C 
ATOM      4  C   UNL     1     181.568 182.058 183.697  1.00  0.00     0.011 C 
ATOM      5  C   UNL     1     180.703 180.774 183.701  1.00  0.00     0.043 C 
ATOM      6  C   UNL     1     179.389 180.921 182.863  1.00  0.00     0.121 C 
ATOM      7  C   UNL     1     178.969 182.390 182.700  1.00  0.00     0.035 C 
ENDROOT
BRANCH   6   8
ATOM      8  O   UNL     1     178.326 180.193 183.423  1.00  0.00    -0.392 OA
ATOM      9  H   UNL     1     177.881 179.717 182.673  1.00  0.00     0.210 HD
ENDBRANCH   6   8
BRANCH   5  10
ATOM     10  C   UNL     1     180.473 180.283 185.129  1.00  0.00    -0.075 C 
ATOM     11  C   UNL     1     180.152 181.132 186.119  1.00  0.00     0.008 C 
ATOM     12  C   UNL     1     180.595 178.816 185.455  1.00  0.00     0.039 C 
ENDBRANCH   5  10
TORSDOF 2
ENDMDL
MODEL 8
REMARK VINA RESULT:    -4.121      2.032      4.533
REMARK INTER + INTRA:          -4.637
REMARK INTER:                  -4.485
REMARK INTRA:                  -0.153
REMARK UNBOUND:                -0.155
REMARK SMILES C=C(C)[C@@H]1CC[C@H](C)C[C@@H]1O
REMARK SMILES IDX 8 1 7 2 6 3 5 4 4 5 10 6 9 7 11 8 2 10 1 11 3 12
REMARK H PARENT 11 9
REMARK Flexibility Score: inf
ROOT
ATOM      1  C   UNL     1     179.883 184.646 181.883  1.00  0.00     0.008 C 
ATOM      2  C   UNL     1     179.224 183.945 183.079  1.00  0.00    -0.012 C 
ATOM      3  C   UNL     1     178.333 182.762 182.616  1.00  0.00     0.004 C 
ATOM      4  C   UNL     1     179.050 181.415 182.753  1.00  0.00     0.011 C 
ATOM      5  C   UNL     1     179.395 181.119 184.234  1.00  0.00     0.043 C 
ATOM      6  C   UNL     1     179.800 182.402 185.033  1.00  0.00     0.121 C 
ATOM      7  C   UNL     1     180.303 183.523 184.111  1.00  0.00     0.035 C 
ENDROOT
BRANCH   6   8
ATOM      8  O   UNL     1     180.777 182.127 186.006  1.00  0.00    -0.392 OA
ATOM      9  H   UNL     1     180.736 181.150 186.181  1.00  0.00     0.210 HD
ENDBRANCH   6   8
BRANCH   5  10
ATOM     10  C   UNL     1     180.411 179.982 184.335  1.00  0.00    -0.075 C 
ATOM     11  C   UNL     1     180.251 178.976 185.210  1.00  0.00     0.008 C 
ATOM     12  C   UNL     1     181.621 179.965 183.436  1.00  0.00     0.039 C 
ENDBRANCH   5  10
TORSDOF 2
ENDMDL
MODEL 9
REMARK VINA RESULT:    -4.078      2.120      3.884
REMARK INTER + INTRA:          -4.591
REMARK INTER:                  -4.443
REMARK INTRA:                  -0.148
REMARK UNBOUND:                -0.155
REMARK SMILES C=C(C)[C@@H]1CC[C@H](C)C[C@@H]1O
REMARK SMILES IDX 8 1 7 2 6 3 5 4 4 5 10 6 9 7 11 8 2 10 1 11 3 12
REMARK H PARENT 11 9
REMARK Flexibility Score: inf
ROOT
ATOM      1  C   UNL     1     182.782 180.377 188.679  1.00  0.00     0.008 C 
ATOM      2  C   UNL     1     182.352 181.272 187.509  1.00  0.00    -0.012 C 
ATOM      3  C   UNL     1     183.310 181.110 186.298  1.00  0.00     0.004 C 
ATOM      4  C   UNL     1     182.740 180.162 185.238  1.00  0.00     0.011 C 
ATOM      5  C   UNL     1     181.419 180.716 184.651  1.00  0.00     0.043 C 
ATOM      6  C   UNL     1     180.541 181.454 185.716  1.00  0.00     0.121 C 
ATOM      7  C   UNL     1     180.868 181.003 187.148  1.00  0.00     0.035 C 
ENDROOT
BRANCH   6   8
ATOM      8  O   UNL     1     179.168 181.278 185.475  1.00  0.00    -0.392 OA
ATOM      9  H   UNL     1     178.712 182.092 185.818  1.00  0.00     0.210 HD
ENDBRANCH   6   8
BRANCH   5  10
ATOM     10  C   UNL     1     180.672 179.629 183.881  1.00  0.00    -0.075 C 
ATOM     11  C   UNL     1     180.121 179.873 182.680  1.00  0.00     0.008 C 
ATOM     12  C   UNL     1     180.546 178.241 184.458  1.00  0.00     0.039 C 
ENDBRANCH   5  10
TORSDOF 2
ENDMDL
