MODEL 1
REMARK VINA RESULT:    -3.617      0.000      0.000
REMARK INTER + INTRA:          -5.163
REMARK INTER:                  -4.675
REMARK INTRA:                  -0.489
REMARK UNBOUND:                -0.489
REMARK SMILES CO[C@]1(CO)O[C@@H](CO)[C@H](O)[C@H]1O
REMARK SMILES IDX 3 1 12 2 10 3 7 4 6 5 2 6 1 7 4 8 5 9 13 11 11 13 8 15 9 16
REMARK H PARENT 5 10 13 12 11 14 9 17
REMARK Flexibility Score: inf
ROOT
ATOM      1  C   UNL     1       9.243  -4.951  -2.117  1.00  0.00     0.221 C 
ATOM      2  C   UNL     1       8.402  -3.955  -1.305  1.00  0.00     0.207 C 
ATOM      3  C   UNL     1       7.011  -4.513  -1.420  1.00  0.00     0.180 C 
ATOM      4  C   UNL     1       7.052  -5.210  -2.781  1.00  0.00     0.179 C 
ATOM      5  O   UNL     1       8.395  -5.487  -3.125  1.00  0.00    -0.337 OA
ENDROOT
BRANCH   1   6
ATOM      6  O   UNL     1      10.360  -4.237  -2.650  1.00  0.00    -0.349 OA
ATOM      7  C   UNL     1      10.029  -2.948  -3.125  1.00  0.00     0.198 C 
ENDBRANCH   1   6
BRANCH   1   8
ATOM      8  C   UNL     1       9.763  -6.113  -1.237  1.00  0.00     0.224 C 
BRANCH   8   9
ATOM      9  O   UNL     1      10.915  -5.722  -0.543  1.00  0.00    -0.391 OA
ATOM     10  H   UNL     1      10.689  -4.868  -0.091  1.00  0.00     0.210 HD
ENDBRANCH   8   9
ENDBRANCH   1   8
BRANCH   2  11
ATOM     11  O   UNL     1       8.818  -3.858   0.034  1.00  0.00    -0.385 OA
ATOM     12  H   UNL     1       8.010  -3.625   0.562  1.00  0.00     0.211 HD
ENDBRANCH   2  11
BRANCH   3  13
ATOM     13  O   UNL     1       6.063  -3.477  -1.399  1.00  0.00    -0.387 OA
ATOM     14  H   UNL     1       6.424  -2.777  -0.796  1.00  0.00     0.211 HD
ENDBRANCH   3  13
BRANCH   4  15
ATOM     15  C   UNL     1       6.245  -6.517  -2.795  1.00  0.00     0.191 C 
BRANCH  15  16
ATOM     16  O   UNL     1       6.513  -7.285  -1.653  1.00  0.00    -0.394 OA
ATOM     17  H   UNL     1       6.953  -6.680  -1.001  1.00  0.00     0.210 HD
ENDBRANCH  15  16
ENDBRANCH   4  15
TORSDOF 7
ENDMDL
MODEL 2
REMARK VINA RESULT:    -3.542      1.505      4.223
REMARK INTER + INTRA:          -5.065
REMARK INTER:                  -4.709
REMARK INTRA:                  -0.357
REMARK UNBOUND:                -0.489
REMARK SMILES CO[C@]1(CO)O[C@@H](CO)[C@H](O)[C@H]1O
REMARK SMILES IDX 3 1 12 2 10 3 7 4 6 5 2 6 1 7 4 8 5 9 13 11 11 13 8 15 9 16
REMARK H PARENT 5 10 13 12 11 14 9 17
REMARK Flexibility Score: inf
ROOT
ATOM      1  C   UNL     1       6.595  -4.386  -2.294  1.00  0.00     0.221 C 
ATOM      2  C   UNL     1       6.781  -4.057  -0.806  1.00  0.00     0.207 C 
ATOM      3  C   UNL     1       8.080  -3.302  -0.784  1.00  0.00     0.180 C 
ATOM      4  C   UNL     1       8.826  -3.907  -1.975  1.00  0.00     0.179 C 
ATOM      5  O   UNL     1       7.895  -4.496  -2.861  1.00  0.00    -0.337 OA
ENDROOT
BRANCH   1   6
ATOM      6  O   UNL     1       5.847  -5.600  -2.377  1.00  0.00    -0.349 OA
ATOM      7  C   UNL     1       6.584  -6.743  -1.997  1.00  0.00     0.198 C 
ENDBRANCH   1   6
BRANCH   1   8
ATOM      8  C   UNL     1       5.824  -3.268  -3.036  1.00  0.00     0.224 C 
BRANCH   8   9
ATOM      9  O   UNL     1       4.444  -3.418  -2.846  1.00  0.00    -0.391 OA
ATOM     10  H   UNL     1       4.326  -3.712  -1.905  1.00  0.00     0.210 HD
ENDBRANCH   8   9
ENDBRANCH   1   8
BRANCH   2  11
ATOM     11  O   UNL     1       5.723  -3.293  -0.283  1.00  0.00    -0.385 OA
ATOM     12  H   UNL     1       5.827  -3.308   0.704  1.00  0.00     0.211 HD
ENDBRANCH   2  11
BRANCH   3  13
ATOM     13  O   UNL     1       8.761  -3.533   0.422  1.00  0.00    -0.387 OA
ATOM     14  H   UNL     1       8.150  -3.249   1.150  1.00  0.00     0.211 HD
ENDBRANCH   3  13
BRANCH   4  15
ATOM     15  C   UNL     1       9.659  -2.864  -2.736  1.00  0.00     0.191 C 
BRANCH  15  16
ATOM     16  O   UNL     1      10.952  -3.342  -2.990  1.00  0.00    -0.394 OA
ATOM     17  H   UNL     1      10.848  -4.242  -3.395  1.00  0.00     0.210 HD
ENDBRANCH  15  16
ENDBRANCH   4  15
TORSDOF 7
ENDMDL
MODEL 3
REMARK VINA RESULT:    -3.421      1.735      3.697
REMARK INTER + INTRA:          -4.910
REMARK INTER:                  -4.656
REMARK INTRA:                  -0.254
REMARK UNBOUND:                -0.489
REMARK SMILES CO[C@]1(CO)O[C@@H](CO)[C@H](O)[C@H]1O
REMARK SMILES IDX 3 1 12 2 10 3 7 4 6 5 2 6 1 7 4 8 5 9 13 11 11 13 8 15 9 16
REMARK H PARENT 5 10 13 12 11 14 9 17
REMARK Flexibility Score: inf
ROOT
ATOM      1  C   UNL     1       6.692  -3.681  -1.705  1.00  0.00     0.221 C 
ATOM      2  C   UNL     1       8.111  -3.526  -1.140  1.00  0.00     0.207 C 
ATOM      3  C   UNL     1       8.803  -4.774  -1.611  1.00  0.00     0.180 C 
ATOM      4  C   UNL     1       7.649  -5.777  -1.683  1.00  0.00     0.179 C 
ATOM      5  O   UNL     1       6.426  -5.075  -1.784  1.00  0.00    -0.337 OA
ENDROOT
BRANCH   1   6
ATOM      6  O   UNL     1       5.801  -2.992  -0.827  1.00  0.00    -0.349 OA
ATOM      7  C   UNL     1       4.456  -3.017  -1.256  1.00  0.00     0.198 C 
ENDBRANCH   1   6
BRANCH   1   8
ATOM      8  C   UNL     1       6.571  -3.072  -3.123  1.00  0.00     0.224 C 
BRANCH   8   9
ATOM      9  O   UNL     1       6.574  -1.673  -3.056  1.00  0.00    -0.391 OA
ATOM     10  H   UNL     1       5.724  -1.417  -2.612  1.00  0.00     0.210 HD
ENDBRANCH   8   9
ENDBRANCH   1   8
BRANCH   2  11
ATOM     11  O   UNL     1       8.756  -2.366  -1.601  1.00  0.00    -0.385 OA
ATOM     12  H   UNL     1       8.101  -1.889  -2.175  1.00  0.00     0.211 HD
ENDBRANCH   2  11
BRANCH   3  13
ATOM     13  O   UNL     1       9.777  -5.176  -0.683  1.00  0.00    -0.387 OA
ATOM     14  H   UNL     1       9.387  -5.934  -0.175  1.00  0.00     0.211 HD
ENDBRANCH   3  13
BRANCH   4  15
ATOM     15  C   UNL     1       7.781  -6.738  -2.874  1.00  0.00     0.191 C 
BRANCH  15  16
ATOM     16  O   UNL     1       9.116  -7.123  -3.063  1.00  0.00    -0.394 OA
ATOM     17  H   UNL     1       9.304  -7.831  -2.393  1.00  0.00     0.210 HD
ENDBRANCH  15  16
ENDBRANCH   4  15
TORSDOF 7
ENDMDL
MODEL 4
REMARK VINA RESULT:    -3.257      1.384      3.517
REMARK INTER + INTRA:          -4.697
REMARK INTER:                  -4.253
REMARK INTRA:                  -0.445
REMARK UNBOUND:                -0.489
REMARK SMILES CO[C@]1(CO)O[C@@H](CO)[C@H](O)[C@H]1O
REMARK SMILES IDX 3 1 12 2 10 3 7 4 6 5 2 6 1 7 4 8 5 9 13 11 11 13 8 15 9 16
REMARK H PARENT 5 10 13 12 11 14 9 17
REMARK Flexibility Score: inf
ROOT
ATOM      1  C   UNL     1       7.962  -4.257  -2.261  1.00  0.00     0.221 C 
ATOM      2  C   UNL     1       7.533  -5.686  -2.623  1.00  0.00     0.207 C 
ATOM      3  C   UNL     1       8.743  -6.504  -2.269  1.00  0.00     0.180 C 
ATOM      4  C   UNL     1       9.883  -5.507  -2.489  1.00  0.00     0.179 C 
ATOM      5  O   UNL     1       9.372  -4.191  -2.429  1.00  0.00    -0.337 OA
ENDROOT
BRANCH   1   6
ATOM      6  O   UNL     1       7.255  -3.364  -3.123  1.00  0.00    -0.349 OA
ATOM      7  C   UNL     1       6.173  -2.712  -2.493  1.00  0.00     0.198 C 
ENDBRANCH   1   6
BRANCH   1   8
ATOM      8  C   UNL     1       7.621  -3.912  -0.791  1.00  0.00     0.224 C 
BRANCH   8   9
ATOM      9  O   UNL     1       8.740  -3.374  -0.143  1.00  0.00    -0.391 OA
ATOM     10  H   UNL     1       9.508  -3.952  -0.394  1.00  0.00     0.210 HD
ENDBRANCH   8   9
ENDBRANCH   1   8
BRANCH   2  11
ATOM     11  O   UNL     1       6.393  -6.107  -1.915  1.00  0.00    -0.385 OA
ATOM     12  H   UNL     1       6.712  -6.412  -1.026  1.00  0.00     0.211 HD
ENDBRANCH   2  11
BRANCH   3  13
ATOM     13  O   UNL     1       8.854  -7.611  -3.125  1.00  0.00    -0.387 OA
ATOM     14  H   UNL     1       9.673  -7.468  -3.667  1.00  0.00     0.211 HD
ENDBRANCH   3  13
BRANCH   4  15
ATOM     15  C   UNL     1      11.006  -5.663  -1.453  1.00  0.00     0.191 C 
BRANCH  15  16
ATOM     16  O   UNL     1      10.484  -5.743  -0.155  1.00  0.00    -0.394 OA
ATOM     17  H   UNL     1      10.598  -6.685   0.139  1.00  0.00     0.210 HD
ENDBRANCH  15  16
ENDBRANCH   4  15
TORSDOF 7
ENDMDL
MODEL 5
REMARK VINA RESULT:    -3.122      1.514      2.632
REMARK INTER + INTRA:          -4.523
REMARK INTER:                  -4.119
REMARK INTRA:                  -0.403
REMARK UNBOUND:                -0.489
REMARK SMILES CO[C@]1(CO)O[C@@H](CO)[C@H](O)[C@H]1O
REMARK SMILES IDX 3 1 12 2 10 3 7 4 6 5 2 6 1 7 4 8 5 9 13 11 11 13 8 15 9 16
REMARK H PARENT 5 10 13 12 11 14 9 17
REMARK Flexibility Score: inf
ROOT
ATOM      1  C   UNL     1       8.995  -5.426  -2.088  1.00  0.00     0.221 C 
ATOM      2  C   UNL     1       9.018  -4.044  -2.757  1.00  0.00     0.207 C 
ATOM      3  C   UNL     1       7.993  -3.271  -1.975  1.00  0.00     0.180 C 
ATOM      4  C   UNL     1       7.022  -4.370  -1.538  1.00  0.00     0.179 C 
ATOM      5  O   UNL     1       7.681  -5.620  -1.580  1.00  0.00    -0.337 OA
ENDROOT
BRANCH   1   6
ATOM      6  O   UNL     1       9.357  -6.390  -3.078  1.00  0.00    -0.349 OA
ATOM      7  C   UNL     1       8.778  -7.660  -2.866  1.00  0.00     0.198 C 
ENDBRANCH   1   6
BRANCH   1   8
ATOM      8  C   UNL     1       9.998  -5.511  -0.913  1.00  0.00     0.224 C 
BRANCH   8   9
ATOM      9  O   UNL     1      11.303  -5.670  -1.395  1.00  0.00    -0.391 OA
ATOM     10  H   UNL     1      11.252  -5.537  -2.378  1.00  0.00     0.210 HD
ENDBRANCH   8   9
ENDBRANCH   1   8
BRANCH   2  11
ATOM     11  O   UNL     1      10.284  -3.436  -2.703  1.00  0.00    -0.385 OA
ATOM     12  H   UNL     1      10.170  -2.517  -3.059  1.00  0.00     0.211 HD
ENDBRANCH   2  11
BRANCH   3  13
ATOM     13  O   UNL     1       7.363  -2.323  -2.796  1.00  0.00    -0.387 OA
ATOM     14  H   UNL     1       7.849  -2.331  -3.661  1.00  0.00     0.211 HD
ENDBRANCH   3  13
BRANCH   4  15
ATOM     15  C   UNL     1       6.470  -4.135  -0.125  1.00  0.00     0.191 C 
BRANCH  15  16
ATOM     16  O   UNL     1       5.486  -3.136  -0.129  1.00  0.00    -0.394 OA
ATOM     17  H   UNL     1       4.990  -3.230  -0.983  1.00  0.00     0.210 HD
ENDBRANCH  15  16
ENDBRANCH   4  15
TORSDOF 7
ENDMDL
MODEL 6
REMARK VINA RESULT:    -3.089      1.817      3.981
REMARK INTER + INTRA:          -4.480
REMARK INTER:                  -4.034
REMARK INTRA:                  -0.447
REMARK UNBOUND:                -0.489
REMARK SMILES CO[C@]1(CO)O[C@@H](CO)[C@H](O)[C@H]1O
REMARK SMILES IDX 3 1 12 2 10 3 7 4 6 5 2 6 1 7 4 8 5 9 13 11 11 13 8 15 9 16
REMARK H PARENT 5 10 13 12 11 14 9 17
REMARK Flexibility Score: inf
ROOT
ATOM      1  C   UNL     1       6.673  -4.372  -1.342  1.00  0.00     0.221 C 
ATOM      2  C   UNL     1       8.160  -4.050  -1.544  1.00  0.00     0.207 C 
ATOM      3  C   UNL     1       8.127  -2.725  -2.254  1.00  0.00     0.180 C 
ATOM      4  C   UNL     1       6.807  -2.803  -3.024  1.00  0.00     0.179 C 
ATOM      5  O   UNL     1       5.966  -3.761  -2.414  1.00  0.00    -0.337 OA
ENDROOT
BRANCH   1   6
ATOM      6  O   UNL     1       6.539  -5.794  -1.326  1.00  0.00    -0.349 OA
ATOM      7  C   UNL     1       7.287  -6.442  -2.333  1.00  0.00     0.198 C 
ENDBRANCH   1   6
BRANCH   1   8
ATOM      8  C   UNL     1       6.139  -3.801  -0.006  1.00  0.00     0.224 C 
BRANCH   8   9
ATOM      9  O   UNL     1       4.965  -3.069  -0.222  1.00  0.00    -0.391 OA
ATOM     10  H   UNL     1       4.682  -3.269  -1.152  1.00  0.00     0.210 HD
ENDBRANCH   8   9
ENDBRANCH   1   8
BRANCH   2  11
ATOM     11  O   UNL     1       8.869  -3.976  -0.333  1.00  0.00    -0.385 OA
ATOM     12  H   UNL     1       9.265  -4.874  -0.183  1.00  0.00     0.211 HD
ENDBRANCH   2  11
BRANCH   3  13
ATOM     13  O   UNL     1       9.224  -2.607  -3.123  1.00  0.00    -0.387 OA
ATOM     14  H   UNL     1       9.467  -1.645  -3.141  1.00  0.00     0.211 HD
ENDBRANCH   3  13
BRANCH   4  15
ATOM     15  C   UNL     1       6.080  -1.451  -3.078  1.00  0.00     0.191 C 
BRANCH  15  16
ATOM     16  O   UNL     1       4.804  -1.543  -2.506  1.00  0.00    -0.394 OA
ATOM     17  H   UNL     1       4.157  -1.566  -3.259  1.00  0.00     0.210 HD
ENDBRANCH  15  16
ENDBRANCH   4  15
TORSDOF 7
ENDMDL
MODEL 7
REMARK VINA RESULT:    -2.994      1.585      3.744
REMARK INTER + INTRA:          -4.358
REMARK INTER:                  -4.171
REMARK INTRA:                  -0.188
REMARK UNBOUND:                -0.489
REMARK SMILES CO[C@]1(CO)O[C@@H](CO)[C@H](O)[C@H]1O
REMARK SMILES IDX 3 1 12 2 10 3 7 4 6 5 2 6 1 7 4 8 5 9 13 11 11 13 8 15 9 16
REMARK H PARENT 5 10 13 12 11 14 9 17
REMARK Flexibility Score: inf
ROOT
ATOM      1  C   UNL     1       7.697  -4.315  -1.514  1.00  0.00     0.221 C 
ATOM      2  C   UNL     1       8.504  -3.215  -2.218  1.00  0.00     0.207 C 
ATOM      3  C   UNL     1       9.592  -3.984  -2.912  1.00  0.00     0.180 C 
ATOM      4  C   UNL     1       9.772  -5.194  -1.993  1.00  0.00     0.179 C 
ATOM      5  O   UNL     1       8.602  -5.371  -1.220  1.00  0.00    -0.337 OA
ENDROOT
BRANCH   1   6
ATOM      6  O   UNL     1       7.113  -3.739  -0.344  1.00  0.00    -0.349 OA
ATOM      7  C   UNL     1       5.751  -3.401  -0.503  1.00  0.00     0.198 C 
ENDBRANCH   1   6
BRANCH   1   8
ATOM      8  C   UNL     1       6.568  -4.866  -2.420  1.00  0.00     0.224 C 
BRANCH   8   9
ATOM      9  O   UNL     1       6.476  -6.257  -2.293  1.00  0.00    -0.391 OA
ATOM     10  H   UNL     1       6.959  -6.491  -1.457  1.00  0.00     0.210 HD
ENDBRANCH   8   9
ENDBRANCH   1   8
BRANCH   2  11
ATOM     11  O   UNL     1       7.731  -2.469  -3.125  1.00  0.00    -0.385 OA
ATOM     12  H   UNL     1       7.171  -1.857  -2.580  1.00  0.00     0.211 HD
ENDBRANCH   2  11
BRANCH   3  13
ATOM     13  O   UNL     1      10.765  -3.216  -2.987  1.00  0.00    -0.387 OA
ATOM     14  H   UNL     1      11.523  -3.844  -2.859  1.00  0.00     0.211 HD
ENDBRANCH   3  13
BRANCH   4  15
ATOM     15  C   UNL     1      10.064  -6.484  -2.773  1.00  0.00     0.191 C 
BRANCH  15  16
ATOM     16  O   UNL     1      11.426  -6.581  -3.092  1.00  0.00    -0.394 OA
ATOM     17  H   UNL     1      11.895  -6.842  -2.257  1.00  0.00     0.210 HD
ENDBRANCH  15  16
ENDBRANCH   4  15
TORSDOF 7
ENDMDL
MODEL 8
REMARK VINA RESULT:    -2.857      1.685      2.851
REMARK INTER + INTRA:          -4.181
REMARK INTER:                  -3.927
REMARK INTRA:                  -0.253
REMARK UNBOUND:                -0.489
REMARK SMILES CO[C@]1(CO)O[C@@H](CO)[C@H](O)[C@H]1O
REMARK SMILES IDX 3 1 12 2 10 3 7 4 6 5 2 6 1 7 4 8 5 9 13 11 11 13 8 15 9 16
REMARK H PARENT 5 10 13 12 11 14 9 17
REMARK Flexibility Score: inf
ROOT
ATOM      1  C   UNL     1       9.066  -6.772  -2.289  1.00  0.00     0.221 C 
ATOM      2  C   UNL     1       9.739  -5.551  -1.646  1.00  0.00     0.207 C 
ATOM      3  C   UNL     1       8.623  -4.547  -1.573  1.00  0.00     0.180 C 
ATOM      4  C   UNL     1       7.755  -4.940  -2.771  1.00  0.00     0.179 C 
ATOM      5  O   UNL     1       8.025  -6.282  -3.124  1.00  0.00    -0.337 OA
ENDROOT
BRANCH   1   6
ATOM      6  O   UNL     1      10.071  -7.487  -3.010  1.00  0.00    -0.349 OA
ATOM      7  C   UNL     1       9.815  -8.872  -3.108  1.00  0.00     0.198 C 
ENDBRANCH   1   6
BRANCH   1   8
ATOM      8  C   UNL     1       8.447  -7.711  -1.224  1.00  0.00     0.224 C 
BRANCH   8   9
ATOM      9  O   UNL     1       7.061  -7.802  -1.400  1.00  0.00    -0.391 OA
ATOM     10  H   UNL     1       6.759  -6.898  -1.679  1.00  0.00     0.210 HD
ENDBRANCH   8   9
ENDBRANCH   1   8
BRANCH   2  11
ATOM     11  O   UNL     1      10.273  -5.831  -0.376  1.00  0.00    -0.385 OA
ATOM     12  H   UNL     1       9.792  -6.631  -0.039  1.00  0.00     0.211 HD
ENDBRANCH   2  11
BRANCH   3  13
ATOM     13  O   UNL     1       9.126  -3.243  -1.707  1.00  0.00    -0.387 OA
ATOM     14  H   UNL     1       9.740  -3.098  -0.942  1.00  0.00     0.211 HD
ENDBRANCH   3  13
BRANCH   4  15
ATOM     15  C   UNL     1       6.255  -4.784  -2.484  1.00  0.00     0.191 C 
BRANCH  15  16
ATOM     16  O   UNL     1       5.524  -5.845  -3.037  1.00  0.00    -0.394 OA
ATOM     17  H   UNL     1       6.140  -6.622  -3.080  1.00  0.00     0.210 HD
ENDBRANCH  15  16
ENDBRANCH   4  15
TORSDOF 7
ENDMDL
MODEL 9
REMARK VINA RESULT:    -1.911      2.123      4.227
REMARK INTER + INTRA:          -2.958
REMARK INTER:                  -2.553
REMARK INTRA:                  -0.405
REMARK UNBOUND:                -0.489
REMARK SMILES CO[C@]1(CO)O[C@@H](CO)[C@H](O)[C@H]1O
REMARK SMILES IDX 3 1 12 2 10 3 7 4 6 5 2 6 1 7 4 8 5 9 13 11 11 13 8 15 9 16
REMARK H PARENT 5 10 13 12 11 14 9 17
REMARK Flexibility Score: inf
ROOT
ATOM      1  C   UNL     1       5.606  -3.523  -1.773  1.00  0.00     0.221 C 
ATOM      2  C   UNL     1       6.561  -2.337  -1.972  1.00  0.00     0.207 C 
ATOM      3  C   UNL     1       7.908  -2.997  -2.064  1.00  0.00     0.180 C 
ATOM      4  C   UNL     1       7.718  -4.244  -1.199  1.00  0.00     0.179 C 
ATOM      5  O   UNL     1       6.339  -4.537  -1.098  1.00  0.00    -0.337 OA
ENDROOT
BRANCH   1   6
ATOM      6  O   UNL     1       4.485  -3.052  -1.024  1.00  0.00    -0.349 OA
ATOM      7  C   UNL     1       3.392  -2.666  -1.830  1.00  0.00     0.198 C 
ENDBRANCH   1   6
BRANCH   1   8
ATOM      8  C   UNL     1       5.107  -4.088  -3.125  1.00  0.00     0.224 C 
BRANCH   8   9
ATOM      9  O   UNL     1       5.173  -5.487  -3.123  1.00  0.00    -0.391 OA
ATOM     10  H   UNL     1       4.602  -5.790  -2.369  1.00  0.00     0.210 HD
ENDBRANCH   8   9
ENDBRANCH   1   8
BRANCH   2  11
ATOM     11  O   UNL     1       6.265  -1.589  -3.125  1.00  0.00    -0.385 OA
ATOM     12  H   UNL     1       6.165  -2.242  -3.865  1.00  0.00     0.211 HD
ENDBRANCH   2  11
BRANCH   3  13
ATOM     13  O   UNL     1       8.903  -2.155  -1.543  1.00  0.00    -0.387 OA
ATOM     14  H   UNL     1       8.538  -1.773  -0.703  1.00  0.00     0.211 HD
ENDBRANCH   3  13
BRANCH   4  15
ATOM     15  C   UNL     1       8.455  -5.467  -1.764  1.00  0.00     0.191 C 
BRANCH  15  16
ATOM     16  O   UNL     1       7.562  -6.513  -2.033  1.00  0.00    -0.394 OA
ATOM     17  H   UNL     1       6.973  -6.202  -2.769  1.00  0.00     0.210 HD
ENDBRANCH  15  16
ENDBRANCH   4  15
TORSDOF 7
ENDMDL
