MODEL 1
REMARK VINA RESULT:    -5.859      0.000      0.000
REMARK INTER + INTRA:          -7.351
REMARK INTER:                  -7.057
REMARK INTRA:                  -0.293
REMARK UNBOUND:                -0.293
REMARK SMILES O=c1c(O)c(-c2ccc(O)c(O)c2)oc2cc(O)cc(O)c12
REMARK SMILES IDX 5 1 3 2 2 3 1 4 22 5 20 6 19 7 17 8 16 9 15 10 14 11 6 12
REMARK SMILES IDX 7 13 8 14 9 15 13 16 11 17 10 18 12 20 4 22 21 24 18 26
REMARK H PARENT 10 19 12 21 4 23 21 25 18 27
REMARK Flexibility Score: inf
ROOT
ATOM      1  C   UNL     1      29.056  10.625  27.184  1.00  0.00     0.180 A 
ATOM      2  C   UNL     1      28.849   9.378  26.571  1.00  0.00     0.208 A 
ATOM      3  C   UNL     1      29.192   8.209  27.269  1.00  0.00     0.238 A 
ATOM      4  O   UNL     1      28.954   7.094  26.736  1.00  0.00    -0.285 OA
ATOM      5  C   UNL     1      29.754   8.303  28.566  1.00  0.00     0.111 A 
ATOM      6  C   UNL     1      30.175   7.187  29.349  1.00  0.00     0.134 A 
ATOM      7  C   UNL     1      30.595   7.389  30.670  1.00  0.00     0.093 A 
ATOM      8  C   UNL     1      30.669   8.671  31.214  1.00  0.00     0.123 A 
ATOM      9  C   UNL     1      30.316   9.776  30.436  1.00  0.00     0.094 A 
ATOM     10  C   UNL     1      29.859   9.602  29.128  1.00  0.00     0.146 A 
ATOM     11  O   UNL     1      29.523  10.677  28.426  1.00  0.00    -0.452 OA
ENDROOT
BRANCH   1  12
ATOM     12  C   UNL     1      28.743  11.901  26.501  1.00  0.00     0.025 A 
ATOM     13  C   UNL     1      27.605  12.628  26.882  1.00  0.00     0.016 A 
ATOM     14  C   UNL     1      27.301  13.844  26.265  1.00  0.00     0.051 A 
ATOM     15  C   UNL     1      28.140  14.360  25.268  1.00  0.00     0.157 A 
ATOM     16  C   UNL     1      29.593  12.431  25.513  1.00  0.00     0.062 A 
ATOM     17  C   UNL     1      29.294  13.651  24.895  1.00  0.00     0.158 A 
BRANCH  15  18
ATOM     18  O   UNL     1      27.835  15.573  24.654  1.00  0.00    -0.504 OA
ATOM     19  H   UNL     1      26.880  15.825  24.424  1.00  0.00     0.293 HD
ENDBRANCH  15  18
BRANCH  17  20
ATOM     20  O   UNL     1      30.157  14.144  23.916  1.00  0.00    -0.504 OA
ATOM     21  H   UNL     1      29.816  14.574  23.066  1.00  0.00     0.293 HD
ENDBRANCH  17  20
ENDBRANCH   1  12
BRANCH   2  22
ATOM     22  O   UNL     1      28.274   9.306  25.299  1.00  0.00    -0.502 OA
ATOM     23  H   UNL     1      28.227   8.444  24.770  1.00  0.00     0.293 HD
ENDBRANCH   2  22
BRANCH   6  24
ATOM     24  O   UNL     1      30.227   5.875  28.873  1.00  0.00    -0.507 OA
ATOM     25  H   UNL     1      31.046   5.286  28.895  1.00  0.00     0.293 HD
ENDBRANCH   6  24
BRANCH   8  26
ATOM     26  O   UNL     1      31.106   8.837  32.526  1.00  0.00    -0.508 OA
ATOM     27  H   UNL     1      30.484   9.172  33.253  1.00  0.00     0.293 HD
ENDBRANCH   8  26
TORSDOF 6
ENDMDL
MODEL 2
REMARK VINA RESULT:    -5.776      2.461      7.214
REMARK INTER + INTRA:          -7.251
REMARK INTER:                  -6.999
REMARK INTRA:                  -0.253
REMARK UNBOUND:                -0.293
REMARK SMILES O=c1c(O)c(-c2ccc(O)c(O)c2)oc2cc(O)cc(O)c12
REMARK SMILES IDX 5 1 3 2 2 3 1 4 22 5 20 6 19 7 17 8 16 9 15 10 14 11 6 12
REMARK SMILES IDX 7 13 8 14 9 15 13 16 11 17 10 18 12 20 4 22 21 24 18 26
REMARK H PARENT 10 19 12 21 4 23 21 25 18 27
REMARK Flexibility Score: inf
ROOT
ATOM      1  C   UNL     1      30.668   8.535  30.972  1.00  0.00     0.180 A 
ATOM      2  C   UNL     1      30.958   7.270  30.433  1.00  0.00     0.208 A 
ATOM      3  C   UNL     1      30.593   6.995  29.106  1.00  0.00     0.238 A 
ATOM      4  O   UNL     1      30.904   5.879  28.612  1.00  0.00    -0.285 OA
ATOM      5  C   UNL     1      29.927   7.982  28.339  1.00  0.00     0.111 A 
ATOM      6  C   UNL     1      29.476   7.798  26.997  1.00  0.00     0.134 A 
ATOM      7  C   UNL     1      28.946   8.886  26.292  1.00  0.00     0.093 A 
ATOM      8  C   UNL     1      28.793  10.132  26.898  1.00  0.00     0.123 A 
ATOM      9  C   UNL     1      29.177  10.307  28.229  1.00  0.00     0.094 A 
ATOM     10  C   UNL     1      29.741   9.250  28.947  1.00  0.00     0.146 A 
ATOM     11  O   UNL     1      30.102   9.461  30.207  1.00  0.00    -0.452 OA
ENDROOT
BRANCH   1  12
ATOM     12  C   UNL     1      30.999   8.890  32.371  1.00  0.00     0.025 A 
ATOM     13  C   UNL     1      32.000   9.841  32.624  1.00  0.00     0.016 A 
ATOM     14  C   UNL     1      32.314  10.207  33.935  1.00  0.00     0.051 A 
ATOM     15  C   UNL     1      31.622   9.639  35.013  1.00  0.00     0.157 A 
ATOM     16  C   UNL     1      30.293   8.337  33.454  1.00  0.00     0.062 A 
ATOM     17  C   UNL     1      30.603   8.703  34.769  1.00  0.00     0.158 A 
BRANCH  15  18
ATOM     18  O   UNL     1      31.939  10.004  36.320  1.00  0.00    -0.504 OA
ATOM     19  H   UNL     1      32.898  10.036  36.644  1.00  0.00     0.293 HD
ENDBRANCH  15  18
BRANCH  17  20
ATOM     20  O   UNL     1      29.886   8.130  35.819  1.00  0.00    -0.504 OA
ATOM     21  H   UNL     1      28.878   8.036  35.795  1.00  0.00     0.293 HD
ENDBRANCH  17  20
ENDBRANCH   1  12
BRANCH   2  22
ATOM     22  O   UNL     1      31.635   6.317  31.200  1.00  0.00    -0.502 OA
ATOM     23  H   UNL     1      31.601   6.308  32.211  1.00  0.00     0.293 HD
ENDBRANCH   2  22
BRANCH   6  24
ATOM     24  O   UNL     1      29.498   6.572  26.328  1.00  0.00    -0.507 OA
ATOM     25  H   UNL     1      28.810   5.843  26.439  1.00  0.00     0.293 HD
ENDBRANCH   6  24
BRANCH   8  26
ATOM     26  O   UNL     1      28.248  11.188  26.171  1.00  0.00    -0.508 OA
ATOM     27  H   UNL     1      28.098  12.099  26.591  1.00  0.00     0.293 HD
ENDBRANCH   8  26
TORSDOF 6
ENDMDL
MODEL 3
REMARK VINA RESULT:    -5.722      1.572      1.630
REMARK INTER + INTRA:          -7.185
REMARK INTER:                  -6.909
REMARK INTRA:                  -0.276
REMARK UNBOUND:                -0.293
REMARK SMILES O=c1c(O)c(-c2ccc(O)c(O)c2)oc2cc(O)cc(O)c12
REMARK SMILES IDX 5 1 3 2 2 3 1 4 22 5 20 6 19 7 17 8 16 9 15 10 14 11 6 12
REMARK SMILES IDX 7 13 8 14 9 15 13 16 11 17 10 18 12 20 4 22 21 24 18 26
REMARK H PARENT 10 19 12 21 4 23 21 25 18 27
REMARK Flexibility Score: inf
ROOT
ATOM      1  C   UNL     1      29.130  11.204  28.105  1.00  0.00     0.180 A 
ATOM      2  C   UNL     1      28.866  10.272  27.087  1.00  0.00     0.208 A 
ATOM      3  C   UNL     1      29.201   8.925  27.293  1.00  0.00     0.238 A 
ATOM      4  O   UNL     1      28.913   8.086  26.399  1.00  0.00    -0.285 OA
ATOM      5  C   UNL     1      29.810   8.528  28.509  1.00  0.00     0.111 A 
ATOM      6  C   UNL     1      30.228   7.196  28.809  1.00  0.00     0.134 A 
ATOM      7  C   UNL     1      30.700   6.894  30.093  1.00  0.00     0.093 A 
ATOM      8  C   UNL     1      30.829   7.885  31.065  1.00  0.00     0.123 A 
ATOM      9  C   UNL     1      30.479   9.203  30.762  1.00  0.00     0.094 A 
ATOM     10  C   UNL     1      29.972   9.528  29.502  1.00  0.00     0.146 A 
ATOM     11  O   UNL     1      29.641  10.790  29.259  1.00  0.00    -0.452 OA
ENDROOT
BRANCH   1  12
ATOM     12  C   UNL     1      28.829  12.645  27.951  1.00  0.00     0.025 A 
ATOM     13  C   UNL     1      27.765  13.210  28.672  1.00  0.00     0.016 A 
ATOM     14  C   UNL     1      27.476  14.572  28.558  1.00  0.00     0.051 A 
ATOM     15  C   UNL     1      28.256  15.394  27.734  1.00  0.00     0.157 A 
ATOM     16  C   UNL     1      29.622  13.477  27.140  1.00  0.00     0.062 A 
ATOM     17  C   UNL     1      29.337  14.843  27.026  1.00  0.00     0.158 A 
BRANCH  15  18
ATOM     18  O   UNL     1      27.964  16.752  27.620  1.00  0.00    -0.504 OA
ATOM     19  H   UNL     1      28.576  17.460  28.010  1.00  0.00     0.293 HD
ENDBRANCH  15  18
BRANCH  17  20
ATOM     20  O   UNL     1      30.142  15.637  26.208  1.00  0.00    -0.504 OA
ATOM     21  H   UNL     1      30.422  15.342  25.281  1.00  0.00     0.293 HD
ENDBRANCH  17  20
ENDBRANCH   1  12
BRANCH   2  22
ATOM     22  O   UNL     1      28.245  10.680  25.903  1.00  0.00    -0.502 OA
ATOM     23  H   UNL     1      27.552  11.418  25.878  1.00  0.00     0.293 HD
ENDBRANCH   2  22
BRANCH   6  24
ATOM     24  O   UNL     1      30.226   6.151  27.883  1.00  0.00    -0.507 OA
ATOM     25  H   UNL     1      29.400   5.675  27.553  1.00  0.00     0.293 HD
ENDBRANCH   6  24
BRANCH   8  26
ATOM     26  O   UNL     1      31.316   7.551  32.327  1.00  0.00    -0.508 OA
ATOM     27  H   UNL     1      32.275   7.251  32.462  1.00  0.00     0.293 HD
ENDBRANCH   8  26
TORSDOF 6
ENDMDL
MODEL 4
REMARK VINA RESULT:    -5.704      1.702      2.123
REMARK INTER + INTRA:          -7.164
REMARK INTER:                  -6.922
REMARK INTRA:                  -0.242
REMARK UNBOUND:                -0.293
REMARK SMILES O=c1c(O)c(-c2ccc(O)c(O)c2)oc2cc(O)cc(O)c12
REMARK SMILES IDX 5 1 3 2 2 3 1 4 22 5 20 6 19 7 17 8 16 9 15 10 14 11 6 12
REMARK SMILES IDX 7 13 8 14 9 15 13 16 11 17 10 18 12 20 4 22 21 24 18 26
REMARK H PARENT 10 19 12 21 4 23 21 25 18 27
REMARK Flexibility Score: inf
ROOT
ATOM      1  C   UNL     1      29.577  10.334  29.047  1.00  0.00     0.180 A 
ATOM      2  C   UNL     1      29.670   9.091  28.399  1.00  0.00     0.208 A 
ATOM      3  C   UNL     1      30.205   7.997  29.097  1.00  0.00     0.238 A 
ATOM      4  O   UNL     1      30.236   6.874  28.529  1.00  0.00    -0.285 OA
ATOM      5  C   UNL     1      30.655   8.162  30.430  1.00  0.00     0.111 A 
ATOM      6  C   UNL     1      31.250   7.132  31.218  1.00  0.00     0.134 A 
ATOM      7  C   UNL     1      31.538   7.375  32.568  1.00  0.00     0.093 A 
ATOM      8  C   UNL     1      31.313   8.627  33.138  1.00  0.00     0.123 A 
ATOM      9  C   UNL     1      30.786   9.659  32.360  1.00  0.00     0.094 A 
ATOM     10  C   UNL     1      30.455   9.437  31.021  1.00  0.00     0.146 A 
ATOM     11  O   UNL     1      29.946  10.442  30.318  1.00  0.00    -0.452 OA
ENDROOT
BRANCH   1  12
ATOM     12  C   UNL     1      29.049  11.539  28.369  1.00  0.00     0.025 A 
ATOM     13  C   UNL     1      27.668  11.659  28.150  1.00  0.00     0.016 A 
ATOM     14  C   UNL     1      27.145  12.797  27.530  1.00  0.00     0.051 A 
ATOM     15  C   UNL     1      27.994  13.840  27.134  1.00  0.00     0.157 A 
ATOM     16  C   UNL     1      29.895  12.596  27.988  1.00  0.00     0.062 A 
ATOM     17  C   UNL     1      29.375  13.739  27.370  1.00  0.00     0.158 A 
BRANCH  15  18
ATOM     18  O   UNL     1      27.470  14.973  26.514  1.00  0.00    -0.504 OA
ATOM     19  H   UNL     1      27.854  15.328  25.646  1.00  0.00     0.293 HD
ENDBRANCH  15  18
BRANCH  17  20
ATOM     20  O   UNL     1      30.245  14.765  27.000  1.00  0.00    -0.504 OA
ATOM     21  H   UNL     1      31.235  14.606  26.860  1.00  0.00     0.293 HD
ENDBRANCH  17  20
ENDBRANCH   1  12
BRANCH   2  22
ATOM     22  O   UNL     1      29.201   8.943  27.091  1.00  0.00    -0.502 OA
ATOM     23  H   UNL     1      29.777   8.577  26.344  1.00  0.00     0.293 HD
ENDBRANCH   2  22
BRANCH   6  24
ATOM     24  O   UNL     1      31.602   5.875  30.722  1.00  0.00    -0.507 OA
ATOM     25  H   UNL     1      32.544   5.516  30.677  1.00  0.00     0.293 HD
ENDBRANCH   6  24
BRANCH   8  26
ATOM     26  O   UNL     1      31.625   8.837  34.480  1.00  0.00    -0.508 OA
ATOM     27  H   UNL     1      32.568   9.063  34.775  1.00  0.00     0.293 HD
ENDBRANCH   8  26
TORSDOF 6
ENDMDL
MODEL 5
REMARK VINA RESULT:    -5.685      2.779      3.865
REMARK INTER + INTRA:          -7.142
REMARK INTER:                  -6.842
REMARK INTRA:                  -0.300
REMARK UNBOUND:                -0.293
REMARK SMILES O=c1c(O)c(-c2ccc(O)c(O)c2)oc2cc(O)cc(O)c12
REMARK SMILES IDX 5 1 3 2 2 3 1 4 22 5 20 6 19 7 17 8 16 9 15 10 14 11 6 12
REMARK SMILES IDX 7 13 8 14 9 15 13 16 11 17 10 18 12 20 4 22 21 24 18 26
REMARK H PARENT 10 19 12 21 4 23 21 25 18 27
REMARK Flexibility Score: inf
ROOT
ATOM      1  C   UNL     1      29.876   9.450  26.749  1.00  0.00     0.180 A 
ATOM      2  C   UNL     1      29.930   8.252  27.481  1.00  0.00     0.208 A 
ATOM      3  C   UNL     1      29.904   8.308  28.883  1.00  0.00     0.238 A 
ATOM      4  O   UNL     1      29.897   7.229  29.532  1.00  0.00    -0.285 OA
ATOM      5  C   UNL     1      29.841   9.563  29.537  1.00  0.00     0.111 A 
ATOM      6  C   UNL     1      29.850   9.740  30.954  1.00  0.00     0.134 A 
ATOM      7  C   UNL     1      29.652  11.018  31.491  1.00  0.00     0.093 A 
ATOM      8  C   UNL     1      29.510  12.132  30.665  1.00  0.00     0.123 A 
ATOM      9  C   UNL     1      29.560  11.978  29.278  1.00  0.00     0.094 A 
ATOM     10  C   UNL     1      29.720  10.711  28.713  1.00  0.00     0.146 A 
ATOM     11  O   UNL     1      29.751  10.606  27.390  1.00  0.00    -0.452 OA
ENDROOT
BRANCH   1  12
ATOM     12  C   UNL     1      29.925   9.473  25.270  1.00  0.00     0.025 A 
ATOM     13  C   UNL     1      28.747   9.706  24.543  1.00  0.00     0.016 A 
ATOM     14  C   UNL     1      28.774   9.752  23.146  1.00  0.00     0.051 A 
ATOM     15  C   UNL     1      29.981   9.581  22.456  1.00  0.00     0.157 A 
ATOM     16  C   UNL     1      31.139   9.322  24.574  1.00  0.00     0.062 A 
ATOM     17  C   UNL     1      31.169   9.371  23.175  1.00  0.00     0.158 A 
BRANCH  15  18
ATOM     18  O   UNL     1      30.005   9.626  21.064  1.00  0.00    -0.504 OA
ATOM     19  H   UNL     1      29.150   9.664  20.520  1.00  0.00     0.293 HD
ENDBRANCH  15  18
BRANCH  17  20
ATOM     20  O   UNL     1      32.390   9.211  22.519  1.00  0.00    -0.504 OA
ATOM     21  H   UNL     1      33.269   9.480  22.944  1.00  0.00     0.293 HD
ENDBRANCH  17  20
ENDBRANCH   1  12
BRANCH   2  22
ATOM     22  O   UNL     1      29.970   7.023  26.816  1.00  0.00    -0.502 OA
ATOM     23  H   UNL     1      30.835   6.603  26.501  1.00  0.00     0.293 HD
ENDBRANCH   2  22
BRANCH   6  24
ATOM     24  O   UNL     1      30.075   8.707  31.867  1.00  0.00    -0.507 OA
ATOM     25  H   UNL     1      30.831   8.684  32.535  1.00  0.00     0.293 HD
ENDBRANCH   6  24
BRANCH   8  26
ATOM     26  O   UNL     1      29.330  13.391  31.234  1.00  0.00    -0.508 OA
ATOM     27  H   UNL     1      29.086  14.198  30.670  1.00  0.00     0.293 HD
ENDBRANCH   8  26
TORSDOF 6
ENDMDL
MODEL 6
REMARK VINA RESULT:    -5.665      1.819      3.455
REMARK INTER + INTRA:          -7.117
REMARK INTER:                  -6.883
REMARK INTRA:                  -0.234
REMARK UNBOUND:                -0.293
REMARK SMILES O=c1c(O)c(-c2ccc(O)c(O)c2)oc2cc(O)cc(O)c12
REMARK SMILES IDX 5 1 3 2 2 3 1 4 22 5 20 6 19 7 17 8 16 9 15 10 14 11 6 12
REMARK SMILES IDX 7 13 8 14 9 15 13 16 11 17 10 18 12 20 4 22 21 24 18 26
REMARK H PARENT 10 19 12 21 4 23 21 25 18 27
REMARK Flexibility Score: inf
ROOT
ATOM      1  C   UNL     1      29.220  11.250  28.284  1.00  0.00     0.180 A 
ATOM      2  C   UNL     1      29.780  10.780  29.484  1.00  0.00     0.208 A 
ATOM      3  C   UNL     1      30.029   9.406  29.628  1.00  0.00     0.238 A 
ATOM      4  O   UNL     1      30.581   8.998  30.683  1.00  0.00    -0.285 OA
ATOM      5  C   UNL     1      29.700   8.516  28.575  1.00  0.00     0.111 A 
ATOM      6  C   UNL     1      29.872   7.101  28.627  1.00  0.00     0.134 A 
ATOM      7  C   UNL     1      29.634   6.334  27.479  1.00  0.00     0.093 A 
ATOM      8  C   UNL     1      29.171   6.922  26.304  1.00  0.00     0.123 A 
ATOM      9  C   UNL     1      28.942   8.299  26.260  1.00  0.00     0.094 A 
ATOM     10  C   UNL     1      29.204   9.094  27.378  1.00  0.00     0.146 A 
ATOM     11  O   UNL     1      28.984  10.401  27.292  1.00  0.00    -0.452 OA
ENDROOT
BRANCH   1  12
ATOM     12  C   UNL     1      28.906  12.681  28.069  1.00  0.00     0.025 A 
ATOM     13  C   UNL     1      27.837  13.266  28.765  1.00  0.00     0.016 A 
ATOM     14  C   UNL     1      27.535  14.619  28.593  1.00  0.00     0.051 A 
ATOM     15  C   UNL     1      28.307  15.412  27.733  1.00  0.00     0.157 A 
ATOM     16  C   UNL     1      29.691  13.484  27.222  1.00  0.00     0.062 A 
ATOM     17  C   UNL     1      29.394  14.841  27.050  1.00  0.00     0.158 A 
BRANCH  15  18
ATOM     18  O   UNL     1      28.003  16.761  27.562  1.00  0.00    -0.504 OA
ATOM     19  H   UNL     1      28.506  17.486  28.060  1.00  0.00     0.293 HD
ENDBRANCH  15  18
BRANCH  17  20
ATOM     20  O   UNL     1      30.190  15.606  26.198  1.00  0.00    -0.504 OA
ATOM     21  H   UNL     1      31.195  15.663  26.307  1.00  0.00     0.293 HD
ENDBRANCH  17  20
ENDBRANCH   1  12
BRANCH   2  22
ATOM     22  O   UNL     1      30.117  11.676  30.502  1.00  0.00    -0.502 OA
ATOM     23  H   UNL     1      30.707  11.417  31.283  1.00  0.00     0.293 HD
ENDBRANCH   2  22
BRANCH   6  24
ATOM     24  O   UNL     1      30.244   6.402  29.778  1.00  0.00    -0.507 OA
ATOM     25  H   UNL     1      30.660   6.820  30.597  1.00  0.00     0.293 HD
ENDBRANCH   6  24
BRANCH   8  26
ATOM     26  O   UNL     1      28.930   6.126  25.186  1.00  0.00    -0.508 OA
ATOM     27  H   UNL     1      29.036   5.118  25.220  1.00  0.00     0.293 HD
ENDBRANCH   8  26
TORSDOF 6
ENDMDL
MODEL 7
REMARK VINA RESULT:    -5.633      2.002      7.359
REMARK INTER + INTRA:          -7.079
REMARK INTER:                  -7.026
REMARK INTRA:                  -0.053
REMARK UNBOUND:                -0.293
REMARK SMILES O=c1c(O)c(-c2ccc(O)c(O)c2)oc2cc(O)cc(O)c12
REMARK SMILES IDX 5 1 3 2 2 3 1 4 22 5 20 6 19 7 17 8 16 9 15 10 14 11 6 12
REMARK SMILES IDX 7 13 8 14 9 15 13 16 11 17 10 18 12 20 4 22 21 24 18 26
REMARK H PARENT 10 19 12 21 4 23 21 25 18 27
REMARK Flexibility Score: inf
ROOT
ATOM      1  C   UNL     1      29.386  10.977  29.343  1.00  0.00     0.180 A 
ATOM      2  C   UNL     1      28.508  11.722  30.150  1.00  0.00     0.208 A 
ATOM      3  C   UNL     1      28.079  12.982  29.706  1.00  0.00     0.238 A 
ATOM      4  O   UNL     1      27.250  13.620  30.407  1.00  0.00    -0.285 OA
ATOM      5  C   UNL     1      28.544  13.490  28.468  1.00  0.00     0.111 A 
ATOM      6  C   UNL     1      28.205  14.772  27.939  1.00  0.00     0.134 A 
ATOM      7  C   UNL     1      28.619  15.116  26.646  1.00  0.00     0.093 A 
ATOM      8  C   UNL     1      29.411  14.254  25.890  1.00  0.00     0.123 A 
ATOM      9  C   UNL     1      29.798  13.022  26.421  1.00  0.00     0.094 A 
ATOM     10  C   UNL     1      29.371  12.636  27.694  1.00  0.00     0.146 A 
ATOM     11  O   UNL     1      29.752  11.452  28.158  1.00  0.00    -0.452 OA
ENDROOT
BRANCH   1  12
ATOM     12  C   UNL     1      29.903   9.653  29.755  1.00  0.00     0.025 A 
ATOM     13  C   UNL     1      29.823   8.572  28.863  1.00  0.00     0.016 A 
ATOM     14  C   UNL     1      30.323   7.318  29.223  1.00  0.00     0.051 A 
ATOM     15  C   UNL     1      30.925   7.129  30.475  1.00  0.00     0.157 A 
ATOM     16  C   UNL     1      30.525   9.464  31.003  1.00  0.00     0.062 A 
ATOM     17  C   UNL     1      31.030   8.210  31.365  1.00  0.00     0.158 A 
BRANCH  15  18
ATOM     18  O   UNL     1      31.421   5.877  30.832  1.00  0.00    -0.504 OA
ATOM     19  H   UNL     1      32.349   5.576  30.558  1.00  0.00     0.293 HD
ENDBRANCH  15  18
BRANCH  17  20
ATOM     20  O   UNL     1      31.635   8.059  32.613  1.00  0.00    -0.504 OA
ATOM     21  H   UNL     1      32.017   7.173  32.922  1.00  0.00     0.293 HD
ENDBRANCH  17  20
ENDBRANCH   1  12
BRANCH   2  22
ATOM     22  O   UNL     1      28.044  11.193  31.358  1.00  0.00    -0.502 OA
ATOM     23  H   UNL     1      28.635  11.101  32.174  1.00  0.00     0.293 HD
ENDBRANCH   2  22
BRANCH   6  24
ATOM     24  O   UNL     1      27.495  15.745  28.647  1.00  0.00    -0.507 OA
ATOM     25  H   UNL     1      26.612  15.590  29.110  1.00  0.00     0.293 HD
ENDBRANCH   6  24
BRANCH   8  26
ATOM     26  O   UNL     1      29.817  14.636  24.613  1.00  0.00    -0.508 OA
ATOM     27  H   UNL     1      29.173  14.635  23.830  1.00  0.00     0.293 HD
ENDBRANCH   8  26
TORSDOF 6
ENDMDL
MODEL 8
REMARK VINA RESULT:    -5.562      2.444      7.255
REMARK INTER + INTRA:          -6.993
REMARK INTER:                  -6.673
REMARK INTRA:                  -0.321
REMARK UNBOUND:                -0.293
REMARK SMILES O=c1c(O)c(-c2ccc(O)c(O)c2)oc2cc(O)cc(O)c12
REMARK SMILES IDX 5 1 3 2 2 3 1 4 22 5 20 6 19 7 17 8 16 9 15 10 14 11 6 12
REMARK SMILES IDX 7 13 8 14 9 15 13 16 11 17 10 18 12 20 4 22 21 24 18 26
REMARK H PARENT 10 19 12 21 4 23 21 25 18 27
REMARK Flexibility Score: inf
ROOT
ATOM      1  C   UNL     1      30.159  10.632  30.768  1.00  0.00     0.180 A 
ATOM      2  C   UNL     1      29.824  11.912  30.296  1.00  0.00     0.208 A 
ATOM      3  C   UNL     1      29.403  12.060  28.965  1.00  0.00     0.238 A 
ATOM      4  O   UNL     1      29.053  13.201  28.565  1.00  0.00    -0.285 OA
ATOM      5  C   UNL     1      29.338  10.928  28.117  1.00  0.00     0.111 A 
ATOM      6  C   UNL     1      28.964  10.968  26.740  1.00  0.00     0.134 A 
ATOM      7  C   UNL     1      28.808   9.769  26.032  1.00  0.00     0.093 A 
ATOM      8  C   UNL     1      29.075   8.539  26.632  1.00  0.00     0.123 A 
ATOM      9  C   UNL     1      29.499   8.493  27.961  1.00  0.00     0.094 A 
ATOM     10  C   UNL     1      29.629   9.669  28.703  1.00  0.00     0.146 A 
ATOM     11  O   UNL     1      30.024   9.581  29.967  1.00  0.00    -0.452 OA
ENDROOT
BRANCH   1  12
ATOM     12  C   UNL     1      30.634  10.400  32.151  1.00  0.00     0.025 A 
ATOM     13  C   UNL     1      31.996  10.561  32.449  1.00  0.00     0.016 A 
ATOM     14  C   UNL     1      32.464  10.368  33.752  1.00  0.00     0.051 A 
ATOM     15  C   UNL     1      31.574  10.026  34.779  1.00  0.00     0.157 A 
ATOM     16  C   UNL     1      29.741  10.076  33.188  1.00  0.00     0.062 A 
ATOM     17  C   UNL     1      30.205   9.885  34.495  1.00  0.00     0.158 A 
BRANCH  15  18
ATOM     18  O   UNL     1      32.043   9.832  36.076  1.00  0.00    -0.504 OA
ATOM     19  H   UNL     1      31.738  10.419  36.844  1.00  0.00     0.293 HD
ENDBRANCH  15  18
BRANCH  17  20
ATOM     20  O   UNL     1      29.292   9.558  35.497  1.00  0.00    -0.504 OA
ATOM     21  H   UNL     1      29.545   8.978  36.287  1.00  0.00     0.293 HD
ENDBRANCH  17  20
ENDBRANCH   1  12
BRANCH   2  22
ATOM     22  O   UNL     1      29.874  13.014  31.156  1.00  0.00    -0.502 OA
ATOM     23  H   UNL     1      29.444  13.901  30.929  1.00  0.00     0.293 HD
ENDBRANCH   2  22
BRANCH   6  24
ATOM     24  O   UNL     1      28.764  12.148  26.020  1.00  0.00    -0.507 OA
ATOM     25  H   UNL     1      28.115  12.876  26.278  1.00  0.00     0.293 HD
ENDBRANCH   6  24
BRANCH   8  26
ATOM     26  O   UNL     1      28.924   7.367  25.893  1.00  0.00    -0.508 OA
ATOM     27  H   UNL     1      28.047   6.859  25.879  1.00  0.00     0.293 HD
ENDBRANCH   8  26
TORSDOF 6
ENDMDL
MODEL 9
REMARK VINA RESULT:    -5.542      3.185      4.660
REMARK INTER + INTRA:          -6.969
REMARK INTER:                  -6.660
REMARK INTRA:                  -0.310
REMARK UNBOUND:                -0.293
REMARK SMILES O=c1c(O)c(-c2ccc(O)c(O)c2)oc2cc(O)cc(O)c12
REMARK SMILES IDX 5 1 3 2 2 3 1 4 22 5 20 6 19 7 17 8 16 9 15 10 14 11 6 12
REMARK SMILES IDX 7 13 8 14 9 15 13 16 11 17 10 18 12 20 4 22 21 24 18 26
REMARK H PARENT 10 19 12 21 4 23 21 25 18 27
REMARK Flexibility Score: inf
ROOT
ATOM      1  C   UNL     1      28.986  13.032  24.833  1.00  0.00     0.180 A 
ATOM      2  C   UNL     1      30.053  12.929  23.924  1.00  0.00     0.208 A 
ATOM      3  C   UNL     1      30.654  11.678  23.716  1.00  0.00     0.238 A 
ATOM      4  O   UNL     1      31.573  11.583  22.861  1.00  0.00    -0.285 OA
ATOM      5  C   UNL     1      30.192  10.547  24.432  1.00  0.00     0.111 A 
ATOM      6  C   UNL     1      30.753   9.238  24.330  1.00  0.00     0.134 A 
ATOM      7  C   UNL     1      30.132   8.168  24.986  1.00  0.00     0.093 A 
ATOM      8  C   UNL     1      29.011   8.368  25.790  1.00  0.00     0.123 A 
ATOM      9  C   UNL     1      28.489   9.654  25.944  1.00  0.00     0.094 A 
ATOM     10  C   UNL     1      29.065  10.736  25.274  1.00  0.00     0.146 A 
ATOM     11  O   UNL     1      28.533  11.941  25.439  1.00  0.00    -0.452 OA
ENDROOT
BRANCH   1  12
ATOM     12  C   UNL     1      28.319  14.321  25.123  1.00  0.00     0.025 A 
ATOM     13  C   UNL     1      27.281  14.765  24.289  1.00  0.00     0.016 A 
ATOM     14  C   UNL     1      26.624  15.969  24.557  1.00  0.00     0.051 A 
ATOM     15  C   UNL     1      26.983  16.739  25.671  1.00  0.00     0.157 A 
ATOM     16  C   UNL     1      28.664  15.086  26.252  1.00  0.00     0.062 A 
ATOM     17  C   UNL     1      28.005  16.291  26.525  1.00  0.00     0.158 A 
BRANCH  15  18
ATOM     18  O   UNL     1      26.327  17.939  25.934  1.00  0.00    -0.504 OA
ATOM     19  H   UNL     1      26.744  18.834  25.702  1.00  0.00     0.293 HD
ENDBRANCH  15  18
BRANCH  17  20
ATOM     20  O   UNL     1      28.377  17.027  27.650  1.00  0.00    -0.504 OA
ATOM     21  H   UNL     1      28.519  16.593  28.554  1.00  0.00     0.293 HD
ENDBRANCH  17  20
ENDBRANCH   1  12
BRANCH   2  22
ATOM     22  O   UNL     1      30.480  14.054  23.211  1.00  0.00    -0.502 OA
ATOM     23  H   UNL     1      31.434  14.390  23.246  1.00  0.00     0.293 HD
ENDBRANCH   2  22
BRANCH   6  24
ATOM     24  O   UNL     1      31.924   8.945  23.627  1.00  0.00    -0.507 OA
ATOM     25  H   UNL     1      32.840   8.865  24.043  1.00  0.00     0.293 HD
ENDBRANCH   6  24
BRANCH   8  26
ATOM     26  O   UNL     1      28.428   7.283  26.440  1.00  0.00    -0.508 OA
ATOM     27  H   UNL     1      28.961   6.694  27.071  1.00  0.00     0.293 HD
ENDBRANCH   8  26
TORSDOF 6
ENDMDL
