MODEL 1
REMARK VINA RESULT:     1.141      0.000      0.000
REMARK INTER + INTRA:           1.548
REMARK INTER:                   1.241
REMARK INTRA:                   0.307
REMARK UNBOUND:                 0.307
REMARK SMILES CC(=O)[C@@H]1CC[C@H]2[C@H]3CC=C4C[C@H](O)CC[C@]4(C)[C@H]3CC[C@@]12C
REMARK SMILES IDX 4 1 5 2 6 3 7 4 22 5 21 6 20 7 19 8 8 9 9 10 10 11 11 12
REMARK SMILES IDX 17 13 16 14 15 15 13 16 12 17 18 18 23 19 2 20 1 21 3 22
REMARK SMILES IDX 14 23
REMARK H PARENT 14 24
REMARK Flexibility Score: inf
ROOT
ATOM      1  C   UNL     1      -5.028  33.909  26.551  1.00  0.00     0.062 C 
ATOM      2  C   UNL     1      -3.747  34.057  27.374  1.00  0.00     0.012 C 
ATOM      3  C   UNL     1      -2.960  32.761  27.192  1.00  0.00     0.005 C 
ATOM      4  C   UNL     1      -3.887  31.754  26.479  1.00  0.00    -0.001 C 
ATOM      5  C   UNL     1      -5.311  32.375  26.514  1.00  0.00    -0.020 C 
ATOM      6  C   UNL     1      -6.125  31.938  27.789  1.00  0.00     0.008 C 
ATOM      7  C   UNL     1      -5.279  31.299  28.895  1.00  0.00     0.005 C 
ATOM      8  C   UNL     1      -4.562  30.035  28.369  1.00  0.00     0.003 C 
ATOM      9  C   UNL     1      -3.819  30.289  27.007  1.00  0.00     0.000 C 
ATOM     10  C   UNL     1      -2.387  29.728  26.953  1.00  0.00     0.031 C 
ATOM     11  C   UNL     1      -2.298  28.390  27.620  1.00  0.00    -0.027 C 
ATOM     12  C   UNL     1      -2.907  28.146  28.796  1.00  0.00    -0.065 C 
ATOM     13  C   UNL     1      -3.744  29.244  29.473  1.00  0.00    -0.008 C 
ATOM     14  C   UNL     1      -4.763  28.609  30.481  1.00  0.00     0.014 C 
ATOM     15  C   UNL     1      -4.179  27.477  31.332  1.00  0.00     0.033 C 
ATOM     16  C   UNL     1      -3.631  26.356  30.444  1.00  0.00     0.118 C 
ATOM     17  C   UNL     1      -2.512  26.888  29.548  1.00  0.00     0.063 C 
ATOM     18  C   UNL     1      -2.782  30.164  30.267  1.00  0.00     0.016 C 
ATOM     19  C   UNL     1      -6.125  31.957  25.260  1.00  0.00     0.012 C 
ENDROOT
BRANCH   1  20
ATOM     20  C   UNL     1      -4.839  34.546  25.182  1.00  0.00     0.133 C 
ATOM     21  C   UNL     1      -5.508  35.848  24.858  1.00  0.00     0.088 C 
ATOM     22  O   UNL     1      -4.125  34.013  24.343  1.00  0.00    -0.300 OA
ENDBRANCH   1  20
BRANCH  16  23
ATOM     23  O   UNL     1      -4.650  25.806  29.649  1.00  0.00    -0.393 OA
ATOM     24  H   UNL     1      -5.498  25.915  30.154  1.00  0.00     0.210 HD
ENDBRANCH  16  23
TORSDOF 2
ENDMDL
MODEL 2
REMARK VINA RESULT:     2.914      1.462      6.838
REMARK INTER + INTRA:           3.476
REMARK INTER:                   3.241
REMARK INTRA:                   0.236
REMARK UNBOUND:                 0.307
REMARK SMILES CC(=O)[C@@H]1CC[C@H]2[C@H]3CC=C4C[C@H](O)CC[C@]4(C)[C@H]3CC[C@@]12C
REMARK SMILES IDX 4 1 5 2 6 3 7 4 22 5 21 6 20 7 19 8 8 9 9 10 10 11 11 12
REMARK SMILES IDX 17 13 16 14 15 15 13 16 12 17 18 18 23 19 2 20 1 21 3 22
REMARK SMILES IDX 14 23
REMARK H PARENT 14 24
REMARK Flexibility Score: inf
ROOT
ATOM      1  C   UNL     1      -4.446  28.319  28.847  1.00  0.00     0.062 C 
ATOM      2  C   UNL     1      -3.481  28.363  27.662  1.00  0.00     0.012 C 
ATOM      3  C   UNL     1      -2.853  29.755  27.661  1.00  0.00     0.005 C 
ATOM      4  C   UNL     1      -3.634  30.613  28.680  1.00  0.00    -0.001 C 
ATOM      5  C   UNL     1      -4.902  29.798  29.053  1.00  0.00    -0.020 C 
ATOM      6  C   UNL     1      -6.125  30.128  28.117  1.00  0.00     0.008 C 
ATOM      7  C   UNL     1      -5.760  30.892  26.840  1.00  0.00     0.005 C 
ATOM      8  C   UNL     1      -5.086  32.239  27.187  1.00  0.00     0.003 C 
ATOM      9  C   UNL     1      -3.927  32.078  28.236  1.00  0.00     0.000 C 
ATOM     10  C   UNL     1      -2.637  32.836  27.875  1.00  0.00     0.031 C 
ATOM     11  C   UNL     1      -2.938  34.180  27.286  1.00  0.00    -0.027 C 
ATOM     12  C   UNL     1      -3.912  34.348  26.371  1.00  0.00    -0.065 C 
ATOM     13  C   UNL     1      -4.767  33.149  25.928  1.00  0.00    -0.008 C 
ATOM     14  C   UNL     1      -6.125  33.643  25.320  1.00  0.00     0.014 C 
ATOM     15  C   UNL     1      -5.991  34.855  24.392  1.00  0.00     0.033 C 
ATOM     16  C   UNL     1      -5.344  36.034  25.127  1.00  0.00     0.118 C 
ATOM     17  C   UNL     1      -3.941  35.656  25.603  1.00  0.00     0.063 C 
ATOM     18  C   UNL     1      -3.990  32.382  24.827  1.00  0.00     0.016 C 
ATOM     19  C   UNL     1      -5.329  30.083  30.518  1.00  0.00     0.012 C 
ENDROOT
BRANCH   1  20
ATOM     20  C   UNL     1      -3.755  27.702  30.054  1.00  0.00     0.133 C 
ATOM     21  C   UNL     1      -2.281  27.883  30.252  1.00  0.00     0.088 C 
ATOM     22  O   UNL     1      -4.399  27.070  30.881  1.00  0.00    -0.300 OA
ENDBRANCH   1  20
BRANCH  16  23
ATOM     23  O   UNL     1      -6.125  36.426  26.227  1.00  0.00    -0.393 OA
ATOM     24  H   UNL     1      -6.332  37.389  26.102  1.00  0.00     0.210 HD
ENDBRANCH  16  23
TORSDOF 2
ENDMDL
MODEL 3
REMARK VINA RESULT:     3.612      1.437      6.874
REMARK INTER + INTRA:           4.236
REMARK INTER:                   3.875
REMARK INTRA:                   0.360
REMARK UNBOUND:                 0.307
REMARK SMILES CC(=O)[C@@H]1CC[C@H]2[C@H]3CC=C4C[C@H](O)CC[C@]4(C)[C@H]3CC[C@@]12C
REMARK SMILES IDX 4 1 5 2 6 3 7 4 22 5 21 6 20 7 19 8 8 9 9 10 10 11 11 12
REMARK SMILES IDX 17 13 16 14 15 15 13 16 12 17 18 18 23 19 2 20 1 21 3 22
REMARK SMILES IDX 14 23
REMARK H PARENT 14 24
REMARK Flexibility Score: inf
ROOT
ATOM      1  C   UNL     1      -1.449  27.704  30.273  1.00  0.00     0.062 C 
ATOM      2  C   UNL     1      -1.468  29.051  30.997  1.00  0.00     0.012 C 
ATOM      3  C   UNL     1      -2.856  29.648  30.773  1.00  0.00     0.005 C 
ATOM      4  C   UNL     1      -3.563  28.782  29.709  1.00  0.00    -0.001 C 
ATOM      5  C   UNL     1      -2.470  27.858  29.104  1.00  0.00    -0.020 C 
ATOM      6  C   UNL     1      -1.770  28.500  27.848  1.00  0.00     0.008 C 
ATOM      7  C   UNL     1      -2.028  30.001  27.673  1.00  0.00     0.005 C 
ATOM      8  C   UNL     1      -3.542  30.277  27.530  1.00  0.00     0.003 C 
ATOM      9  C   UNL     1      -4.390  29.568  28.647  1.00  0.00     0.000 C 
ATOM     10  C   UNL     1      -5.453  30.468  29.302  1.00  0.00     0.031 C 
ATOM     11  C   UNL     1      -6.125  31.347  28.292  1.00  0.00    -0.027 C 
ATOM     12  C   UNL     1      -5.424  31.984  27.334  1.00  0.00    -0.065 C 
ATOM     13  C   UNL     1      -3.901  31.794  27.239  1.00  0.00    -0.008 C 
ATOM     14  C   UNL     1      -3.396  32.153  25.799  1.00  0.00     0.014 C 
ATOM     15  C   UNL     1      -4.035  33.413  25.207  1.00  0.00     0.033 C 
ATOM     16  C   UNL     1      -5.560  33.276  25.154  1.00  0.00     0.118 C 
ATOM     17  C   UNL     1      -6.125  33.086  26.562  1.00  0.00     0.063 C 
ATOM     18  C   UNL     1      -3.230  32.763  28.246  1.00  0.00     0.016 C 
ATOM     19  C   UNL     1      -3.078  26.497  28.670  1.00  0.00     0.012 C 
ENDROOT
BRANCH   1  20
ATOM     20  C   UNL     1      -1.780  26.587  31.252  1.00  0.00     0.133 C 
ATOM     21  C   UNL     1      -0.690  25.711  31.791  1.00  0.00     0.088 C 
ATOM     22  O   UNL     1      -2.932  26.407  31.621  1.00  0.00    -0.300 OA
ENDBRANCH   1  20
BRANCH  16  23
ATOM     23  O   UNL     1      -5.936  32.190  24.345  1.00  0.00    -0.393 OA
ATOM     24  H   UNL     1      -5.497  32.324  23.464  1.00  0.00     0.210 HD
ENDBRANCH  16  23
TORSDOF 2
ENDMDL
