MODEL 1
REMARK VINA RESULT:    -3.086      0.000      0.000
REMARK INTER + INTRA:          -4.773
REMARK INTER:                  -4.348
REMARK INTRA:                  -0.424
REMARK UNBOUND:                -0.424
REMARK SMILES CCCCCCCCC(=O)[O-]
REMARK SMILES IDX 6 1 7 2 8 3 9 4 10 5 11 6 5 7 4 8 3 9 2 10 1 11
REMARK H PARENT
REMARK Flexibility Score: inf
ROOT
ATOM      1  C   UNL     1      12.087  42.971 151.805  1.00  0.00     0.000 C 
ENDROOT
BRANCH   1   2
ATOM      2  C   UNL     1      12.162  42.600 153.300  1.00  0.00     0.006 C 
BRANCH   2   3
ATOM      3  C   UNL     1      11.097  43.277 154.175  1.00  0.00     0.053 C 
BRANCH   3   4
ATOM      4  C   UNL     1      10.232  42.277 154.879  1.00  0.00     0.041 C 
ATOM      5  O   UNL     1       9.557  41.445 154.217  1.00  0.00    -0.550 OA
ATOM      6  O   UNL     1      10.199  42.240 156.267  1.00  0.00    -0.550 OA
ENDBRANCH   3   4
ENDBRANCH   2   3
ENDBRANCH   1   2
BRANCH   1   7
ATOM      7  C   UNL     1      11.808  41.791 150.853  1.00  0.00     0.000 C 
BRANCH   7   8
ATOM      8  C   UNL     1      12.004  40.392 151.471  1.00  0.00    -0.000 C 
BRANCH   8   9
ATOM      9  C   UNL     1      10.883  39.383 151.163  1.00  0.00    -0.000 C 
BRANCH   9  10
ATOM     10  C   UNL     1      11.205  38.484 149.959  1.00  0.00    -0.003 C 
ATOM     11  C   UNL     1      12.708  38.250 149.836  1.00  0.00     0.004 C 
ENDBRANCH   9  10
ENDBRANCH   8   9
ENDBRANCH   7   8
ENDBRANCH   1   7
TORSDOF 7
ENDMDL
MODEL 2
REMARK VINA RESULT:    -3.018      2.981      5.323
REMARK INTER + INTRA:          -4.677
REMARK INTER:                  -4.008
REMARK INTRA:                  -0.669
REMARK UNBOUND:                -0.424
REMARK SMILES CCCCCCCCC(=O)[O-]
REMARK SMILES IDX 6 1 7 2 8 3 9 4 10 5 11 6 5 7 4 8 3 9 2 10 1 11
REMARK H PARENT
REMARK Flexibility Score: inf
ROOT
ATOM      1  C   UNL     1       9.950  40.151 152.979  1.00  0.00     0.000 C 
ENDROOT
BRANCH   1   2
ATOM      2  C   UNL     1      10.438  40.377 151.534  1.00  0.00     0.006 C 
BRANCH   2   3
ATOM      3  C   UNL     1      11.827  39.793 151.234  1.00  0.00     0.053 C 
BRANCH   3   4
ATOM      4  C   UNL     1      11.790  38.814 150.101  1.00  0.00     0.041 C 
ATOM      5  O   UNL     1      10.886  37.938 150.049  1.00  0.00    -0.550 OA
ATOM      6  O   UNL     1      12.732  38.892 149.083  1.00  0.00    -0.550 OA
ENDBRANCH   3   4
ENDBRANCH   2   3
ENDBRANCH   1   2
BRANCH   1   7
ATOM      7  C   UNL     1       9.273  41.370 153.637  1.00  0.00     0.000 C 
BRANCH   7   8
ATOM      8  C   UNL     1      10.108  42.074 154.724  1.00  0.00    -0.000 C 
BRANCH   8   9
ATOM      9  C   UNL     1      10.830  43.352 154.262  1.00  0.00    -0.000 C 
BRANCH   9  10
ATOM     10  C   UNL     1      12.275  43.090 153.811  1.00  0.00    -0.003 C 
ATOM     11  C   UNL     1      12.470  43.471 152.346  1.00  0.00     0.004 C 
ENDBRANCH   9  10
ENDBRANCH   8   9
ENDBRANCH   7   8
ENDBRANCH   1   7
TORSDOF 7
ENDMDL
MODEL 3
REMARK VINA RESULT:    -3.012      2.049      3.015
REMARK INTER + INTRA:          -4.668
REMARK INTER:                  -4.366
REMARK INTRA:                  -0.302
REMARK UNBOUND:                -0.424
REMARK SMILES CCCCCCCCC(=O)[O-]
REMARK SMILES IDX 6 1 7 2 8 3 9 4 10 5 11 6 5 7 4 8 3 9 2 10 1 11
REMARK H PARENT
REMARK Flexibility Score: inf
ROOT
ATOM      1  C   UNL     1       9.077  39.973 151.550  1.00  0.00     0.000 C 
ENDROOT
BRANCH   1   2
ATOM      2  C   UNL     1       8.936  40.339 153.041  1.00  0.00     0.006 C 
BRANCH   2   3
ATOM      3  C   UNL     1      10.096  41.177 153.601  1.00  0.00     0.053 C 
BRANCH   3   4
ATOM      4  C   UNL     1       9.655  42.060 154.728  1.00  0.00     0.041 C 
ATOM      5  O   UNL     1      10.403  42.235 155.726  1.00  0.00    -0.550 OA
ATOM      6  O   UNL     1       8.434  42.718 154.660  1.00  0.00    -0.550 OA
ENDBRANCH   3   4
ENDBRANCH   2   3
ENDBRANCH   1   2
BRANCH   1   7
ATOM      7  C   UNL     1      10.442  39.374 151.153  1.00  0.00     0.000 C 
BRANCH   7   8
ATOM      8  C   UNL     1      10.375  38.196 150.161  1.00  0.00    -0.000 C 
BRANCH   8   9
ATOM      9  C   UNL     1       8.955  37.789 149.731  1.00  0.00    -0.000 C 
BRANCH   9  10
ATOM     10  C   UNL     1       8.813  36.277 149.498  1.00  0.00    -0.003 C 
ATOM     11  C   UNL     1      10.049  35.528 149.988  1.00  0.00     0.004 C 
ENDBRANCH   9  10
ENDBRANCH   8   9
ENDBRANCH   7   8
ENDBRANCH   1   7
TORSDOF 7
ENDMDL
MODEL 4
REMARK VINA RESULT:    -3.002      2.222      4.882
REMARK INTER + INTRA:          -4.655
REMARK INTER:                  -4.111
REMARK INTRA:                  -0.544
REMARK UNBOUND:                -0.424
REMARK SMILES CCCCCCCCC(=O)[O-]
REMARK SMILES IDX 6 1 7 2 8 3 9 4 10 5 11 6 5 7 4 8 3 9 2 10 1 11
REMARK H PARENT
REMARK Flexibility Score: inf
ROOT
ATOM      1  C   UNL     1      12.068  41.990 150.983  1.00  0.00     0.000 C 
ENDROOT
BRANCH   1   2
ATOM      2  C   UNL     1      11.922  40.666 151.759  1.00  0.00     0.006 C 
BRANCH   2   3
ATOM      3  C   UNL     1      11.960  39.407 150.879  1.00  0.00     0.053 C 
BRANCH   3   4
ATOM      4  C   UNL     1      10.594  38.825 150.677  1.00  0.00     0.041 C 
ATOM      5  O   UNL     1       9.574  39.448 151.075  1.00  0.00    -0.550 OA
ATOM      6  O   UNL     1      10.446  37.612 150.018  1.00  0.00    -0.550 OA
ENDBRANCH   3   4
ENDBRANCH   2   3
ENDBRANCH   1   2
BRANCH   1   7
ATOM      7  C   UNL     1      12.214  43.249 151.862  1.00  0.00     0.000 C 
BRANCH   7   8
ATOM      8  C   UNL     1      12.252  42.985 153.380  1.00  0.00    -0.000 C 
BRANCH   8   9
ATOM      9  C   UNL     1      11.037  43.516 154.162  1.00  0.00    -0.000 C 
BRANCH   9  10
ATOM     10  C   UNL     1      10.352  42.431 155.007  1.00  0.00    -0.003 C 
ATOM     11  C   UNL     1       9.318  41.667 154.184  1.00  0.00     0.004 C 
ENDBRANCH   9  10
ENDBRANCH   8   9
ENDBRANCH   7   8
ENDBRANCH   1   7
TORSDOF 7
ENDMDL
MODEL 5
REMARK VINA RESULT:    -2.998      1.276      1.804
REMARK INTER + INTRA:          -4.650
REMARK INTER:                  -3.976
REMARK INTRA:                  -0.674
REMARK UNBOUND:                -0.424
REMARK SMILES CCCCCCCCC(=O)[O-]
REMARK SMILES IDX 6 1 7 2 8 3 9 4 10 5 11 6 5 7 4 8 3 9 2 10 1 11
REMARK H PARENT
REMARK Flexibility Score: inf
ROOT
ATOM      1  C   UNL     1      11.262  43.306 151.652  1.00  0.00     0.000 C 
ENDROOT
BRANCH   1   2
ATOM      2  C   UNL     1      11.722  43.804 153.038  1.00  0.00     0.006 C 
BRANCH   2   3
ATOM      3  C   UNL     1      11.730  42.723 154.129  1.00  0.00     0.053 C 
BRANCH   3   4
ATOM      4  C   UNL     1      10.515  42.800 155.002  1.00  0.00     0.041 C 
ATOM      5  O   UNL     1       9.470  43.366 154.586  1.00  0.00    -0.550 OA
ATOM      6  O   UNL     1      10.525  42.216 156.262  1.00  0.00    -0.550 OA
ENDBRANCH   3   4
ENDBRANCH   2   3
ENDBRANCH   1   2
BRANCH   1   7
ATOM      7  C   UNL     1      12.377  42.704 150.773  1.00  0.00     0.000 C 
BRANCH   7   8
ATOM      8  C   UNL     1      12.116  41.267 150.279  1.00  0.00    -0.000 C 
BRANCH   8   9
ATOM      9  C   UNL     1      11.999  40.209 151.390  1.00  0.00    -0.000 C 
BRANCH   9  10
ATOM     10  C   UNL     1      10.625  39.522 151.416  1.00  0.00    -0.003 C 
ATOM     11  C   UNL     1       9.758  40.072 152.545  1.00  0.00     0.004 C 
ENDBRANCH   9  10
ENDBRANCH   8   9
ENDBRANCH   7   8
ENDBRANCH   1   7
TORSDOF 7
ENDMDL
MODEL 6
REMARK VINA RESULT:    -2.973      1.451      2.971
REMARK INTER + INTRA:          -4.614
REMARK INTER:                  -3.825
REMARK INTRA:                  -0.789
REMARK UNBOUND:                -0.424
REMARK SMILES CCCCCCCCC(=O)[O-]
REMARK SMILES IDX 6 1 7 2 8 3 9 4 10 5 11 6 5 7 4 8 3 9 2 10 1 11
REMARK H PARENT
REMARK Flexibility Score: inf
ROOT
ATOM      1  C   UNL     1       9.238  40.122 152.033  1.00  0.00     0.000 C 
ENDROOT
BRANCH   1   2
ATOM      2  C   UNL     1       9.883  40.479 153.387  1.00  0.00     0.006 C 
BRANCH   2   3
ATOM      3  C   UNL     1       9.436  41.831 153.966  1.00  0.00     0.053 C 
BRANCH   3   4
ATOM      4  C   UNL     1      10.412  42.357 154.973  1.00  0.00     0.041 C 
ATOM      5  O   UNL     1      11.512  42.841 154.598  1.00  0.00    -0.550 OA
ATOM      6  O   UNL     1      10.090  42.348 156.324  1.00  0.00    -0.550 OA
ENDBRANCH   3   4
ENDBRANCH   2   3
ENDBRANCH   1   2
BRANCH   1   7
ATOM      7  C   UNL     1      10.163  39.386 151.043  1.00  0.00     0.000 C 
BRANCH   7   8
ATOM      8  C   UNL     1      11.647  39.798 151.107  1.00  0.00    -0.000 C 
BRANCH   8   9
ATOM      9  C   UNL     1      12.013  41.041 150.277  1.00  0.00    -0.000 C 
BRANCH   9  10
ATOM     10  C   UNL     1      12.267  42.283 151.145  1.00  0.00    -0.003 C 
ATOM     11  C   UNL     1      11.154  43.312 150.970  1.00  0.00     0.004 C 
ENDBRANCH   9  10
ENDBRANCH   8   9
ENDBRANCH   7   8
ENDBRANCH   1   7
TORSDOF 7
ENDMDL
MODEL 7
REMARK VINA RESULT:    -2.935      1.782      4.822
REMARK INTER + INTRA:          -4.561
REMARK INTER:                  -4.140
REMARK INTRA:                  -0.420
REMARK UNBOUND:                -0.424
REMARK SMILES CCCCCCCCC(=O)[O-]
REMARK SMILES IDX 6 1 7 2 8 3 9 4 10 5 11 6 5 7 4 8 3 9 2 10 1 11
REMARK H PARENT
REMARK Flexibility Score: inf
ROOT
ATOM      1  C   UNL     1      11.329  42.590 151.298  1.00  0.00     0.000 C 
ENDROOT
BRANCH   1   2
ATOM      2  C   UNL     1      12.051  41.369 150.693  1.00  0.00     0.006 C 
BRANCH   2   3
ATOM      3  C   UNL     1      11.892  40.073 151.502  1.00  0.00     0.053 C 
BRANCH   3   4
ATOM      4  C   UNL     1      10.455  39.766 151.789  1.00  0.00     0.041 C 
ATOM      5  O   UNL     1       9.973  39.993 152.930  1.00  0.00    -0.550 OA
ATOM      6  O   UNL     1       9.637  39.262 150.785  1.00  0.00    -0.550 OA
ENDBRANCH   3   4
ENDBRANCH   2   3
ENDBRANCH   1   2
BRANCH   1   7
ATOM      7  C   UNL     1      12.153  43.393 152.325  1.00  0.00     0.000 C 
BRANCH   7   8
ATOM      8  C   UNL     1      11.997  42.937 153.789  1.00  0.00    -0.000 C 
BRANCH   8   9
ATOM      9  C   UNL     1      10.671  43.343 154.458  1.00  0.00    -0.000 C 
BRANCH   9  10
ATOM     10  C   UNL     1      10.199  42.327 155.508  1.00  0.00    -0.003 C 
ATOM     11  C   UNL     1       9.374  43.007 156.597  1.00  0.00     0.004 C 
ENDBRANCH   9  10
ENDBRANCH   8   9
ENDBRANCH   7   8
ENDBRANCH   1   7
TORSDOF 7
ENDMDL
MODEL 8
REMARK VINA RESULT:    -2.859     13.903     14.768
REMARK INTER + INTRA:          -4.454
REMARK INTER:                  -3.788
REMARK INTRA:                  -0.666
REMARK UNBOUND:                -0.424
REMARK SMILES CCCCCCCCC(=O)[O-]
REMARK SMILES IDX 6 1 7 2 8 3 9 4 10 5 11 6 5 7 4 8 3 9 2 10 1 11
REMARK H PARENT
REMARK Flexibility Score: inf
ROOT
ATOM      1  C   UNL     1       9.800  35.290 140.624  1.00  0.00     0.000 C 
ENDROOT
BRANCH   1   2
ATOM      2  C   UNL     1       8.694  35.517 139.573  1.00  0.00     0.006 C 
BRANCH   2   3
ATOM      3  C   UNL     1       7.833  36.765 139.819  1.00  0.00     0.053 C 
BRANCH   3   4
ATOM      4  C   UNL     1       7.341  37.366 138.538  1.00  0.00     0.041 C 
ATOM      5  O   UNL     1       7.042  36.626 137.564  1.00  0.00    -0.550 OA
ATOM      6  O   UNL     1       7.178  38.741 138.432  1.00  0.00    -0.550 OA
ENDBRANCH   3   4
ENDBRANCH   2   3
ENDBRANCH   1   2
BRANCH   1   7
ATOM      7  C   UNL     1      11.222  35.132 140.050  1.00  0.00     0.000 C 
BRANCH   7   8
ATOM      8  C   UNL     1      11.465  35.834 138.700  1.00  0.00    -0.000 C 
BRANCH   8   9
ATOM      9  C   UNL     1      12.621  36.850 138.694  1.00  0.00    -0.000 C 
BRANCH   9  10
ATOM     10  C   UNL     1      12.210  38.224 139.245  1.00  0.00    -0.003 C 
ATOM     11  C   UNL     1      10.861  38.660 138.680  1.00  0.00     0.004 C 
ENDBRANCH   9  10
ENDBRANCH   8   9
ENDBRANCH   7   8
ENDBRANCH   1   7
TORSDOF 7
ENDMDL
MODEL 9
REMARK VINA RESULT:    -2.836      2.579      4.993
REMARK INTER + INTRA:          -4.420
REMARK INTER:                  -3.659
REMARK INTRA:                  -0.761
REMARK UNBOUND:                -0.424
REMARK SMILES CCCCCCCCC(=O)[O-]
REMARK SMILES IDX 6 1 7 2 8 3 9 4 10 5 11 6 5 7 4 8 3 9 2 10 1 11
REMARK H PARENT
REMARK Flexibility Score: inf
ROOT
ATOM      1  C   UNL     1       9.435  40.401 151.776  1.00  0.00     0.000 C 
ENDROOT
BRANCH   1   2
ATOM      2  C   UNL     1      10.783  39.673 151.594  1.00  0.00     0.006 C 
BRANCH   2   3
ATOM      3  C   UNL     1      12.000  40.606 151.500  1.00  0.00     0.053 C 
BRANCH   3   4
ATOM      4  C   UNL     1      11.850  41.613 150.402  1.00  0.00     0.041 C 
ATOM      5  O   UNL     1      11.842  42.844 150.667  1.00  0.00    -0.550 OA
ATOM      6  O   UNL     1      11.754  41.193 149.081  1.00  0.00    -0.550 OA
ENDBRANCH   3   4
ENDBRANCH   2   3
ENDBRANCH   1   2
BRANCH   1   7
ATOM      7  C   UNL     1       8.940  40.500 153.233  1.00  0.00     0.000 C 
BRANCH   7   8
ATOM      8  C   UNL     1       9.114  41.883 153.891  1.00  0.00    -0.000 C 
BRANCH   8   9
ATOM      9  C   UNL     1      10.463  42.101 154.598  1.00  0.00    -0.000 C 
BRANCH   9  10
ATOM     10  C   UNL     1      11.211  43.340 154.085  1.00  0.00    -0.003 C 
ATOM     11  C   UNL     1      12.722  43.125 154.125  1.00  0.00     0.004 C 
ENDBRANCH   9  10
ENDBRANCH   8   9
ENDBRANCH   7   8
ENDBRANCH   1   7
TORSDOF 7
ENDMDL
