MODEL 1
REMARK VINA RESULT:    -3.996      0.000      0.000
REMARK INTER + INTRA:          -5.469
REMARK INTER:                  -5.398
REMARK INTRA:                  -0.071
REMARK UNBOUND:                -0.071
REMARK SMILES [NH3+]CCCC[C@@H]([NH3+])C(=O)[O-]
REMARK SMILES IDX 4 1 3 2 2 3 1 4 5 8 6 9 7 10 8 14 9 15 10 16
REMARK H PARENT 1 5 1 6 1 7 7 11 7 12 7 13
REMARK Flexibility Score: inf
ROOT
ATOM      1  C   UNL     1     101.351  68.875  71.922  1.00  0.00     0.012 C 
ENDROOT
BRANCH   1   2
ATOM      2  C   UNL     1     100.285  68.921  70.815  1.00  0.00     0.061 C 
BRANCH   2   3
ATOM      3  C   UNL     1     100.900  68.944  69.405  1.00  0.00     0.258 C 
BRANCH   3   4
ATOM      4  N   UNL     1     100.329  70.002  68.569  1.00  0.00    -0.358 N 
ATOM      5  H   UNL     1     101.020  70.313  67.850  1.00  0.00     0.344 HD
ATOM      6  H   UNL     1     100.094  70.822  69.174  1.00  0.00     0.344 HD
ATOM      7  H   UNL     1      99.454  69.668  68.104  1.00  0.00     0.344 HD
ENDBRANCH   3   4
ENDBRANCH   2   3
ENDBRANCH   1   2
BRANCH   1   8
ATOM      8  C   UNL     1     100.952  69.686  73.170  1.00  0.00     0.072 C 
BRANCH   8   9
ATOM      9  C   UNL     1     101.831  69.420  74.415  1.00  0.00     0.227 C 
BRANCH   9  10
ATOM     10  N   UNL     1     103.192  69.048  74.008  1.00  0.00    -0.350 N 
ATOM     11  H   UNL     1     103.283  69.116  72.968  1.00  0.00     0.345 HD
ATOM     12  H   UNL     1     103.414  68.071  74.310  1.00  0.00     0.345 HD
ATOM     13  H   UNL     1     103.882  69.705  74.440  1.00  0.00     0.345 HD
ENDBRANCH   9  10
BRANCH   9  14
ATOM     14  C   UNL     1     101.872  70.620  75.323  1.00  0.00     0.099 C 
ATOM     15  O   UNL     1     100.931  70.845  76.130  1.00  0.00    -0.544 OA
ATOM     16  O   UNL     1     102.960  71.483  75.284  1.00  0.00    -0.544 OA
ENDBRANCH   9  14
ENDBRANCH   8   9
ENDBRANCH   1   8
TORSDOF 7
ENDMDL
MODEL 2
REMARK VINA RESULT:    -3.916      3.457      5.515
REMARK INTER + INTRA:          -5.360
REMARK INTER:                  -5.290
REMARK INTRA:                  -0.070
REMARK UNBOUND:                -0.071
REMARK SMILES [NH3+]CCCC[C@@H]([NH3+])C(=O)[O-]
REMARK SMILES IDX 4 1 3 2 2 3 1 4 5 8 6 9 7 10 8 14 9 15 10 16
REMARK H PARENT 1 5 1 6 1 7 7 11 7 12 7 13
REMARK Flexibility Score: inf
ROOT
ATOM      1  C   UNL     1     101.236  68.875  71.600  1.00  0.00     0.012 C 
ENDROOT
BRANCH   1   2
ATOM      2  C   UNL     1     101.059  69.401  73.034  1.00  0.00     0.061 C 
BRANCH   2   3
ATOM      3  C   UNL     1     102.167  68.913  73.982  1.00  0.00     0.258 C 
BRANCH   3   4
ATOM      4  N   UNL     1     102.353  69.809  75.126  1.00  0.00    -0.358 N 
ATOM      5  H   UNL     1     102.910  69.337  75.872  1.00  0.00     0.344 HD
ATOM      6  H   UNL     1     101.415  70.052  75.522  1.00  0.00     0.344 HD
ATOM      7  H   UNL     1     102.828  70.691  74.826  1.00  0.00     0.344 HD
ENDBRANCH   3   4
ENDBRANCH   2   3
ENDBRANCH   1   2
BRANCH   1   8
ATOM      8  C   UNL     1     100.008  69.144  70.709  1.00  0.00     0.072 C 
BRANCH   8   9
ATOM      9  C   UNL     1     100.224  70.237  69.636  1.00  0.00     0.227 C 
BRANCH   9  10
ATOM     10  N   UNL     1     100.573  69.625  68.348  1.00  0.00    -0.350 N 
ATOM     11  H   UNL     1     100.068  70.116  67.573  1.00  0.00     0.345 HD
ATOM     12  H   UNL     1     100.315  68.611  68.338  1.00  0.00     0.345 HD
ATOM     13  H   UNL     1     101.601  69.718  68.178  1.00  0.00     0.345 HD
ENDBRANCH   9  10
BRANCH   9  14
ATOM     14  C   UNL     1      99.002  71.104  69.483  1.00  0.00     0.099 C 
ATOM     15  O   UNL     1      99.114  72.355  69.384  1.00  0.00    -0.544 OA
ATOM     16  O   UNL     1      97.741  70.525  69.438  1.00  0.00    -0.544 OA
ENDBRANCH   9  14
ENDBRANCH   8   9
ENDBRANCH   1   8
TORSDOF 7
ENDMDL
MODEL 3
REMARK VINA RESULT:    -3.553      1.861      2.238
REMARK INTER + INTRA:          -4.871
REMARK INTER:                  -4.721
REMARK INTRA:                  -0.149
REMARK UNBOUND:                -0.071
REMARK SMILES [NH3+]CCCC[C@@H]([NH3+])C(=O)[O-]
REMARK SMILES IDX 4 1 3 2 2 3 1 4 5 8 6 9 7 10 8 14 9 15 10 16
REMARK H PARENT 1 5 1 6 1 7 7 11 7 12 7 13
REMARK Flexibility Score: inf
ROOT
ATOM      1  C   UNL     1     102.221  68.875  73.323  1.00  0.00     0.012 C 
ENDROOT
BRANCH   1   2
ATOM      2  C   UNL     1     100.966  69.231  72.509  1.00  0.00     0.061 C 
BRANCH   2   3
ATOM      3  C   UNL     1     101.113  68.884  71.017  1.00  0.00     0.258 C 
BRANCH   3   4
ATOM      4  N   UNL     1      99.936  69.276  70.238  1.00  0.00    -0.358 N 
ATOM      5  H   UNL     1      99.065  68.915  70.686  1.00  0.00     0.344 HD
ATOM      6  H   UNL     1     100.009  68.859  69.282  1.00  0.00     0.344 HD
ATOM      7  H   UNL     1      99.888  70.317  70.147  1.00  0.00     0.344 HD
ENDBRANCH   3   4
ENDBRANCH   2   3
ENDBRANCH   1   2
BRANCH   1   8
ATOM      8  C   UNL     1     102.196  69.463  74.746  1.00  0.00     0.072 C 
BRANCH   8   9
ATOM      9  C   UNL     1     101.742  70.940  74.821  1.00  0.00     0.227 C 
BRANCH   9  10
ATOM     10  N   UNL     1     100.902  71.157  76.006  1.00  0.00    -0.350 N 
ATOM     11  H   UNL     1     101.493  71.479  76.807  1.00  0.00     0.345 HD
ATOM     12  H   UNL     1     100.408  70.274  76.276  1.00  0.00     0.345 HD
ATOM     13  H   UNL     1     100.191  71.898  75.806  1.00  0.00     0.345 HD
ENDBRANCH   9  10
BRANCH   9  14
ATOM     14  C   UNL     1     102.922  71.876  74.846  1.00  0.00     0.099 C 
ATOM     15  O   UNL     1     104.057  71.464  75.203  1.00  0.00    -0.544 OA
ATOM     16  O   UNL     1     102.764  73.202  74.461  1.00  0.00    -0.544 OA
ENDBRANCH   9  14
ENDBRANCH   8   9
ENDBRANCH   1   8
TORSDOF 7
ENDMDL
MODEL 4
REMARK VINA RESULT:    -3.153     10.904     12.072
REMARK INTER + INTRA:          -4.329
REMARK INTER:                  -4.158
REMARK INTRA:                  -0.172
REMARK UNBOUND:                -0.071
REMARK SMILES [NH3+]CCCC[C@@H]([NH3+])C(=O)[O-]
REMARK SMILES IDX 4 1 3 2 2 3 1 4 5 8 6 9 7 10 8 14 9 15 10 16
REMARK H PARENT 1 5 1 6 1 7 7 11 7 12 7 13
REMARK Flexibility Score: inf
ROOT
ATOM      1  C   UNL     1      98.646  72.020  84.346  1.00  0.00     0.012 C 
ENDROOT
BRANCH   1   2
ATOM      2  C   UNL     1      99.028  71.719  82.887  1.00  0.00     0.061 C 
BRANCH   2   3
ATOM      3  C   UNL     1     100.478  71.225  82.747  1.00  0.00     0.258 C 
BRANCH   3   4
ATOM      4  N   UNL     1     101.383  72.285  82.295  1.00  0.00    -0.358 N 
ATOM      5  H   UNL     1     102.043  71.918  81.574  1.00  0.00     0.344 HD
ATOM      6  H   UNL     1     101.943  72.623  83.111  1.00  0.00     0.344 HD
ATOM      7  H   UNL     1     100.839  73.090  81.907  1.00  0.00     0.344 HD
ENDBRANCH   3   4
ENDBRANCH   2   3
ENDBRANCH   1   2
BRANCH   1   8
ATOM      8  C   UNL     1      97.308  71.376  84.758  1.00  0.00     0.072 C 
BRANCH   8   9
ATOM      9  C   UNL     1      96.864  70.195  83.862  1.00  0.00     0.227 C 
BRANCH   9  10
ATOM     10  N   UNL     1      97.248  68.917  84.475  1.00  0.00    -0.350 N 
ATOM     11  H   UNL     1      97.136  68.142  83.781  1.00  0.00     0.345 HD
ATOM     12  H   UNL     1      96.657  68.716  85.315  1.00  0.00     0.345 HD
ATOM     13  H   UNL     1      98.253  68.952  84.766  1.00  0.00     0.345 HD
ENDBRANCH   9  10
BRANCH   9  14
ATOM     14  C   UNL     1      95.378  70.223  83.615  1.00  0.00     0.099 C 
ATOM     15  O   UNL     1      94.734  69.151  83.466  1.00  0.00    -0.544 OA
ATOM     16  O   UNL     1      94.707  71.438  83.561  1.00  0.00    -0.544 OA
ENDBRANCH   9  14
ENDBRANCH   8   9
ENDBRANCH   1   8
TORSDOF 7
ENDMDL
MODEL 5
REMARK VINA RESULT:    -2.952     10.823     12.146
REMARK INTER + INTRA:          -4.059
REMARK INTER:                  -3.962
REMARK INTRA:                  -0.096
REMARK UNBOUND:                -0.071
REMARK SMILES [NH3+]CCCC[C@@H]([NH3+])C(=O)[O-]
REMARK SMILES IDX 4 1 3 2 2 3 1 4 5 8 6 9 7 10 8 14 9 15 10 16
REMARK H PARENT 1 5 1 6 1 7 7 11 7 12 7 13
REMARK Flexibility Score: inf
ROOT
ATOM      1  C   UNL     1      97.143  71.003  84.512  1.00  0.00     0.012 C 
ENDROOT
BRANCH   1   2
ATOM      2  C   UNL     1      95.659  71.244  84.190  1.00  0.00     0.061 C 
BRANCH   2   3
ATOM      3  C   UNL     1      95.052  72.384  85.025  1.00  0.00     0.258 C 
BRANCH   3   4
ATOM      4  N   UNL     1      94.005  73.107  84.299  1.00  0.00    -0.358 N 
ATOM      5  H   UNL     1      94.412  73.618  83.485  1.00  0.00     0.344 HD
ATOM      6  H   UNL     1      93.570  73.808  84.942  1.00  0.00     0.344 HD
ATOM      7  H   UNL     1      93.263  72.447  83.974  1.00  0.00     0.344 HD
ENDBRANCH   3   4
ENDBRANCH   2   3
ENDBRANCH   1   2
BRANCH   1   8
ATOM      8  C   UNL     1      98.036  71.011  83.257  1.00  0.00     0.072 C 
BRANCH   8   9
ATOM      9  C   UNL     1      99.284  71.918  83.365  1.00  0.00     0.227 C 
BRANCH   9  10
ATOM     10  N   UNL     1      99.579  72.215  84.772  1.00  0.00    -0.350 N 
ATOM     11  H   UNL     1     100.490  72.725  84.845  1.00  0.00     0.345 HD
ATOM     12  H   UNL     1      99.632  71.333  85.333  1.00  0.00     0.345 HD
ATOM     13  H   UNL     1      98.829  72.827  85.170  1.00  0.00     0.345 HD
ENDBRANCH   9  10
BRANCH   9  14
ATOM     14  C   UNL     1     100.482  71.284  82.708  1.00  0.00     0.099 C 
ATOM     15  O   UNL     1     101.345  71.994  82.128  1.00  0.00    -0.544 OA
ATOM     16  O   UNL     1     100.647  69.905  82.750  1.00  0.00    -0.544 OA
ENDBRANCH   9  14
ENDBRANCH   8   9
ENDBRANCH   1   8
TORSDOF 7
ENDMDL
MODEL 6
REMARK VINA RESULT:    -2.921     10.850     11.785
REMARK INTER + INTRA:          -4.016
REMARK INTER:                  -3.908
REMARK INTRA:                  -0.109
REMARK UNBOUND:                -0.071
REMARK SMILES [NH3+]CCCC[C@@H]([NH3+])C(=O)[O-]
REMARK SMILES IDX 4 1 3 2 2 3 1 4 5 8 6 9 7 10 8 14 9 15 10 16
REMARK H PARENT 1 5 1 6 1 7 7 11 7 12 7 13
REMARK Flexibility Score: inf
ROOT
ATOM      1  C   UNL     1      96.883  71.179  84.303  1.00  0.00     0.012 C 
ENDROOT
BRANCH   1   2
ATOM      2  C   UNL     1      95.793  70.094  84.302  1.00  0.00     0.061 C 
BRANCH   2   3
ATOM      3  C   UNL     1      94.522  70.537  83.558  1.00  0.00     0.258 C 
BRANCH   3   4
ATOM      4  N   UNL     1      94.346  71.991  83.577  1.00  0.00    -0.358 N 
ATOM      5  H   UNL     1      94.846  72.409  84.393  1.00  0.00     0.344 HD
ATOM      6  H   UNL     1      93.327  72.208  83.671  1.00  0.00     0.344 HD
ATOM      7  H   UNL     1      94.696  72.414  82.687  1.00  0.00     0.344 HD
ENDBRANCH   3   4
ENDBRANCH   2   3
ENDBRANCH   1   2
BRANCH   1   8
ATOM      8  C   UNL     1      97.994  70.910  83.270  1.00  0.00     0.072 C 
BRANCH   8   9
ATOM      9  C   UNL     1      99.211  71.859  83.377  1.00  0.00     0.227 C 
BRANCH   9  10
ATOM     10  N   UNL     1      99.464  72.208  84.780  1.00  0.00    -0.350 N 
ATOM     11  H   UNL     1      99.312  71.370  85.388  1.00  0.00     0.345 HD
ATOM     12  H   UNL     1      98.827  72.978  85.091  1.00  0.00     0.345 HD
ATOM     13  H   UNL     1     100.456  72.519  84.895  1.00  0.00     0.345 HD
ENDBRANCH   9  10
BRANCH   9  14
ATOM     14  C   UNL     1     100.442  71.243  82.767  1.00  0.00     0.099 C 
ATOM     15  O   UNL     1     100.609  69.995  82.785  1.00  0.00    -0.544 OA
ATOM     16  O   UNL     1     101.399  72.053  82.168  1.00  0.00    -0.544 OA
ENDBRANCH   9  14
ENDBRANCH   8   9
ENDBRANCH   1   8
TORSDOF 7
ENDMDL
MODEL 7
REMARK VINA RESULT:    -2.657     10.734     11.953
REMARK INTER + INTRA:          -3.659
REMARK INTER:                  -3.559
REMARK INTRA:                  -0.100
REMARK UNBOUND:                -0.071
REMARK SMILES [NH3+]CCCC[C@@H]([NH3+])C(=O)[O-]
REMARK SMILES IDX 4 1 3 2 2 3 1 4 5 8 6 9 7 10 8 14 9 15 10 16
REMARK H PARENT 1 5 1 6 1 7 7 11 7 12 7 13
REMARK Flexibility Score: inf
ROOT
ATOM      1  C   UNL     1      96.186  71.107  83.966  1.00  0.00     0.012 C 
ENDROOT
BRANCH   1   2
ATOM      2  C   UNL     1      95.368  70.218  84.916  1.00  0.00     0.061 C 
BRANCH   2   3
ATOM      3  C   UNL     1      94.843  68.946  84.228  1.00  0.00     0.258 C 
BRANCH   3   4
ATOM      4  N   UNL     1      94.035  69.250  83.044  1.00  0.00    -0.358 N 
ATOM      5  H   UNL     1      93.574  68.385  82.685  1.00  0.00     0.344 HD
ATOM      6  H   UNL     1      94.661  69.624  82.294  1.00  0.00     0.344 HD
ATOM      7  H   UNL     1      93.314  69.974  83.269  1.00  0.00     0.344 HD
ENDBRANCH   3   4
ENDBRANCH   2   3
ENDBRANCH   1   2
BRANCH   1   8
ATOM      8  C   UNL     1      97.677  70.723  83.923  1.00  0.00     0.072 C 
BRANCH   8   9
ATOM      9  C   UNL     1      98.641  71.915  83.714  1.00  0.00     0.227 C 
BRANCH   9  10
ATOM     10  N   UNL     1      99.490  72.098  84.898  1.00  0.00    -0.350 N 
ATOM     11  H   UNL     1     100.481  72.259  84.603  1.00  0.00     0.345 HD
ATOM     12  H   UNL     1      99.447  71.256  85.518  1.00  0.00     0.345 HD
ATOM     13  H   UNL     1      99.170  72.935  85.438  1.00  0.00     0.345 HD
ENDBRANCH   9  10
BRANCH   9  14
ATOM     14  C   UNL     1      99.495  71.722  82.490  1.00  0.00     0.099 C 
ATOM     15  O   UNL     1      99.123  72.169  81.373  1.00  0.00    -0.544 OA
ATOM     16  O   UNL     1     100.710  71.056  82.589  1.00  0.00    -0.544 OA
ENDBRANCH   9  14
ENDBRANCH   8   9
ENDBRANCH   1   8
TORSDOF 7
ENDMDL
MODEL 8
REMARK VINA RESULT:    -2.516      3.524      5.249
REMARK INTER + INTRA:          -3.470
REMARK INTER:                  -3.318
REMARK INTRA:                  -0.151
REMARK UNBOUND:                -0.071
REMARK SMILES [NH3+]CCCC[C@@H]([NH3+])C(=O)[O-]
REMARK SMILES IDX 4 1 3 2 2 3 1 4 5 8 6 9 7 10 8 14 9 15 10 16
REMARK H PARENT 1 5 1 6 1 7 7 11 7 12 7 13
REMARK Flexibility Score: inf
ROOT
ATOM      1  C   UNL     1     102.520  72.571  75.001  1.00  0.00     0.012 C 
ENDROOT
BRANCH   1   2
ATOM      2  C   UNL     1     103.568  73.374  74.214  1.00  0.00     0.061 C 
BRANCH   2   3
ATOM      3  C   UNL     1     105.009  73.012  74.612  1.00  0.00     0.258 C 
BRANCH   3   4
ATOM      4  N   UNL     1     105.491  73.814  75.739  1.00  0.00    -0.358 N 
ATOM      5  H   UNL     1     104.792  74.546  75.992  1.00  0.00     0.344 HD
ATOM      6  H   UNL     1     106.380  74.290  75.461  1.00  0.00     0.344 HD
ATOM      7  H   UNL     1     105.685  73.203  76.566  1.00  0.00     0.344 HD
ENDBRANCH   3   4
ENDBRANCH   2   3
ENDBRANCH   1   2
BRANCH   1   8
ATOM      8  C   UNL     1     103.006  71.156  75.371  1.00  0.00     0.072 C 
BRANCH   8   9
ATOM      9  C   UNL     1     101.914  70.064  75.295  1.00  0.00     0.227 C 
BRANCH   9  10
ATOM     10  N   UNL     1     100.619  70.607  75.723  1.00  0.00    -0.350 N 
ATOM     11  H   UNL     1      99.875  70.335  75.039  1.00  0.00     0.345 HD
ATOM     12  H   UNL     1     100.659  71.651  75.790  1.00  0.00     0.345 HD
ATOM     13  H   UNL     1     100.361  70.214  76.658  1.00  0.00     0.345 HD
ENDBRANCH   9  10
BRANCH   9  14
ATOM     14  C   UNL     1     101.802  69.495  73.905  1.00  0.00     0.099 C 
ATOM     15  O   UNL     1     102.769  68.875  73.388  1.00  0.00    -0.544 OA
ATOM     16  O   UNL     1     100.622  69.643  73.187  1.00  0.00    -0.544 OA
ENDBRANCH   9  14
ENDBRANCH   8   9
ENDBRANCH   1   8
TORSDOF 7
ENDMDL
