MODEL 1
REMARK VINA RESULT:    -4.568      0.000      0.000
REMARK INTER + INTRA:          -6.842
REMARK INTER:                  -6.972
REMARK INTRA:                   0.129
REMARK UNBOUND:                 0.129
REMARK SMILES CC1=CCC[C@H](C)C(=O)C[C@@H](C(C)C)C(=O)C1
REMARK SMILES IDX 8 1 9 2 6 3 7 4 5 5 4 6 3 7 2 8 1 9 10 11 11 12 15 13 16 14
REMARK SMILES IDX 17 15 12 17 13 18 14 19
REMARK H PARENT
REMARK Flexibility Score: 70.00
ROOT
ATOM      1  C   UNL     1      16.836 -30.472  22.234  1.00  0.00     0.136 C 
ATOM      2  O   UNL     1      17.230 -30.204  23.361  1.00  0.00    -0.299 OA
ENDROOT
BRANCH   1   3
ATOM      3  C   UNL     1      17.808 -30.481  21.066  1.00  0.00     0.053 C 
ATOM      4  C   UNL     1      18.635 -29.188  20.980  1.00  0.00     0.016 C 
BRANCH   3   5
ATOM      5  C   UNL     1      18.710 -31.732  21.094  1.00  0.00     0.015 C 
BRANCH   5   6
ATOM      6  C   UNL     1      17.948 -33.054  20.871  1.00  0.00     0.028 C 
BRANCH   6   7
ATOM      7  C   UNL     1      17.883 -33.856  22.145  1.00  0.00    -0.028 C 
ATOM      8  C   UNL     1      16.744 -34.152  22.813  1.00  0.00    -0.070 CG0
ATOM      9  C   UNL     1      16.849 -35.018  24.043  1.00  0.00     0.039 C 
ATOM     10  G   UNL     1      15.376 -33.637  22.389  1.00  0.00     0.000 G0
ENDBRANCH   6   7
ENDBRANCH   5   6
ENDBRANCH   3   5
ENDBRANCH   1   3
BRANCH   1  11
ATOM     11  C   UNL     1      15.376 -30.795  22.029  1.00  0.00     0.087 C 
BRANCH  11  12
ATOM     12  C   UNL     1      14.690 -31.258  23.342  1.00  0.00     0.066 C 
BRANCH  12  13
ATOM     13  C   UNL     1      14.698 -32.775  23.463  1.00  0.00     0.140 C 
ATOM     14  O   UNL     1      14.243 -33.309  24.465  1.00  0.00    -0.299 OA
BRANCH  13  15
ATOM     15  C   UNL     1      15.340 -33.632  22.398  1.00  0.00     0.106 CG0
ATOM     16  G   UNL     1      16.713 -34.140  22.811  1.00  0.00     0.000 G0
ENDBRANCH  13  15
ENDBRANCH  12  13
BRANCH  12  17
ATOM     17  C   UNL     1      13.242 -30.696  23.519  1.00  0.00    -0.006 C 
ATOM     18  C   UNL     1      12.353 -30.846  22.269  1.00  0.00     0.008 C 
ATOM     19  C   UNL     1      13.259 -29.226  23.971  1.00  0.00     0.008 C 
ENDBRANCH  12  17
ENDBRANCH  11  12
ENDBRANCH   1  11
TORSDOF 1
ENDMDL
MODEL 2
REMARK VINA RESULT:    -4.476      1.627      2.180
REMARK INTER + INTRA:          -6.702
REMARK INTER:                  -6.417
REMARK INTRA:                  -0.285
REMARK UNBOUND:                 0.129
REMARK SMILES CC1=CCC[C@H](C)C(=O)C[C@@H](C(C)C)C(=O)C1
REMARK SMILES IDX 8 1 9 2 6 3 7 4 5 5 4 6 3 7 2 8 1 9 10 11 11 12 15 13 16 14
REMARK SMILES IDX 17 15 12 17 13 18 14 19
REMARK H PARENT
REMARK Flexibility Score: 70.00
ROOT
ATOM      1  C   UNL     1      17.943 -31.188  22.155  1.00  0.00     0.136 C 
ATOM      2  O   UNL     1      18.188 -30.426  23.080  1.00  0.00    -0.299 OA
ENDROOT
BRANCH   1   3
ATOM      3  C   UNL     1      18.964 -32.231  21.732  1.00  0.00     0.053 C 
ATOM      4  C   UNL     1      20.224 -31.602  21.117  1.00  0.00     0.016 C 
BRANCH   3   5
ATOM      5  C   UNL     1      19.314 -33.180  22.897  1.00  0.00     0.015 C 
BRANCH   5   6
ATOM      6  C   UNL     1      18.296 -34.321  23.096  1.00  0.00     0.028 C 
BRANCH   6   7
ATOM      7  C   UNL     1      17.872 -34.899  21.771  1.00  0.00    -0.028 C 
ATOM      8  C   UNL     1      16.604 -34.895  21.298  1.00  0.00    -0.070 CG0
ATOM      9  C   UNL     1      16.360 -35.462  19.923  1.00  0.00     0.039 C 
ATOM     10  G   UNL     1      15.422 -34.363  22.096  1.00  0.00     0.000 G0
ENDBRANCH   6   7
ENDBRANCH   5   6
ENDBRANCH   3   5
ENDBRANCH   1   3
BRANCH   1  11
ATOM     11  C   UNL     1      16.614 -31.075  21.448  1.00  0.00     0.087 C 
BRANCH  11  12
ATOM     12  C   UNL     1      15.463 -31.728  22.260  1.00  0.00     0.066 C 
BRANCH  12  13
ATOM     13  C   UNL     1      14.969 -33.001  21.589  1.00  0.00     0.140 C 
ATOM     14  O   UNL     1      14.147 -32.934  20.686  1.00  0.00    -0.299 OA
BRANCH  13  15
ATOM     15  C   UNL     1      15.414 -34.358  22.081  1.00  0.00     0.106 CG0
ATOM     16  G   UNL     1      16.597 -34.903  21.294  1.00  0.00     0.000 G0
ENDBRANCH  13  15
ENDBRANCH  12  13
BRANCH  12  17
ATOM     17  C   UNL     1      14.274 -30.755  22.545  1.00  0.00    -0.006 C 
ATOM     18  C   UNL     1      14.698 -29.289  22.756  1.00  0.00     0.008 C 
ATOM     19  C   UNL     1      13.431 -31.229  23.741  1.00  0.00     0.008 C 
ENDBRANCH  12  17
ENDBRANCH  11  12
ENDBRANCH   1  11
TORSDOF 1
ENDMDL
MODEL 3
REMARK VINA RESULT:    -4.393      1.640      3.994
REMARK INTER + INTRA:          -6.574
REMARK INTER:                  -6.360
REMARK INTRA:                  -0.215
REMARK UNBOUND:                 0.129
REMARK SMILES CC1=CCC[C@H](C)C(=O)C[C@@H](C(C)C)C(=O)C1
REMARK SMILES IDX 8 1 9 2 6 3 7 4 5 5 4 6 3 7 2 8 1 9 10 11 11 12 15 13 16 14
REMARK SMILES IDX 17 15 12 17 13 18 14 19
REMARK H PARENT
REMARK Flexibility Score: 70.00
ROOT
ATOM      1  C   UNL     1      15.531 -30.161  22.717  1.00  0.00     0.136 C 
ATOM      2  O   UNL     1      15.238 -29.131  22.125  1.00  0.00    -0.299 OA
ENDROOT
BRANCH   1   3
ATOM      3  C   UNL     1      14.507 -31.274  22.867  1.00  0.00     0.053 C 
ATOM      4  C   UNL     1      13.206 -30.789  23.526  1.00  0.00     0.016 C 
BRANCH   3   5
ATOM      5  C   UNL     1      14.235 -31.975  21.520  1.00  0.00     0.015 C 
BRANCH   5   6
ATOM      6  C   UNL     1      15.125 -33.209  21.270  1.00  0.00     0.028 C 
BRANCH   6   7
ATOM      7  C   UNL     1      15.302 -34.007  22.536  1.00  0.00    -0.028 C 
ATOM      8  C   UNL     1      16.491 -34.242  23.139  1.00  0.00    -0.070 CG0
ATOM      9  C   UNL     1      16.487 -35.010  24.436  1.00  0.00     0.039 C 
ATOM     10  G   UNL     1      17.821 -33.782  22.559  1.00  0.00     0.000 G0
ENDBRANCH   6   7
ENDBRANCH   5   6
ENDBRANCH   3   5
ENDBRANCH   1   3
BRANCH   1  11
ATOM     11  C   UNL     1      16.921 -30.306  23.286  1.00  0.00     0.087 C 
BRANCH  11  12
ATOM     12  C   UNL     1      17.840 -31.163  22.375  1.00  0.00     0.066 C 
BRANCH  12  13
ATOM     13  C   UNL     1      18.276 -32.440  23.078  1.00  0.00     0.140 C 
ATOM     14  O   UNL     1      19.040 -32.380  24.032  1.00  0.00    -0.299 OA
BRANCH  13  15
ATOM     15  C   UNL     1      17.849 -33.793  22.562  1.00  0.00     0.106 CG0
ATOM     16  G   UNL     1      16.506 -34.233  23.126  1.00  0.00     0.000 G0
ENDBRANCH  13  15
ENDBRANCH  12  13
BRANCH  12  17
ATOM     17  C   UNL     1      19.078 -30.381  21.829  1.00  0.00    -0.006 C 
ATOM     18  C   UNL     1      18.717 -29.150  20.976  1.00  0.00     0.008 C 
ATOM     19  C   UNL     1      20.024 -31.302  21.039  1.00  0.00     0.008 C 
ENDBRANCH  12  17
ENDBRANCH  11  12
ENDBRANCH   1  11
TORSDOF 1
ENDMDL
MODEL 4
REMARK VINA RESULT:    -4.355      2.073      3.862
REMARK INTER + INTRA:          -6.517
REMARK INTER:                  -6.579
REMARK INTRA:                   0.062
REMARK UNBOUND:                 0.129
REMARK SMILES CC1=CCC[C@H](C)C(=O)C[C@@H](C(C)C)C(=O)C1
REMARK SMILES IDX 8 1 9 2 6 3 7 4 5 5 4 6 3 7 2 8 1 9 10 11 11 12 15 13 16 14
REMARK SMILES IDX 17 15 12 17 13 18 14 19
REMARK H PARENT
REMARK Flexibility Score: 70.00
ROOT
ATOM      1  C   UNL     1      15.780 -34.460  21.310  1.00  0.00     0.136 C 
ATOM      2  O   UNL     1      15.045 -34.186  20.371  1.00  0.00    -0.299 OA
ENDROOT
BRANCH   1   3
ATOM      3  C   UNL     1      16.924 -35.443  21.124  1.00  0.00     0.053 C 
ATOM      4  C   UNL     1      16.739 -36.329  19.881  1.00  0.00     0.016 C 
BRANCH   3   5
ATOM      5  C   UNL     1      18.289 -34.723  21.110  1.00  0.00     0.015 C 
BRANCH   5   6
ATOM      6  C   UNL     1      18.351 -33.527  20.140  1.00  0.00     0.028 C 
BRANCH   6   7
ATOM      7  C   UNL     1      19.304 -32.476  20.645  1.00  0.00    -0.028 C 
ATOM      8  C   UNL     1      18.933 -31.337  21.275  1.00  0.00    -0.070 CG0
ATOM      9  C   UNL     1      20.020 -30.417  21.773  1.00  0.00     0.039 C 
ATOM     10  G   UNL     1      17.479 -30.941  21.486  1.00  0.00     0.000 G0
ENDBRANCH   6   7
ENDBRANCH   5   6
ENDBRANCH   3   5
ENDBRANCH   1   3
BRANCH   1  11
ATOM     11  C   UNL     1      15.533 -33.804  22.647  1.00  0.00     0.087 C 
BRANCH  11  12
ATOM     12  C   UNL     1      15.451 -32.258  22.533  1.00  0.00     0.066 C 
BRANCH  12  13
ATOM     13  C   UNL     1      16.827 -31.622  22.658  1.00  0.00     0.140 C 
ATOM     14  O   UNL     1      17.398 -31.613  23.739  1.00  0.00    -0.299 OA
BRANCH  13  15
ATOM     15  C   UNL     1      17.466 -30.922  21.482  1.00  0.00     0.106 CG0
ATOM     16  G   UNL     1      18.913 -31.341  21.271  1.00  0.00     0.000 G0
ENDBRANCH  13  15
ENDBRANCH  12  13
BRANCH  12  17
ATOM     17  C   UNL     1      14.449 -31.613  23.545  1.00  0.00    -0.006 C 
ATOM     18  C   UNL     1      13.680 -32.634  24.404  1.00  0.00     0.008 C 
ATOM     19  C   UNL     1      13.456 -30.676  22.836  1.00  0.00     0.008 C 
ENDBRANCH  12  17
ENDBRANCH  11  12
ENDBRANCH   1  11
TORSDOF 1
ENDMDL
MODEL 5
REMARK VINA RESULT:    -4.241      2.127      4.740
REMARK INTER + INTRA:          -6.343
REMARK INTER:                  -6.306
REMARK INTRA:                  -0.038
REMARK UNBOUND:                 0.129
REMARK SMILES CC1=CCC[C@H](C)C(=O)C[C@@H](C(C)C)C(=O)C1
REMARK SMILES IDX 8 1 9 2 6 3 7 4 5 5 4 6 3 7 2 8 1 9 10 11 11 12 15 13 16 14
REMARK SMILES IDX 17 15 12 17 13 18 14 19
REMARK H PARENT
REMARK Flexibility Score: 70.00
ROOT
ATOM      1  C   UNL     1      18.302 -33.912  20.438  1.00  0.00     0.136 C 
ATOM      2  O   UNL     1      19.101 -34.537  21.122  1.00  0.00    -0.299 OA
ENDROOT
BRANCH   1   3
ATOM      3  C   UNL     1      17.429 -34.636  19.427  1.00  0.00     0.053 C 
ATOM      4  C   UNL     1      17.602 -36.162  19.488  1.00  0.00     0.016 C 
BRANCH   3   5
ATOM      5  C   UNL     1      15.948 -34.226  19.565  1.00  0.00     0.015 C 
BRANCH   5   6
ATOM      6  C   UNL     1      15.393 -34.376  20.996  1.00  0.00     0.028 C 
BRANCH   6   7
ATOM      7  C   UNL     1      14.573 -33.172  21.381  1.00  0.00    -0.028 C 
ATOM      8  C   UNL     1      14.928 -32.267  22.323  1.00  0.00    -0.070 CG0
ATOM      9  C   UNL     1      14.020 -31.083  22.545  1.00  0.00     0.039 C 
ATOM     10  G   UNL     1      16.184 -32.401  23.172  1.00  0.00     0.000 G0
ENDBRANCH   6   7
ENDBRANCH   5   6
ENDBRANCH   3   5
ENDBRANCH   1   3
BRANCH   1  11
ATOM     11  C   UNL     1      18.197 -32.417  20.622  1.00  0.00     0.087 C 
BRANCH  11  12
ATOM     12  C   UNL     1      18.527 -31.982  22.075  1.00  0.00     0.066 C 
BRANCH  12  13
ATOM     13  C   UNL     1      17.289 -31.457  22.787  1.00  0.00     0.140 C 
ATOM     14  O   UNL     1      17.220 -30.276  23.097  1.00  0.00    -0.299 OA
BRANCH  13  15
ATOM     15  C   UNL     1      16.177 -32.392  23.197  1.00  0.00     0.106 CG0
ATOM     16  G   UNL     1      14.946 -32.255  22.312  1.00  0.00     0.000 G0
ENDBRANCH  13  15
ENDBRANCH  12  13
BRANCH  12  17
ATOM     17  C   UNL     1      19.697 -30.950  22.164  1.00  0.00    -0.006 C 
ATOM     18  C   UNL     1      20.692 -31.026  20.990  1.00  0.00     0.008 C 
ATOM     19  C   UNL     1      20.455 -31.070  23.497  1.00  0.00     0.008 C 
ENDBRANCH  12  17
ENDBRANCH  11  12
ENDBRANCH   1  11
TORSDOF 1
ENDMDL
MODEL 6
REMARK VINA RESULT:    -4.228      1.663      3.806
REMARK INTER + INTRA:          -6.324
REMARK INTER:                  -6.187
REMARK INTRA:                  -0.136
REMARK UNBOUND:                 0.129
REMARK SMILES CC1=CCC[C@H](C)C(=O)C[C@@H](C(C)C)C(=O)C1
REMARK SMILES IDX 8 1 9 2 6 3 7 4 5 5 4 6 3 7 2 8 1 9 10 11 11 12 15 13 16 14
REMARK SMILES IDX 17 15 12 17 13 18 14 19
REMARK H PARENT
REMARK Flexibility Score: 70.00
ROOT
ATOM      1  C   UNL     1      15.329 -33.378  23.696  1.00  0.00     0.136 C 
ATOM      2  O   UNL     1      14.348 -33.657  24.371  1.00  0.00    -0.299 OA
ENDROOT
BRANCH   1   3
ATOM      3  C   UNL     1      16.124 -34.476  23.010  1.00  0.00     0.053 C 
ATOM      4  C   UNL     1      15.696 -34.685  21.549  1.00  0.00     0.016 C 
BRANCH   3   5
ATOM      5  C   UNL     1      17.643 -34.228  23.127  1.00  0.00     0.015 C 
BRANCH   5   6
ATOM      6  C   UNL     1      18.351 -34.053  21.769  1.00  0.00     0.028 C 
BRANCH   6   7
ATOM      7  C   UNL     1      19.383 -32.958  21.840  1.00  0.00    -0.028 C 
ATOM      8  C   UNL     1      19.191 -31.688  21.412  1.00  0.00    -0.070 CG0
ATOM      9  C   UNL     1      20.310 -30.697  21.612  1.00  0.00     0.039 C 
ATOM     10  G   UNL     1      17.912 -31.227  20.728  1.00  0.00     0.000 G0
ENDBRANCH   6   7
ENDBRANCH   5   6
ENDBRANCH   3   5
ENDBRANCH   1   3
BRANCH   1  11
ATOM     11  C   UNL     1      15.729 -31.929  23.554  1.00  0.00     0.087 C 
BRANCH  11  12
ATOM     12  C   UNL     1      15.660 -31.444  22.081  1.00  0.00     0.066 C 
BRANCH  12  13
ATOM     13  C   UNL     1      16.910 -30.667  21.698  1.00  0.00     0.140 C 
ATOM     14  O   UNL     1      17.081 -29.536  22.130  1.00  0.00    -0.299 OA
BRANCH  13  15
ATOM     15  C   UNL     1      17.906 -31.239  20.717  1.00  0.00     0.106 CG0
ATOM     16  G   UNL     1      19.191 -31.695  21.393  1.00  0.00     0.000 G0
ENDBRANCH  13  15
ENDBRANCH  12  13
BRANCH  12  17
ATOM     17  C   UNL     1      14.373 -30.617  21.759  1.00  0.00    -0.006 C 
ATOM     18  C   UNL     1      13.704 -29.989  22.997  1.00  0.00     0.008 C 
ATOM     19  C   UNL     1      13.345 -31.454  20.980  1.00  0.00     0.008 C 
ENDBRANCH  12  17
ENDBRANCH  11  12
ENDBRANCH   1  11
TORSDOF 1
ENDMDL
MODEL 7
REMARK VINA RESULT:    -4.228      2.180      3.408
REMARK INTER + INTRA:          -6.324
REMARK INTER:                  -6.174
REMARK INTRA:                  -0.150
REMARK UNBOUND:                 0.129
REMARK SMILES CC1=CCC[C@H](C)C(=O)C[C@@H](C(C)C)C(=O)C1
REMARK SMILES IDX 8 1 9 2 6 3 7 4 5 5 4 6 3 7 2 8 1 9 10 11 11 12 15 13 16 14
REMARK SMILES IDX 17 15 12 17 13 18 14 19
REMARK H PARENT
REMARK Flexibility Score: 70.00
ROOT
ATOM      1  C   UNL     1      15.500 -34.292  20.691  1.00  0.00     0.136 C 
ATOM      2  O   UNL     1      14.750 -33.997  19.770  1.00  0.00    -0.299 OA
ENDROOT
BRANCH   1   3
ATOM      3  C   UNL     1      16.814 -35.001  20.410  1.00  0.00     0.053 C 
ATOM      4  C   UNL     1      16.630 -36.255  19.542  1.00  0.00     0.016 C 
BRANCH   3   5
ATOM      5  C   UNL     1      17.855 -34.037  19.803  1.00  0.00     0.015 C 
BRANCH   5   6
ATOM      6  C   UNL     1      18.965 -33.620  20.789  1.00  0.00     0.028 C 
BRANCH   6   7
ATOM      7  C   UNL     1      19.190 -34.690  21.825  1.00  0.00    -0.028 C 
ATOM      8  C   UNL     1      18.883 -34.568  23.138  1.00  0.00    -0.070 CG0
ATOM      9  C   UNL     1      19.118 -35.759  24.033  1.00  0.00     0.039 C 
ATOM     10  G   UNL     1      18.333 -33.287  23.746  1.00  0.00     0.000 G0
ENDBRANCH   6   7
ENDBRANCH   5   6
ENDBRANCH   3   5
ENDBRANCH   1   3
BRANCH   1  11
ATOM     11  C   UNL     1      15.098 -33.936  22.102  1.00  0.00     0.087 C 
BRANCH  11  12
ATOM     12  C   UNL     1      15.968 -32.792  22.687  1.00  0.00     0.066 C 
BRANCH  12  13
ATOM     13  C   UNL     1      16.824 -33.287  23.843  1.00  0.00     0.140 C 
ATOM     14  O   UNL     1      16.295 -33.629  24.891  1.00  0.00    -0.299 OA
BRANCH  13  15
ATOM     15  C   UNL     1      18.331 -33.280  23.747  1.00  0.00     0.106 CG0
ATOM     16  G   UNL     1      18.881 -34.562  23.139  1.00  0.00     0.000 G0
ENDBRANCH  13  15
ENDBRANCH  12  13
BRANCH  12  17
ATOM     17  C   UNL     1      15.140 -31.535  23.110  1.00  0.00    -0.006 C 
ATOM     18  C   UNL     1      13.728 -31.860  23.632  1.00  0.00     0.008 C 
ATOM     19  C   UNL     1      15.048 -30.510  21.967  1.00  0.00     0.008 C 
ENDBRANCH  12  17
ENDBRANCH  11  12
ENDBRANCH   1  11
TORSDOF 1
ENDMDL
MODEL 8
REMARK VINA RESULT:    -4.190      2.471      4.840
REMARK INTER + INTRA:          -6.265
REMARK INTER:                  -5.973
REMARK INTRA:                  -0.292
REMARK UNBOUND:                 0.129
REMARK SMILES CC1=CCC[C@H](C)C(=O)C[C@@H](C(C)C)C(=O)C1
REMARK SMILES IDX 8 1 9 2 6 3 7 4 5 5 4 6 3 7 2 8 1 9 10 11 11 12 15 13 16 14
REMARK SMILES IDX 17 15 12 17 13 18 14 19
REMARK H PARENT
REMARK Flexibility Score: 70.00
ROOT
ATOM      1  C   UNL     1      16.935 -34.671  23.453  1.00  0.00     0.136 C 
ATOM      2  O   UNL     1      17.936 -35.374  23.442  1.00  0.00    -0.299 OA
ENDROOT
BRANCH   1   3
ATOM      3  C   UNL     1      16.682 -33.717  24.608  1.00  0.00     0.053 C 
ATOM      4  C   UNL     1      16.733 -34.423  25.973  1.00  0.00     0.016 C 
BRANCH   3   5
ATOM      5  C   UNL     1      17.636 -32.506  24.559  1.00  0.00     0.015 C 
BRANCH   5   6
ATOM      6  C   UNL     1      17.123 -31.345  23.683  1.00  0.00     0.028 C 
BRANCH   6   7
ATOM      7  C   UNL     1      15.635 -31.172  23.842  1.00  0.00    -0.028 C 
ATOM      8  C   UNL     1      14.740 -31.218  22.827  1.00  0.00    -0.070 CG0
ATOM      9  C   UNL     1      13.277 -31.085  23.167  1.00  0.00     0.039 C 
ATOM     10  G   UNL     1      15.147 -31.379  21.369  1.00  0.00     0.000 G0
ENDBRANCH   6   7
ENDBRANCH   5   6
ENDBRANCH   3   5
ENDBRANCH   1   3
BRANCH   1  11
ATOM     11  C   UNL     1      15.964 -34.766  22.301  1.00  0.00     0.087 C 
BRANCH  11  12
ATOM     12  C   UNL     1      16.291 -33.747  21.176  1.00  0.00     0.066 C 
BRANCH  12  13
ATOM     13  C   UNL     1      15.111 -32.825  20.907  1.00  0.00     0.140 C 
ATOM     14  O   UNL     1      14.160 -33.228  20.252  1.00  0.00    -0.299 OA
BRANCH  13  15
ATOM     15  C   UNL     1      15.133 -31.387  21.365  1.00  0.00     0.106 CG0
ATOM     16  G   UNL     1      14.726 -31.234  22.824  1.00  0.00     0.000 G0
ENDBRANCH  13  15
ENDBRANCH  12  13
BRANCH  12  17
ATOM     17  C   UNL     1      16.781 -34.420  19.852  1.00  0.00    -0.006 C 
ATOM     18  C   UNL     1      16.500 -35.932  19.775  1.00  0.00     0.008 C 
ATOM     19  C   UNL     1      18.275 -34.154  19.605  1.00  0.00     0.008 C 
ENDBRANCH  12  17
ENDBRANCH  11  12
ENDBRANCH   1  11
TORSDOF 1
ENDMDL
MODEL 9
REMARK VINA RESULT:    -4.130      1.733      2.264
REMARK INTER + INTRA:          -6.174
REMARK INTER:                  -6.046
REMARK INTRA:                  -0.128
REMARK UNBOUND:                 0.129
REMARK SMILES CC1=CCC[C@H](C)C(=O)C[C@@H](C(C)C)C(=O)C1
REMARK SMILES IDX 8 1 9 2 6 3 7 4 5 5 4 6 3 7 2 8 1 9 10 11 11 12 15 13 16 14
REMARK SMILES IDX 17 15 12 17 13 18 14 19
REMARK H PARENT
REMARK Flexibility Score: 70.00
ROOT
ATOM      1  C   UNL     1      16.946 -30.346  21.872  1.00  0.00     0.136 C 
ATOM      2  O   UNL     1      16.755 -29.651  22.861  1.00  0.00    -0.299 OA
ENDROOT
BRANCH   1   3
ATOM      3  C   UNL     1      18.294 -30.325  21.172  1.00  0.00     0.053 C 
ATOM      4  C   UNL     1      18.825 -28.898  20.963  1.00  0.00     0.016 C 
BRANCH   3   5
ATOM      5  C   UNL     1      19.322 -31.212  21.904  1.00  0.00     0.015 C 
BRANCH   5   6
ATOM      6  C   UNL     1      19.746 -32.461  21.106  1.00  0.00     0.028 C 
BRANCH   6   7
ATOM      7  C   UNL     1      19.363 -33.721  21.837  1.00  0.00    -0.028 C 
ATOM      8  C   UNL     1      18.291 -34.491  21.537  1.00  0.00    -0.070 CG0
ATOM      9  C   UNL     1      18.082 -35.755  22.332  1.00  0.00     0.039 C 
ATOM     10  G   UNL     1      17.286 -34.129  20.453  1.00  0.00     0.000 G0
ENDBRANCH   6   7
ENDBRANCH   5   6
ENDBRANCH   3   5
ENDBRANCH   1   3
BRANCH   1  11
ATOM     11  C   UNL     1      15.824 -31.221  21.367  1.00  0.00     0.087 C 
BRANCH  11  12
ATOM     12  C   UNL     1      15.829 -32.622  22.036  1.00  0.00     0.066 C 
BRANCH  12  13
ATOM     13  C   UNL     1      15.936 -33.728  20.998  1.00  0.00     0.140 C 
ATOM     14  O   UNL     1      14.935 -34.341  20.655  1.00  0.00    -0.299 OA
BRANCH  13  15
ATOM     15  C   UNL     1      17.278 -34.142  20.444  1.00  0.00     0.106 CG0
ATOM     16  G   UNL     1      18.281 -34.478  21.538  1.00  0.00     0.000 G0
ENDBRANCH  13  15
ENDBRANCH  12  13
BRANCH  12  17
ATOM     17  C   UNL     1      14.607 -32.864  22.980  1.00  0.00    -0.006 C 
ATOM     18  C   UNL     1      13.642 -31.667  23.078  1.00  0.00     0.008 C 
ATOM     19  C   UNL     1      15.058 -33.285  24.389  1.00  0.00     0.008 C 
ENDBRANCH  12  17
ENDBRANCH  11  12
ENDBRANCH   1  11
TORSDOF 1
ENDMDL
