MODEL 1
REMARK VINA RESULT:    -3.966      0.000      0.000
REMARK INTER + INTRA:          -6.539
REMARK INTER:                  -6.053
REMARK INTRA:                  -0.486
REMARK UNBOUND:                -0.486
REMARK SMILES O=C([O-])CCCCCCCCC(=O)[O-]
REMARK SMILES IDX 7 1 6 2 5 3 4 4 2 5 1 6 3 7 8 8 9 9 10 10 11 11 12 12 13 13
REMARK SMILES IDX 14 14
REMARK H PARENT
REMARK Flexibility Score: inf
ROOT
ATOM      1  C   UNL     1      22.125   0.519  40.431  1.00  0.00     0.000 C 
ENDROOT
BRANCH   1   2
ATOM      2  C   UNL     1      22.189   1.192  41.810  1.00  0.00     0.000 C 
BRANCH   2   3
ATOM      3  C   UNL     1      23.002   2.491  41.749  1.00  0.00     0.006 C 
BRANCH   3   4
ATOM      4  C   UNL     1      22.333   3.596  42.572  1.00  0.00     0.053 C 
BRANCH   4   5
ATOM      5  C   UNL     1      23.178   3.956  43.753  1.00  0.00     0.041 C 
ATOM      6  O   UNL     1      22.637   4.297  44.838  1.00  0.00    -0.550 OA
ATOM      7  O   UNL     1      24.560   3.864  43.672  1.00  0.00    -0.550 OA
ENDBRANCH   4   5
ENDBRANCH   3   4
ENDBRANCH   2   3
ENDBRANCH   1   2
BRANCH   1   8
ATOM      8  C   UNL     1      22.182  -1.018  40.509  1.00  0.00     0.000 C 
BRANCH   8   9
ATOM      9  C   UNL     1      22.671  -1.582  41.854  1.00  0.00     0.000 C 
BRANCH   9  10
ATOM     10  C   UNL     1      21.593  -2.397  42.590  1.00  0.00     0.006 C 
BRANCH  10  11
ATOM     11  C   UNL     1      21.014  -1.640  43.793  1.00  0.00     0.053 C 
BRANCH  11  12
ATOM     12  C   UNL     1      21.577  -2.140  45.087  1.00  0.00     0.041 C 
ATOM     13  O   UNL     1      22.738  -2.626  45.127  1.00  0.00    -0.550 OA
ATOM     14  O   UNL     1      20.834  -2.034  46.257  1.00  0.00    -0.550 OA
ENDBRANCH  11  12
ENDBRANCH  10  11
ENDBRANCH   9  10
ENDBRANCH   8   9
ENDBRANCH   1   8
TORSDOF 9
ENDMDL
MODEL 2
REMARK VINA RESULT:    -3.892      2.499      5.830
REMARK INTER + INTRA:          -6.425
REMARK INTER:                  -5.833
REMARK INTRA:                  -0.592
REMARK UNBOUND:                -0.486
REMARK SMILES O=C([O-])CCCCCCCCC(=O)[O-]
REMARK SMILES IDX 7 1 6 2 5 3 4 4 2 5 1 6 3 7 8 8 9 9 10 10 11 11 12 12 13 13
REMARK SMILES IDX 14 14
REMARK H PARENT
REMARK Flexibility Score: inf
ROOT
ATOM      1  C   UNL     1      20.183   0.821  43.592  1.00  0.00     0.000 C 
ENDROOT
BRANCH   1   2
ATOM      2  C   UNL     1      20.250  -0.578  44.222  1.00  0.00     0.000 C 
BRANCH   2   3
ATOM      3  C   UNL     1      20.884  -1.585  43.256  1.00  0.00     0.006 C 
BRANCH   3   4
ATOM      4  C   UNL     1      21.090  -0.964  41.871  1.00  0.00     0.053 C 
BRANCH   4   5
ATOM      5  C   UNL     1      22.369  -1.447  41.264  1.00  0.00     0.041 C 
ATOM      6  O   UNL     1      23.213  -2.059  41.969  1.00  0.00    -0.550 OA
ATOM      7  O   UNL     1      22.605  -1.268  39.907  1.00  0.00    -0.550 OA
ENDBRANCH   4   5
ENDBRANCH   3   4
ENDBRANCH   2   3
ENDBRANCH   1   2
BRANCH   1   8
ATOM      8  C   UNL     1      20.033   1.944  44.635  1.00  0.00     0.000 C 
BRANCH   8   9
ATOM      9  C   UNL     1      20.120   3.372  44.069  1.00  0.00     0.000 C 
BRANCH   9  10
ATOM     10  C   UNL     1      21.544   3.951  44.118  1.00  0.00     0.006 C 
BRANCH  10  11
ATOM     11  C   UNL     1      22.107   4.224  42.717  1.00  0.00     0.053 C 
BRANCH  11  12
ATOM     12  C   UNL     1      23.077   3.166  42.291  1.00  0.00     0.041 C 
ATOM     13  O   UNL     1      22.691   2.201  41.581  1.00  0.00    -0.550 OA
ATOM     14  O   UNL     1      24.417   3.266  42.648  1.00  0.00    -0.550 OA
ENDBRANCH  11  12
ENDBRANCH  10  11
ENDBRANCH   9  10
ENDBRANCH   8   9
ENDBRANCH   1   8
TORSDOF 9
ENDMDL
MODEL 3
REMARK VINA RESULT:    -3.793      2.922      3.996
REMARK INTER + INTRA:          -6.275
REMARK INTER:                  -5.656
REMARK INTRA:                  -0.619
REMARK UNBOUND:                -0.486
REMARK SMILES O=C([O-])CCCCCCCCC(=O)[O-]
REMARK SMILES IDX 7 1 6 2 5 3 4 4 2 5 1 6 3 7 8 8 9 9 10 10 11 11 12 12 13 13
REMARK SMILES IDX 14 14
REMARK H PARENT
REMARK Flexibility Score: inf
ROOT
ATOM      1  C   UNL     1      19.876   1.419  44.344  1.00  0.00     0.000 C 
ENDROOT
BRANCH   1   2
ATOM      2  C   UNL     1      20.196   2.342  45.529  1.00  0.00     0.000 C 
BRANCH   2   3
ATOM      3  C   UNL     1      20.901   3.618  45.056  1.00  0.00     0.006 C 
BRANCH   3   4
ATOM      4  C   UNL     1      21.031   3.641  43.530  1.00  0.00     0.053 C 
BRANCH   4   5
ATOM      5  C   UNL     1      22.471   3.594  43.125  1.00  0.00     0.041 C 
ATOM      6  O   UNL     1      23.361   4.037  43.898  1.00  0.00    -0.550 OA
ATOM      7  O   UNL     1      22.835   3.016  41.916  1.00  0.00    -0.550 OA
ENDBRANCH   4   5
ENDBRANCH   3   4
ENDBRANCH   2   3
ENDBRANCH   1   2
BRANCH   1   8
ATOM      8  C   UNL     1      19.926  -0.075  44.715  1.00  0.00     0.000 C 
BRANCH   8   9
ATOM      9  C   UNL     1      20.479  -0.999  43.616  1.00  0.00     0.000 C 
BRANCH   9  10
ATOM     10  C   UNL     1      21.090  -0.226  42.434  1.00  0.00     0.006 C 
BRANCH  10  11
ATOM     11  C   UNL     1      22.300  -0.951  41.830  1.00  0.00     0.053 C 
BRANCH  11  12
ATOM     12  C   UNL     1      22.377  -0.761  40.347  1.00  0.00     0.041 C 
ATOM     13  O   UNL     1      21.959   0.304  39.822  1.00  0.00    -0.550 OA
ATOM     14  O   UNL     1      22.948  -1.745  39.548  1.00  0.00    -0.550 OA
ENDBRANCH  11  12
ENDBRANCH  10  11
ENDBRANCH   9  10
ENDBRANCH   8   9
ENDBRANCH   1   8
TORSDOF 9
ENDMDL
MODEL 4
REMARK VINA RESULT:    -3.770      3.273      5.015
REMARK INTER + INTRA:          -6.239
REMARK INTER:                  -5.765
REMARK INTRA:                  -0.475
REMARK UNBOUND:                -0.486
REMARK SMILES O=C([O-])CCCCCCCCC(=O)[O-]
REMARK SMILES IDX 7 1 6 2 5 3 4 4 2 5 1 6 3 7 8 8 9 9 10 10 11 11 12 12 13 13
REMARK SMILES IDX 14 14
REMARK H PARENT
REMARK Flexibility Score: inf
ROOT
ATOM      1  C   UNL     1      21.826   0.252  41.338  1.00  0.00     0.000 C 
ENDROOT
BRANCH   1   2
ATOM      2  C   UNL     1      22.222  -0.278  39.951  1.00  0.00     0.000 C 
BRANCH   2   3
ATOM      3  C   UNL     1      22.113  -1.807  39.896  1.00  0.00     0.006 C 
BRANCH   3   4
ATOM      4  C   UNL     1      23.473  -2.463  40.150  1.00  0.00     0.053 C 
BRANCH   4   5
ATOM      5  C   UNL     1      24.092  -2.903  38.861  1.00  0.00     0.041 C 
ATOM      6  O   UNL     1      24.445  -2.050  38.005  1.00  0.00    -0.550 OA
ATOM      7  O   UNL     1      24.326  -4.251  38.627  1.00  0.00    -0.550 OA
ENDBRANCH   4   5
ENDBRANCH   3   4
ENDBRANCH   2   3
ENDBRANCH   1   2
BRANCH   1   8
ATOM      8  C   UNL     1      20.638  -0.509  41.955  1.00  0.00     0.000 C 
BRANCH   8   9
ATOM      9  C   UNL     1      20.108   0.076  43.276  1.00  0.00     0.000 C 
BRANCH   9  10
ATOM     10  C   UNL     1      20.378  -0.834  44.486  1.00  0.00     0.006 C 
BRANCH  10  11
ATOM     11  C   UNL     1      21.416  -1.920  44.174  1.00  0.00     0.053 C 
BRANCH  11  12
ATOM     12  C   UNL     1      22.122  -2.384  45.410  1.00  0.00     0.041 C 
ATOM     13  O   UNL     1      23.325  -2.749  45.353  1.00  0.00    -0.550 OA
ATOM     14  O   UNL     1      21.462  -2.378  46.634  1.00  0.00    -0.550 OA
ENDBRANCH  11  12
ENDBRANCH  10  11
ENDBRANCH   9  10
ENDBRANCH   8   9
ENDBRANCH   1   8
TORSDOF 9
ENDMDL
MODEL 5
REMARK VINA RESULT:    -3.716      3.109      5.393
REMARK INTER + INTRA:          -6.158
REMARK INTER:                  -5.353
REMARK INTRA:                  -0.806
REMARK UNBOUND:                -0.486
REMARK SMILES O=C([O-])CCCCCCCCC(=O)[O-]
REMARK SMILES IDX 7 1 6 2 5 3 4 4 2 5 1 6 3 7 8 8 9 9 10 10 11 11 12 12 13 13
REMARK SMILES IDX 14 14
REMARK H PARENT
REMARK Flexibility Score: inf
ROOT
ATOM      1  C   UNL     1      21.861   0.413  41.963  1.00  0.00     0.000 C 
ENDROOT
BRANCH   1   2
ATOM      2  C   UNL     1      20.421   0.086  42.385  1.00  0.00     0.000 C 
BRANCH   2   3
ATOM      3  C   UNL     1      20.401  -0.731  43.682  1.00  0.00     0.006 C 
BRANCH   3   4
ATOM      4  C   UNL     1      21.372  -1.913  43.601  1.00  0.00     0.053 C 
BRANCH   4   5
ATOM      5  C   UNL     1      21.897  -2.254  44.960  1.00  0.00     0.041 C 
ATOM      6  O   UNL     1      21.195  -2.039  45.983  1.00  0.00    -0.550 OA
ATOM      7  O   UNL     1      23.141  -2.857  45.094  1.00  0.00    -0.550 OA
ENDBRANCH   4   5
ENDBRANCH   3   4
ENDBRANCH   2   3
ENDBRANCH   1   2
BRANCH   1   8
ATOM      8  C   UNL     1      22.127   0.139  40.471  1.00  0.00     0.000 C 
BRANCH   8   9
ATOM      9  C   UNL     1      21.162  -0.863  39.812  1.00  0.00     0.000 C 
BRANCH   9  10
ATOM     10  C   UNL     1      21.751  -2.280  39.705  1.00  0.00     0.006 C 
BRANCH  10  11
ATOM     11  C   UNL     1      23.261  -2.303  39.977  1.00  0.00     0.053 C 
BRANCH  11  12
ATOM     12  C   UNL     1      24.031  -2.790  38.789  1.00  0.00     0.041 C 
ATOM     13  O   UNL     1      24.412  -1.979  37.905  1.00  0.00    -0.550 OA
ATOM     14  O   UNL     1      24.362  -4.136  38.677  1.00  0.00    -0.550 OA
ENDBRANCH  11  12
ENDBRANCH  10  11
ENDBRANCH   9  10
ENDBRANCH   8   9
ENDBRANCH   1   8
TORSDOF 9
ENDMDL
MODEL 6
REMARK VINA RESULT:    -3.714      1.469      5.695
REMARK INTER + INTRA:          -6.154
REMARK INTER:                  -5.667
REMARK INTRA:                  -0.488
REMARK UNBOUND:                -0.486
REMARK SMILES O=C([O-])CCCCCCCCC(=O)[O-]
REMARK SMILES IDX 7 1 6 2 5 3 4 4 2 5 1 6 3 7 8 8 9 9 10 10 11 11 12 12 13 13
REMARK SMILES IDX 14 14
REMARK H PARENT
REMARK Flexibility Score: inf
ROOT
ATOM      1  C   UNL     1      22.286  -0.882  40.745  1.00  0.00     0.000 C 
ENDROOT
BRANCH   1   2
ATOM      2  C   UNL     1      20.932  -1.596  40.870  1.00  0.00     0.000 C 
BRANCH   2   3
ATOM      3  C   UNL     1      20.921  -2.545  42.075  1.00  0.00     0.006 C 
BRANCH   3   4
ATOM      4  C   UNL     1      21.628  -1.913  43.278  1.00  0.00     0.053 C 
BRANCH   4   5
ATOM      5  C   UNL     1      22.610  -2.872  43.872  1.00  0.00     0.041 C 
ATOM      6  O   UNL     1      23.097  -3.797  43.170  1.00  0.00    -0.550 OA
ATOM      7  O   UNL     1      23.028  -2.714  45.187  1.00  0.00    -0.550 OA
ENDBRANCH   4   5
ENDBRANCH   3   4
ENDBRANCH   2   3
ENDBRANCH   1   2
BRANCH   1   8
ATOM      8  C   UNL     1      22.149   0.645  40.605  1.00  0.00     0.000 C 
BRANCH   8   9
ATOM      9  C   UNL     1      22.295   1.434  41.917  1.00  0.00     0.000 C 
BRANCH   9  10
ATOM     10  C   UNL     1      22.996   2.790  41.727  1.00  0.00     0.006 C 
BRANCH  10  11
ATOM     11  C   UNL     1      23.068   3.594  43.032  1.00  0.00     0.053 C 
BRANCH  11  12
ATOM     12  C   UNL     1      21.712   4.036  43.487  1.00  0.00     0.041 C 
ATOM     13  O   UNL     1      21.139   3.443  44.437  1.00  0.00    -0.550 OA
ATOM     14  O   UNL     1      21.097   5.128  42.886  1.00  0.00    -0.550 OA
ENDBRANCH  11  12
ENDBRANCH  10  11
ENDBRANCH   9  10
ENDBRANCH   8   9
ENDBRANCH   1   8
TORSDOF 9
ENDMDL
MODEL 7
REMARK VINA RESULT:    -3.706     15.742     16.995
REMARK INTER + INTRA:          -6.143
REMARK INTER:                  -5.716
REMARK INTRA:                  -0.427
REMARK UNBOUND:                -0.486
REMARK SMILES O=C([O-])CCCCCCCCC(=O)[O-]
REMARK SMILES IDX 7 1 6 2 5 3 4 4 2 5 1 6 3 7 8 8 9 9 10 10 11 11 12 12 13 13
REMARK SMILES IDX 14 14
REMARK H PARENT
REMARK Flexibility Score: inf
ROOT
ATOM      1  C   UNL     1      27.998  -9.515  31.001  1.00  0.00     0.000 C 
ENDROOT
BRANCH   1   2
ATOM      2  C   UNL     1      26.820 -10.171  30.265  1.00  0.00     0.000 C 
BRANCH   2   3
ATOM      3  C   UNL     1      26.053  -9.139  29.429  1.00  0.00     0.006 C 
BRANCH   3   4
ATOM      4  C   UNL     1      24.798  -8.660  30.165  1.00  0.00     0.053 C 
BRANCH   4   5
ATOM      5  C   UNL     1      24.051  -7.665  29.334  1.00  0.00     0.041 C 
ATOM      6  O   UNL     1      24.051  -6.446  29.652  1.00  0.00    -0.550 OA
ATOM      7  O   UNL     1      23.396  -8.074  28.181  1.00  0.00    -0.550 OA
ENDBRANCH   4   5
ENDBRANCH   3   4
ENDBRANCH   2   3
ENDBRANCH   1   2
BRANCH   1   8
ATOM      8  C   UNL     1      29.368 -10.027  30.519  1.00  0.00     0.000 C 
BRANCH   8   9
ATOM      9  C   UNL     1      30.388 -10.306  31.637  1.00  0.00     0.000 C 
BRANCH   9  10
ATOM     10  C   UNL     1      31.724  -9.574  31.425  1.00  0.00     0.006 C 
BRANCH  10  11
ATOM     11  C   UNL     1      31.559  -8.048  31.444  1.00  0.00     0.053 C 
BRANCH  11  12
ATOM     12  C   UNL     1      31.043  -7.562  32.763  1.00  0.00     0.041 C 
ATOM     13  O   UNL     1      30.024  -6.825  32.812  1.00  0.00    -0.550 OA
ATOM     14  O   UNL     1      31.667  -7.954  33.942  1.00  0.00    -0.550 OA
ENDBRANCH  11  12
ENDBRANCH  10  11
ENDBRANCH   9  10
ENDBRANCH   8   9
ENDBRANCH   1   8
TORSDOF 9
ENDMDL
MODEL 8
REMARK VINA RESULT:    -3.655     15.573     16.892
REMARK INTER + INTRA:          -6.064
REMARK INTER:                  -5.689
REMARK INTRA:                  -0.375
REMARK UNBOUND:                -0.486
REMARK SMILES O=C([O-])CCCCCCCCC(=O)[O-]
REMARK SMILES IDX 7 1 6 2 5 3 4 4 2 5 1 6 3 7 8 8 9 9 10 10 11 11 12 12 13 13
REMARK SMILES IDX 14 14
REMARK H PARENT
REMARK Flexibility Score: inf
ROOT
ATOM      1  C   UNL     1      28.957 -10.142  30.712  1.00  0.00     0.000 C 
ENDROOT
BRANCH   1   2
ATOM      2  C   UNL     1      30.350 -10.751  30.924  1.00  0.00     0.000 C 
BRANCH   2   3
ATOM      3  C   UNL     1      31.233  -9.822  31.766  1.00  0.00     0.006 C 
BRANCH   3   4
ATOM      4  C   UNL     1      30.898  -8.352  31.495  1.00  0.00     0.053 C 
BRANCH   4   5
ATOM      5  C   UNL     1      30.771  -7.597  32.780  1.00  0.00     0.041 C 
ATOM      6  O   UNL     1      30.037  -6.576  32.846  1.00  0.00    -0.550 OA
ATOM      7  O   UNL     1      31.422  -8.051  33.920  1.00  0.00    -0.550 OA
ENDBRANCH   4   5
ENDBRANCH   3   4
ENDBRANCH   2   3
ENDBRANCH   1   2
BRANCH   1   8
ATOM      8  C   UNL     1      28.228 -10.723  29.486  1.00  0.00     0.000 C 
BRANCH   8   9
ATOM      9  C   UNL     1      27.258  -9.753  28.787  1.00  0.00     0.000 C 
BRANCH   9  10
ATOM     10  C   UNL     1      26.205  -9.167  29.743  1.00  0.00     0.006 C 
BRANCH  10  11
ATOM     11  C   UNL     1      24.910  -8.785  29.014  1.00  0.00     0.053 C 
BRANCH  11  12
ATOM     12  C   UNL     1      24.059  -7.869  29.837  1.00  0.00     0.041 C 
ATOM     13  O   UNL     1      24.094  -6.626  29.642  1.00  0.00    -0.550 OA
ATOM     14  O   UNL     1      23.198  -8.391  30.796  1.00  0.00    -0.550 OA
ENDBRANCH  11  12
ENDBRANCH  10  11
ENDBRANCH   9  10
ENDBRANCH   8   9
ENDBRANCH   1   8
TORSDOF 9
ENDMDL
MODEL 9
REMARK VINA RESULT:    -3.647     15.768     17.592
REMARK INTER + INTRA:          -6.053
REMARK INTER:                  -5.489
REMARK INTRA:                  -0.564
REMARK UNBOUND:                -0.486
REMARK SMILES O=C([O-])CCCCCCCCC(=O)[O-]
REMARK SMILES IDX 7 1 6 2 5 3 4 4 2 5 1 6 3 7 8 8 9 9 10 10 11 11 12 12 13 13
REMARK SMILES IDX 14 14
REMARK H PARENT
REMARK Flexibility Score: inf
ROOT
ATOM      1  C   UNL     1      28.718 -11.388  30.217  1.00  0.00     0.000 C 
ENDROOT
BRANCH   1   2
ATOM      2  C   UNL     1      27.929 -11.301  28.902  1.00  0.00     0.000 C 
BRANCH   2   3
ATOM      3  C   UNL     1      27.594  -9.845  28.558  1.00  0.00     0.006 C 
BRANCH   3   4
ATOM      4  C   UNL     1      26.083  -9.654  28.391  1.00  0.00     0.053 C 
BRANCH   4   5
ATOM      5  C   UNL     1      25.519  -8.897  29.552  1.00  0.00     0.041 C 
ATOM      6  O   UNL     1      24.629  -8.025  29.367  1.00  0.00    -0.550 OA
ATOM      7  O   UNL     1      25.938  -9.189  30.843  1.00  0.00    -0.550 OA
ENDBRANCH   4   5
ENDBRANCH   3   4
ENDBRANCH   2   3
ENDBRANCH   1   2
BRANCH   1   8
ATOM      8  C   UNL     1      29.423 -10.068  30.583  1.00  0.00     0.000 C 
BRANCH   8   9
ATOM      9  C   UNL     1      30.492 -10.187  31.684  1.00  0.00     0.000 C 
BRANCH   9  10
ATOM     10  C   UNL     1      31.786  -9.425  31.348  1.00  0.00     0.006 C 
BRANCH  10  11
ATOM     11  C   UNL     1      31.623  -7.908  31.506  1.00  0.00     0.053 C 
BRANCH  11  12
ATOM     12  C   UNL     1      31.038  -7.548  32.837  1.00  0.00     0.041 C 
ATOM     13  O   UNL     1      29.946  -6.926  32.901  1.00  0.00    -0.550 OA
ATOM     14  O   UNL     1      31.681  -7.933  34.007  1.00  0.00    -0.550 OA
ENDBRANCH  11  12
ENDBRANCH  10  11
ENDBRANCH   9  10
ENDBRANCH   8   9
ENDBRANCH   1   8
TORSDOF 9
ENDMDL
