MODEL 1
REMARK VINA RESULT:    -7.296      0.000      0.000
REMARK INTER + INTRA:          -9.112
REMARK INTER:                  -8.789
REMARK INTRA:                  -0.323
REMARK UNBOUND:                -0.323
REMARK SMILES Oc1cc(O)c2cc(O)c(-c3ccc(O)c(O)c3)[o+]c2c1.[Cl-]
REMARK SMILES IDX 10 1 19 2 20 3 21 4 2 5 3 6 4 7 6 8 7 9 8 10 11 11 12 12
REMARK SMILES IDX 13 13 14 14 18 15 16 16 15 17 17 19 9 21 1 23 5 25
REMARK H PARENT 15 18 17 20 9 22 1 24 5 26
REMARK Flexibility Score: inf
ROOT
ATOM      1  C   UNL     1      33.876   4.570  17.319  1.00  0.00     0.402 A 
ATOM      2  O   UNL     1      35.134   4.138  17.313  1.00  0.00    -0.202 OA
ATOM      3  C   UNL     1      35.844   3.978  16.201  1.00  0.00     0.368 A 
ATOM      4  C   UNL     1      37.160   3.516  16.296  1.00  0.00     0.162 A 
ATOM      5  C   UNL     1      37.929   3.335  15.142  1.00  0.00     0.128 A 
ATOM      6  C   UNL     1      37.379   3.615  13.889  1.00  0.00     0.093 A 
ATOM      7  C   UNL     1      36.063   4.078  13.767  1.00  0.00     0.136 A 
ATOM      8  C   UNL     1      35.279   4.267  14.936  1.00  0.00     0.125 A 
ATOM      9  C   UNL     1      33.957   4.739  14.911  1.00  0.00     0.078 A 
ATOM     10  C   UNL     1      33.248   4.904  16.105  1.00  0.00     0.223 A 
ENDROOT
BRANCH   1  11
ATOM     11  C   UNL     1      33.186   4.698  18.624  1.00  0.00     0.087 A 
ATOM     12  C   UNL     1      33.513   5.764  19.474  1.00  0.00     0.022 A 
ATOM     13  C   UNL     1      32.889   5.894  20.716  1.00  0.00     0.051 A 
ATOM     14  C   UNL     1      31.941   4.958  21.141  1.00  0.00     0.157 A 
ATOM     15  C   UNL     1      32.251   3.743  19.056  1.00  0.00     0.068 A 
ATOM     16  C   UNL     1      31.622   3.863  20.303  1.00  0.00     0.158 A 
BRANCH  14  17
ATOM     17  O   UNL     1      31.348   5.148  22.391  1.00  0.00    -0.504 OA
ATOM     18  H   UNL     1      31.865   5.233  23.254  1.00  0.00     0.293 HD
ENDBRANCH  14  17
BRANCH  16  19
ATOM     19  O   UNL     1      30.702   2.877  20.665  1.00  0.00    -0.504 OA
ATOM     20  H   UNL     1      29.720   2.909  20.431  1.00  0.00     0.293 HD
ENDBRANCH  16  19
ENDBRANCH   1  11
BRANCH  10  21
ATOM     21  O   UNL     1      31.953   5.420  16.084  1.00  0.00    -0.500 OA
ATOM     22  H   UNL     1      31.772   6.395  15.871  1.00  0.00     0.294 HD
ENDBRANCH  10  21
BRANCH   5  23
ATOM     23  O   UNL     1      39.240   2.875  15.229  1.00  0.00    -0.507 OA
ATOM     24  H   UNL     1      39.452   1.887  15.314  1.00  0.00     0.293 HD
ENDBRANCH   5  23
BRANCH   7  25
ATOM     25  O   UNL     1      35.586   4.333  12.477  1.00  0.00    -0.507 OA
ATOM     26  H   UNL     1      35.753   5.187  11.966  1.00  0.00     0.293 HD
ENDBRANCH   7  25
TORSDOF 6
ENDMDL
MODEL 2
REMARK VINA RESULT:    -6.445     18.833     21.292
REMARK INTER + INTRA:          -8.087
REMARK INTER:                  -8.062
REMARK INTRA:                  -0.025
REMARK UNBOUND:                -0.323
REMARK SMILES Oc1cc(O)c2cc(O)c(-c3ccc(O)c(O)c3)[o+]c2c1.[Cl-]
REMARK SMILES IDX 10 1 19 2 20 3 21 4 2 5 3 6 4 7 6 8 7 9 8 10 11 11 12 12
REMARK SMILES IDX 13 13 14 14 18 15 16 16 15 17 17 19 9 21 1 23 5 25
REMARK H PARENT 15 18 17 20 9 22 1 24 5 26
REMARK Flexibility Score: inf
ROOT
ATOM      1  C   UNL     1      42.567  20.840   8.540  1.00  0.00     0.402 A 
ATOM      2  O   UNL     1      43.117  20.910   9.750  1.00  0.00    -0.202 OA
ATOM      3  C   UNL     1      42.499  20.505  10.855  1.00  0.00     0.368 A 
ATOM      4  C   UNL     1      43.158  20.621  12.082  1.00  0.00     0.162 A 
ATOM      5  C   UNL     1      42.531  20.207  13.261  1.00  0.00     0.128 A 
ATOM      6  C   UNL     1      41.240  19.675  13.212  1.00  0.00     0.093 A 
ATOM      7  C   UNL     1      40.559  19.549  11.996  1.00  0.00     0.136 A 
ATOM      8  C   UNL     1      41.192  19.965  10.796  1.00  0.00     0.125 A 
ATOM      9  C   UNL     1      40.591  19.864   9.530  1.00  0.00     0.078 A 
ATOM     10  C   UNL     1      41.279  20.292   8.391  1.00  0.00     0.223 A 
ENDROOT
BRANCH   1  11
ATOM     11  C   UNL     1      43.352  21.332   7.385  1.00  0.00     0.087 A 
ATOM     12  C   UNL     1      43.877  22.632   7.412  1.00  0.00     0.022 A 
ATOM     13  C   UNL     1      44.604  23.123   6.326  1.00  0.00     0.051 A 
ATOM     14  C   UNL     1      44.808  22.336   5.188  1.00  0.00     0.157 A 
ATOM     15  C   UNL     1      43.536  20.547   6.234  1.00  0.00     0.068 A 
ATOM     16  C   UNL     1      44.260  21.032   5.138  1.00  0.00     0.158 A 
BRANCH  14  17
ATOM     17  O   UNL     1      45.549  22.883   4.139  1.00  0.00    -0.504 OA
ATOM     18  H   UNL     1      45.848  23.847   4.100  1.00  0.00     0.293 HD
ENDBRANCH  14  17
BRANCH  16  19
ATOM     19  O   UNL     1      44.403  20.195   4.030  1.00  0.00    -0.504 OA
ATOM     20  H   UNL     1      44.191  20.474   3.082  1.00  0.00     0.293 HD
ENDBRANCH  16  19
ENDBRANCH   1  11
BRANCH  10  21
ATOM     21  O   UNL     1      40.703  20.146   7.129  1.00  0.00    -0.500 OA
ATOM     22  H   UNL     1      41.214  19.738   6.355  1.00  0.00     0.294 HD
ENDBRANCH  10  21
BRANCH   5  23
ATOM     23  O   UNL     1      43.181  20.319  14.488  1.00  0.00    -0.507 OA
ATOM     24  H   UNL     1      43.683  19.539  14.895  1.00  0.00     0.293 HD
ENDBRANCH   5  23
BRANCH   7  25
ATOM     25  O   UNL     1      39.269  19.010  12.032  1.00  0.00    -0.507 OA
ATOM     26  H   UNL     1      38.643  19.083  12.820  1.00  0.00     0.293 HD
ENDBRANCH   7  25
TORSDOF 6
ENDMDL
MODEL 3
REMARK VINA RESULT:    -6.134     19.005     21.306
REMARK INTER + INTRA:          -7.712
REMARK INTER:                  -8.103
REMARK INTRA:                   0.391
REMARK UNBOUND:                -0.323
REMARK SMILES Oc1cc(O)c2cc(O)c(-c3ccc(O)c(O)c3)[o+]c2c1.[Cl-]
REMARK SMILES IDX 10 1 19 2 20 3 21 4 2 5 3 6 4 7 6 8 7 9 8 10 11 11 12 12
REMARK SMILES IDX 13 13 14 14 18 15 16 16 15 17 17 19 9 21 1 23 5 25
REMARK H PARENT 15 18 17 20 9 22 1 24 5 26
REMARK Flexibility Score: inf
ROOT
ATOM      1  C   UNL     1      42.746  20.997   9.580  1.00  0.00     0.402 A 
ATOM      2  O   UNL     1      43.013  21.763  10.634  1.00  0.00    -0.202 OA
ATOM      3  C   UNL     1      42.571  21.496  11.859  1.00  0.00     0.368 A 
ATOM      4  C   UNL     1      42.903  22.363  12.904  1.00  0.00     0.162 A 
ATOM      5  C   UNL     1      42.449  22.109  14.202  1.00  0.00     0.128 A 
ATOM      6  C   UNL     1      41.659  20.984  14.455  1.00  0.00     0.093 A 
ATOM      7  C   UNL     1      41.313  20.102  13.425  1.00  0.00     0.136 A 
ATOM      8  C   UNL     1      41.774  20.353  12.106  1.00  0.00     0.125 A 
ATOM      9  C   UNL     1      41.488  19.516  11.015  1.00  0.00     0.078 A 
ATOM     10  C   UNL     1      41.981  19.827   9.744  1.00  0.00     0.223 A 
ENDROOT
BRANCH   1  11
ATOM     11  C   UNL     1      43.288  21.404   8.263  1.00  0.00     0.087 A 
ATOM     12  C   UNL     1      43.758  22.713   8.087  1.00  0.00     0.022 A 
ATOM     13  C   UNL     1      44.256  23.125   6.848  1.00  0.00     0.051 A 
ATOM     14  C   UNL     1      44.279  22.246   5.760  1.00  0.00     0.157 A 
ATOM     15  C   UNL     1      43.289  20.526   7.166  1.00  0.00     0.068 A 
ATOM     16  C   UNL     1      43.782  20.931   5.919  1.00  0.00     0.158 A 
BRANCH  14  17
ATOM     17  O   UNL     1      44.795  22.717   4.551  1.00  0.00    -0.504 OA
ATOM     18  H   UNL     1      44.478  22.409   3.643  1.00  0.00     0.293 HD
ENDBRANCH  14  17
BRANCH  16  19
ATOM     19  O   UNL     1      43.753  20.004   4.875  1.00  0.00    -0.504 OA
ATOM     20  H   UNL     1      44.220  19.109   4.903  1.00  0.00     0.293 HD
ENDBRANCH  16  19
ENDBRANCH   1  11
BRANCH  10  21
ATOM     21  O   UNL     1      41.739  18.970   8.671  1.00  0.00    -0.500 OA
ATOM     22  H   UNL     1      42.245  18.099   8.560  1.00  0.00     0.294 HD
ENDBRANCH  10  21
BRANCH   5  23
ATOM     23  O   UNL     1      42.775  22.968  15.249  1.00  0.00    -0.507 OA
ATOM     24  H   UNL     1      42.164  23.087  16.048  1.00  0.00     0.293 HD
ENDBRANCH   5  23
BRANCH   7  25
ATOM     25  O   UNL     1      40.517  19.001  13.760  1.00  0.00    -0.507 OA
ATOM     26  H   UNL     1      40.744  18.044  13.535  1.00  0.00     0.293 HD
ENDBRANCH   7  25
TORSDOF 6
ENDMDL
MODEL 4
REMARK VINA RESULT:    -6.017      1.443      6.869
REMARK INTER + INTRA:          -7.571
REMARK INTER:                  -7.670
REMARK INTRA:                   0.099
REMARK UNBOUND:                -0.323
REMARK SMILES Oc1cc(O)c2cc(O)c(-c3ccc(O)c(O)c3)[o+]c2c1.[Cl-]
REMARK SMILES IDX 10 1 19 2 20 3 21 4 2 5 3 6 4 7 6 8 7 9 8 10 11 11 12 12
REMARK SMILES IDX 13 13 14 14 18 15 16 16 15 17 17 19 9 21 1 23 5 25
REMARK H PARENT 15 18 17 20 9 22 1 24 5 26
REMARK Flexibility Score: inf
ROOT
ATOM      1  C   UNL     1      33.626   4.136  17.022  1.00  0.00     0.402 A 
ATOM      2  O   UNL     1      33.677   4.450  18.314  1.00  0.00    -0.202 OA
ATOM      3  C   UNL     1      32.599   4.739  19.036  1.00  0.00     0.368 A 
ATOM      4  C   UNL     1      32.754   5.059  20.388  1.00  0.00     0.162 A 
ATOM      5  C   UNL     1      31.638   5.371  21.171  1.00  0.00     0.128 A 
ATOM      6  C   UNL     1      30.363   5.363  20.599  1.00  0.00     0.093 A 
ATOM      7  C   UNL     1      30.182   5.047  19.248  1.00  0.00     0.136 A 
ATOM      8  C   UNL     1      31.311   4.726  18.449  1.00  0.00     0.125 A 
ATOM      9  C   UNL     1      31.224   4.384  17.090  1.00  0.00     0.078 A 
ATOM     10  C   UNL     1      32.381   4.076  16.368  1.00  0.00     0.223 A 
ENDROOT
BRANCH   1  11
ATOM     11  C   UNL     1      34.898   3.843  16.322  1.00  0.00     0.087 A 
ATOM     12  C   UNL     1      35.932   3.197  17.015  1.00  0.00     0.022 A 
ATOM     13  C   UNL     1      37.147   2.928  16.380  1.00  0.00     0.051 A 
ATOM     14  C   UNL     1      37.359   3.310  15.051  1.00  0.00     0.157 A 
ATOM     15  C   UNL     1      35.116   4.248  14.994  1.00  0.00     0.068 A 
ATOM     16  C   UNL     1      36.332   3.986  14.351  1.00  0.00     0.158 A 
BRANCH  14  17
ATOM     17  O   UNL     1      38.593   3.005  14.472  1.00  0.00    -0.504 OA
ATOM     18  H   UNL     1      39.148   3.663  13.946  1.00  0.00     0.293 HD
ENDBRANCH  14  17
BRANCH  16  19
ATOM     19  O   UNL     1      36.476   4.416  13.030  1.00  0.00    -0.504 OA
ATOM     20  H   UNL     1      36.683   3.802  12.256  1.00  0.00     0.293 HD
ENDBRANCH  16  19
ENDBRANCH   1  11
BRANCH  10  21
ATOM     21  O   UNL     1      32.290   3.687  15.032  1.00  0.00    -0.500 OA
ATOM     22  H   UNL     1      33.051   3.211  14.563  1.00  0.00     0.294 HD
ENDBRANCH  10  21
BRANCH   5  23
ATOM     23  O   UNL     1      31.784   5.691  22.518  1.00  0.00    -0.507 OA
ATOM     24  H   UNL     1      32.466   5.222  23.104  1.00  0.00     0.293 HD
ENDBRANCH   5  23
BRANCH   7  25
ATOM     25  O   UNL     1      28.875   5.064  18.751  1.00  0.00    -0.507 OA
ATOM     26  H   UNL     1      28.461   5.845  18.264  1.00  0.00     0.293 HD
ENDBRANCH   7  25
TORSDOF 6
ENDMDL
MODEL 5
REMARK VINA RESULT:    -5.939      1.416      7.322
REMARK INTER + INTRA:          -7.477
REMARK INTER:                  -7.185
REMARK INTRA:                  -0.293
REMARK UNBOUND:                -0.323
REMARK SMILES Oc1cc(O)c2cc(O)c(-c3ccc(O)c(O)c3)[o+]c2c1.[Cl-]
REMARK SMILES IDX 10 1 19 2 20 3 21 4 2 5 3 6 4 7 6 8 7 9 8 10 11 11 12 12
REMARK SMILES IDX 13 13 14 14 18 15 16 16 15 17 17 19 9 21 1 23 5 25
REMARK H PARENT 15 18 17 20 9 22 1 24 5 26
REMARK Flexibility Score: inf
ROOT
ATOM      1  C   UNL     1      33.711   4.939  18.379  1.00  0.00     0.402 A 
ATOM      2  O   UNL     1      32.625   4.216  18.639  1.00  0.00    -0.202 OA
ATOM      3  C   UNL     1      31.900   4.360  19.744  1.00  0.00     0.368 A 
ATOM      4  C   UNL     1      30.776   3.552  19.929  1.00  0.00     0.162 A 
ATOM      5  C   UNL     1      29.997   3.679  21.084  1.00  0.00     0.128 A 
ATOM      6  C   UNL     1      30.346   4.618  22.057  1.00  0.00     0.093 A 
ATOM      7  C   UNL     1      31.469   5.439  21.896  1.00  0.00     0.136 A 
ATOM      8  C   UNL     1      32.260   5.316  20.724  1.00  0.00     0.125 A 
ATOM      9  C   UNL     1      33.394   6.105  20.471  1.00  0.00     0.078 A 
ATOM     10  C   UNL     1      34.123   5.929  19.291  1.00  0.00     0.223 A 
ENDROOT
BRANCH   1  11
ATOM     11  C   UNL     1      34.440   4.679  17.117  1.00  0.00     0.087 A 
ATOM     12  C   UNL     1      33.851   5.034  15.895  1.00  0.00     0.022 A 
ATOM     13  C   UNL     1      34.512   4.781  14.692  1.00  0.00     0.051 A 
ATOM     14  C   UNL     1      35.763   4.155  14.682  1.00  0.00     0.157 A 
ATOM     15  C   UNL     1      35.687   4.030  17.110  1.00  0.00     0.068 A 
ATOM     16  C   UNL     1      36.356   3.768  15.907  1.00  0.00     0.158 A 
BRANCH  14  17
ATOM     17  O   UNL     1      36.375   3.936  13.446  1.00  0.00    -0.504 OA
ATOM     18  H   UNL     1      37.037   3.196  13.266  1.00  0.00     0.293 HD
ENDBRANCH  14  17
BRANCH  16  19
ATOM     19  O   UNL     1      37.591   3.121  15.977  1.00  0.00    -0.504 OA
ATOM     20  H   UNL     1      38.297   3.176  15.257  1.00  0.00     0.293 HD
ENDBRANCH  16  19
ENDBRANCH   1  11
BRANCH  10  21
ATOM     21  O   UNL     1      35.218   6.747  19.016  1.00  0.00    -0.500 OA
ATOM     22  H   UNL     1      36.064   6.380  18.596  1.00  0.00     0.294 HD
ENDBRANCH  10  21
BRANCH   5  23
ATOM     23  O   UNL     1      28.875   2.877  21.275  1.00  0.00    -0.507 OA
ATOM     24  H   UNL     1      28.825   2.207  22.034  1.00  0.00     0.293 HD
ENDBRANCH   5  23
BRANCH   7  25
ATOM     25  O   UNL     1      31.752   6.352  22.917  1.00  0.00    -0.507 OA
ATOM     26  H   UNL     1      31.722   7.354  22.810  1.00  0.00     0.293 HD
ENDBRANCH   7  25
TORSDOF 6
ENDMDL
MODEL 6
REMARK VINA RESULT:    -5.852      1.418      7.103
REMARK INTER + INTRA:          -7.372
REMARK INTER:                  -7.075
REMARK INTRA:                  -0.297
REMARK UNBOUND:                -0.323
REMARK SMILES Oc1cc(O)c2cc(O)c(-c3ccc(O)c(O)c3)[o+]c2c1.[Cl-]
REMARK SMILES IDX 10 1 19 2 20 3 21 4 2 5 3 6 4 7 6 8 7 9 8 10 11 11 12 12
REMARK SMILES IDX 13 13 14 14 18 15 16 16 15 17 17 19 9 21 1 23 5 25
REMARK H PARENT 15 18 17 20 9 22 1 24 5 26
REMARK Flexibility Score: inf
ROOT
ATOM      1  C   UNL     1      34.280   4.566  17.203  1.00  0.00     0.402 A 
ATOM      2  O   UNL     1      33.151   3.872  17.312  1.00  0.00    -0.202 OA
ATOM      3  C   UNL     1      32.196   4.167  18.189  1.00  0.00     0.368 A 
ATOM      4  C   UNL     1      31.044   3.376  18.230  1.00  0.00     0.162 A 
ATOM      5  C   UNL     1      30.026   3.661  19.145  1.00  0.00     0.128 A 
ATOM      6  C   UNL     1      30.160   4.740  20.021  1.00  0.00     0.093 A 
ATOM      7  C   UNL     1      31.304   5.547  20.000  1.00  0.00     0.136 A 
ATOM      8  C   UNL     1      32.340   5.264  19.071  1.00  0.00     0.125 A 
ATOM      9  C   UNL     1      33.516   6.025  18.969  1.00  0.00     0.078 A 
ATOM     10  C   UNL     1      34.491   5.688  18.027  1.00  0.00     0.223 A 
ENDROOT
BRANCH   1  11
ATOM     11  C   UNL     1      35.273   4.133  16.193  1.00  0.00     0.087 A 
ATOM     12  C   UNL     1      36.436   3.470  16.610  1.00  0.00     0.022 A 
ATOM     13  C   UNL     1      37.395   3.070  15.677  1.00  0.00     0.051 A 
ATOM     14  C   UNL     1      37.221   3.337  14.315  1.00  0.00     0.157 A 
ATOM     15  C   UNL     1      35.106   4.423  14.828  1.00  0.00     0.068 A 
ATOM     16  C   UNL     1      36.064   4.029  13.885  1.00  0.00     0.158 A 
BRANCH  14  17
ATOM     17  O   UNL     1      38.213   2.904  13.432  1.00  0.00    -0.504 OA
ATOM     18  H   UNL     1      39.087   2.492  13.723  1.00  0.00     0.293 HD
ENDBRANCH  14  17
BRANCH  16  19
ATOM     19  O   UNL     1      35.831   4.350  12.546  1.00  0.00    -0.504 OA
ATOM     20  H   UNL     1      34.995   4.091  12.042  1.00  0.00     0.293 HD
ENDBRANCH  16  19
ENDBRANCH   1  11
BRANCH  10  21
ATOM     21  O   UNL     1      35.635   6.473  17.891  1.00  0.00    -0.500 OA
ATOM     22  H   UNL     1      36.306   6.571  18.644  1.00  0.00     0.294 HD
ENDBRANCH  10  21
BRANCH   5  23
ATOM     23  O   UNL     1      28.875   2.878  19.191  1.00  0.00    -0.507 OA
ATOM     24  H   UNL     1      28.120   3.082  19.835  1.00  0.00     0.293 HD
ENDBRANCH   5  23
BRANCH   7  25
ATOM     25  O   UNL     1      31.364   6.605  20.912  1.00  0.00    -0.507 OA
ATOM     26  H   UNL     1      31.850   7.474  20.746  1.00  0.00     0.293 HD
ENDBRANCH   7  25
TORSDOF 6
ENDMDL
MODEL 7
REMARK VINA RESULT:    -5.565     19.172     20.959
REMARK INTER + INTRA:          -7.026
REMARK INTER:                  -6.792
REMARK INTRA:                  -0.235
REMARK UNBOUND:                -0.323
REMARK SMILES Oc1cc(O)c2cc(O)c(-c3ccc(O)c(O)c3)[o+]c2c1.[Cl-]
REMARK SMILES IDX 10 1 19 2 20 3 21 4 2 5 3 6 4 7 6 8 7 9 8 10 11 11 12 12
REMARK SMILES IDX 13 13 14 14 18 15 16 16 15 17 17 19 9 21 1 23 5 25
REMARK H PARENT 15 18 17 20 9 22 1 24 5 26
REMARK Flexibility Score: inf
ROOT
ATOM      1  C   UNL     1      42.616  20.981   8.126  1.00  0.00     0.402 A 
ATOM      2  O   UNL     1      42.858  20.422   6.944  1.00  0.00    -0.202 OA
ATOM      3  C   UNL     1      43.880  20.771   6.168  1.00  0.00     0.368 A 
ATOM      4  C   UNL     1      44.050  20.127   4.939  1.00  0.00     0.162 A 
ATOM      5  C   UNL     1      45.114  20.477   4.101  1.00  0.00     0.128 A 
ATOM      6  C   UNL     1      46.009  21.475   4.494  1.00  0.00     0.093 A 
ATOM      7  C   UNL     1      45.859  22.135   5.719  1.00  0.00     0.136 A 
ATOM      8  C   UNL     1      44.783  21.782   6.575  1.00  0.00     0.125 A 
ATOM      9  C   UNL     1      44.562  22.380   7.826  1.00  0.00     0.078 A 
ATOM     10  C   UNL     1      43.482  21.977   8.616  1.00  0.00     0.223 A 
ENDROOT
BRANCH   1  11
ATOM     11  C   UNL     1      41.440  20.512   8.894  1.00  0.00     0.087 A 
ATOM     12  C   UNL     1      40.361  21.383   9.103  1.00  0.00     0.022 A 
ATOM     13  C   UNL     1      39.250  20.969   9.840  1.00  0.00     0.051 A 
ATOM     14  C   UNL     1      39.201  19.686  10.397  1.00  0.00     0.157 A 
ATOM     15  C   UNL     1      41.403  19.231   9.471  1.00  0.00     0.068 A 
ATOM     16  C   UNL     1      40.295  18.808  10.216  1.00  0.00     0.158 A 
BRANCH  14  17
ATOM     17  O   UNL     1      38.059  19.331  11.118  1.00  0.00    -0.504 OA
ATOM     18  H   UNL     1      37.278  18.825  10.726  1.00  0.00     0.293 HD
ENDBRANCH  14  17
BRANCH  16  19
ATOM     19  O   UNL     1      40.328  17.521  10.758  1.00  0.00    -0.504 OA
ATOM     20  H   UNL     1      40.698  17.304  11.672  1.00  0.00     0.293 HD
ENDBRANCH  16  19
ENDBRANCH   1  11
BRANCH  10  21
ATOM     21  O   UNL     1      43.292  22.535   9.880  1.00  0.00    -0.500 OA
ATOM     22  H   UNL     1      43.715  23.418  10.141  1.00  0.00     0.294 HD
ENDBRANCH  10  21
BRANCH   5  23
ATOM     23  O   UNL     1      45.290  19.839   2.876  1.00  0.00    -0.507 OA
ATOM     24  H   UNL     1      44.729  19.039   2.609  1.00  0.00     0.293 HD
ENDBRANCH   5  23
BRANCH   7  25
ATOM     25  O   UNL     1      46.795  23.125   6.037  1.00  0.00    -0.507 OA
ATOM     26  H   UNL     1      47.791  23.028   5.911  1.00  0.00     0.293 HD
ENDBRANCH   7  25
TORSDOF 6
ENDMDL
MODEL 8
REMARK VINA RESULT:    -5.486      2.289      7.600
REMARK INTER + INTRA:          -6.931
REMARK INTER:                  -6.897
REMARK INTRA:                  -0.035
REMARK UNBOUND:                -0.323
REMARK SMILES Oc1cc(O)c2cc(O)c(-c3ccc(O)c(O)c3)[o+]c2c1.[Cl-]
REMARK SMILES IDX 10 1 19 2 20 3 21 4 2 5 3 6 4 7 6 8 7 9 8 10 11 11 12 12
REMARK SMILES IDX 13 13 14 14 18 15 16 16 15 17 17 19 9 21 1 23 5 25
REMARK H PARENT 15 18 17 20 9 22 1 24 5 26
REMARK Flexibility Score: inf
ROOT
ATOM      1  C   UNL     1      32.543   5.055  18.372  1.00  0.00     0.402 A 
ATOM      2  O   UNL     1      31.916   6.227  18.427  1.00  0.00    -0.202 OA
ATOM      3  C   UNL     1      31.032   6.538  19.370  1.00  0.00     0.368 A 
ATOM      4  C   UNL     1      30.423   7.795  19.341  1.00  0.00     0.162 A 
ATOM      5  C   UNL     1      29.487   8.147  20.319  1.00  0.00     0.128 A 
ATOM      6  C   UNL     1      29.159   7.238  21.328  1.00  0.00     0.093 A 
ATOM      7  C   UNL     1      29.756   5.973  21.377  1.00  0.00     0.136 A 
ATOM      8  C   UNL     1      30.708   5.611  20.389  1.00  0.00     0.125 A 
ATOM      9  C   UNL     1      31.366   4.370  20.368  1.00  0.00     0.078 A 
ATOM     10  C   UNL     1      32.296   4.087  19.364  1.00  0.00     0.223 A 
ENDROOT
BRANCH   1  11
ATOM     11  C   UNL     1      33.500   4.823  17.266  1.00  0.00     0.087 A 
ATOM     12  C   UNL     1      33.075   4.994  15.941  1.00  0.00     0.022 A 
ATOM     13  C   UNL     1      33.955   4.762  14.881  1.00  0.00     0.051 A 
ATOM     14  C   UNL     1      35.267   4.342  15.122  1.00  0.00     0.157 A 
ATOM     15  C   UNL     1      34.810   4.379  17.510  1.00  0.00     0.068 A 
ATOM     16  C   UNL     1      35.699   4.141  16.454  1.00  0.00     0.158 A 
BRANCH  14  17
ATOM     17  O   UNL     1      36.099   4.134  14.020  1.00  0.00    -0.504 OA
ATOM     18  H   UNL     1      36.920   3.546  14.034  1.00  0.00     0.293 HD
ENDBRANCH  14  17
BRANCH  16  19
ATOM     19  O   UNL     1      36.986   3.702  16.773  1.00  0.00    -0.504 OA
ATOM     20  H   UNL     1      37.800   4.300  16.776  1.00  0.00     0.293 HD
ENDBRANCH  16  19
ENDBRANCH   1  11
BRANCH  10  21
ATOM     21  O   UNL     1      32.986   2.875  19.371  1.00  0.00    -0.500 OA
ATOM     22  H   UNL     1      33.389   2.496  20.220  1.00  0.00     0.294 HD
ENDBRANCH  10  21
BRANCH   5  23
ATOM     23  O   UNL     1      28.875   9.399  20.297  1.00  0.00    -0.507 OA
ATOM     24  H   UNL     1      27.907   9.520  20.568  1.00  0.00     0.293 HD
ENDBRANCH   5  23
BRANCH   7  25
ATOM     25  O   UNL     1      29.371   5.120  22.417  1.00  0.00    -0.507 OA
ATOM     26  H   UNL     1      28.873   4.252  22.288  1.00  0.00     0.293 HD
ENDBRANCH   7  25
TORSDOF 6
ENDMDL
MODEL 9
REMARK VINA RESULT:    -5.305      1.958      7.197
REMARK INTER + INTRA:          -6.714
REMARK INTER:                  -6.895
REMARK INTRA:                   0.181
REMARK UNBOUND:                -0.323
REMARK SMILES Oc1cc(O)c2cc(O)c(-c3ccc(O)c(O)c3)[o+]c2c1.[Cl-]
REMARK SMILES IDX 10 1 19 2 20 3 21 4 2 5 3 6 4 7 6 8 7 9 8 10 11 11 12 12
REMARK SMILES IDX 13 13 14 14 18 15 16 16 15 17 17 19 9 21 1 23 5 25
REMARK H PARENT 15 18 17 20 9 22 1 24 5 26
REMARK Flexibility Score: inf
ROOT
ATOM      1  C   UNL     1      32.794   4.863  17.852  1.00  0.00     0.402 A 
ATOM      2  O   UNL     1      32.226   4.038  18.728  1.00  0.00    -0.202 OA
ATOM      3  C   UNL     1      31.213   4.393  19.511  1.00  0.00     0.368 A 
ATOM      4  C   UNL     1      30.683   3.457  20.403  1.00  0.00     0.162 A 
ATOM      5  C   UNL     1      29.620   3.804  21.242  1.00  0.00     0.128 A 
ATOM      6  C   UNL     1      29.085   5.093  21.189  1.00  0.00     0.093 A 
ATOM      7  C   UNL     1      29.598   6.049  20.305  1.00  0.00     0.136 A 
ATOM      8  C   UNL     1      30.676   5.701  19.449  1.00  0.00     0.125 A 
ATOM      9  C   UNL     1      31.245   6.590  18.523  1.00  0.00     0.078 A 
ATOM     10  C   UNL     1      32.303   6.174  17.709  1.00  0.00     0.223 A 
ENDROOT
BRANCH   1  11
ATOM     11  C   UNL     1      33.923   4.353  17.041  1.00  0.00     0.087 A 
ATOM     12  C   UNL     1      34.860   3.491  17.628  1.00  0.00     0.022 A 
ATOM     13  C   UNL     1      35.943   3.013  16.887  1.00  0.00     0.051 A 
ATOM     14  C   UNL     1      36.121   3.397  15.555  1.00  0.00     0.157 A 
ATOM     15  C   UNL     1      34.112   4.758  15.708  1.00  0.00     0.068 A 
ATOM     16  C   UNL     1      35.198   4.287  14.959  1.00  0.00     0.158 A 
BRANCH  14  17
ATOM     17  O   UNL     1      37.221   2.879  14.867  1.00  0.00    -0.504 OA
ATOM     18  H   UNL     1      38.150   2.812  15.255  1.00  0.00     0.293 HD
ENDBRANCH  14  17
BRANCH  16  19
ATOM     19  O   UNL     1      35.320   4.732  13.641  1.00  0.00    -0.504 OA
ATOM     20  H   UNL     1      34.568   4.712  12.967  1.00  0.00     0.293 HD
ENDBRANCH  16  19
ENDBRANCH   1  11
BRANCH  10  21
ATOM     21  O   UNL     1      32.834   7.040  16.755  1.00  0.00    -0.500 OA
ATOM     22  H   UNL     1      32.246   7.667  16.218  1.00  0.00     0.294 HD
ENDBRANCH  10  21
BRANCH   5  23
ATOM     23  O   UNL     1      29.087   2.875  22.133  1.00  0.00    -0.507 OA
ATOM     24  H   UNL     1      29.317   2.895  23.120  1.00  0.00     0.293 HD
ENDBRANCH   5  23
BRANCH   7  25
ATOM     25  O   UNL     1      29.010   7.318  20.316  1.00  0.00    -0.507 OA
ATOM     26  H   UNL     1      29.087   7.988  19.565  1.00  0.00     0.293 HD
ENDBRANCH   7  25
TORSDOF 6
ENDMDL
