MODEL 1
REMARK VINA RESULT:     5.366      0.000      0.000
REMARK INTER + INTRA:           6.909
REMARK INTER:                   6.621
REMARK INTRA:                   0.288
REMARK UNBOUND:                 0.288
REMARK SMILES CC(C)=CCC[C@@H](C)c1ccc(C)cc1
REMARK SMILES IDX 6 1 7 2 8 3 9 4 13 5 12 6 11 7 14 8 10 9 15 10 5 11 4 12
REMARK SMILES IDX 2 13 1 14 3 15
REMARK H PARENT
REMARK Flexibility Score: inf
ROOT
ATOM      1  C   UNL     1     -33.908 -10.247   4.830  1.00  0.00     0.012 C 
ENDROOT
BRANCH   1   2
ATOM      2  C   UNL     1     -34.761 -10.036   3.553  1.00  0.00     0.016 C 
ATOM      3  C   UNL     1     -35.895 -11.065   3.403  1.00  0.00     0.013 C 
BRANCH   2   4
ATOM      4  C   UNL     1     -35.214  -8.593   3.379  1.00  0.00    -0.045 A 
ATOM      5  C   UNL     1     -36.323  -4.456   2.799  1.00  0.00     0.044 C 
ATOM      6  C   UNL     1     -35.965  -5.899   2.994  1.00  0.00    -0.051 A 
ATOM      7  C   UNL     1     -36.047  -6.481   4.266  1.00  0.00     0.004 A 
ATOM      8  C   UNL     1     -35.473  -6.657   1.922  1.00  0.00     0.004 A 
ATOM      9  C   UNL     1     -35.677  -7.815   4.460  1.00  0.00     0.004 A 
ATOM     10  C   UNL     1     -35.102  -7.991   2.113  1.00  0.00     0.004 A 
ENDBRANCH   2   4
ENDBRANCH   1   2
BRANCH   1  11
ATOM     11  C   UNL     1     -33.225  -8.995   5.420  1.00  0.00     0.028 C 
BRANCH  11  12
ATOM     12  C   UNL     1     -31.742  -8.940   5.154  1.00  0.00    -0.028 C 
ATOM     13  C   UNL     1     -31.181  -8.647   3.960  1.00  0.00    -0.080 C 
ATOM     14  C   UNL     1     -32.009  -8.285   2.748  1.00  0.00     0.039 C 
ATOM     15  C   UNL     1     -29.677  -8.648   3.857  1.00  0.00     0.039 C 
ENDBRANCH  11  12
ENDBRANCH   1  11
TORSDOF 4
ENDMDL
MODEL 2
REMARK VINA RESULT:     5.999      1.030      4.780
REMARK INTER + INTRA:           7.689
REMARK INTER:                   8.287
REMARK INTRA:                  -0.598
REMARK UNBOUND:                 0.288
REMARK SMILES CC(C)=CCC[C@@H](C)c1ccc(C)cc1
REMARK SMILES IDX 6 1 7 2 8 3 9 4 13 5 12 6 11 7 14 8 10 9 15 10 5 11 4 12
REMARK SMILES IDX 2 13 1 14 3 15
REMARK H PARENT
REMARK Flexibility Score: inf
ROOT
ATOM      1  C   UNL     1     -35.701  -8.868   5.031  1.00  0.00     0.012 C 
ENDROOT
BRANCH   1   2
ATOM      2  C   UNL     1     -34.939  -9.383   3.782  1.00  0.00     0.016 C 
ATOM      3  C   UNL     1     -35.568  -8.922   2.455  1.00  0.00     0.013 C 
BRANCH   2   4
ATOM      4  C   UNL     1     -33.439  -9.142   3.866  1.00  0.00    -0.045 A 
ATOM      5  C   UNL     1     -29.157  -8.552   3.929  1.00  0.00     0.044 C 
ATOM      6  C   UNL     1     -30.646  -8.731   3.919  1.00  0.00    -0.051 A 
ATOM      7  C   UNL     1     -31.289  -9.354   4.997  1.00  0.00     0.004 A 
ATOM      8  C   UNL     1     -31.397  -8.347   2.799  1.00  0.00     0.004 A 
ATOM      9  C   UNL     1     -32.672  -9.558   4.974  1.00  0.00     0.004 A 
ATOM     10  C   UNL     1     -32.780  -8.550   2.775  1.00  0.00     0.004 A 
ENDBRANCH   2   4
ENDBRANCH   1   2
BRANCH   1  11
ATOM     11  C   UNL     1     -35.599  -7.358   5.329  1.00  0.00     0.028 C 
BRANCH  11  12
ATOM     12  C   UNL     1     -36.459  -6.509   4.426  1.00  0.00    -0.028 C 
ATOM     13  C   UNL     1     -35.994  -5.733   3.422  1.00  0.00    -0.080 C 
ATOM     14  C   UNL     1     -34.528  -5.674   3.061  1.00  0.00     0.039 C 
ATOM     15  C   UNL     1     -36.988  -4.932   2.620  1.00  0.00     0.039 C 
ENDBRANCH  11  12
ENDBRANCH   1  11
TORSDOF 4
ENDMDL
MODEL 3
REMARK VINA RESULT:     6.049      1.110      5.154
REMARK INTER + INTRA:           7.751
REMARK INTER:                   8.276
REMARK INTRA:                  -0.525
REMARK UNBOUND:                 0.288
REMARK SMILES CC(C)=CCC[C@@H](C)c1ccc(C)cc1
REMARK SMILES IDX 6 1 7 2 8 3 9 4 13 5 12 6 11 7 14 8 10 9 15 10 5 11 4 12
REMARK SMILES IDX 2 13 1 14 3 15
REMARK H PARENT
REMARK Flexibility Score: inf
ROOT
ATOM      1  C   UNL     1     -35.310  -9.283   3.571  1.00  0.00     0.012 C 
ENDROOT
BRANCH   1   2
ATOM      2  C   UNL     1     -34.458  -8.591   4.667  1.00  0.00     0.016 C 
ATOM      3  C   UNL     1     -34.853  -9.005   6.094  1.00  0.00     0.013 C 
BRANCH   2   4
ATOM      4  C   UNL     1     -32.964  -8.678   4.393  1.00  0.00    -0.045 A 
ATOM      5  C   UNL     1     -28.687  -8.935   3.816  1.00  0.00     0.044 C 
ATOM      6  C   UNL     1     -30.175  -8.863   3.994  1.00  0.00    -0.051 A 
ATOM      7  C   UNL     1     -30.903  -7.812   3.420  1.00  0.00     0.004 A 
ATOM      8  C   UNL     1     -30.839  -9.800   4.797  1.00  0.00     0.004 A 
ATOM      9  C   UNL     1     -32.284  -7.718   3.616  1.00  0.00     0.004 A 
ATOM     10  C   UNL     1     -32.219  -9.709   4.993  1.00  0.00     0.004 A 
ENDBRANCH   2   4
ENDBRANCH   1   2
BRANCH   1  11
ATOM     11  C   UNL     1     -35.751  -8.405   2.381  1.00  0.00     0.028 C 
BRANCH  11  12
ATOM     12  C   UNL     1     -35.257  -6.983   2.470  1.00  0.00    -0.028 C 
ATOM     13  C   UNL     1     -35.871  -5.993   3.154  1.00  0.00    -0.080 C 
ATOM     14  C   UNL     1     -37.125  -6.230   3.964  1.00  0.00     0.039 C 
ATOM     15  C   UNL     1     -35.254  -4.618   3.131  1.00  0.00     0.039 C 
ENDBRANCH  11  12
ENDBRANCH   1  11
TORSDOF 4
ENDMDL
MODEL 4
REMARK VINA RESULT:     7.221      1.229      2.351
REMARK INTER + INTRA:           9.198
REMARK INTER:                   9.028
REMARK INTRA:                   0.170
REMARK UNBOUND:                 0.288
REMARK SMILES CC(C)=CCC[C@@H](C)c1ccc(C)cc1
REMARK SMILES IDX 6 1 7 2 8 3 9 4 13 5 12 6 11 7 14 8 10 9 15 10 5 11 4 12
REMARK SMILES IDX 2 13 1 14 3 15
REMARK H PARENT
REMARK Flexibility Score: inf
ROOT
ATOM      1  C   UNL     1     -32.830  -9.405   3.479  1.00  0.00     0.012 C 
ENDROOT
BRANCH   1   2
ATOM      2  C   UNL     1     -34.316  -9.489   3.042  1.00  0.00     0.016 C 
ATOM      3  C   UNL     1     -35.109 -10.572   3.792  1.00  0.00     0.013 C 
BRANCH   2   4
ATOM      4  C   UNL     1     -35.001  -8.130   3.020  1.00  0.00    -0.045 A 
ATOM      5  C   UNL     1     -36.771  -4.189   2.900  1.00  0.00     0.044 C 
ATOM      6  C   UNL     1     -36.181  -5.567   2.931  1.00  0.00    -0.051 A 
ATOM      7  C   UNL     1     -36.273  -6.348   4.091  1.00  0.00     0.004 A 
ATOM      8  C   UNL     1     -35.466  -6.056   1.829  1.00  0.00     0.004 A 
ATOM      9  C   UNL     1     -35.691  -7.618   4.137  1.00  0.00     0.004 A 
ATOM     10  C   UNL     1     -34.883  -7.325   1.873  1.00  0.00     0.004 A 
ENDBRANCH   2   4
ENDBRANCH   1   2
BRANCH   1  11
ATOM     11  C   UNL     1     -32.516  -8.500   4.688  1.00  0.00     0.028 C 
BRANCH  11  12
ATOM     12  C   UNL     1     -32.590  -9.221   6.012  1.00  0.00    -0.028 C 
ATOM     13  C   UNL     1     -33.637  -9.165   6.864  1.00  0.00    -0.080 C 
ATOM     14  C   UNL     1     -34.896  -8.391   6.545  1.00  0.00     0.039 C 
ATOM     15  C   UNL     1     -33.548  -9.934   8.157  1.00  0.00     0.039 C 
ENDBRANCH  11  12
ENDBRANCH   1  11
TORSDOF 4
ENDMDL
MODEL 5
REMARK VINA RESULT:     7.627      1.254      4.393
REMARK INTER + INTRA:           9.698
REMARK INTER:                  10.281
REMARK INTRA:                  -0.583
REMARK UNBOUND:                 0.288
REMARK SMILES CC(C)=CCC[C@@H](C)c1ccc(C)cc1
REMARK SMILES IDX 6 1 7 2 8 3 9 4 13 5 12 6 11 7 14 8 10 9 15 10 5 11 4 12
REMARK SMILES IDX 2 13 1 14 3 15
REMARK H PARENT
REMARK Flexibility Score: inf
ROOT
ATOM      1  C   UNL     1     -35.641  -8.713   3.003  1.00  0.00     0.012 C 
ENDROOT
BRANCH   1   2
ATOM      2  C   UNL     1     -34.714  -7.525   2.636  1.00  0.00     0.016 C 
ATOM      3  C   UNL     1     -35.225  -6.172   3.162  1.00  0.00     0.013 C 
BRANCH   2   4
ATOM      4  C   UNL     1     -33.252  -7.797   2.960  1.00  0.00    -0.045 A 
ATOM      5  C   UNL     1     -29.150  -8.760   3.925  1.00  0.00     0.044 C 
ATOM      6  C   UNL     1     -30.564  -8.410   3.568  1.00  0.00    -0.051 A 
ATOM      7  C   UNL     1     -31.192  -7.311   4.170  1.00  0.00     0.004 A 
ATOM      8  C   UNL     1     -31.294  -9.223   2.690  1.00  0.00     0.004 A 
ATOM      9  C   UNL     1     -32.523  -7.005   3.869  1.00  0.00     0.004 A 
ATOM     10  C   UNL     1     -32.624  -8.918   2.388  1.00  0.00     0.004 A 
ENDBRANCH   2   4
ENDBRANCH   1   2
BRANCH   1  11
ATOM     11  C   UNL     1     -35.103  -9.713   4.048  1.00  0.00     0.028 C 
BRANCH  11  12
ATOM     12  C   UNL     1     -34.889  -9.099   5.410  1.00  0.00    -0.028 C 
ATOM     13  C   UNL     1     -33.794  -9.288   6.179  1.00  0.00    -0.080 C 
ATOM     14  C   UNL     1     -32.619 -10.119   5.719  1.00  0.00     0.039 C 
ATOM     15  C   UNL     1     -33.741  -8.612   7.525  1.00  0.00     0.039 C 
ENDBRANCH  11  12
ENDBRANCH   1  11
TORSDOF 4
ENDMDL
MODEL 6
REMARK VINA RESULT:     7.799      1.209      2.036
REMARK INTER + INTRA:           9.910
REMARK INTER:                   9.682
REMARK INTRA:                   0.228
REMARK UNBOUND:                 0.288
REMARK SMILES CC(C)=CCC[C@@H](C)c1ccc(C)cc1
REMARK SMILES IDX 6 1 7 2 8 3 9 4 13 5 12 6 11 7 14 8 10 9 15 10 5 11 4 12
REMARK SMILES IDX 2 13 1 14 3 15
REMARK H PARENT
REMARK Flexibility Score: inf
ROOT
ATOM      1  C   UNL     1     -33.912 -10.029   4.524  1.00  0.00     0.012 C 
ENDROOT
BRANCH   1   2
ATOM      2  C   UNL     1     -34.722  -9.023   5.382  1.00  0.00     0.016 C 
ATOM      3  C   UNL     1     -34.017  -8.640   6.695  1.00  0.00     0.013 C 
BRANCH   2   4
ATOM      4  C   UNL     1     -35.217  -7.829   4.580  1.00  0.00    -0.045 A 
ATOM      5  C   UNL     1     -36.808  -4.515   2.305  1.00  0.00     0.044 C 
ATOM      6  C   UNL     1     -36.239  -5.647   3.108  1.00  0.00    -0.051 A 
ATOM      7  C   UNL     1     -35.144  -6.375   2.624  1.00  0.00     0.004 A 
ATOM      8  C   UNL     1     -36.844  -6.034   4.312  1.00  0.00     0.004 A 
ATOM      9  C   UNL     1     -34.635  -7.455   3.351  1.00  0.00     0.004 A 
ATOM     10  C   UNL     1     -36.337  -7.114   5.040  1.00  0.00     0.004 A 
ENDBRANCH   2   4
ENDBRANCH   1   2
BRANCH   1  11
ATOM     11  C   UNL     1     -32.986  -9.428   3.445  1.00  0.00     0.028 C 
BRANCH  11  12
ATOM     12  C   UNL     1     -31.522  -9.506   3.802  1.00  0.00    -0.028 C 
ATOM     13  C   UNL     1     -30.680  -8.450   3.845  1.00  0.00    -0.080 C 
ATOM     14  C   UNL     1     -31.146  -7.036   3.580  1.00  0.00     0.039 C 
ATOM     15  C   UNL     1     -29.238  -8.700   4.206  1.00  0.00     0.039 C 
ENDBRANCH  11  12
ENDBRANCH   1  11
TORSDOF 4
ENDMDL
MODEL 7
REMARK VINA RESULT:     8.178      2.187      3.535
REMARK INTER + INTRA:          10.378
REMARK INTER:                  10.456
REMARK INTRA:                  -0.078
REMARK UNBOUND:                 0.288
REMARK SMILES CC(C)=CCC[C@@H](C)c1ccc(C)cc1
REMARK SMILES IDX 6 1 7 2 8 3 9 4 13 5 12 6 11 7 14 8 10 9 15 10 5 11 4 12
REMARK SMILES IDX 2 13 1 14 3 15
REMARK H PARENT
REMARK Flexibility Score: inf
ROOT
ATOM      1  C   UNL     1     -32.832  -9.368   5.439  1.00  0.00     0.012 C 
ENDROOT
BRANCH   1   2
ATOM      2  C   UNL     1     -33.641  -9.494   4.122  1.00  0.00     0.016 C 
ATOM      3  C   UNL     1     -34.505 -10.766   4.059  1.00  0.00     0.013 C 
BRANCH   2   4
ATOM      4  C   UNL     1     -34.397  -8.221   3.770  1.00  0.00    -0.045 A 
ATOM      5  C   UNL     1     -36.715  -4.703   2.802  1.00  0.00     0.044 C 
ATOM      6  C   UNL     1     -35.892  -5.907   3.151  1.00  0.00    -0.051 A 
ATOM      7  C   UNL     1     -34.922  -6.382   2.258  1.00  0.00     0.004 A 
ATOM      8  C   UNL     1     -36.137  -6.612   4.338  1.00  0.00     0.004 A 
ATOM      9  C   UNL     1     -34.180  -7.527   2.562  1.00  0.00     0.004 A 
ATOM     10  C   UNL     1     -35.396  -7.757   4.644  1.00  0.00     0.004 A 
ENDBRANCH   2   4
ENDBRANCH   1   2
BRANCH   1  11
ATOM     11  C   UNL     1     -33.629  -8.994   6.706  1.00  0.00     0.028 C 
BRANCH  11  12
ATOM     12  C   UNL     1     -33.705 -10.111   7.717  1.00  0.00    -0.028 C 
ATOM     13  C   UNL     1     -33.539  -9.960   9.049  1.00  0.00    -0.080 C 
ATOM     14  C   UNL     1     -33.303  -8.609   9.685  1.00  0.00     0.039 C 
ATOM     15  C   UNL     1     -33.632 -11.183   9.925  1.00  0.00     0.039 C 
ENDBRANCH  11  12
ENDBRANCH   1  11
TORSDOF 4
ENDMDL
MODEL 8
REMARK VINA RESULT:     8.291     10.374     12.963
REMARK INTER + INTRA:          10.517
REMARK INTER:                  10.927
REMARK INTRA:                  -0.409
REMARK UNBOUND:                 0.288
REMARK SMILES CC(C)=CCC[C@@H](C)c1ccc(C)cc1
REMARK SMILES IDX 6 1 7 2 8 3 9 4 13 5 12 6 11 7 14 8 10 9 15 10 5 11 4 12
REMARK SMILES IDX 2 13 1 14 3 15
REMARK H PARENT
REMARK Flexibility Score: inf
ROOT
ATOM      1  C   UNL     1     -21.404  -4.841   5.454  1.00  0.00     0.012 C 
ENDROOT
BRANCH   1   2
ATOM      2  C   UNL     1     -22.211  -4.507   4.173  1.00  0.00     0.016 C 
ATOM      3  C   UNL     1     -22.489  -5.737   3.292  1.00  0.00     0.013 C 
BRANCH   2   4
ATOM      4  C   UNL     1     -23.447  -3.665   4.459  1.00  0.00    -0.045 A 
ATOM      5  C   UNL     1     -26.834  -1.116   5.307  1.00  0.00     0.044 C 
ATOM      6  C   UNL     1     -25.673  -2.013   4.992  1.00  0.00    -0.051 A 
ATOM      7  C   UNL     1     -25.516  -3.229   5.671  1.00  0.00     0.004 A 
ATOM      8  C   UNL     1     -24.696  -1.609   4.072  1.00  0.00     0.004 A 
ATOM      9  C   UNL     1     -24.415  -4.049   5.409  1.00  0.00     0.004 A 
ATOM     10  C   UNL     1     -23.594  -2.427   3.808  1.00  0.00     0.004 A 
ENDBRANCH   2   4
ENDBRANCH   1   2
BRANCH   1  11
ATOM     11  C   UNL     1     -20.182  -5.766   5.280  1.00  0.00     0.028 C 
BRANCH  11  12
ATOM     12  C   UNL     1     -19.129  -5.576   6.343  1.00  0.00    -0.028 C 
ATOM     13  C   UNL     1     -17.812  -5.396   6.103  1.00  0.00    -0.080 C 
ATOM     14  C   UNL     1     -17.251  -5.317   4.702  1.00  0.00     0.039 C 
ATOM     15  C   UNL     1     -16.886  -5.234   7.282  1.00  0.00     0.039 C 
ENDBRANCH  11  12
ENDBRANCH   1  11
TORSDOF 4
ENDMDL
