MODEL 1
REMARK VINA RESULT:    -4.000      0.000      0.000
REMARK INTER + INTRA:          -8.674
REMARK INTER:                  -7.507
REMARK INTRA:                  -1.167
REMARK UNBOUND:                -1.167
REMARK SMILES CCCCCCCCC=CCCCCCCCC(=O)[O-]
REMARK SMILES IDX 10 1 9 2 11 3 12 4 13 5 14 6 15 7 16 8 17 9 18 10 19 11
REMARK SMILES IDX 20 12 8 13 7 14 6 15 5 16 4 17 3 18 2 19 1 20
REMARK H PARENT
REMARK Flexibility Score: inf
ROOT
ATOM      1  C   UNL     1      63.658  22.781  49.065  1.00  0.00    -0.031 C 
ATOM      2  C   UNL     1      63.518  24.066  49.439  1.00  0.00    -0.031 C 
ENDROOT
BRANCH   1   3
ATOM      3  C   UNL     1      62.667  21.684  49.370  1.00  0.00     0.027 C 
BRANCH   3   4
ATOM      4  C   UNL     1      61.510  21.652  48.356  1.00  0.00     0.004 C 
BRANCH   4   5
ATOM      5  C   UNL     1      60.361  20.693  48.727  1.00  0.00     0.000 C 
BRANCH   5   6
ATOM      6  C   UNL     1      60.433  20.107  50.151  1.00  0.00     0.000 C 
BRANCH   6   7
ATOM      7  C   UNL     1      59.271  19.169  50.531  1.00  0.00     0.000 C 
BRANCH   7   8
ATOM      8  C   UNL     1      58.570  18.485  49.340  1.00  0.00     0.006 C 
BRANCH   8   9
ATOM      9  C   UNL     1      57.546  17.411  49.737  1.00  0.00     0.053 C 
BRANCH   9  10
ATOM     10  C   UNL     1      56.327  18.005  50.371  1.00  0.00     0.041 C 
ATOM     11  O   UNL     1      56.250  18.112  51.623  1.00  0.00    -0.550 OA
ATOM     12  O   UNL     1      55.288  18.473  49.576  1.00  0.00    -0.550 OA
ENDBRANCH   9  10
ENDBRANCH   8   9
ENDBRANCH   7   8
ENDBRANCH   6   7
ENDBRANCH   5   6
ENDBRANCH   4   5
ENDBRANCH   3   4
ENDBRANCH   1   3
BRANCH   2  13
ATOM     13  C   UNL     1      62.395  24.591  50.299  1.00  0.00     0.027 C 
BRANCH  13  14
ATOM     14  C   UNL     1      61.341  25.365  49.481  1.00  0.00     0.004 C 
BRANCH  14  15
ATOM     15  C   UNL     1      59.908  24.827  49.643  1.00  0.00     0.000 C 
BRANCH  15  16
ATOM     16  C   UNL     1      58.839  25.847  49.223  1.00  0.00     0.000 C 
BRANCH  16  17
ATOM     17  C   UNL     1      59.423  27.237  48.908  1.00  0.00    -0.000 C 
BRANCH  17  18
ATOM     18  C   UNL     1      58.416  28.400  48.967  1.00  0.00    -0.000 C 
BRANCH  18  19
ATOM     19  C   UNL     1      57.089  28.013  49.636  1.00  0.00    -0.003 C 
ATOM     20  C   UNL     1      56.256  29.249  49.963  1.00  0.00     0.004 C 
ENDBRANCH  18  19
ENDBRANCH  17  18
ENDBRANCH  16  17
ENDBRANCH  15  16
ENDBRANCH  14  15
ENDBRANCH  13  14
ENDBRANCH   2  13
TORSDOF 15
ENDMDL
MODEL 2
REMARK VINA RESULT:    -3.935     11.211     12.463
REMARK INTER + INTRA:          -8.552
REMARK INTER:                  -6.202
REMARK INTRA:                  -2.350
REMARK UNBOUND:                -1.167
REMARK SMILES CCCCCCCCC=CCCCCCCCC(=O)[O-]
REMARK SMILES IDX 10 1 9 2 11 3 12 4 13 5 14 6 15 7 16 8 17 9 18 10 19 11
REMARK SMILES IDX 20 12 8 13 7 14 6 15 5 16 4 17 3 18 2 19 1 20
REMARK H PARENT
REMARK Flexibility Score: inf
ROOT
ATOM      1  C   UNL     1      64.144  24.650  60.650  1.00  0.00    -0.031 C 
ATOM      2  C   UNL     1      64.545  25.863  60.227  1.00  0.00    -0.031 C 
ENDROOT
BRANCH   1   3
ATOM      3  C   UNL     1      62.704  24.233  60.823  1.00  0.00     0.027 C 
BRANCH   3   4
ATOM      4  C   UNL     1      62.222  24.408  62.273  1.00  0.00     0.004 C 
BRANCH   4   5
ATOM      5  C   UNL     1      61.030  25.373  62.439  1.00  0.00     0.000 C 
BRANCH   5   6
ATOM      6  C   UNL     1      60.175  25.577  61.174  1.00  0.00     0.000 C 
BRANCH   6   7
ATOM      7  C   UNL     1      58.655  25.660  61.419  1.00  0.00     0.000 C 
BRANCH   7   8
ATOM      8  C   UNL     1      57.966  26.900  60.815  1.00  0.00     0.006 C 
BRANCH   8   9
ATOM      9  C   UNL     1      56.496  26.682  60.424  1.00  0.00     0.053 C 
BRANCH   9  10
ATOM     10  C   UNL     1      55.611  26.552  61.624  1.00  0.00     0.041 C 
ATOM     11  O   UNL     1      55.331  27.564  62.320  1.00  0.00    -0.550 OA
ATOM     12  O   UNL     1      55.067  25.317  61.956  1.00  0.00    -0.550 OA
ENDBRANCH   9  10
ENDBRANCH   8   9
ENDBRANCH   7   8
ENDBRANCH   6   7
ENDBRANCH   5   6
ENDBRANCH   4   5
ENDBRANCH   3   4
ENDBRANCH   1   3
BRANCH   2  13
ATOM     13  C   UNL     1      63.621  27.023  59.949  1.00  0.00     0.027 C 
BRANCH  13  14
ATOM     14  C   UNL     1      64.250  28.379  60.328  1.00  0.00     0.004 C 
BRANCH  14  15
ATOM     15  C   UNL     1      63.231  29.423  60.819  1.00  0.00     0.000 C 
BRANCH  15  16
ATOM     16  C   UNL     1      61.899  28.794  61.257  1.00  0.00     0.000 C 
BRANCH  16  17
ATOM     17  C   UNL     1      60.706  29.250  60.398  1.00  0.00    -0.000 C 
BRANCH  17  18
ATOM     18  C   UNL     1      61.077  30.006  59.109  1.00  0.00    -0.000 C 
BRANCH  18  19
ATOM     19  C   UNL     1      61.062  29.110  57.862  1.00  0.00    -0.003 C 
ATOM     20  C   UNL     1      60.348  27.791  58.141  1.00  0.00     0.004 C 
ENDBRANCH  18  19
ENDBRANCH  17  18
ENDBRANCH  16  17
ENDBRANCH  15  16
ENDBRANCH  14  15
ENDBRANCH  13  14
ENDBRANCH   2  13
TORSDOF 15
ENDMDL
MODEL 3
REMARK VINA RESULT:    -3.909     14.786     16.680
REMARK INTER + INTRA:          -8.504
REMARK INTER:                  -5.620
REMARK INTRA:                  -2.884
REMARK UNBOUND:                -1.167
REMARK SMILES CCCCCCCCC=CCCCCCCCC(=O)[O-]
REMARK SMILES IDX 10 1 9 2 11 3 12 4 13 5 14 6 15 7 16 8 17 9 18 10 19 11
REMARK SMILES IDX 20 12 8 13 7 14 6 15 5 16 4 17 3 18 2 19 1 20
REMARK H PARENT
REMARK Flexibility Score: inf
ROOT
ATOM      1  C   UNL     1      70.721  30.446  57.594  1.00  0.00    -0.031 C 
ATOM      2  C   UNL     1      70.250  31.435  58.377  1.00  0.00    -0.031 C 
ENDROOT
BRANCH   1   3
ATOM      3  C   UNL     1      72.179  30.076  57.462  1.00  0.00     0.027 C 
BRANCH   3   4
ATOM      4  C   UNL     1      72.545  28.857  58.325  1.00  0.00     0.004 C 
BRANCH   4   5
ATOM      5  C   UNL     1      72.990  29.201  59.762  1.00  0.00     0.000 C 
BRANCH   5   6
ATOM      6  C   UNL     1      72.176  28.517  60.878  1.00  0.00     0.000 C 
BRANCH   6   7
ATOM      7  C   UNL     1      70.903  29.270  61.313  1.00  0.00     0.000 C 
BRANCH   7   8
ATOM      8  C   UNL     1      69.604  28.441  61.253  1.00  0.00     0.006 C 
BRANCH   8   9
ATOM      9  C   UNL     1      69.178  28.030  59.835  1.00  0.00     0.053 C 
BRANCH   9  10
ATOM     10  C   UNL     1      67.782  28.468  59.520  1.00  0.00     0.041 C 
ATOM     11  O   UNL     1      67.499  28.914  58.377  1.00  0.00    -0.550 OA
ATOM     12  O   UNL     1      66.784  28.354  60.480  1.00  0.00    -0.550 OA
ENDBRANCH   9  10
ENDBRANCH   8   9
ENDBRANCH   7   8
ENDBRANCH   6   7
ENDBRANCH   5   6
ENDBRANCH   4   5
ENDBRANCH   3   4
ENDBRANCH   1   3
BRANCH   2  13
ATOM     13  C   UNL     1      71.112  32.384  59.173  1.00  0.00     0.027 C 
BRANCH  13  14
ATOM     14  C   UNL     1      70.573  33.828  59.149  1.00  0.00     0.004 C 
BRANCH  14  15
ATOM     15  C   UNL     1      69.838  34.197  57.848  1.00  0.00     0.000 C 
BRANCH  15  16
ATOM     16  C   UNL     1      70.472  35.396  57.126  1.00  0.00     0.000 C 
BRANCH  16  17
ATOM     17  C   UNL     1      71.103  35.019  55.772  1.00  0.00    -0.000 C 
BRANCH  17  18
ATOM     18  C   UNL     1      71.998  33.767  55.791  1.00  0.00    -0.000 C 
BRANCH  18  19
ATOM     19  C   UNL     1      71.672  32.778  54.662  1.00  0.00    -0.003 C 
ATOM     20  C   UNL     1      70.169  32.532  54.564  1.00  0.00     0.004 C 
ENDBRANCH  18  19
ENDBRANCH  17  18
ENDBRANCH  16  17
ENDBRANCH  15  16
ENDBRANCH  14  15
ENDBRANCH  13  14
ENDBRANCH   2  13
TORSDOF 15
ENDMDL
MODEL 4
REMARK VINA RESULT:    -3.866      1.441      2.538
REMARK INTER + INTRA:          -8.423
REMARK INTER:                  -6.520
REMARK INTRA:                  -1.902
REMARK UNBOUND:                -1.167
REMARK SMILES CCCCCCCCC=CCCCCCCCC(=O)[O-]
REMARK SMILES IDX 10 1 9 2 11 3 12 4 13 5 14 6 15 7 16 8 17 9 18 10 19 11
REMARK SMILES IDX 20 12 8 13 7 14 6 15 5 16 4 17 3 18 2 19 1 20
REMARK H PARENT
REMARK Flexibility Score: inf
ROOT
ATOM      1  C   UNL     1      61.583  24.431  50.353  1.00  0.00    -0.031 C 
ATOM      2  C   UNL     1      62.132  25.640  50.132  1.00  0.00    -0.031 C 
ENDROOT
BRANCH   1   3
ATOM      3  C   UNL     1      60.534  23.791  49.475  1.00  0.00     0.027 C 
BRANCH   3   4
ATOM      4  C   UNL     1      60.858  22.318  49.170  1.00  0.00     0.004 C 
BRANCH   4   5
ATOM      5  C   UNL     1      61.543  21.561  50.326  1.00  0.00     0.000 C 
BRANCH   5   6
ATOM      6  C   UNL     1      60.591  21.045  51.423  1.00  0.00     0.000 C 
BRANCH   6   7
ATOM      7  C   UNL     1      59.436  20.156  50.921  1.00  0.00     0.000 C 
BRANCH   7   8
ATOM      8  C   UNL     1      59.874  18.887  50.162  1.00  0.00     0.006 C 
BRANCH   8   9
ATOM      9  C   UNL     1      58.885  18.420  49.082  1.00  0.00     0.053 C 
BRANCH   9  10
ATOM     10  C   UNL     1      57.759  17.622  49.662  1.00  0.00     0.041 C 
ATOM     11  O   UNL     1      56.580  18.062  49.617  1.00  0.00    -0.550 OA
ATOM     12  O   UNL     1      58.007  16.376  50.223  1.00  0.00    -0.550 OA
ENDBRANCH   9  10
ENDBRANCH   8   9
ENDBRANCH   7   8
ENDBRANCH   6   7
ENDBRANCH   5   6
ENDBRANCH   4   5
ENDBRANCH   3   4
ENDBRANCH   1   3
BRANCH   2  13
ATOM     13  C   UNL     1      61.720  26.581  49.026  1.00  0.00     0.027 C 
BRANCH  13  14
ATOM     14  C   UNL     1      60.643  27.586  49.482  1.00  0.00     0.004 C 
BRANCH  14  15
ATOM     15  C   UNL     1      59.379  27.586  48.604  1.00  0.00     0.000 C 
BRANCH  15  16
ATOM     16  C   UNL     1      58.207  28.342  49.249  1.00  0.00     0.000 C 
BRANCH  16  17
ATOM     17  C   UNL     1      57.229  27.414  49.993  1.00  0.00    -0.000 C 
BRANCH  17  18
ATOM     18  C   UNL     1      57.362  25.917  49.659  1.00  0.00    -0.000 C 
BRANCH  18  19
ATOM     19  C   UNL     1      57.583  25.042  50.902  1.00  0.00    -0.003 C 
ATOM     20  C   UNL     1      58.289  25.823  52.006  1.00  0.00     0.004 C 
ENDBRANCH  18  19
ENDBRANCH  17  18
ENDBRANCH  16  17
ENDBRANCH  15  16
ENDBRANCH  14  15
ENDBRANCH  13  14
ENDBRANCH   2  13
TORSDOF 15
ENDMDL
MODEL 5
REMARK VINA RESULT:    -3.842      5.864      8.073
REMARK INTER + INTRA:          -8.379
REMARK INTER:                  -5.690
REMARK INTRA:                  -2.689
REMARK UNBOUND:                -1.167
REMARK SMILES CCCCCCCCC=CCCCCCCCC(=O)[O-]
REMARK SMILES IDX 10 1 9 2 11 3 12 4 13 5 14 6 15 7 16 8 17 9 18 10 19 11
REMARK SMILES IDX 20 12 8 13 7 14 6 15 5 16 4 17 3 18 2 19 1 20
REMARK H PARENT
REMARK Flexibility Score: inf
ROOT
ATOM      1  C   UNL     1      59.686  27.023  48.683  1.00  0.00    -0.031 C 
ATOM      2  C   UNL     1      59.046  28.202  48.801  1.00  0.00    -0.031 C 
ENDROOT
BRANCH   1   3
ATOM      3  C   UNL     1      59.103  25.687  49.074  1.00  0.00     0.027 C 
BRANCH   3   4
ATOM      4  C   UNL     1      60.166  24.741  49.659  1.00  0.00     0.004 C 
BRANCH   4   5
ATOM      5  C   UNL     1      61.487  25.432  50.056  1.00  0.00     0.000 C 
BRANCH   5   6
ATOM      6  C   UNL     1      62.767  24.675  49.651  1.00  0.00     0.000 C 
BRANCH   6   7
ATOM      7  C   UNL     1      63.906  25.561  49.108  1.00  0.00     0.000 C 
BRANCH   7   8
ATOM      8  C   UNL     1      63.612  27.075  49.114  1.00  0.00     0.006 C 
BRANCH   8   9
ATOM      9  C   UNL     1      63.315  27.669  47.729  1.00  0.00     0.053 C 
BRANCH   9  10
ATOM     10  C   UNL     1      64.365  28.646  47.301  1.00  0.00     0.041 C 
ATOM     11  O   UNL     1      64.470  29.760  47.880  1.00  0.00    -0.550 OA
ATOM     12  O   UNL     1      65.252  28.313  46.285  1.00  0.00    -0.550 OA
ENDBRANCH   9  10
ENDBRANCH   8   9
ENDBRANCH   7   8
ENDBRANCH   6   7
ENDBRANCH   5   6
ENDBRANCH   4   5
ENDBRANCH   3   4
ENDBRANCH   1   3
BRANCH   2  13
ATOM     13  C   UNL     1      57.684  28.380  49.425  1.00  0.00     0.027 C 
BRANCH  13  14
ATOM     14  C   UNL     1      57.728  28.296  50.964  1.00  0.00     0.004 C 
BRANCH  14  15
ATOM     15  C   UNL     1      57.865  29.662  51.659  1.00  0.00     0.000 C 
BRANCH  15  16
ATOM     16  C   UNL     1      59.237  29.857  52.323  1.00  0.00     0.000 C 
BRANCH  16  17
ATOM     17  C   UNL     1      60.085  28.571  52.342  1.00  0.00    -0.000 C 
BRANCH  17  18
ATOM     18  C   UNL     1      61.487  28.701  51.718  1.00  0.00    -0.000 C 
BRANCH  18  19
ATOM     19  C   UNL     1      61.580  29.830  50.681  1.00  0.00    -0.003 C 
ATOM     20  C   UNL     1      62.837  30.669  50.893  1.00  0.00     0.004 C 
ENDBRANCH  18  19
ENDBRANCH  17  18
ENDBRANCH  16  17
ENDBRANCH  15  16
ENDBRANCH  14  15
ENDBRANCH  13  14
ENDBRANCH   2  13
TORSDOF 15
ENDMDL
MODEL 6
REMARK VINA RESULT:    -3.820      1.901      4.193
REMARK INTER + INTRA:          -8.337
REMARK INTER:                  -6.541
REMARK INTRA:                  -1.796
REMARK UNBOUND:                -1.167
REMARK SMILES CCCCCCCCC=CCCCCCCCC(=O)[O-]
REMARK SMILES IDX 10 1 9 2 11 3 12 4 13 5 14 6 15 7 16 8 17 9 18 10 19 11
REMARK SMILES IDX 20 12 8 13 7 14 6 15 5 16 4 17 3 18 2 19 1 20
REMARK H PARENT
REMARK Flexibility Score: inf
ROOT
ATOM      1  C   UNL     1      59.666  19.413  52.532  1.00  0.00    -0.031 C 
ATOM      2  C   UNL     1      59.586  20.261  51.490  1.00  0.00    -0.031 C 
ENDROOT
BRANCH   1   3
ATOM      3  C   UNL     1      60.324  18.055  52.487  1.00  0.00     0.027 C 
BRANCH   3   4
ATOM      4  C   UNL     1      59.300  16.923  52.293  1.00  0.00     0.004 C 
BRANCH   4   5
ATOM      5  C   UNL     1      59.238  16.356  50.861  1.00  0.00     0.000 C 
BRANCH   5   6
ATOM      6  C   UNL     1      57.842  16.386  50.207  1.00  0.00     0.000 C 
BRANCH   6   7
ATOM      7  C   UNL     1      57.358  17.781  49.765  1.00  0.00     0.000 C 
BRANCH   7   8
ATOM      8  C   UNL     1      55.987  18.203  50.332  1.00  0.00     0.006 C 
BRANCH   8   9
ATOM      9  C   UNL     1      56.021  18.663  51.797  1.00  0.00     0.053 C 
BRANCH   9  10
ATOM     10  C   UNL     1      54.679  19.132  52.268  1.00  0.00     0.041 C 
ATOM     11  O   UNL     1      53.984  19.894  51.545  1.00  0.00    -0.550 OA
ATOM     12  O   UNL     1      54.182  18.702  53.491  1.00  0.00    -0.550 OA
ENDBRANCH   9  10
ENDBRANCH   8   9
ENDBRANCH   7   8
ENDBRANCH   6   7
ENDBRANCH   5   6
ENDBRANCH   4   5
ENDBRANCH   3   4
ENDBRANCH   1   3
BRANCH   2  13
ATOM     13  C   UNL     1      60.059  19.947  50.091  1.00  0.00     0.027 C 
BRANCH  13  14
ATOM     14  C   UNL     1      61.249  20.830  49.663  1.00  0.00     0.004 C 
BRANCH  14  15
ATOM     15  C   UNL     1      60.835  22.132  48.955  1.00  0.00     0.000 C 
BRANCH  15  16
ATOM     16  C   UNL     1      60.984  23.370  49.852  1.00  0.00     0.000 C 
BRANCH  16  17
ATOM     17  C   UNL     1      59.692  24.201  49.952  1.00  0.00    -0.000 C 
BRANCH  17  18
ATOM     18  C   UNL     1      59.690  25.511  49.143  1.00  0.00    -0.000 C 
BRANCH  18  19
ATOM     19  C   UNL     1      58.447  26.376  49.402  1.00  0.00    -0.003 C 
ATOM     20  C   UNL     1      57.250  25.514  49.795  1.00  0.00     0.004 C 
ENDBRANCH  18  19
ENDBRANCH  17  18
ENDBRANCH  16  17
ENDBRANCH  15  16
ENDBRANCH  14  15
ENDBRANCH  13  14
ENDBRANCH   2  13
TORSDOF 15
ENDMDL
MODEL 7
REMARK VINA RESULT:    -3.812      5.324      7.103
REMARK INTER + INTRA:          -8.321
REMARK INTER:                  -5.524
REMARK INTRA:                  -2.797
REMARK UNBOUND:                -1.167
REMARK SMILES CCCCCCCCC=CCCCCCCCC(=O)[O-]
REMARK SMILES IDX 10 1 9 2 11 3 12 4 13 5 14 6 15 7 16 8 17 9 18 10 19 11
REMARK SMILES IDX 20 12 8 13 7 14 6 15 5 16 4 17 3 18 2 19 1 20
REMARK H PARENT
REMARK Flexibility Score: inf
ROOT
ATOM      1  C   UNL     1      62.989  25.612  49.335  1.00  0.00    -0.031 C 
ATOM      2  C   UNL     1      63.689  26.452  48.549  1.00  0.00    -0.031 C 
ENDROOT
BRANCH   1   3
ATOM      3  C   UNL     1      61.663  25.942  49.978  1.00  0.00     0.027 C 
BRANCH   3   4
ATOM      4  C   UNL     1      60.502  25.158  49.343  1.00  0.00     0.004 C 
BRANCH   4   5
ATOM      5  C   UNL     1      59.270  26.015  48.989  1.00  0.00     0.000 C 
BRANCH   5   6
ATOM      6  C   UNL     1      59.581  27.475  48.602  1.00  0.00     0.000 C 
BRANCH   6   7
ATOM      7  C   UNL     1      58.564  28.516  49.112  1.00  0.00     0.000 C 
BRANCH   7   8
ATOM      8  C   UNL     1      57.197  27.940  49.531  1.00  0.00     0.006 C 
BRANCH   8   9
ATOM      9  C   UNL     1      56.605  28.569  50.801  1.00  0.00     0.053 C 
BRANCH   9  10
ATOM     10  C   UNL     1      55.398  29.403  50.503  1.00  0.00     0.041 C 
ATOM     11  O   UNL     1      54.351  29.273  51.191  1.00  0.00    -0.550 OA
ATOM     12  O   UNL     1      55.440  30.348  49.486  1.00  0.00    -0.550 OA
ENDBRANCH   9  10
ENDBRANCH   8   9
ENDBRANCH   7   8
ENDBRANCH   6   7
ENDBRANCH   5   6
ENDBRANCH   4   5
ENDBRANCH   3   4
ENDBRANCH   1   3
BRANCH   2  13
ATOM     13  C   UNL     1      63.303  27.882  48.264  1.00  0.00     0.027 C 
BRANCH  13  14
ATOM     14  C   UNL     1      63.250  28.743  49.543  1.00  0.00     0.004 C 
BRANCH  14  15
ATOM     15  C   UNL     1      62.249  29.909  49.468  1.00  0.00     0.000 C 
BRANCH  15  16
ATOM     16  C   UNL     1      61.513  30.148  50.796  1.00  0.00     0.000 C 
BRANCH  16  17
ATOM     17  C   UNL     1      61.523  28.916  51.720  1.00  0.00    -0.000 C 
BRANCH  17  18
ATOM     18  C   UNL     1      60.179  28.595  52.398  1.00  0.00    -0.000 C 
BRANCH  18  19
ATOM     19  C   UNL     1      60.173  27.230  53.103  1.00  0.00    -0.003 C 
ATOM     20  C   UNL     1      58.953  26.408  52.700  1.00  0.00     0.004 C 
ENDBRANCH  18  19
ENDBRANCH  17  18
ENDBRANCH  16  17
ENDBRANCH  15  16
ENDBRANCH  14  15
ENDBRANCH  13  14
ENDBRANCH   2  13
TORSDOF 15
ENDMDL
MODEL 8
REMARK VINA RESULT:    -3.769      1.460      3.664
REMARK INTER + INTRA:          -8.241
REMARK INTER:                  -6.485
REMARK INTRA:                  -1.756
REMARK UNBOUND:                -1.167
REMARK SMILES CCCCCCCCC=CCCCCCCCC(=O)[O-]
REMARK SMILES IDX 10 1 9 2 11 3 12 4 13 5 14 6 15 7 16 8 17 9 18 10 19 11
REMARK SMILES IDX 20 12 8 13 7 14 6 15 5 16 4 17 3 18 2 19 1 20
REMARK H PARENT
REMARK Flexibility Score: inf
ROOT
ATOM      1  C   UNL     1      59.050  24.167  50.688  1.00  0.00    -0.031 C 
ATOM      2  C   UNL     1      57.903  24.869  50.740  1.00  0.00    -0.031 C 
ENDROOT
BRANCH   1   3
ATOM      3  C   UNL     1      60.040  24.221  49.549  1.00  0.00     0.027 C 
BRANCH   3   4
ATOM      4  C   UNL     1      60.826  22.906  49.403  1.00  0.00     0.004 C 
BRANCH   4   5
ATOM      5  C   UNL     1      60.483  21.836  50.460  1.00  0.00     0.000 C 
BRANCH   5   6
ATOM      6  C   UNL     1      60.599  20.378  49.974  1.00  0.00     0.000 C 
BRANCH   6   7
ATOM      7  C   UNL     1      59.288  19.568  50.022  1.00  0.00     0.000 C 
BRANCH   7   8
ATOM      8  C   UNL     1      59.468  18.037  49.972  1.00  0.00     0.006 C 
BRANCH   8   9
ATOM      9  C   UNL     1      58.180  17.257  49.669  1.00  0.00     0.053 C 
BRANCH   9  10
ATOM     10  C   UNL     1      57.013  17.777  50.449  1.00  0.00     0.041 C 
ATOM     11  O   UNL     1      55.998  18.224  49.852  1.00  0.00    -0.550 OA
ATOM     12  O   UNL     1      57.032  17.739  51.838  1.00  0.00    -0.550 OA
ENDBRANCH   9  10
ENDBRANCH   8   9
ENDBRANCH   7   8
ENDBRANCH   6   7
ENDBRANCH   5   6
ENDBRANCH   4   5
ENDBRANCH   3   4
ENDBRANCH   1   3
BRANCH   2  13
ATOM     13  C   UNL     1      57.385  25.749  49.628  1.00  0.00     0.027 C 
BRANCH  13  14
ATOM     14  C   UNL     1      57.363  27.239  50.021  1.00  0.00     0.004 C 
BRANCH  14  15
ATOM     15  C   UNL     1      58.098  28.156  49.026  1.00  0.00     0.000 C 
BRANCH  15  16
ATOM     16  C   UNL     1      59.603  27.858  48.942  1.00  0.00     0.000 C 
BRANCH  16  17
ATOM     17  C   UNL     1      60.304  27.906  50.312  1.00  0.00    -0.000 C 
BRANCH  17  18
ATOM     18  C   UNL     1      61.789  27.502  50.303  1.00  0.00    -0.000 C 
BRANCH  18  19
ATOM     19  C   UNL     1      62.285  27.067  48.916  1.00  0.00    -0.003 C 
ATOM     20  C   UNL     1      63.315  25.946  49.027  1.00  0.00     0.004 C 
ENDBRANCH  18  19
ENDBRANCH  17  18
ENDBRANCH  16  17
ENDBRANCH  15  16
ENDBRANCH  14  15
ENDBRANCH  13  14
ENDBRANCH   2  13
TORSDOF 15
ENDMDL
MODEL 9
REMARK VINA RESULT:    -3.748      5.674      8.107
REMARK INTER + INTRA:          -8.201
REMARK INTER:                  -5.501
REMARK INTRA:                  -2.700
REMARK UNBOUND:                -1.167
REMARK SMILES CCCCCCCCC=CCCCCCCCC(=O)[O-]
REMARK SMILES IDX 10 1 9 2 11 3 12 4 13 5 14 6 15 7 16 8 17 9 18 10 19 11
REMARK SMILES IDX 20 12 8 13 7 14 6 15 5 16 4 17 3 18 2 19 1 20
REMARK H PARENT
REMARK Flexibility Score: inf
ROOT
ATOM      1  C   UNL     1      60.044  24.411  50.464  1.00  0.00    -0.031 C 
ATOM      2  C   UNL     1      58.743  24.754  50.446  1.00  0.00    -0.031 C 
ENDROOT
BRANCH   1   3
ATOM      3  C   UNL     1      61.059  24.836  49.430  1.00  0.00     0.027 C 
BRANCH   3   4
ATOM      4  C   UNL     1      62.350  25.371  50.073  1.00  0.00     0.004 C 
BRANCH   4   5
ATOM      5  C   UNL     1      63.480  25.686  49.072  1.00  0.00     0.000 C 
BRANCH   5   6
ATOM      6  C   UNL     1      63.853  27.178  48.957  1.00  0.00     0.000 C 
BRANCH   6   7
ATOM      7  C   UNL     1      63.646  27.797  47.561  1.00  0.00     0.000 C 
BRANCH   7   8
ATOM      8  C   UNL     1      64.932  28.300  46.875  1.00  0.00     0.006 C 
BRANCH   8   9
ATOM      9  C   UNL     1      65.657  27.239  46.031  1.00  0.00     0.053 C 
BRANCH   9  10
ATOM     10  C   UNL     1      66.725  26.538  46.810  1.00  0.00     0.041 C 
ATOM     11  O   UNL     1      67.054  25.358  46.517  1.00  0.00    -0.550 OA
ATOM     12  O   UNL     1      67.382  27.199  47.841  1.00  0.00    -0.550 OA
ENDBRANCH   9  10
ENDBRANCH   8   9
ENDBRANCH   7   8
ENDBRANCH   6   7
ENDBRANCH   5   6
ENDBRANCH   4   5
ENDBRANCH   3   4
ENDBRANCH   1   3
BRANCH   2  13
ATOM     13  C   UNL     1      58.078  25.539  49.342  1.00  0.00     0.027 C 
BRANCH  13  14
ATOM     14  C   UNL     1      57.292  26.754  49.877  1.00  0.00     0.004 C 
BRANCH  14  15
ATOM     15  C   UNL     1      57.857  28.111  49.421  1.00  0.00     0.000 C 
BRANCH  15  16
ATOM     16  C   UNL     1      59.174  27.975  48.641  1.00  0.00     0.000 C 
BRANCH  16  17
ATOM     17  C   UNL     1      60.393  28.505  49.419  1.00  0.00    -0.000 C 
BRANCH  17  18
ATOM     18  C   UNL     1      60.110  28.928  50.871  1.00  0.00    -0.000 C 
BRANCH  18  19
ATOM     19  C   UNL     1      60.654  27.931  51.905  1.00  0.00    -0.003 C 
ATOM     20  C   UNL     1      59.547  27.443  52.835  1.00  0.00     0.004 C 
ENDBRANCH  18  19
ENDBRANCH  17  18
ENDBRANCH  16  17
ENDBRANCH  15  16
ENDBRANCH  14  15
ENDBRANCH  13  14
ENDBRANCH   2  13
TORSDOF 15
ENDMDL
