MODEL 1
REMARK VINA RESULT:    -2.152      0.000      0.000
REMARK INTER + INTRA:          -2.917
REMARK INTER:                  -2.530
REMARK INTRA:                  -0.388
REMARK UNBOUND:                -0.388
REMARK SMILES [NH3+][C@H](CO)C(=O)[O-]
REMARK SMILES IDX 3 1 2 2 1 3 5 7 6 8 7 9 4 10
REMARK H PARENT 1 4 1 5 1 6 4 11
REMARK Flexibility Score: inf
ROOT
ATOM      1  C   UNL     1       7.125  -2.481   0.061  1.00  0.00     0.227 C 
ENDROOT
BRANCH   1   2
ATOM      2  C   UNL     1       5.972  -2.836  -0.893  1.00  0.00     0.253 C 
BRANCH   2   3
ATOM      3  N   UNL     1       5.120  -3.888  -0.325  1.00  0.00    -0.348 N 
ATOM      4  H   UNL     1       4.224  -3.473   0.020  1.00  0.00     0.345 HD
ATOM      5  H   UNL     1       5.605  -4.336   0.487  1.00  0.00     0.345 HD
ATOM      6  H   UNL     1       4.906  -4.619  -1.043  1.00  0.00     0.345 HD
ENDBRANCH   2   3
BRANCH   2   7
ATOM      7  C   UNL     1       5.154  -1.607  -1.188  1.00  0.00     0.102 C 
ATOM      8  O   UNL     1       4.006  -1.475  -0.686  1.00  0.00    -0.544 OA
ATOM      9  O   UNL     1       5.652  -0.617  -2.026  1.00  0.00    -0.544 OA
ENDBRANCH   2   7
ENDBRANCH   1   2
BRANCH   1  10
ATOM     10  O   UNL     1       6.900  -1.226   0.638  1.00  0.00    -0.390 OA
ATOM     11  H   UNL     1       7.251  -1.281   1.564  1.00  0.00     0.210 HD
ENDBRANCH   1  10
TORSDOF 4
ENDMDL
MODEL 2
REMARK VINA RESULT:    -2.077      4.236      5.230
REMARK INTER + INTRA:          -2.828
REMARK INTER:                  -2.602
REMARK INTRA:                  -0.227
REMARK UNBOUND:                -0.388
REMARK SMILES [NH3+][C@H](CO)C(=O)[O-]
REMARK SMILES IDX 3 1 2 2 1 3 5 7 6 8 7 9 4 10
REMARK H PARENT 1 4 1 5 1 6 4 11
REMARK Flexibility Score: inf
ROOT
ATOM      1  C   UNL     1       2.478   1.642  -3.697  1.00  0.00     0.227 C 
ENDROOT
BRANCH   1   2
ATOM      2  C   UNL     1       3.993   1.384  -3.729  1.00  0.00     0.253 C 
BRANCH   2   3
ATOM      3  N   UNL     1       4.746   2.620  -3.484  1.00  0.00    -0.348 N 
ATOM      4  H   UNL     1       5.568   2.421  -2.868  1.00  0.00     0.345 HD
ATOM      5  H   UNL     1       4.136   3.315  -2.995  1.00  0.00     0.345 HD
ATOM      6  H   UNL     1       5.085   3.033  -4.384  1.00  0.00     0.345 HD
ENDBRANCH   2   3
BRANCH   2   7
ATOM      7  C   UNL     1       4.358   0.341  -2.707  1.00  0.00     0.102 C 
ATOM      8  O   UNL     1       3.466  -0.176  -1.983  1.00  0.00    -0.544 OA
ATOM      9  O   UNL     1       5.682  -0.049  -2.544  1.00  0.00    -0.544 OA
ENDBRANCH   2   7
ENDBRANCH   1   2
BRANCH   1  10
ATOM     10  O   UNL     1       2.138   2.349  -2.537  1.00  0.00    -0.390 OA
ATOM     11  H   UNL     1       2.858   3.017  -2.399  1.00  0.00     0.210 HD
ENDBRANCH   1  10
TORSDOF 4
ENDMDL
MODEL 3
REMARK VINA RESULT:    -2.060      1.970      2.435
REMARK INTER + INTRA:          -2.809
REMARK INTER:                  -2.398
REMARK INTRA:                  -0.411
REMARK UNBOUND:                -0.388
REMARK SMILES [NH3+][C@H](CO)C(=O)[O-]
REMARK SMILES IDX 3 1 2 2 1 3 5 7 6 8 7 9 4 10
REMARK H PARENT 1 4 1 5 1 6 4 11
REMARK Flexibility Score: inf
ROOT
ATOM      1  C   UNL     1       6.535  -3.202  -0.595  1.00  0.00     0.227 C 
ENDROOT
BRANCH   1   2
ATOM      2  C   UNL     1       6.158  -1.756  -0.235  1.00  0.00     0.253 C 
BRANCH   2   3
ATOM      3  N   UNL     1       7.116  -1.181   0.718  1.00  0.00    -0.348 N 
ATOM      4  H   UNL     1       6.611  -0.831   1.564  1.00  0.00     0.345 HD
ATOM      5  H   UNL     1       7.610  -0.371   0.277  1.00  0.00     0.345 HD
ATOM      6  H   UNL     1       7.822  -1.896   1.010  1.00  0.00     0.345 HD
ENDBRANCH   2   3
BRANCH   2   7
ATOM      7  C   UNL     1       6.097  -0.915  -1.482  1.00  0.00     0.102 C 
ATOM      8  O   UNL     1       7.125  -0.313  -1.891  1.00  0.00    -0.544 OA
ATOM      9  O   UNL     1       4.904  -0.787  -2.183  1.00  0.00    -0.544 OA
ENDBRANCH   2   7
ENDBRANCH   1   2
BRANCH   1  10
ATOM     10  O   UNL     1       6.542  -3.363  -1.986  1.00  0.00    -0.390 OA
ATOM     11  H   UNL     1       6.007  -4.177  -2.172  1.00  0.00     0.210 HD
ENDBRANCH   1  10
TORSDOF 4
ENDMDL
MODEL 4
REMARK VINA RESULT:    -2.059      2.319      2.798
REMARK INTER + INTRA:          -2.808
REMARK INTER:                  -2.405
REMARK INTRA:                  -0.402
REMARK UNBOUND:                -0.388
REMARK SMILES [NH3+][C@H](CO)C(=O)[O-]
REMARK SMILES IDX 3 1 2 2 1 3 5 7 6 8 7 9 4 10
REMARK H PARENT 1 4 1 5 1 6 4 11
REMARK Flexibility Score: inf
ROOT
ATOM      1  C   UNL     1       3.730  -4.028  -0.449  1.00  0.00     0.227 C 
ENDROOT
BRANCH   1   2
ATOM      2  C   UNL     1       4.175  -2.742  -1.164  1.00  0.00     0.253 C 
BRANCH   2   3
ATOM      3  N   UNL     1       3.352  -1.597  -0.755  1.00  0.00    -0.348 N 
ATOM      4  H   UNL     1       2.602  -1.426  -1.464  1.00  0.00     0.345 HD
ATOM      5  H   UNL     1       3.945  -0.738  -0.695  1.00  0.00     0.345 HD
ATOM      6  H   UNL     1       2.908  -1.774   0.177  1.00  0.00     0.345 HD
ENDBRANCH   2   3
BRANCH   2   7
ATOM      7  C   UNL     1       5.627  -2.469  -0.873  1.00  0.00     0.102 C 
ATOM      8  O   UNL     1       5.950  -1.703   0.073  1.00  0.00    -0.544 OA
ATOM      9  O   UNL     1       6.619  -3.049  -1.654  1.00  0.00    -0.544 OA
ENDBRANCH   2   7
ENDBRANCH   1   2
BRANCH   1  10
ATOM     10  O   UNL     1       4.835  -4.657   0.138  1.00  0.00    -0.390 OA
ATOM     11  H   UNL     1       4.469  -5.374   0.717  1.00  0.00     0.210 HD
ENDBRANCH   1  10
TORSDOF 4
ENDMDL
MODEL 5
REMARK VINA RESULT:    -2.038      1.975      2.216
REMARK INTER + INTRA:          -2.783
REMARK INTER:                  -2.752
REMARK INTRA:                  -0.031
REMARK UNBOUND:                -0.388
REMARK SMILES [NH3+][C@H](CO)C(=O)[O-]
REMARK SMILES IDX 3 1 2 2 1 3 5 7 6 8 7 9 4 10
REMARK H PARENT 1 4 1 5 1 6 4 11
REMARK Flexibility Score: inf
ROOT
ATOM      1  C   UNL     1       6.093  -4.416  -0.659  1.00  0.00     0.227 C 
ENDROOT
BRANCH   1   2
ATOM      2  C   UNL     1       4.763  -3.681  -0.886  1.00  0.00     0.253 C 
BRANCH   2   3
ATOM      3  N   UNL     1       3.699  -4.239  -0.043  1.00  0.00    -0.348 N 
ATOM      4  H   UNL     1       3.470  -5.212  -0.354  1.00  0.00     0.345 HD
ATOM      5  H   UNL     1       2.834  -3.658  -0.134  1.00  0.00     0.345 HD
ATOM      6  H   UNL     1       3.994  -4.261   0.961  1.00  0.00     0.345 HD
ENDBRANCH   2   3
BRANCH   2   7
ATOM      7  C   UNL     1       4.933  -2.212  -0.604  1.00  0.00     0.102 C 
ATOM      8  O   UNL     1       4.035  -1.395  -0.938  1.00  0.00    -0.544 OA
ATOM      9  O   UNL     1       6.087  -1.745   0.013  1.00  0.00    -0.544 OA
ENDBRANCH   2   7
ENDBRANCH   1   2
BRANCH   1  10
ATOM     10  O   UNL     1       5.945  -5.372   0.353  1.00  0.00    -0.390 OA
ATOM     11  H   UNL     1       5.087  -5.836   0.171  1.00  0.00     0.210 HD
ENDBRANCH   1  10
TORSDOF 4
ENDMDL
MODEL 6
REMARK VINA RESULT:    -1.945      2.335      2.784
REMARK INTER + INTRA:          -2.674
REMARK INTER:                  -2.265
REMARK INTRA:                  -0.409
REMARK UNBOUND:                -0.388
REMARK SMILES [NH3+][C@H](CO)C(=O)[O-]
REMARK SMILES IDX 3 1 2 2 1 3 5 7 6 8 7 9 4 10
REMARK H PARENT 1 4 1 5 1 6 4 11
REMARK Flexibility Score: inf
ROOT
ATOM      1  C   UNL     1       6.488  -5.409  -0.696  1.00  0.00     0.227 C 
ENDROOT
BRANCH   1   2
ATOM      2  C   UNL     1       6.396  -4.116  -1.522  1.00  0.00     0.253 C 
BRANCH   2   3
ATOM      3  N   UNL     1       5.738  -4.358  -2.812  1.00  0.00    -0.348 N 
ATOM      4  H   UNL     1       4.956  -5.042  -2.690  1.00  0.00     0.345 HD
ATOM      5  H   UNL     1       6.424  -4.765  -3.488  1.00  0.00     0.345 HD
ATOM      6  H   UNL     1       5.356  -3.467  -3.206  1.00  0.00     0.345 HD
ENDBRANCH   2   3
BRANCH   2   7
ATOM      7  C   UNL     1       5.650  -3.064  -0.746  1.00  0.00     0.102 C 
ATOM      8  O   UNL     1       6.280  -2.225  -0.049  1.00  0.00    -0.544 OA
ATOM      9  O   UNL     1       4.261  -3.019  -0.781  1.00  0.00    -0.544 OA
ENDBRANCH   2   7
ENDBRANCH   1   2
BRANCH   1  10
ATOM     10  O   UNL     1       5.750  -5.276   0.487  1.00  0.00    -0.390 OA
ATOM     11  H   UNL     1       4.891  -4.853   0.229  1.00  0.00     0.210 HD
ENDBRANCH   1  10
TORSDOF 4
ENDMDL
MODEL 7
REMARK VINA RESULT:    -1.929      2.094      3.158
REMARK INTER + INTRA:          -2.655
REMARK INTER:                  -2.254
REMARK INTRA:                  -0.401
REMARK UNBOUND:                -0.388
REMARK SMILES [NH3+][C@H](CO)C(=O)[O-]
REMARK SMILES IDX 3 1 2 2 1 3 5 7 6 8 7 9 4 10
REMARK H PARENT 1 4 1 5 1 6 4 11
REMARK Flexibility Score: inf
ROOT
ATOM      1  C   UNL     1       4.324  -1.014  -1.979  1.00  0.00     0.227 C 
ENDROOT
BRANCH   1   2
ATOM      2  C   UNL     1       5.838  -1.276  -1.983  1.00  0.00     0.253 C 
BRANCH   2   3
ATOM      3  N   UNL     1       6.589  -0.039  -2.232  1.00  0.00    -0.348 N 
ATOM      4  H   UNL     1       7.059  -0.089  -3.165  1.00  0.00     0.345 HD
ATOM      5  H   UNL     1       7.328   0.079  -1.502  1.00  0.00     0.345 HD
ATOM      6  H   UNL     1       5.952   0.791  -2.213  1.00  0.00     0.345 HD
ENDBRANCH   2   3
BRANCH   2   7
ATOM      7  C   UNL     1       6.258  -1.884  -0.672  1.00  0.00     0.102 C 
ATOM      8  O   UNL     1       6.829  -1.177   0.200  1.00  0.00    -0.544 OA
ATOM      9  O   UNL     1       6.032  -3.232  -0.419  1.00  0.00    -0.544 OA
ENDBRANCH   2   7
ENDBRANCH   1   2
BRANCH   1  10
ATOM     10  O   UNL     1       3.797  -1.274  -0.708  1.00  0.00    -0.390 OA
ATOM     11  H   UNL     1       3.737  -0.396  -0.249  1.00  0.00     0.210 HD
ENDBRANCH   1  10
TORSDOF 4
ENDMDL
MODEL 8
REMARK VINA RESULT:    -1.926      1.945      2.764
REMARK INTER + INTRA:          -2.652
REMARK INTER:                  -2.239
REMARK INTRA:                  -0.413
REMARK UNBOUND:                -0.388
REMARK SMILES [NH3+][C@H](CO)C(=O)[O-]
REMARK SMILES IDX 3 1 2 2 1 3 5 7 6 8 7 9 4 10
REMARK H PARENT 1 4 1 5 1 6 4 11
REMARK Flexibility Score: inf
ROOT
ATOM      1  C   UNL     1       4.993  -1.622  -0.715  1.00  0.00     0.227 C 
ENDROOT
BRANCH   1   2
ATOM      2  C   UNL     1       5.328  -3.087  -1.036  1.00  0.00     0.253 C 
BRANCH   2   3
ATOM      3  N   UNL     1       6.254  -3.648  -0.045  1.00  0.00    -0.348 N 
ATOM      4  H   UNL     1       7.067  -3.003   0.088  1.00  0.00     0.345 HD
ATOM      5  H   UNL     1       6.621  -4.567  -0.383  1.00  0.00     0.345 HD
ATOM      6  H   UNL     1       5.773  -3.787   0.874  1.00  0.00     0.345 HD
ENDBRANCH   2   3
BRANCH   2   7
ATOM      7  C   UNL     1       4.064  -3.904  -1.087  1.00  0.00     0.102 C 
ATOM      8  O   UNL     1       3.633  -4.468  -0.047  1.00  0.00    -0.544 OA
ATOM      9  O   UNL     1       3.372  -4.052  -2.283  1.00  0.00    -0.544 OA
ENDBRANCH   2   7
ENDBRANCH   1   2
BRANCH   1  10
ATOM     10  O   UNL     1       3.604  -1.447  -0.668  1.00  0.00    -0.390 OA
ATOM     11  H   UNL     1       3.228  -2.031  -1.377  1.00  0.00     0.210 HD
ENDBRANCH   1  10
TORSDOF 4
ENDMDL
MODEL 9
REMARK VINA RESULT:    -1.889      3.145      3.868
REMARK INTER + INTRA:          -2.608
REMARK INTER:                  -2.205
REMARK INTRA:                  -0.403
REMARK UNBOUND:                -0.388
REMARK SMILES [NH3+][C@H](CO)C(=O)[O-]
REMARK SMILES IDX 3 1 2 2 1 3 5 7 6 8 7 9 4 10
REMARK H PARENT 1 4 1 5 1 6 4 11
REMARK Flexibility Score: inf
ROOT
ATOM      1  C   UNL     1       4.212  -3.243  -0.707  1.00  0.00     0.227 C 
ENDROOT
BRANCH   1   2
ATOM      2  C   UNL     1       5.601  -3.852  -0.955  1.00  0.00     0.253 C 
BRANCH   2   3
ATOM      3  N   UNL     1       6.582  -3.344   0.012  1.00  0.00    -0.348 N 
ATOM      4  H   UNL     1       7.078  -4.143   0.469  1.00  0.00     0.345 HD
ATOM      5  H   UNL     1       6.093  -2.796   0.757  1.00  0.00     0.345 HD
ATOM      6  H   UNL     1       7.284  -2.729  -0.461  1.00  0.00     0.345 HD
ENDBRANCH   2   3
BRANCH   2   7
ATOM      7  C   UNL     1       5.525  -5.354  -0.878  1.00  0.00     0.102 C 
ATOM      8  O   UNL     1       5.925  -5.956   0.152  1.00  0.00    -0.544 OA
ATOM      9  O   UNL     1       5.025  -6.086  -1.948  1.00  0.00    -0.544 OA
ENDBRANCH   2   7
ENDBRANCH   1   2
BRANCH   1  10
ATOM     10  O   UNL     1       3.344  -4.220  -0.204  1.00  0.00    -0.390 OA
ATOM     11  H   UNL     1       3.855  -4.714   0.487  1.00  0.00     0.210 HD
ENDBRANCH   1  10
TORSDOF 4
ENDMDL
