MODEL 1
REMARK VINA RESULT:    -2.496      0.000      0.000
REMARK INTER + INTRA:          -7.775
REMARK INTER:                  -6.289
REMARK INTRA:                  -1.487
REMARK UNBOUND:                -1.487
REMARK SMILES CCCCCCCCCCCCCCCCCCCCCCCCCCCC(=O)[O-]
REMARK SMILES IDX 15 1 16 2 17 3 18 4 19 5 20 6 21 7 22 8 23 9 24 10 25 11
REMARK SMILES IDX 26 12 27 13 28 14 29 15 30 16 14 17 13 18 12 19 11 20 10 21
REMARK SMILES IDX 9 22 8 23 7 24 6 25 5 26 4 27 3 28 2 29 1 30
REMARK H PARENT
REMARK Flexibility Score: inf
ROOT
ATOM      1  C   UNL     1      15.376  23.008   5.254  1.00  0.00     0.000 C 
ENDROOT
BRANCH   1   2
ATOM      2  C   UNL     1      16.824  22.760   4.788  1.00  0.00     0.000 C 
BRANCH   2   3
ATOM      3  C   UNL     1      17.890  23.622   5.491  1.00  0.00     0.000 C 
BRANCH   3   4
ATOM      4  C   UNL     1      18.720  24.532   4.562  1.00  0.00     0.000 C 
BRANCH   4   5
ATOM      5  C   UNL     1      20.109  23.985   4.184  1.00  0.00     0.000 C 
BRANCH   5   6
ATOM      6  C   UNL     1      20.564  24.423   2.785  1.00  0.00     0.000 C 
BRANCH   6   7
ATOM      7  C   UNL     1      19.480  25.266   2.098  1.00  0.00     0.000 C 
BRANCH   7   8
ATOM      8  C   UNL     1      18.663  24.464   1.073  1.00  0.00     0.000 C 
BRANCH   8   9
ATOM      9  C   UNL     1      19.460  24.147  -0.206  1.00  0.00     0.000 C 
BRANCH   9  10
ATOM     10  C   UNL     1      19.111  25.099  -1.371  1.00  0.00     0.000 C 
BRANCH  10  11
ATOM     11  C   UNL     1      18.386  26.387  -0.931  1.00  0.00     0.000 C 
BRANCH  11  12
ATOM     12  C   UNL     1      16.855  26.355  -1.076  1.00  0.00     0.006 C 
BRANCH  12  13
ATOM     13  C   UNL     1      16.315  24.949  -1.370  1.00  0.00     0.053 C 
BRANCH  13  14
ATOM     14  C   UNL     1      15.106  25.014  -2.252  1.00  0.00     0.041 C 
ATOM     15  O   UNL     1      14.002  24.559  -1.849  1.00  0.00    -0.550 OA
ATOM     16  O   UNL     1      15.188  25.613  -3.505  1.00  0.00    -0.550 OA
ENDBRANCH  13  14
ENDBRANCH  12  13
ENDBRANCH  11  12
ENDBRANCH  10  11
ENDBRANCH   9  10
ENDBRANCH   8   9
ENDBRANCH   7   8
ENDBRANCH   6   7
ENDBRANCH   5   6
ENDBRANCH   4   5
ENDBRANCH   3   4
ENDBRANCH   2   3
ENDBRANCH   1   2
BRANCH   1  17
ATOM     17  C   UNL     1      14.672  21.782   5.859  1.00  0.00     0.000 C 
BRANCH  17  18
ATOM     18  C   UNL     1      15.664  20.737   6.400  1.00  0.00     0.000 C 
BRANCH  18  19
ATOM     19  C   UNL     1      15.909  20.855   7.916  1.00  0.00     0.000 C 
BRANCH  19  20
ATOM     20  C   UNL     1      17.325  21.300   8.329  1.00  0.00     0.000 C 
BRANCH  20  21
ATOM     21  C   UNL     1      17.383  21.914   9.734  1.00  0.00     0.000 C 
BRANCH  21  22
ATOM     22  C   UNL     1      16.363  21.250  10.670  1.00  0.00    -0.000 C 
BRANCH  22  23
ATOM     23  C   UNL     1      15.572  22.262  11.518  1.00  0.00    -0.000 C 
BRANCH  23  24
ATOM     24  C   UNL     1      16.246  22.684  12.840  1.00  0.00    -0.000 C 
BRANCH  24  25
ATOM     25  C   UNL     1      16.281  24.201  13.100  1.00  0.00    -0.000 C 
BRANCH  25  26
ATOM     26  C   UNL     1      17.027  24.976  12.001  1.00  0.00    -0.000 C 
BRANCH  26  27
ATOM     27  C   UNL     1      18.333  24.271  11.574  1.00  0.00    -0.000 C 
BRANCH  27  28
ATOM     28  C   UNL     1      19.022  24.921  10.357  1.00  0.00    -0.000 C 
BRANCH  28  29
ATOM     29  C   UNL     1      20.548  25.072  10.483  1.00  0.00    -0.003 C 
ATOM     30  C   UNL     1      21.246  23.760  10.841  1.00  0.00     0.004 C 
ENDBRANCH  28  29
ENDBRANCH  27  28
ENDBRANCH  26  27
ENDBRANCH  25  26
ENDBRANCH  24  25
ENDBRANCH  23  24
ENDBRANCH  22  23
ENDBRANCH  21  22
ENDBRANCH  20  21
ENDBRANCH  19  20
ENDBRANCH  18  19
ENDBRANCH  17  18
ENDBRANCH   1  17
TORSDOF 26
ENDMDL
MODEL 2
REMARK VINA RESULT:    -2.459     10.084     14.178
REMARK INTER + INTRA:          -7.684
REMARK INTER:                  -5.653
REMARK INTRA:                  -2.031
REMARK UNBOUND:                -1.487
REMARK SMILES CCCCCCCCCCCCCCCCCCCCCCCCCCCC(=O)[O-]
REMARK SMILES IDX 15 1 16 2 17 3 18 4 19 5 20 6 21 7 22 8 23 9 24 10 25 11
REMARK SMILES IDX 26 12 27 13 28 14 29 15 30 16 14 17 13 18 12 19 11 20 10 21
REMARK SMILES IDX 9 22 8 23 7 24 6 25 5 26 4 27 3 28 2 29 1 30
REMARK H PARENT
REMARK Flexibility Score: inf
ROOT
ATOM      1  C   UNL     1      19.879  34.174  11.727  1.00  0.00     0.000 C 
ENDROOT
BRANCH   1   2
ATOM      2  C   UNL     1      20.589  34.236  13.094  1.00  0.00     0.000 C 
BRANCH   2   3
ATOM      3  C   UNL     1      21.269  35.582  13.412  1.00  0.00     0.000 C 
BRANCH   3   4
ATOM      4  C   UNL     1      22.212  35.571  14.633  1.00  0.00     0.000 C 
BRANCH   4   5
ATOM      5  C   UNL     1      23.105  36.816  14.779  1.00  0.00     0.000 C 
BRANCH   5   6
ATOM      6  C   UNL     1      24.072  36.723  15.968  1.00  0.00     0.000 C 
BRANCH   6   7
ATOM      7  C   UNL     1      25.527  36.878  15.501  1.00  0.00     0.000 C 
BRANCH   7   8
ATOM      8  C   UNL     1      25.671  37.851  14.320  1.00  0.00     0.000 C 
BRANCH   8   9
ATOM      9  C   UNL     1      26.731  37.394  13.299  1.00  0.00     0.000 C 
BRANCH   9  10
ATOM     10  C   UNL     1      27.058  35.889  13.420  1.00  0.00     0.000 C 
BRANCH  10  11
ATOM     11  C   UNL     1      26.728  35.074  12.153  1.00  0.00     0.000 C 
BRANCH  11  12
ATOM     12  C   UNL     1      26.081  33.702  12.412  1.00  0.00     0.006 C 
BRANCH  12  13
ATOM     13  C   UNL     1      25.206  33.685  13.673  1.00  0.00     0.053 C 
BRANCH  13  14
ATOM     14  C   UNL     1      24.033  32.771  13.499  1.00  0.00     0.041 C 
ATOM     15  O   UNL     1      23.511  32.212  14.501  1.00  0.00    -0.550 OA
ATOM     16  O   UNL     1      23.488  32.567  12.235  1.00  0.00    -0.550 OA
ENDBRANCH  13  14
ENDBRANCH  12  13
ENDBRANCH  11  12
ENDBRANCH  10  11
ENDBRANCH   9  10
ENDBRANCH   8   9
ENDBRANCH   7   8
ENDBRANCH   6   7
ENDBRANCH   5   6
ENDBRANCH   4   5
ENDBRANCH   3   4
ENDBRANCH   2   3
ENDBRANCH   1   2
BRANCH   1  17
ATOM     17  C   UNL     1      18.353  33.993  11.798  1.00  0.00     0.000 C 
BRANCH  17  18
ATOM     18  C   UNL     1      17.736  33.638  10.434  1.00  0.00     0.000 C 
BRANCH  18  19
ATOM     19  C   UNL     1      17.828  32.138  10.094  1.00  0.00     0.000 C 
BRANCH  19  20
ATOM     20  C   UNL     1      16.658  31.269  10.593  1.00  0.00     0.000 C 
BRANCH  20  21
ATOM     21  C   UNL     1      16.888  29.765  10.390  1.00  0.00     0.000 C 
BRANCH  21  22
ATOM     22  C   UNL     1      15.696  28.949  10.913  1.00  0.00    -0.000 C 
BRANCH  22  23
ATOM     23  C   UNL     1      16.056  27.485  11.221  1.00  0.00    -0.000 C 
BRANCH  23  24
ATOM     24  C   UNL     1      15.922  27.069  12.700  1.00  0.00    -0.000 C 
BRANCH  24  25
ATOM     25  C   UNL     1      16.576  25.724  13.063  1.00  0.00    -0.000 C 
BRANCH  25  26
ATOM     26  C   UNL     1      16.525  24.707  11.909  1.00  0.00    -0.000 C 
BRANCH  26  27
ATOM     27  C   UNL     1      17.788  23.821  11.856  1.00  0.00    -0.000 C 
BRANCH  27  28
ATOM     28  C   UNL     1      18.496  23.828  10.486  1.00  0.00    -0.000 C 
BRANCH  28  29
ATOM     29  C   UNL     1      19.697  24.785  10.385  1.00  0.00    -0.003 C 
ATOM     30  C   UNL     1      21.008  24.140  10.835  1.00  0.00     0.004 C 
ENDBRANCH  28  29
ENDBRANCH  27  28
ENDBRANCH  26  27
ENDBRANCH  25  26
ENDBRANCH  24  25
ENDBRANCH  23  24
ENDBRANCH  22  23
ENDBRANCH  21  22
ENDBRANCH  20  21
ENDBRANCH  19  20
ENDBRANCH  18  19
ENDBRANCH  17  18
ENDBRANCH   1  17
TORSDOF 26
ENDMDL
MODEL 3
REMARK VINA RESULT:    -2.426      6.235      9.244
REMARK INTER + INTRA:          -7.599
REMARK INTER:                  -5.961
REMARK INTRA:                  -1.639
REMARK UNBOUND:                -1.487
REMARK SMILES CCCCCCCCCCCCCCCCCCCCCCCCCCCC(=O)[O-]
REMARK SMILES IDX 15 1 16 2 17 3 18 4 19 5 20 6 21 7 22 8 23 9 24 10 25 11
REMARK SMILES IDX 26 12 27 13 28 14 29 15 30 16 14 17 13 18 12 19 11 20 10 21
REMARK SMILES IDX 9 22 8 23 7 24 6 25 5 26 4 27 3 28 2 29 1 30
REMARK H PARENT
REMARK Flexibility Score: inf
ROOT
ATOM      1  C   UNL     1      18.198  26.211  -1.100  1.00  0.00     0.000 C 
ENDROOT
BRANCH   1   2
ATOM      2  C   UNL     1      17.984  27.408  -0.153  1.00  0.00     0.000 C 
BRANCH   2   3
ATOM      3  C   UNL     1      19.269  27.967   0.489  1.00  0.00     0.000 C 
BRANCH   3   4
ATOM      4  C   UNL     1      19.673  29.383   0.028  1.00  0.00     0.000 C 
BRANCH   4   5
ATOM      5  C   UNL     1      19.836  30.415   1.158  1.00  0.00     0.000 C 
BRANCH   5   6
ATOM      6  C   UNL     1      20.957  31.429   0.886  1.00  0.00     0.000 C 
BRANCH   6   7
ATOM      7  C   UNL     1      20.392  32.854   0.794  1.00  0.00     0.000 C 
BRANCH   7   8
ATOM      8  C   UNL     1      20.777  33.564  -0.513  1.00  0.00     0.000 C 
BRANCH   8   9
ATOM      9  C   UNL     1      20.097  34.938  -0.667  1.00  0.00     0.000 C 
BRANCH   9  10
ATOM     10  C   UNL     1      20.095  35.435  -2.129  1.00  0.00     0.000 C 
BRANCH  10  11
ATOM     11  C   UNL     1      20.448  36.929  -2.283  1.00  0.00     0.000 C 
BRANCH  11  12
ATOM     12  C   UNL     1      19.282  37.833  -2.717  1.00  0.00     0.006 C 
BRANCH  12  13
ATOM     13  C   UNL     1      18.230  38.018  -1.614  1.00  0.00     0.053 C 
BRANCH  13  14
ATOM     14  C   UNL     1      16.928  37.391  -2.006  1.00  0.00     0.041 C 
ATOM     15  O   UNL     1      16.853  36.682  -3.045  1.00  0.00    -0.550 OA
ATOM     16  O   UNL     1      15.804  37.554  -1.202  1.00  0.00    -0.550 OA
ENDBRANCH  13  14
ENDBRANCH  12  13
ENDBRANCH  11  12
ENDBRANCH  10  11
ENDBRANCH   9  10
ENDBRANCH   8   9
ENDBRANCH   7   8
ENDBRANCH   6   7
ENDBRANCH   5   6
ENDBRANCH   4   5
ENDBRANCH   3   4
ENDBRANCH   2   3
ENDBRANCH   1   2
BRANCH   1  17
ATOM     17  C   UNL     1      17.330  24.979  -0.793  1.00  0.00     0.000 C 
BRANCH  17  18
ATOM     18  C   UNL     1      17.925  24.100   0.322  1.00  0.00     0.000 C 
BRANCH  18  19
ATOM     19  C   UNL     1      19.440  24.303   0.516  1.00  0.00     0.000 C 
BRANCH  19  20
ATOM     20  C   UNL     1      19.924  24.347   1.978  1.00  0.00     0.000 C 
BRANCH  20  21
ATOM     21  C   UNL     1      19.367  25.541   2.767  1.00  0.00     0.000 C 
BRANCH  21  22
ATOM     22  C   UNL     1      19.009  25.134   4.203  1.00  0.00    -0.000 C 
BRANCH  22  23
ATOM     23  C   UNL     1      18.609  23.653   4.329  1.00  0.00    -0.000 C 
BRANCH  23  24
ATOM     24  C   UNL     1      17.481  23.357   5.340  1.00  0.00    -0.000 C 
BRANCH  24  25
ATOM     25  C   UNL     1      16.736  22.029   5.118  1.00  0.00    -0.000 C 
BRANCH  25  26
ATOM     26  C   UNL     1      15.477  21.901   5.993  1.00  0.00    -0.000 C 
BRANCH  26  27
ATOM     27  C   UNL     1      14.178  21.981   5.161  1.00  0.00    -0.000 C 
BRANCH  27  28
ATOM     28  C   UNL     1      13.668  23.419   4.941  1.00  0.00    -0.000 C 
BRANCH  28  29
ATOM     29  C   UNL     1      12.369  23.526   4.124  1.00  0.00    -0.003 C 
ATOM     30  C   UNL     1      12.294  22.501   2.992  1.00  0.00     0.004 C 
ENDBRANCH  28  29
ENDBRANCH  27  28
ENDBRANCH  26  27
ENDBRANCH  25  26
ENDBRANCH  24  25
ENDBRANCH  23  24
ENDBRANCH  22  23
ENDBRANCH  21  22
ENDBRANCH  20  21
ENDBRANCH  19  20
ENDBRANCH  18  19
ENDBRANCH  17  18
ENDBRANCH   1  17
TORSDOF 26
ENDMDL
MODEL 4
REMARK VINA RESULT:    -2.352      9.430     13.781
REMARK INTER + INTRA:          -7.414
REMARK INTER:                  -5.643
REMARK INTRA:                  -1.771
REMARK UNBOUND:                -1.487
REMARK SMILES CCCCCCCCCCCCCCCCCCCCCCCCCCCC(=O)[O-]
REMARK SMILES IDX 15 1 16 2 17 3 18 4 19 5 20 6 21 7 22 8 23 9 24 10 25 11
REMARK SMILES IDX 26 12 27 13 28 14 29 15 30 16 14 17 13 18 12 19 11 20 10 21
REMARK SMILES IDX 9 22 8 23 7 24 6 25 5 26 4 27 3 28 2 29 1 30
REMARK H PARENT
REMARK Flexibility Score: inf
ROOT
ATOM      1  C   UNL     1      19.752  34.172  12.365  1.00  0.00     0.000 C 
ENDROOT
BRANCH   1   2
ATOM      2  C   UNL     1      19.268  33.956  10.918  1.00  0.00     0.000 C 
BRANCH   2   3
ATOM      3  C   UNL     1      17.791  33.535  10.784  1.00  0.00     0.000 C 
BRANCH   3   4
ATOM      4  C   UNL     1      17.553  32.189  10.068  1.00  0.00     0.000 C 
BRANCH   4   5
ATOM      5  C   UNL     1      16.619  31.214  10.806  1.00  0.00     0.000 C 
BRANCH   5   6
ATOM      6  C   UNL     1      16.727  29.772  10.288  1.00  0.00     0.000 C 
BRANCH   6   7
ATOM      7  C   UNL     1      15.658  28.879  10.933  1.00  0.00     0.000 C 
BRANCH   7   8
ATOM      8  C   UNL     1      16.164  27.456  11.217  1.00  0.00     0.000 C 
BRANCH   8   9
ATOM      9  C   UNL     1      16.151  27.108  12.718  1.00  0.00     0.000 C 
BRANCH   9  10
ATOM     10  C   UNL     1      16.505  25.629  12.984  1.00  0.00     0.000 C 
BRANCH  10  11
ATOM     11  C   UNL     1      16.607  24.770  11.708  1.00  0.00     0.000 C 
BRANCH  11  12
ATOM     12  C   UNL     1      17.645  23.635  11.767  1.00  0.00     0.006 C 
BRANCH  12  13
ATOM     13  C   UNL     1      18.491  23.537  10.490  1.00  0.00     0.053 C 
BRANCH  13  14
ATOM     14  C   UNL     1      19.656  24.477  10.545  1.00  0.00     0.041 C 
ATOM     15  O   UNL     1      19.473  25.719  10.440  1.00  0.00    -0.550 OA
ATOM     16  O   UNL     1      20.941  23.985  10.753  1.00  0.00    -0.550 OA
ENDBRANCH  13  14
ENDBRANCH  12  13
ENDBRANCH  11  12
ENDBRANCH  10  11
ENDBRANCH   9  10
ENDBRANCH   8   9
ENDBRANCH   7   8
ENDBRANCH   6   7
ENDBRANCH   5   6
ENDBRANCH   4   5
ENDBRANCH   3   4
ENDBRANCH   2   3
ENDBRANCH   1   2
BRANCH   1  17
ATOM     17  C   UNL     1      21.124  34.856  12.494  1.00  0.00     0.000 C 
BRANCH  17  18
ATOM     18  C   UNL     1      22.204  33.914  13.054  1.00  0.00     0.000 C 
BRANCH  18  19
ATOM     19  C   UNL     1      21.857  33.346  14.444  1.00  0.00     0.000 C 
BRANCH  19  20
ATOM     20  C   UNL     1      23.040  33.205  15.421  1.00  0.00     0.000 C 
BRANCH  20  21
ATOM     21  C   UNL     1      24.351  32.799  14.732  1.00  0.00     0.000 C 
BRANCH  21  22
ATOM     22  C   UNL     1      25.566  33.196  15.583  1.00  0.00    -0.000 C 
BRANCH  22  23
ATOM     23  C   UNL     1      26.522  34.161  14.857  1.00  0.00    -0.000 C 
BRANCH  23  24
ATOM     24  C   UNL     1      26.968  33.713  13.450  1.00  0.00    -0.000 C 
BRANCH  24  25
ATOM     25  C   UNL     1      26.719  34.736  12.328  1.00  0.00    -0.000 C 
BRANCH  25  26
ATOM     26  C   UNL     1      26.846  36.191  12.813  1.00  0.00    -0.000 C 
BRANCH  26  27
ATOM     27  C   UNL     1      25.498  36.764  13.301  1.00  0.00    -0.000 C 
BRANCH  27  28
ATOM     28  C   UNL     1      25.607  37.599  14.592  1.00  0.00    -0.000 C 
BRANCH  28  29
ATOM     29  C   UNL     1      24.298  37.731  15.389  1.00  0.00    -0.003 C 
ATOM     30  C   UNL     1      23.181  36.839  14.846  1.00  0.00     0.004 C 
ENDBRANCH  28  29
ENDBRANCH  27  28
ENDBRANCH  26  27
ENDBRANCH  25  26
ENDBRANCH  24  25
ENDBRANCH  23  24
ENDBRANCH  22  23
ENDBRANCH  21  22
ENDBRANCH  20  21
ENDBRANCH  19  20
ENDBRANCH  18  19
ENDBRANCH  17  18
ENDBRANCH   1  17
TORSDOF 26
ENDMDL
MODEL 5
REMARK VINA RESULT:    -2.327      8.882     13.488
REMARK INTER + INTRA:          -7.350
REMARK INTER:                  -5.983
REMARK INTRA:                  -1.367
REMARK UNBOUND:                -1.487
REMARK SMILES CCCCCCCCCCCCCCCCCCCCCCCCCCCC(=O)[O-]
REMARK SMILES IDX 15 1 16 2 17 3 18 4 19 5 20 6 21 7 22 8 23 9 24 10 25 11
REMARK SMILES IDX 26 12 27 13 28 14 29 15 30 16 14 17 13 18 12 19 11 20 10 21
REMARK SMILES IDX 9 22 8 23 7 24 6 25 5 26 4 27 3 28 2 29 1 30
REMARK H PARENT
REMARK Flexibility Score: inf
ROOT
ATOM      1  C   UNL     1      18.480  33.993  11.178  1.00  0.00     0.000 C 
ENDROOT
BRANCH   1   2
ATOM      2  C   UNL     1      18.172  32.856  10.184  1.00  0.00     0.000 C 
BRANCH   2   3
ATOM      3  C   UNL     1      16.924  32.018  10.522  1.00  0.00     0.000 C 
BRANCH   3   4
ATOM      4  C   UNL     1      17.093  30.493  10.366  1.00  0.00     0.000 C 
BRANCH   4   5
ATOM      5  C   UNL     1      15.884  29.653  10.818  1.00  0.00     0.000 C 
BRANCH   5   6
ATOM      6  C   UNL     1      16.170  28.144  10.816  1.00  0.00     0.000 C 
BRANCH   6   7
ATOM      7  C   UNL     1      16.043  27.564  12.232  1.00  0.00     0.000 C 
BRANCH   7   8
ATOM      8  C   UNL     1      16.161  26.032  12.261  1.00  0.00     0.000 C 
BRANCH   8   9
ATOM      9  C   UNL     1      16.554  25.492  13.649  1.00  0.00     0.000 C 
BRANCH   9  10
ATOM     10  C   UNL     1      16.536  23.948  13.709  1.00  0.00     0.000 C 
BRANCH  10  11
ATOM     11  C   UNL     1      16.026  23.278  12.417  1.00  0.00     0.000 C 
BRANCH  11  12
ATOM     12  C   UNL     1      16.992  23.347  11.221  1.00  0.00     0.006 C 
BRANCH  12  13
ATOM     13  C   UNL     1      18.410  23.773  11.626  1.00  0.00     0.053 C 
BRANCH  13  14
ATOM     14  C   UNL     1      19.254  24.042  10.418  1.00  0.00     0.041 C 
ATOM     15  O   UNL     1      18.940  23.545   9.303  1.00  0.00    -0.550 OA
ATOM     16  O   UNL     1      20.365  24.874  10.513  1.00  0.00    -0.550 OA
ENDBRANCH  13  14
ENDBRANCH  12  13
ENDBRANCH  11  12
ENDBRANCH  10  11
ENDBRANCH   9  10
ENDBRANCH   8   9
ENDBRANCH   7   8
ENDBRANCH   6   7
ENDBRANCH   5   6
ENDBRANCH   4   5
ENDBRANCH   3   4
ENDBRANCH   2   3
ENDBRANCH   1   2
BRANCH   1  17
ATOM     17  C   UNL     1      19.957  34.107  11.594  1.00  0.00     0.000 C 
BRANCH  17  18
ATOM     18  C   UNL     1      20.136  34.197  13.120  1.00  0.00     0.000 C 
BRANCH  18  19
ATOM     19  C   UNL     1      21.444  34.895  13.540  1.00  0.00     0.000 C 
BRANCH  19  20
ATOM     20  C   UNL     1      21.646  35.070  15.058  1.00  0.00     0.000 C 
BRANCH  20  21
ATOM     21  C   UNL     1      22.942  35.810  15.416  1.00  0.00     0.000 C 
BRANCH  21  22
ATOM     22  C   UNL     1      23.675  36.283  14.152  1.00  0.00    -0.000 C 
BRANCH  22  23
ATOM     23  C   UNL     1      25.009  36.987  14.455  1.00  0.00    -0.000 C 
BRANCH  23  24
ATOM     24  C   UNL     1      26.095  36.840  13.370  1.00  0.00    -0.000 C 
BRANCH  24  25
ATOM     25  C   UNL     1      25.681  36.013  12.139  1.00  0.00    -0.000 C 
BRANCH  25  26
ATOM     26  C   UNL     1      26.658  34.863  11.840  1.00  0.00    -0.000 C 
BRANCH  26  27
ATOM     27  C   UNL     1      26.437  33.652  12.773  1.00  0.00    -0.000 C 
BRANCH  27  28
ATOM     28  C   UNL     1      24.988  33.127  12.778  1.00  0.00    -0.000 C 
BRANCH  28  29
ATOM     29  C   UNL     1      24.440  32.756  14.167  1.00  0.00    -0.003 C 
ATOM     30  C   UNL     1      25.406  33.108  15.298  1.00  0.00     0.004 C 
ENDBRANCH  28  29
ENDBRANCH  27  28
ENDBRANCH  26  27
ENDBRANCH  25  26
ENDBRANCH  24  25
ENDBRANCH  23  24
ENDBRANCH  22  23
ENDBRANCH  21  22
ENDBRANCH  20  21
ENDBRANCH  19  20
ENDBRANCH  18  19
ENDBRANCH  17  18
ENDBRANCH   1  17
TORSDOF 26
ENDMDL
MODEL 6
REMARK VINA RESULT:    -2.170      9.534     13.850
REMARK INTER + INTRA:          -6.954
REMARK INTER:                  -5.107
REMARK INTRA:                  -1.847
REMARK UNBOUND:                -1.487
REMARK SMILES CCCCCCCCCCCCCCCCCCCCCCCCCCCC(=O)[O-]
REMARK SMILES IDX 15 1 16 2 17 3 18 4 19 5 20 6 21 7 22 8 23 9 24 10 25 11
REMARK SMILES IDX 26 12 27 13 28 14 29 15 30 16 14 17 13 18 12 19 11 20 10 21
REMARK SMILES IDX 9 22 8 23 7 24 6 25 5 26 4 27 3 28 2 29 1 30
REMARK H PARENT
REMARK Flexibility Score: inf
ROOT
ATOM      1  C   UNL     1      20.037  34.342  12.318  1.00  0.00     0.000 C 
ENDROOT
BRANCH   1   2
ATOM      2  C   UNL     1      19.471  34.090  10.907  1.00  0.00     0.000 C 
BRANCH   2   3
ATOM      3  C   UNL     1      17.972  33.731  10.862  1.00  0.00     0.000 C 
BRANCH   3   4
ATOM      4  C   UNL     1      17.627  32.442  10.088  1.00  0.00     0.000 C 
BRANCH   4   5
ATOM      5  C   UNL     1      16.726  31.449  10.844  1.00  0.00     0.000 C 
BRANCH   5   6
ATOM      6  C   UNL     1      16.875  30.005  10.344  1.00  0.00     0.000 C 
BRANCH   6   7
ATOM      7  C   UNL     1      15.740  29.122  10.882  1.00  0.00     0.000 C 
BRANCH   7   8
ATOM      8  C   UNL     1      16.191  27.681  11.169  1.00  0.00     0.000 C 
BRANCH   8   9
ATOM      9  C   UNL     1      15.987  27.276  12.642  1.00  0.00     0.000 C 
BRANCH   9  10
ATOM     10  C   UNL     1      16.408  25.816  12.916  1.00  0.00     0.000 C 
BRANCH  10  11
ATOM     11  C   UNL     1      16.748  25.012  11.645  1.00  0.00     0.000 C 
BRANCH  11  12
ATOM     12  C   UNL     1      17.630  23.773  11.872  1.00  0.00     0.006 C 
BRANCH  12  13
ATOM     13  C   UNL     1      18.536  23.460  10.673  1.00  0.00     0.053 C 
BRANCH  13  14
ATOM     14  C   UNL     1      19.692  24.412  10.613  1.00  0.00     0.041 C 
ATOM     15  O   UNL     1      20.857  24.011  10.877  1.00  0.00    -0.550 OA
ATOM     16  O   UNL     1      19.488  25.732  10.224  1.00  0.00    -0.550 OA
ENDBRANCH  13  14
ENDBRANCH  12  13
ENDBRANCH  11  12
ENDBRANCH  10  11
ENDBRANCH   9  10
ENDBRANCH   8   9
ENDBRANCH   7   8
ENDBRANCH   6   7
ENDBRANCH   5   6
ENDBRANCH   4   5
ENDBRANCH   3   4
ENDBRANCH   2   3
ENDBRANCH   1   2
BRANCH   1  17
ATOM     17  C   UNL     1      21.518  34.755  12.357  1.00  0.00     0.000 C 
BRANCH  17  18
ATOM     18  C   UNL     1      22.412  33.689  13.015  1.00  0.00     0.000 C 
BRANCH  18  19
ATOM     19  C   UNL     1      21.904  33.237  14.398  1.00  0.00     0.000 C 
BRANCH  19  20
ATOM     20  C   UNL     1      21.794  34.346  15.462  1.00  0.00     0.000 C 
BRANCH  20  21
ATOM     21  C   UNL     1      23.156  34.860  15.946  1.00  0.00     0.000 C 
BRANCH  21  22
ATOM     22  C   UNL     1      23.269  36.381  15.761  1.00  0.00    -0.000 C 
BRANCH  22  23
ATOM     23  C   UNL     1      24.466  36.795  14.887  1.00  0.00    -0.000 C 
BRANCH  23  24
ATOM     24  C   UNL     1      25.854  36.595  15.529  1.00  0.00    -0.000 C 
BRANCH  24  25
ATOM     25  C   UNL     1      27.043  36.687  14.557  1.00  0.00    -0.000 C 
BRANCH  25  26
ATOM     26  C   UNL     1      26.650  37.274  13.191  1.00  0.00    -0.000 C 
BRANCH  26  27
ATOM     27  C   UNL     1      26.875  36.271  12.038  1.00  0.00    -0.000 C 
BRANCH  27  28
ATOM     28  C   UNL     1      25.878  35.094  12.035  1.00  0.00    -0.000 C 
BRANCH  28  29
ATOM     29  C   UNL     1      26.502  33.720  12.330  1.00  0.00    -0.003 C 
ATOM     30  C   UNL     1      25.891  32.598  11.489  1.00  0.00     0.004 C 
ENDBRANCH  28  29
ENDBRANCH  27  28
ENDBRANCH  26  27
ENDBRANCH  25  26
ENDBRANCH  24  25
ENDBRANCH  23  24
ENDBRANCH  22  23
ENDBRANCH  21  22
ENDBRANCH  20  21
ENDBRANCH  19  20
ENDBRANCH  18  19
ENDBRANCH  17  18
ENDBRANCH   1  17
TORSDOF 26
ENDMDL
MODEL 7
REMARK VINA RESULT:    -2.047      2.946      4.037
REMARK INTER + INTRA:          -6.645
REMARK INTER:                  -4.402
REMARK INTRA:                  -2.243
REMARK UNBOUND:                -1.487
REMARK SMILES CCCCCCCCCCCCCCCCCCCCCCCCCCCC(=O)[O-]
REMARK SMILES IDX 15 1 16 2 17 3 18 4 19 5 20 6 21 7 22 8 23 9 24 10 25 11
REMARK SMILES IDX 26 12 27 13 28 14 29 15 30 16 14 17 13 18 12 19 11 20 10 21
REMARK SMILES IDX 9 22 8 23 7 24 6 25 5 26 4 27 3 28 2 29 1 30
REMARK H PARENT
REMARK Flexibility Score: inf
ROOT
ATOM      1  C   UNL     1      18.071  24.377   5.094  1.00  0.00     0.000 C 
ENDROOT
BRANCH   1   2
ATOM      2  C   UNL     1      19.339  24.125   4.256  1.00  0.00     0.000 C 
BRANCH   2   3
ATOM      3  C   UNL     1      19.628  25.189   3.179  1.00  0.00     0.000 C 
BRANCH   3   4
ATOM      4  C   UNL     1      20.035  24.634   1.798  1.00  0.00     0.000 C 
BRANCH   4   5
ATOM      5  C   UNL     1      18.872  24.105   0.939  1.00  0.00     0.000 C 
BRANCH   5   6
ATOM      6  C   UNL     1      19.315  23.675  -0.467  1.00  0.00     0.000 C 
BRANCH   6   7
ATOM      7  C   UNL     1      18.844  24.689  -1.520  1.00  0.00     0.000 C 
BRANCH   7   8
ATOM      8  C   UNL     1      17.354  25.038  -1.386  1.00  0.00     0.000 C 
BRANCH   8   9
ATOM      9  C   UNL     1      17.105  26.554  -1.279  1.00  0.00     0.000 C 
BRANCH   9  10
ATOM     10  C   UNL     1      17.593  27.140   0.065  1.00  0.00     0.000 C 
BRANCH  10  11
ATOM     11  C   UNL     1      19.023  27.715   0.014  1.00  0.00     0.000 C 
BRANCH  11  12
ATOM     12  C   UNL     1      19.266  28.938   0.914  1.00  0.00     0.006 C 
BRANCH  12  13
ATOM     13  C   UNL     1      20.321  29.897   0.344  1.00  0.00     0.053 C 
BRANCH  13  14
ATOM     14  C   UNL     1      20.412  31.144   1.168  1.00  0.00     0.041 C 
ATOM     15  O   UNL     1      20.715  32.241   0.625  1.00  0.00    -0.550 OA
ATOM     16  O   UNL     1      20.123  31.105   2.528  1.00  0.00    -0.550 OA
ENDBRANCH  13  14
ENDBRANCH  12  13
ENDBRANCH  11  12
ENDBRANCH  10  11
ENDBRANCH   9  10
ENDBRANCH   8   9
ENDBRANCH   7   8
ENDBRANCH   6   7
ENDBRANCH   5   6
ENDBRANCH   4   5
ENDBRANCH   3   4
ENDBRANCH   2   3
ENDBRANCH   1   2
BRANCH   1  17
ATOM     17  C   UNL     1      17.494  23.131   5.788  1.00  0.00     0.000 C 
BRANCH  17  18
ATOM     18  C   UNL     1      16.142  22.696   5.194  1.00  0.00     0.000 C 
BRANCH  18  19
ATOM     19  C   UNL     1      15.498  21.516   5.945  1.00  0.00     0.000 C 
BRANCH  19  20
ATOM     20  C   UNL     1      16.401  20.807   6.973  1.00  0.00     0.000 C 
BRANCH  20  21
ATOM     21  C   UNL     1      15.855  20.869   8.406  1.00  0.00     0.000 C 
BRANCH  21  22
ATOM     22  C   UNL     1      16.903  21.444   9.371  1.00  0.00    -0.000 C 
BRANCH  22  23
ATOM     23  C   UNL     1      16.529  21.251  10.852  1.00  0.00    -0.000 C 
BRANCH  23  24
ATOM     24  C   UNL     1      15.661  22.369  11.465  1.00  0.00    -0.000 C 
BRANCH  24  25
ATOM     25  C   UNL     1      16.250  23.042  12.717  1.00  0.00    -0.000 C 
BRANCH  25  26
ATOM     26  C   UNL     1      17.551  23.809  12.423  1.00  0.00    -0.000 C 
BRANCH  26  27
ATOM     27  C   UNL     1      17.369  24.860  11.306  1.00  0.00    -0.000 C 
BRANCH  27  28
ATOM     28  C   UNL     1      18.663  25.174  10.530  1.00  0.00    -0.000 C 
BRANCH  28  29
ATOM     29  C   UNL     1      19.607  23.974  10.338  1.00  0.00    -0.003 C 
ATOM     30  C   UNL     1      21.028  24.254  10.827  1.00  0.00     0.004 C 
ENDBRANCH  28  29
ENDBRANCH  27  28
ENDBRANCH  26  27
ENDBRANCH  25  26
ENDBRANCH  24  25
ENDBRANCH  23  24
ENDBRANCH  22  23
ENDBRANCH  21  22
ENDBRANCH  20  21
ENDBRANCH  19  20
ENDBRANCH  18  19
ENDBRANCH  17  18
ENDBRANCH   1  17
TORSDOF 26
ENDMDL
MODEL 8
REMARK VINA RESULT:    -1.937      4.659     10.959
REMARK INTER + INTRA:          -6.368
REMARK INTER:                  -3.901
REMARK INTRA:                  -2.467
REMARK UNBOUND:                -1.487
REMARK SMILES CCCCCCCCCCCCCCCCCCCCCCCCCCCC(=O)[O-]
REMARK SMILES IDX 15 1 16 2 17 3 18 4 19 5 20 6 21 7 22 8 23 9 24 10 25 11
REMARK SMILES IDX 26 12 27 13 28 14 29 15 30 16 14 17 13 18 12 19 11 20 10 21
REMARK SMILES IDX 9 22 8 23 7 24 6 25 5 26 4 27 3 28 2 29 1 30
REMARK H PARENT
REMARK Flexibility Score: inf
ROOT
ATOM      1  C   UNL     1      19.106  23.969   4.491  1.00  0.00     0.000 C 
ENDROOT
BRANCH   1   2
ATOM      2  C   UNL     1      18.142  23.864   5.689  1.00  0.00     0.000 C 
BRANCH   2   3
ATOM      3  C   UNL     1      16.695  23.477   5.325  1.00  0.00     0.000 C 
BRANCH   3   4
ATOM      4  C   UNL     1      16.411  21.961   5.279  1.00  0.00     0.000 C 
BRANCH   4   5
ATOM      5  C   UNL     1      15.117  21.518   5.985  1.00  0.00     0.000 C 
BRANCH   5   6
ATOM      6  C   UNL     1      15.381  20.711   7.265  1.00  0.00     0.000 C 
BRANCH   6   7
ATOM      7  C   UNL     1      16.837  20.876   7.723  1.00  0.00     0.000 C 
BRANCH   7   8
ATOM      8  C   UNL     1      16.963  21.680   9.026  1.00  0.00     0.000 C 
BRANCH   8   9
ATOM      9  C   UNL     1      18.421  22.051   9.358  1.00  0.00     0.000 C 
BRANCH   9  10
ATOM     10  C   UNL     1      18.629  23.577   9.479  1.00  0.00     0.000 C 
BRANCH  10  11
ATOM     11  C   UNL     1      18.718  24.084  10.932  1.00  0.00     0.000 C 
BRANCH  11  12
ATOM     12  C   UNL     1      17.369  24.426  11.587  1.00  0.00     0.006 C 
BRANCH  12  13
ATOM     13  C   UNL     1      17.021  23.492  12.755  1.00  0.00     0.053 C 
BRANCH  13  14
ATOM     14  C   UNL     1      16.608  24.276  13.963  1.00  0.00     0.041 C 
ATOM     15  O   UNL     1      16.890  23.857  15.117  1.00  0.00    -0.550 OA
ATOM     16  O   UNL     1      15.947  25.492  13.813  1.00  0.00    -0.550 OA
ENDBRANCH  13  14
ENDBRANCH  12  13
ENDBRANCH  11  12
ENDBRANCH  10  11
ENDBRANCH   9  10
ENDBRANCH   8   9
ENDBRANCH   7   8
ENDBRANCH   6   7
ENDBRANCH   5   6
ENDBRANCH   4   5
ENDBRANCH   3   4
ENDBRANCH   2   3
ENDBRANCH   1   2
BRANCH   1  17
ATOM     17  C   UNL     1      19.234  25.377   3.884  1.00  0.00     0.000 C 
BRANCH  17  18
ATOM     18  C   UNL     1      19.735  25.350   2.429  1.00  0.00     0.000 C 
BRANCH  18  19
ATOM     19  C   UNL     1      19.082  24.243   1.580  1.00  0.00     0.000 C 
BRANCH  19  20
ATOM     20  C   UNL     1      19.732  23.986   0.206  1.00  0.00     0.000 C 
BRANCH  20  21
ATOM     21  C   UNL     1      18.711  23.844  -0.931  1.00  0.00     0.000 C 
BRANCH  21  22
ATOM     22  C   UNL     1      17.291  23.657  -0.378  1.00  0.00    -0.000 C 
BRANCH  22  23
ATOM     23  C   UNL     1      16.250  24.553  -1.072  1.00  0.00    -0.000 C 
BRANCH  23  24
ATOM     24  C   UNL     1      16.767  25.931  -1.532  1.00  0.00    -0.000 C 
BRANCH  24  25
ATOM     25  C   UNL     1      17.171  26.889  -0.398  1.00  0.00    -0.000 C 
BRANCH  25  26
ATOM     26  C   UNL     1      18.645  27.324  -0.485  1.00  0.00    -0.000 C 
BRANCH  26  27
ATOM     27  C   UNL     1      19.044  28.266   0.672  1.00  0.00    -0.000 C 
BRANCH  27  28
ATOM     28  C   UNL     1      19.967  29.424   0.242  1.00  0.00    -0.000 C 
BRANCH  28  29
ATOM     29  C   UNL     1      19.848  30.697   1.097  1.00  0.00    -0.003 C 
ATOM     30  C   UNL     1      21.127  31.535   1.094  1.00  0.00     0.004 C 
ENDBRANCH  28  29
ENDBRANCH  27  28
ENDBRANCH  26  27
ENDBRANCH  25  26
ENDBRANCH  24  25
ENDBRANCH  23  24
ENDBRANCH  22  23
ENDBRANCH  21  22
ENDBRANCH  20  21
ENDBRANCH  19  20
ENDBRANCH  18  19
ENDBRANCH  17  18
ENDBRANCH   1  17
TORSDOF 26
ENDMDL
MODEL 9
REMARK VINA RESULT:    -1.829      9.034     13.500
REMARK INTER + INTRA:          -6.096
REMARK INTER:                  -3.998
REMARK INTRA:                  -2.099
REMARK UNBOUND:                -1.487
REMARK SMILES CCCCCCCCCCCCCCCCCCCCCCCCCCCC(=O)[O-]
REMARK SMILES IDX 15 1 16 2 17 3 18 4 19 5 20 6 21 7 22 8 23 9 24 10 25 11
REMARK SMILES IDX 26 12 27 13 28 14 29 15 30 16 14 17 13 18 12 19 11 20 10 21
REMARK SMILES IDX 9 22 8 23 7 24 6 25 5 26 4 27 3 28 2 29 1 30
REMARK H PARENT
REMARK Flexibility Score: inf
ROOT
ATOM      1  C   UNL     1      19.164  34.350  12.746  1.00  0.00     0.000 C 
ENDROOT
BRANCH   1   2
ATOM      2  C   UNL     1      19.142  33.985  11.249  1.00  0.00     0.000 C 
BRANCH   2   3
ATOM      3  C   UNL     1      17.764  33.561  10.704  1.00  0.00     0.000 C 
BRANCH   3   4
ATOM      4  C   UNL     1      17.716  32.166  10.046  1.00  0.00     0.000 C 
BRANCH   4   5
ATOM      5  C   UNL     1      16.649  31.213  10.614  1.00  0.00     0.000 C 
BRANCH   5   6
ATOM      6  C   UNL     1      17.003  29.732  10.417  1.00  0.00     0.000 C 
BRANCH   6   7
ATOM      7  C   UNL     1      15.781  28.840  10.680  1.00  0.00     0.000 C 
BRANCH   7   8
ATOM      8  C   UNL     1      15.829  28.154  12.054  1.00  0.00     0.000 C 
BRANCH   8   9
ATOM      9  C   UNL     1      16.271  26.681  11.968  1.00  0.00     0.000 C 
BRANCH   9  10
ATOM     10  C   UNL     1      16.320  25.997  13.353  1.00  0.00     0.000 C 
BRANCH  10  11
ATOM     11  C   UNL     1      16.171  24.463  13.299  1.00  0.00     0.000 C 
BRANCH  11  12
ATOM     12  C   UNL     1      17.371  23.712  12.697  1.00  0.00     0.006 C 
BRANCH  12  13
ATOM     13  C   UNL     1      17.179  23.379  11.211  1.00  0.00     0.053 C 
BRANCH  13  14
ATOM     14  C   UNL     1      18.389  23.765  10.415  1.00  0.00     0.041 C 
ATOM     15  O   UNL     1      19.125  24.712  10.802  1.00  0.00    -0.550 OA
ATOM     16  O   UNL     1      18.726  23.054   9.268  1.00  0.00    -0.550 OA
ENDBRANCH  13  14
ENDBRANCH  12  13
ENDBRANCH  11  12
ENDBRANCH  10  11
ENDBRANCH   9  10
ENDBRANCH   8   9
ENDBRANCH   7   8
ENDBRANCH   6   7
ENDBRANCH   5   6
ENDBRANCH   4   5
ENDBRANCH   3   4
ENDBRANCH   2   3
ENDBRANCH   1   2
BRANCH   1  17
ATOM     17  C   UNL     1      20.562  34.375  13.386  1.00  0.00     0.000 C 
BRANCH  17  18
ATOM     18  C   UNL     1      21.481  35.438  12.757  1.00  0.00     0.000 C 
BRANCH  18  19
ATOM     19  C   UNL     1      22.823  35.599  13.497  1.00  0.00     0.000 C 
BRANCH  19  20
ATOM     20  C   UNL     1      22.844  36.661  14.614  1.00  0.00     0.000 C 
BRANCH  20  21
ATOM     21  C   UNL     1      23.050  36.065  16.013  1.00  0.00     0.000 C 
BRANCH  21  22
ATOM     22  C   UNL     1      23.854  34.758  15.944  1.00  0.00    -0.000 C 
BRANCH  22  23
ATOM     23  C   UNL     1      22.978  33.502  16.106  1.00  0.00    -0.000 C 
BRANCH  23  24
ATOM     24  C   UNL     1      23.149  32.433  15.007  1.00  0.00    -0.000 C 
BRANCH  24  25
ATOM     25  C   UNL     1      24.519  32.427  14.308  1.00  0.00    -0.000 C 
BRANCH  25  26
ATOM     26  C   UNL     1      24.470  33.044  12.899  1.00  0.00    -0.000 C 
BRANCH  26  27
ATOM     27  C   UNL     1      25.876  33.189  12.276  1.00  0.00    -0.000 C 
BRANCH  27  28
ATOM     28  C   UNL     1      26.826  34.094  13.087  1.00  0.00    -0.000 C 
BRANCH  28  29
ATOM     29  C   UNL     1      26.504  35.596  13.014  1.00  0.00    -0.003 C 
ATOM     30  C   UNL     1      26.821  36.334  14.315  1.00  0.00     0.004 C 
ENDBRANCH  28  29
ENDBRANCH  27  28
ENDBRANCH  26  27
ENDBRANCH  25  26
ENDBRANCH  24  25
ENDBRANCH  23  24
ENDBRANCH  22  23
ENDBRANCH  21  22
ENDBRANCH  20  21
ENDBRANCH  19  20
ENDBRANCH  18  19
ENDBRANCH  17  18
ENDBRANCH   1  17
TORSDOF 26
ENDMDL
