MODEL 1
REMARK VINA RESULT:    -6.764      0.000      0.000
REMARK INTER + INTRA:          -7.357
REMARK INTER:                  -7.357
REMARK INTRA:                   0.000
REMARK UNBOUND:                 0.000
REMARK SMILES Cc1cc(O)c2c(c1)C(=O)c1cc(O)cc(O)c1C2=O
REMARK SMILES IDX 1 1 2 2 8 3 7 4 6 5 4 6 3 7 19 8 20 9 18 10 11 11 9 12 10 13
REMARK SMILES IDX 12 14 13 15 15 16 16 17 5 18 17 20 14 22
REMARK H PARENT 5 19 17 21 14 23
REMARK Flexibility Score: inf
ROOT
ATOM      1  C   UNL     1       0.497  84.859  72.503  1.00  0.00     0.044 C 
ATOM      2  C   UNL     1       0.283  83.426  72.900  1.00  0.00    -0.047 A 
ATOM      3  C   UNL     1       1.223  82.772  73.704  1.00  0.00     0.016 A 
ATOM      4  C   UNL     1       1.045  81.423  74.057  1.00  0.00     0.038 A 
ATOM      5  C   UNL     1      -0.090  80.720  73.599  1.00  0.00     0.076 A 
ATOM      6  C   UNL     1      -0.994  81.365  72.716  1.00  0.00     0.127 A 
ATOM      7  C   UNL     1      -0.807  82.712  72.395  1.00  0.00     0.050 A 
ATOM      8  C   UNL     1      -0.318  79.344  74.113  1.00  0.00     0.201 C 
ATOM      9  O   UNL     1      -1.495  78.905  74.226  1.00  0.00    -0.288 OA
ATOM     10  C   UNL     1       0.819  78.564  74.667  1.00  0.00     0.076 A 
ATOM     11  C   UNL     1       1.954  79.272  75.121  1.00  0.00     0.041 A 
ATOM     12  C   UNL     1       2.049  80.734  74.903  1.00  0.00     0.194 C 
ATOM     13  O   UNL     1       2.999  81.390  75.417  1.00  0.00    -0.289 OA
ATOM     14  C   UNL     1       2.991  78.584  75.775  1.00  0.00     0.059 A 
ATOM     15  C   UNL     1       2.915  77.201  75.966  1.00  0.00     0.120 A 
ATOM     16  C   UNL     1       1.814  76.495  75.482  1.00  0.00     0.093 A 
ATOM     17  C   UNL     1       0.779  77.153  74.810  1.00  0.00     0.131 A 
ENDROOT
BRANCH   6  18
ATOM     18  O   UNL     1      -2.062  80.698  72.110  1.00  0.00    -0.507 OA
ATOM     19  H   UNL     1      -2.002  79.755  71.755  1.00  0.00     0.293 HD
ENDBRANCH   6  18
BRANCH  17  20
ATOM     20  O   UNL     1      -0.245  76.367  74.275  1.00  0.00    -0.507 OA
ATOM     21  H   UNL     1      -0.161  75.855  73.408  1.00  0.00     0.293 HD
ENDBRANCH  17  20
BRANCH  15  22
ATOM     22  O   UNL     1       3.934  76.518  76.624  1.00  0.00    -0.508 OA
ATOM     23  H   UNL     1       3.735  75.806  77.318  1.00  0.00     0.293 HD
ENDBRANCH  15  22
TORSDOF 3
ENDMDL
MODEL 2
REMARK VINA RESULT:    -6.757      9.643     11.907
REMARK INTER + INTRA:          -7.350
REMARK INTER:                  -7.350
REMARK INTRA:                   0.000
REMARK UNBOUND:                 0.000
REMARK SMILES Cc1cc(O)c2c(c1)C(=O)c1cc(O)cc(O)c1C2=O
REMARK SMILES IDX 1 1 2 2 8 3 7 4 6 5 4 6 3 7 19 8 20 9 18 10 11 11 9 12 10 13
REMARK SMILES IDX 12 14 13 15 15 16 16 17 5 18 17 20 14 22
REMARK H PARENT 5 19 17 21 14 23
REMARK Flexibility Score: inf
ROOT
ATOM      1  C   UNL     1       4.266  83.629  78.174  1.00  0.00     0.044 C 
ATOM      2  C   UNL     1       5.572  83.808  78.893  1.00  0.00    -0.047 A 
ATOM      3  C   UNL     1       6.568  84.628  78.350  1.00  0.00     0.016 A 
ATOM      4  C   UNL     1       7.804  84.779  79.002  1.00  0.00     0.038 A 
ATOM      5  C   UNL     1       8.046  84.099  80.216  1.00  0.00     0.076 A 
ATOM      6  C   UNL     1       7.065  83.205  80.716  1.00  0.00     0.127 A 
ATOM      7  C   UNL     1       5.836  83.087  80.061  1.00  0.00     0.050 A 
ATOM      8  C   UNL     1       9.304  84.399  80.949  1.00  0.00     0.201 C 
ATOM      9  O   UNL     1       9.332  84.311  82.206  1.00  0.00    -0.288 OA
ATOM     10  C   UNL     1      10.462  84.980  80.222  1.00  0.00     0.076 A 
ATOM     11  C   UNL     1      10.215  85.656  79.006  1.00  0.00     0.041 A 
ATOM     12  C   UNL     1       8.857  85.643  78.416  1.00  0.00     0.194 C 
ATOM     13  O   UNL     1       8.601  86.348  77.400  1.00  0.00    -0.289 OA
ATOM     14  C   UNL     1      11.263  86.335  78.359  1.00  0.00     0.059 A 
ATOM     15  C   UNL     1      12.550  86.334  78.902  1.00  0.00     0.120 A 
ATOM     16  C   UNL     1      12.806  85.634  80.080  1.00  0.00     0.093 A 
ATOM     17  C   UNL     1      11.786  84.933  80.733  1.00  0.00     0.131 A 
ENDROOT
BRANCH   6  18
ATOM     18  O   UNL     1       7.283  82.393  81.832  1.00  0.00    -0.507 OA
ATOM     19  H   UNL     1       6.737  82.450  82.680  1.00  0.00     0.293 HD
ENDBRANCH   6  18
BRANCH  17  20
ATOM     20  O   UNL     1      12.137  84.180  81.856  1.00  0.00    -0.507 OA
ATOM     21  H   UNL     1      12.836  84.469  82.525  1.00  0.00     0.293 HD
ENDBRANCH  17  20
BRANCH  15  22
ATOM     22  O   UNL     1      13.587  87.017  78.270  1.00  0.00    -0.508 OA
ATOM     23  H   UNL     1      13.425  87.879  77.764  1.00  0.00     0.293 HD
ENDBRANCH  15  22
TORSDOF 3
ENDMDL
MODEL 3
REMARK VINA RESULT:    -6.465      8.903     11.150
REMARK INTER + INTRA:          -7.032
REMARK INTER:                  -7.032
REMARK INTRA:                   0.000
REMARK UNBOUND:                 0.000
REMARK SMILES Cc1cc(O)c2c(c1)C(=O)c1cc(O)cc(O)c1C2=O
REMARK SMILES IDX 1 1 2 2 8 3 7 4 6 5 4 6 3 7 19 8 20 9 18 10 11 11 9 12 10 13
REMARK SMILES IDX 12 14 13 15 15 16 16 17 5 18 17 20 14 22
REMARK H PARENT 5 19 17 21 14 23
REMARK Flexibility Score: inf
ROOT
ATOM      1  C   UNL     1      12.291  85.827  81.789  1.00  0.00     0.044 C 
ATOM      2  C   UNL     1      10.871  85.341  81.820  1.00  0.00    -0.047 A 
ATOM      3  C   UNL     1      10.302  84.755  80.684  1.00  0.00     0.016 A 
ATOM      4  C   UNL     1       8.966  84.322  80.695  1.00  0.00     0.038 A 
ATOM      5  C   UNL     1       8.186  84.479  81.862  1.00  0.00     0.076 A 
ATOM      6  C   UNL     1       8.742  85.149  82.981  1.00  0.00     0.127 A 
ATOM      7  C   UNL     1      10.080  85.553  82.953  1.00  0.00     0.050 A 
ATOM      8  C   UNL     1       6.827  83.877  81.884  1.00  0.00     0.201 C 
ATOM      9  O   UNL     1       6.337  83.478  82.975  1.00  0.00    -0.288 OA
ATOM     10  C   UNL     1       6.132  83.575  80.606  1.00  0.00     0.076 A 
ATOM     11  C   UNL     1       6.915  83.423  79.441  1.00  0.00     0.041 A 
ATOM     12  C   UNL     1       8.368  83.709  79.485  1.00  0.00     0.194 C 
ATOM     13  O   UNL     1       9.094  83.453  78.483  1.00  0.00    -0.289 OA
ATOM     14  C   UNL     1       6.311  83.004  78.242  1.00  0.00     0.059 A 
ATOM     15  C   UNL     1       4.938  82.751  78.191  1.00  0.00     0.120 A 
ATOM     16  C   UNL     1       4.155  82.940  79.329  1.00  0.00     0.093 A 
ATOM     17  C   UNL     1       4.728  83.376  80.529  1.00  0.00     0.131 A 
ENDROOT
BRANCH   6  18
ATOM     18  O   UNL     1       7.995  85.467  84.119  1.00  0.00    -0.507 OA
ATOM     19  H   UNL     1       8.247  86.202  84.765  1.00  0.00     0.293 HD
ENDBRANCH   6  18
BRANCH  17  20
ATOM     20  O   UNL     1       3.868  83.631  81.599  1.00  0.00    -0.507 OA
ATOM     21  H   UNL     1       2.960  83.200  81.702  1.00  0.00     0.293 HD
ENDBRANCH  17  20
BRANCH  15  22
ATOM     22  O   UNL     1       4.338  82.324  77.009  1.00  0.00    -0.508 OA
ATOM     23  H   UNL     1       3.693  81.542  76.993  1.00  0.00     0.293 HD
ENDBRANCH  15  22
TORSDOF 3
ENDMDL
MODEL 4
REMARK VINA RESULT:    -6.415      1.452      3.640
REMARK INTER + INTRA:          -6.978
REMARK INTER:                  -6.978
REMARK INTRA:                   0.000
REMARK UNBOUND:                 0.000
REMARK SMILES Cc1cc(O)c2c(c1)C(=O)c1cc(O)cc(O)c1C2=O
REMARK SMILES IDX 1 1 2 2 8 3 7 4 6 5 4 6 3 7 19 8 20 9 18 10 11 11 9 12 10 13
REMARK SMILES IDX 12 14 13 15 15 16 16 17 5 18 17 20 14 22
REMARK H PARENT 5 19 17 21 14 23
REMARK Flexibility Score: inf
ROOT
ATOM      1  C   UNL     1       0.499  83.914  72.854  1.00  0.00     0.044 C 
ATOM      2  C   UNL     1       0.853  82.607  73.502  1.00  0.00    -0.047 A 
ATOM      3  C   UNL     1       0.005  81.501  73.363  1.00  0.00     0.016 A 
ATOM      4  C   UNL     1       0.314  80.281  73.988  1.00  0.00     0.038 A 
ATOM      5  C   UNL     1       1.489  80.166  74.763  1.00  0.00     0.076 A 
ATOM      6  C   UNL     1       2.299  81.312  74.968  1.00  0.00     0.127 A 
ATOM      7  C   UNL     1       1.982  82.510  74.320  1.00  0.00     0.050 A 
ATOM      8  C   UNL     1       1.857  78.823  75.284  1.00  0.00     0.201 C 
ATOM      9  O   UNL     1       3.071  78.529  75.456  1.00  0.00    -0.288 OA
ATOM     10  C   UNL     1       0.814  77.773  75.423  1.00  0.00     0.076 A 
ATOM     11  C   UNL     1      -0.361  77.895  74.648  1.00  0.00     0.041 A 
ATOM     12  C   UNL     1      -0.592  79.117  73.844  1.00  0.00     0.194 C 
ATOM     13  O   UNL     1      -1.576  79.177  73.053  1.00  0.00    -0.289 OA
ATOM     14  C   UNL     1      -1.307  76.856  74.647  1.00  0.00     0.059 A 
ATOM     15  C   UNL     1      -1.103  75.709  75.419  1.00  0.00     0.120 A 
ATOM     16  C   UNL     1       0.036  75.604  76.216  1.00  0.00     0.093 A 
ATOM     17  C   UNL     1       0.984  76.633  76.251  1.00  0.00     0.131 A 
ENDROOT
BRANCH   6  18
ATOM     18  O   UNL     1       3.397  81.316  75.831  1.00  0.00    -0.507 OA
ATOM     19  H   UNL     1       4.344  81.130  75.532  1.00  0.00     0.293 HD
ENDBRANCH   6  18
BRANCH  17  20
ATOM     20  O   UNL     1       2.051  76.498  77.142  1.00  0.00    -0.507 OA
ATOM     21  H   UNL     1       3.016  76.653  76.886  1.00  0.00     0.293 HD
ENDBRANCH  17  20
BRANCH  15  22
ATOM     22  O   UNL     1      -2.033  74.672  75.411  1.00  0.00    -0.508 OA
ATOM     23  H   UNL     1      -1.745  73.701  75.384  1.00  0.00     0.293 HD
ENDBRANCH  15  22
TORSDOF 3
ENDMDL
MODEL 5
REMARK VINA RESULT:    -6.315      1.781      5.857
REMARK INTER + INTRA:          -6.869
REMARK INTER:                  -6.869
REMARK INTRA:                   0.000
REMARK UNBOUND:                 0.000
REMARK SMILES Cc1cc(O)c2c(c1)C(=O)c1cc(O)cc(O)c1C2=O
REMARK SMILES IDX 1 1 2 2 8 3 7 4 6 5 4 6 3 7 19 8 20 9 18 10 11 11 9 12 10 13
REMARK SMILES IDX 12 14 13 15 15 16 16 17 5 18 17 20 14 22
REMARK H PARENT 5 19 17 21 14 23
REMARK Flexibility Score: inf
ROOT
ATOM      1  C   UNL     1       1.560  73.443  78.035  1.00  0.00     0.044 C 
ATOM      2  C   UNL     1       1.057  74.561  77.168  1.00  0.00    -0.047 A 
ATOM      3  C   UNL     1       1.882  75.654  76.880  1.00  0.00     0.016 A 
ATOM      4  C   UNL     1       1.410  76.718  76.092  1.00  0.00     0.038 A 
ATOM      5  C   UNL     1       0.093  76.687  75.585  1.00  0.00     0.076 A 
ATOM      6  C   UNL     1      -0.764  75.617  75.950  1.00  0.00     0.127 A 
ATOM      7  C   UNL     1      -0.267  74.560  76.718  1.00  0.00     0.050 A 
ATOM      8  C   UNL     1      -0.320  77.754  74.636  1.00  0.00     0.201 C 
ATOM      9  O   UNL     1      -1.181  77.506  73.750  1.00  0.00    -0.288 OA
ATOM     10  C   UNL     1       0.415  79.046  74.613  1.00  0.00     0.076 A 
ATOM     11  C   UNL     1       1.731  79.073  75.125  1.00  0.00     0.041 A 
ATOM     12  C   UNL     1       2.287  77.876  75.798  1.00  0.00     0.194 C 
ATOM     13  O   UNL     1       3.502  77.852  76.143  1.00  0.00    -0.289 OA
ATOM     14  C   UNL     1       2.507  80.238  74.997  1.00  0.00     0.059 A 
ATOM     15  C   UNL     1       1.980  81.376  74.380  1.00  0.00     0.120 A 
ATOM     16  C   UNL     1       0.668  81.365  73.910  1.00  0.00     0.093 A 
ATOM     17  C   UNL     1      -0.132  80.225  74.044  1.00  0.00     0.131 A 
ENDROOT
BRANCH   6  18
ATOM     18  O   UNL     1      -2.118  75.583  75.605  1.00  0.00    -0.507 OA
ATOM     19  H   UNL     1      -2.500  74.965  74.904  1.00  0.00     0.293 HD
ENDBRANCH   6  18
BRANCH  17  20
ATOM     20  O   UNL     1      -1.464  80.319  73.633  1.00  0.00    -0.507 OA
ATOM     21  H   UNL     1      -2.250  80.189  74.254  1.00  0.00     0.293 HD
ENDBRANCH  17  20
BRANCH  15  22
ATOM     22  O   UNL     1       2.750  82.529  74.240  1.00  0.00    -0.508 OA
ATOM     23  H   UNL     1       3.200  82.763  73.363  1.00  0.00     0.293 HD
ENDBRANCH  15  22
TORSDOF 3
ENDMDL
MODEL 6
REMARK VINA RESULT:    -6.254      4.506      8.151
REMARK INTER + INTRA:          -6.802
REMARK INTER:                  -6.802
REMARK INTRA:                   0.000
REMARK UNBOUND:                 0.000
REMARK SMILES Cc1cc(O)c2c(c1)C(=O)c1cc(O)cc(O)c1C2=O
REMARK SMILES IDX 1 1 2 2 8 3 7 4 6 5 4 6 3 7 19 8 20 9 18 10 11 11 9 12 10 13
REMARK SMILES IDX 12 14 13 15 15 16 16 17 5 18 17 20 14 22
REMARK H PARENT 5 19 17 21 14 23
REMARK Flexibility Score: inf
ROOT
ATOM      1  C   UNL     1      -1.989  79.910  73.369  1.00  0.00     0.044 C 
ATOM      2  C   UNL     1      -1.732  81.390  73.384  1.00  0.00    -0.047 A 
ATOM      3  C   UNL     1      -1.536  82.082  72.184  1.00  0.00     0.016 A 
ATOM      4  C   UNL     1      -1.268  83.461  72.189  1.00  0.00     0.038 A 
ATOM      5  C   UNL     1      -1.195  84.158  73.415  1.00  0.00     0.076 A 
ATOM      6  C   UNL     1      -1.311  83.435  74.630  1.00  0.00     0.127 A 
ATOM      7  C   UNL     1      -1.597  82.067  74.599  1.00  0.00     0.050 A 
ATOM      8  C   UNL     1      -1.057  85.637  73.374  1.00  0.00     0.201 C 
ATOM      9  O   UNL     1      -1.541  86.337  74.305  1.00  0.00    -0.288 OA
ATOM     10  C   UNL     1      -0.520  86.296  72.155  1.00  0.00     0.076 A 
ATOM     11  C   UNL     1      -0.593  85.594  70.932  1.00  0.00     0.041 A 
ATOM     12  C   UNL     1      -1.054  84.186  70.914  1.00  0.00     0.194 C 
ATOM     13  O   UNL     1      -1.241  83.595  69.813  1.00  0.00    -0.289 OA
ATOM     14  C   UNL     1      -0.223  86.233  69.736  1.00  0.00     0.059 A 
ATOM     15  C   UNL     1       0.231  87.555  69.750  1.00  0.00     0.120 A 
ATOM     16  C   UNL     1       0.343  88.237  70.960  1.00  0.00     0.093 A 
ATOM     17  C   UNL     1       0.000  87.616  72.167  1.00  0.00     0.131 A 
ENDROOT
BRANCH   6  18
ATOM     18  O   UNL     1      -1.112  84.025  75.881  1.00  0.00    -0.507 OA
ATOM     19  H   UNL     1      -0.297  84.573  76.117  1.00  0.00     0.293 HD
ENDBRANCH   6  18
BRANCH  17  20
ATOM     20  O   UNL     1       0.225  88.330  73.346  1.00  0.00    -0.507 OA
ATOM     21  H   UNL     1      -0.156  88.062  74.243  1.00  0.00     0.293 HD
ENDBRANCH  17  20
BRANCH  15  22
ATOM     22  O   UNL     1       0.587  88.196  68.565  1.00  0.00    -0.508 OA
ATOM     23  H   UNL     1       0.004  88.916  68.156  1.00  0.00     0.293 HD
ENDBRANCH  15  22
TORSDOF 3
ENDMDL
MODEL 7
REMARK VINA RESULT:    -6.227      9.563     11.860
REMARK INTER + INTRA:          -6.774
REMARK INTER:                  -6.774
REMARK INTRA:                   0.000
REMARK UNBOUND:                 0.000
REMARK SMILES Cc1cc(O)c2c(c1)C(=O)c1cc(O)cc(O)c1C2=O
REMARK SMILES IDX 1 1 2 2 8 3 7 4 6 5 4 6 3 7 19 8 20 9 18 10 11 11 9 12 10 13
REMARK SMILES IDX 12 14 13 15 15 16 16 17 5 18 17 20 14 22
REMARK H PARENT 5 19 17 21 14 23
REMARK Flexibility Score: inf
ROOT
ATOM      1  C   UNL     1       5.777  82.729  84.125  1.00  0.00     0.044 C 
ATOM      2  C   UNL     1       6.309  83.278  82.832  1.00  0.00    -0.047 A 
ATOM      3  C   UNL     1       7.677  83.536  82.688  1.00  0.00     0.016 A 
ATOM      4  C   UNL     1       8.180  84.075  81.492  1.00  0.00     0.038 A 
ATOM      5  C   UNL     1       7.301  84.362  80.424  1.00  0.00     0.076 A 
ATOM      6  C   UNL     1       5.906  84.177  80.608  1.00  0.00     0.127 A 
ATOM      7  C   UNL     1       5.431  83.620  81.799  1.00  0.00     0.050 A 
ATOM      8  C   UNL     1       7.886  84.791  79.128  1.00  0.00     0.201 C 
ATOM      9  O   UNL     1       7.293  84.515  78.051  1.00  0.00    -0.288 OA
ATOM     10  C   UNL     1       9.253  85.373  79.091  1.00  0.00     0.076 A 
ATOM     11  C   UNL     1      10.128  85.087  80.163  1.00  0.00     0.041 A 
ATOM     12  C   UNL     1       9.629  84.353  81.349  1.00  0.00     0.194 C 
ATOM     13  O   UNL     1      10.435  83.985  82.249  1.00  0.00    -0.289 OA
ATOM     14  C   UNL     1      11.469  85.505  80.100  1.00  0.00     0.059 A 
ATOM     15  C   UNL     1      11.940  86.215  78.992  1.00  0.00     0.120 A 
ATOM     16  C   UNL     1      11.068  86.534  77.952  1.00  0.00     0.093 A 
ATOM     17  C   UNL     1       9.724  86.148  77.999  1.00  0.00     0.131 A 
ENDROOT
BRANCH   6  18
ATOM     18  O   UNL     1       4.961  84.566  79.656  1.00  0.00    -0.507 OA
ATOM     19  H   UNL     1       3.966  84.436  79.771  1.00  0.00     0.293 HD
ENDBRANCH   6  18
BRANCH  17  20
ATOM     20  O   UNL     1       8.891  86.583  76.965  1.00  0.00    -0.507 OA
ATOM     21  H   UNL     1       8.907  86.192  76.034  1.00  0.00     0.293 HD
ENDBRANCH  17  20
BRANCH  15  22
ATOM     22  O   UNL     1      13.271  86.620  78.921  1.00  0.00    -0.508 OA
ATOM     23  H   UNL     1      13.605  87.434  79.422  1.00  0.00     0.293 HD
ENDBRANCH  15  22
TORSDOF 3
ENDMDL
MODEL 8
REMARK VINA RESULT:    -6.173      8.655     11.313
REMARK INTER + INTRA:          -6.714
REMARK INTER:                  -6.714
REMARK INTRA:                   0.000
REMARK UNBOUND:                 0.000
REMARK SMILES Cc1cc(O)c2c(c1)C(=O)c1cc(O)cc(O)c1C2=O
REMARK SMILES IDX 1 1 2 2 8 3 7 4 6 5 4 6 3 7 19 8 20 9 18 10 11 11 9 12 10 13
REMARK SMILES IDX 12 14 13 15 15 16 16 17 5 18 17 20 14 22
REMARK H PARENT 5 19 17 21 14 23
REMARK Flexibility Score: inf
ROOT
ATOM      1  C   UNL     1       3.490  82.830  78.287  1.00  0.00     0.044 C 
ATOM      2  C   UNL     1       4.896  83.348  78.380  1.00  0.00    -0.047 A 
ATOM      3  C   UNL     1       5.133  84.722  78.508  1.00  0.00     0.016 A 
ATOM      4  C   UNL     1       6.446  85.218  78.568  1.00  0.00     0.038 A 
ATOM      5  C   UNL     1       7.539  84.326  78.499  1.00  0.00     0.076 A 
ATOM      6  C   UNL     1       7.293  82.946  78.285  1.00  0.00     0.127 A 
ATOM      7  C   UNL     1       5.978  82.473  78.249  1.00  0.00     0.050 A 
ATOM      8  C   UNL     1       8.904  84.872  78.714  1.00  0.00     0.201 C 
ATOM      9  O   UNL     1       9.797  84.141  79.222  1.00  0.00    -0.288 OA
ATOM     10  C   UNL     1       9.162  86.321  78.508  1.00  0.00     0.076 A 
ATOM     11  C   UNL     1       8.066  87.209  78.574  1.00  0.00     0.041 A 
ATOM     12  C   UNL     1       6.689  86.675  78.695  1.00  0.00     0.194 C 
ATOM     13  O   UNL     1       5.719  87.463  78.882  1.00  0.00    -0.289 OA
ATOM     14  C   UNL     1       8.286  88.596  78.521  1.00  0.00     0.059 A 
ATOM     15  C   UNL     1       9.581  89.104  78.388  1.00  0.00     0.120 A 
ATOM     16  C   UNL     1      10.661  88.229  78.281  1.00  0.00     0.093 A 
ATOM     17  C   UNL     1      10.467  86.844  78.310  1.00  0.00     0.131 A 
ENDROOT
BRANCH   6  18
ATOM     18  O   UNL     1       8.317  82.021  78.067  1.00  0.00    -0.507 OA
ATOM     19  H   UNL     1       9.015  81.788  78.759  1.00  0.00     0.293 HD
ENDBRANCH   6  18
BRANCH  17  20
ATOM     20  O   UNL     1      11.584  86.031  78.106  1.00  0.00    -0.507 OA
ATOM     21  H   UNL     1      11.721  85.467  77.279  1.00  0.00     0.293 HD
ENDBRANCH  17  20
BRANCH  15  22
ATOM     22  O   UNL     1       9.804  90.478  78.347  1.00  0.00    -0.508 OA
ATOM     23  H   UNL     1      10.634  90.893  78.755  1.00  0.00     0.293 HD
ENDBRANCH  15  22
TORSDOF 3
ENDMDL
MODEL 9
REMARK VINA RESULT:    -6.128     10.167     11.840
REMARK INTER + INTRA:          -6.665
REMARK INTER:                  -6.665
REMARK INTRA:                   0.000
REMARK UNBOUND:                 0.000
REMARK SMILES Cc1cc(O)c2c(c1)C(=O)c1cc(O)cc(O)c1C2=O
REMARK SMILES IDX 1 1 2 2 8 3 7 4 6 5 4 6 3 7 19 8 20 9 18 10 11 11 9 12 10 13
REMARK SMILES IDX 12 14 13 15 15 16 16 17 5 18 17 20 14 22
REMARK H PARENT 5 19 17 21 14 23
REMARK Flexibility Score: inf
ROOT
ATOM      1  C   UNL     1       7.577  87.372  76.217  1.00  0.00     0.044 C 
ATOM      2  C   UNL     1       7.649  86.760  77.586  1.00  0.00    -0.047 A 
ATOM      3  C   UNL     1       8.888  86.568  78.207  1.00  0.00     0.016 A 
ATOM      4  C   UNL     1       8.967  85.971  79.476  1.00  0.00     0.038 A 
ATOM      5  C   UNL     1       7.787  85.559  80.134  1.00  0.00     0.076 A 
ATOM      6  C   UNL     1       6.543  85.680  79.464  1.00  0.00     0.127 A 
ATOM      7  C   UNL     1       6.487  86.295  78.210  1.00  0.00     0.050 A 
ATOM      8  C   UNL     1       7.898  85.069  81.533  1.00  0.00     0.201 C 
ATOM      9  O   UNL     1       6.936  85.232  82.332  1.00  0.00    -0.288 OA
ATOM     10  C   UNL     1       9.200  84.561  82.037  1.00  0.00     0.076 A 
ATOM     11  C   UNL     1      10.378  84.973  81.374  1.00  0.00     0.041 A 
ATOM     12  C   UNL     1      10.284  85.764  80.124  1.00  0.00     0.194 C 
ATOM     13  O   UNL     1      11.329  86.241  79.598  1.00  0.00    -0.289 OA
ATOM     14  C   UNL     1      11.634  84.626  81.901  1.00  0.00     0.059 A 
ATOM     15  C   UNL     1      11.728  83.864  83.068  1.00  0.00     0.120 A 
ATOM     16  C   UNL     1      10.567  83.422  83.702  1.00  0.00     0.093 A 
ATOM     17  C   UNL     1       9.305  83.736  83.187  1.00  0.00     0.131 A 
ENDROOT
BRANCH   6  18
ATOM     18  O   UNL     1       5.351  85.171  79.986  1.00  0.00    -0.507 OA
ATOM     19  H   UNL     1       4.583  85.750  80.291  1.00  0.00     0.293 HD
ENDBRANCH   6  18
BRANCH  17  20
ATOM     20  O   UNL     1       8.192  83.181  83.823  1.00  0.00    -0.507 OA
ATOM     21  H   UNL     1       8.118  83.072  84.825  1.00  0.00     0.293 HD
ENDBRANCH  17  20
BRANCH  15  22
ATOM     22  O   UNL     1      12.971  83.529  83.600  1.00  0.00    -0.508 OA
ATOM     23  H   UNL     1      13.492  84.177  84.179  1.00  0.00     0.293 HD
ENDBRANCH  15  22
TORSDOF 3
ENDMDL
