MODEL 1
REMARK VINA RESULT:    -6.968      0.000      0.000
REMARK INTER + INTRA:         -10.162
REMARK INTER:                  -9.209
REMARK INTRA:                  -0.953
REMARK UNBOUND:                -0.953
REMARK SMILES CC[C@@H](C=C[C@@H](C)[C@H]1CC[C@H]2[C@@H]3CC=C4C[C@H](O)CC[C@@]4(C)[C@H]3CC[C@]12C)C(C)C
REMARK SMILES IDX 6 1 7 2 5 3 4 4 3 5 2 6 1 7 28 8 29 9 30 10 8 11 9 12 26 13
REMARK SMILES IDX 10 14 11 15 25 16 27 17 12 18 24 19 23 20 13 21 21 22 14 23
REMARK SMILES IDX 15 24 20 25 22 26 16 27 19 28 17 29 18 30
REMARK H PARENT 18 31
REMARK Flexibility Score: inf
ROOT
ATOM      1  C   UNL     1      12.906 -14.025  28.117  1.00  0.00     0.012 C 
ATOM      2  C   UNL     1      12.654 -12.595  28.616  1.00  0.00     0.012 C 
ENDROOT
BRANCH   1   3
ATOM      3  C   UNL     1      11.976 -14.962  28.863  1.00  0.00    -0.028 C 
ATOM      4  C   UNL     1      11.879 -14.944  30.202  1.00  0.00    -0.027 C 
BRANCH   4   5
ATOM      5  C   UNL     1      11.028 -15.948  30.959  1.00  0.00     0.014 C 
BRANCH   5   6
ATOM      6  C   UNL     1       9.810 -15.253  31.612  1.00  0.00     0.004 C 
ATOM      7  C   UNL     1       9.863 -15.306  33.140  1.00  0.00     0.004 C 
ENDBRANCH   5   6
BRANCH   5   8
ATOM      8  C   UNL     1      11.866 -16.749  32.002  1.00  0.00    -0.011 C 
ATOM      9  C   UNL     1      11.684 -18.264  31.823  1.00  0.00     0.008 C 
ATOM     10  C   UNL     1      13.364 -16.390  32.008  1.00  0.00     0.008 C 
ENDBRANCH   5   8
ENDBRANCH   4   5
ENDBRANCH   1   3
BRANCH   1  11
ATOM     11  C   UNL     1      14.432 -14.393  28.223  1.00  0.00     0.002 C 
ATOM     12  C   UNL     1      14.811 -15.705  28.959  1.00  0.00     0.005 C 
ATOM     13  C   UNL     1      15.206 -14.500  26.884  1.00  0.00    -0.026 C 
ATOM     14  C   UNL     1      16.165 -16.154  28.374  1.00  0.00     0.005 C 
ATOM     15  C   UNL     1      16.545 -15.045  27.399  1.00  0.00    -0.001 C 
ATOM     16  C   UNL     1      15.490 -13.149  26.193  1.00  0.00     0.007 C 
ATOM     17  C   UNL     1      14.480 -15.477  25.900  1.00  0.00     0.012 C 
ATOM     18  C   UNL     1      17.562 -15.346  26.275  1.00  0.00     0.000 C 
ATOM     19  C   UNL     1      16.497 -13.327  25.034  1.00  0.00     0.005 C 
ATOM     20  C   UNL     1      17.822 -14.038  25.469  1.00  0.00     0.003 C 
ATOM     21  C   UNL     1      18.894 -15.814  26.874  1.00  0.00     0.031 C 
ATOM     22  C   UNL     1      18.859 -14.262  24.291  1.00  0.00    -0.008 C 
ATOM     23  C   UNL     1      19.924 -16.007  25.806  1.00  0.00    -0.027 C 
ATOM     24  C   UNL     1      19.950 -15.286  24.665  1.00  0.00    -0.065 C 
ATOM     25  C   UNL     1      18.156 -14.794  23.001  1.00  0.00     0.014 C 
ATOM     26  C   UNL     1      19.539 -12.899  23.989  1.00  0.00     0.016 C 
ATOM     27  C   UNL     1      20.936 -15.684  23.587  1.00  0.00     0.063 C 
ATOM     28  C   UNL     1      19.129 -15.233  21.886  1.00  0.00     0.033 C 
ATOM     29  C   UNL     1      20.168 -16.249  22.390  1.00  0.00     0.118 C 
BRANCH  29  30
ATOM     30  O   UNL     1      21.076 -16.550  21.363  1.00  0.00    -0.393 OA
ATOM     31  H   UNL     1      20.853 -15.957  20.599  1.00  0.00     0.210 HD
ENDBRANCH  29  30
ENDBRANCH   1  11
TORSDOF 6
ENDMDL
MODEL 2
REMARK VINA RESULT:    -6.927      1.946      3.709
REMARK INTER + INTRA:         -10.108
REMARK INTER:                 -10.232
REMARK INTRA:                   0.124
REMARK UNBOUND:                -0.953
REMARK SMILES CC[C@@H](C=C[C@@H](C)[C@H]1CC[C@H]2[C@@H]3CC=C4C[C@H](O)CC[C@@]4(C)[C@H]3CC[C@]12C)C(C)C
REMARK SMILES IDX 6 1 7 2 5 3 4 4 3 5 2 6 1 7 28 8 29 9 30 10 8 11 9 12 26 13
REMARK SMILES IDX 10 14 11 15 25 16 27 17 12 18 24 19 23 20 13 21 21 22 14 23
REMARK SMILES IDX 15 24 20 25 22 26 16 27 19 28 17 29 18 30
REMARK H PARENT 18 31
REMARK Flexibility Score: inf
ROOT
ATOM      1  C   UNL     1      13.019 -15.523  30.288  1.00  0.00     0.012 C 
ATOM      2  C   UNL     1      14.169 -16.468  30.664  1.00  0.00     0.012 C 
ENDROOT
BRANCH   1   3
ATOM      3  C   UNL     1      11.735 -16.076  30.876  1.00  0.00    -0.028 C 
ATOM      4  C   UNL     1      11.666 -17.320  31.377  1.00  0.00    -0.027 C 
BRANCH   4   5
ATOM      5  C   UNL     1      10.359 -17.914  31.872  1.00  0.00     0.014 C 
BRANCH   5   6
ATOM      6  C   UNL     1       9.833 -17.136  33.102  1.00  0.00     0.004 C 
ATOM      7  C   UNL     1       9.493 -15.684  32.768  1.00  0.00     0.004 C 
ENDBRANCH   5   6
BRANCH   5   8
ATOM      8  C   UNL     1      10.490 -19.440  32.165  1.00  0.00    -0.011 C 
ATOM      9  C   UNL     1      10.118 -19.766  33.619  1.00  0.00     0.008 C 
ATOM     10  C   UNL     1       9.691 -20.332  31.197  1.00  0.00     0.008 C 
ENDBRANCH   5   8
ENDBRANCH   4   5
ENDBRANCH   1   3
BRANCH   1  11
ATOM     11  C   UNL     1      12.979 -15.283  28.734  1.00  0.00     0.002 C 
ATOM     12  C   UNL     1      11.820 -14.423  28.164  1.00  0.00     0.005 C 
ATOM     13  C   UNL     1      14.242 -14.638  28.108  1.00  0.00    -0.026 C 
ATOM     14  C   UNL     1      12.343 -13.807  26.851  1.00  0.00     0.005 C 
ATOM     15  C   UNL     1      13.735 -14.405  26.678  1.00  0.00    -0.001 C 
ATOM     16  C   UNL     1      15.468 -15.571  28.020  1.00  0.00     0.007 C 
ATOM     17  C   UNL     1      14.615 -13.312  28.853  1.00  0.00     0.012 C 
ATOM     18  C   UNL     1      14.757 -13.683  25.771  1.00  0.00     0.000 C 
ATOM     19  C   UNL     1      16.572 -14.945  27.137  1.00  0.00     0.005 C 
ATOM     20  C   UNL     1      16.065 -14.529  25.715  1.00  0.00     0.003 C 
ATOM     21  C   UNL     1      14.207 -13.556  24.345  1.00  0.00     0.031 C 
ATOM     22  C   UNL     1      17.171 -13.854  24.802  1.00  0.00    -0.008 C 
ATOM     23  C   UNL     1      15.226 -12.956  23.428  1.00  0.00    -0.027 C 
ATOM     24  C   UNL     1      16.556 -13.121  23.591  1.00  0.00    -0.065 C 
ATOM     25  C   UNL     1      18.008 -12.802  25.596  1.00  0.00     0.014 C 
ATOM     26  C   UNL     1      18.107 -14.977  24.279  1.00  0.00     0.016 C 
ATOM     27  C   UNL     1      17.491 -12.330  22.702  1.00  0.00     0.063 C 
ATOM     28  C   UNL     1      18.958 -11.957  24.720  1.00  0.00     0.033 C 
ATOM     29  C   UNL     1      18.223 -11.285  23.548  1.00  0.00     0.118 C 
BRANCH  29  30
ATOM     30  O   UNL     1      19.143 -10.602  22.737  1.00  0.00    -0.393 OA
ATOM     31  H   UNL     1      18.614 -10.037  22.115  1.00  0.00     0.210 HD
ENDBRANCH  29  30
ENDBRANCH   1  11
TORSDOF 6
ENDMDL
MODEL 3
REMARK VINA RESULT:    -6.706      2.554      4.514
REMARK INTER + INTRA:          -9.815
REMARK INTER:                  -8.826
REMARK INTRA:                  -0.988
REMARK UNBOUND:                -0.953
REMARK SMILES CC[C@@H](C=C[C@@H](C)[C@H]1CC[C@H]2[C@@H]3CC=C4C[C@H](O)CC[C@@]4(C)[C@H]3CC[C@]12C)C(C)C
REMARK SMILES IDX 6 1 7 2 5 3 4 4 3 5 2 6 1 7 28 8 29 9 30 10 8 11 9 12 26 13
REMARK SMILES IDX 10 14 11 15 25 16 27 17 12 18 24 19 23 20 13 21 21 22 14 23
REMARK SMILES IDX 15 24 20 25 22 26 16 27 19 28 17 29 18 30
REMARK H PARENT 18 31
REMARK Flexibility Score: inf
ROOT
ATOM      1  C   UNL     1      11.057 -16.134  31.413  1.00  0.00     0.012 C 
ATOM      2  C   UNL     1      10.563 -15.260  32.575  1.00  0.00     0.012 C 
ENDROOT
BRANCH   1   3
ATOM      3  C   UNL     1      10.862 -17.589  31.794  1.00  0.00    -0.028 C 
ATOM      4  C   UNL     1       9.641 -18.109  31.996  1.00  0.00    -0.027 C 
BRANCH   4   5
ATOM      5  C   UNL     1       9.445 -19.536  32.478  1.00  0.00     0.014 C 
BRANCH   5   6
ATOM      6  C   UNL     1      10.147 -19.756  33.839  1.00  0.00     0.004 C 
ATOM      7  C   UNL     1       9.162 -20.134  34.946  1.00  0.00     0.004 C 
ENDBRANCH   5   6
BRANCH   5   8
ATOM      8  C   UNL     1       9.907 -20.577  31.413  1.00  0.00    -0.011 C 
ATOM      9  C   UNL     1       9.860 -22.008  31.972  1.00  0.00     0.008 C 
ATOM     10  C   UNL     1       9.132 -20.497  30.085  1.00  0.00     0.008 C 
ENDBRANCH   5   8
ENDBRANCH   4   5
ENDBRANCH   1   3
BRANCH   1  11
ATOM     11  C   UNL     1      12.528 -15.752  31.012  1.00  0.00     0.002 C 
ATOM     12  C   UNL     1      13.617 -16.853  31.119  1.00  0.00     0.005 C 
ATOM     13  C   UNL     1      12.726 -15.195  29.579  1.00  0.00    -0.026 C 
ATOM     14  C   UNL     1      14.716 -16.476  30.105  1.00  0.00     0.005 C 
ATOM     15  C   UNL     1      14.259 -15.140  29.528  1.00  0.00    -0.001 C 
ATOM     16  C   UNL     1      12.202 -13.758  29.367  1.00  0.00     0.007 C 
ATOM     17  C   UNL     1      12.109 -16.166  28.517  1.00  0.00     0.012 C 
ATOM     18  C   UNL     1      14.814 -14.680  28.162  1.00  0.00     0.000 C 
ATOM     19  C   UNL     1      12.690 -13.191  28.015  1.00  0.00     0.005 C 
ATOM     20  C   UNL     1      14.244 -13.266  27.837  1.00  0.00     0.003 C 
ATOM     21  C   UNL     1      16.344 -14.579  28.216  1.00  0.00     0.031 C 
ATOM     22  C   UNL     1      14.768 -12.720  26.444  1.00  0.00    -0.008 C 
ATOM     23  C   UNL     1      16.892 -14.033  26.935  1.00  0.00    -0.027 C 
ATOM     24  C   UNL     1      16.218 -13.161  26.155  1.00  0.00    -0.065 C 
ATOM     25  C   UNL     1      13.890 -13.233  25.259  1.00  0.00     0.014 C 
ATOM     26  C   UNL     1      14.722 -11.169  26.493  1.00  0.00     0.016 C 
ATOM     27  C   UNL     1      16.801 -12.810  24.803  1.00  0.00     0.063 C 
ATOM     28  C   UNL     1      14.463 -12.915  23.861  1.00  0.00     0.033 C 
ATOM     29  C   UNL     1      15.914 -13.402  23.706  1.00  0.00     0.118 C 
BRANCH  29  30
ATOM     30  O   UNL     1      16.414 -13.013  22.453  1.00  0.00    -0.393 OA
ATOM     31  H   UNL     1      15.702 -12.482  22.011  1.00  0.00     0.210 HD
ENDBRANCH  29  30
ENDBRANCH   1  11
TORSDOF 6
ENDMDL
MODEL 4
REMARK VINA RESULT:    -6.697      2.232      4.409
REMARK INTER + INTRA:          -9.803
REMARK INTER:                  -9.679
REMARK INTRA:                  -0.124
REMARK UNBOUND:                -0.953
REMARK SMILES CC[C@@H](C=C[C@@H](C)[C@H]1CC[C@H]2[C@@H]3CC=C4C[C@H](O)CC[C@@]4(C)[C@H]3CC[C@]12C)C(C)C
REMARK SMILES IDX 6 1 7 2 5 3 4 4 3 5 2 6 1 7 28 8 29 9 30 10 8 11 9 12 26 13
REMARK SMILES IDX 10 14 11 15 25 16 27 17 12 18 24 19 23 20 13 21 21 22 14 23
REMARK SMILES IDX 15 24 20 25 22 26 16 27 19 28 17 29 18 30
REMARK H PARENT 18 31
REMARK Flexibility Score: inf
ROOT
ATOM      1  C   UNL     1      12.482 -16.110  31.349  1.00  0.00     0.012 C 
ATOM      2  C   UNL     1      13.762 -16.921  31.599  1.00  0.00     0.012 C 
ENDROOT
BRANCH   1   3
ATOM      3  C   UNL     1      11.316 -16.857  31.967  1.00  0.00    -0.028 C 
ATOM      4  C   UNL     1      11.247 -18.197  31.949  1.00  0.00    -0.027 C 
BRANCH   4   5
ATOM      5  C   UNL     1      10.034 -18.946  32.473  1.00  0.00     0.014 C 
BRANCH   5   6
ATOM      6  C   UNL     1      10.427 -19.878  33.643  1.00  0.00     0.004 C 
ATOM      7  C   UNL     1       9.277 -20.092  34.627  1.00  0.00     0.004 C 
ENDBRANCH   5   6
BRANCH   5   8
ATOM      8  C   UNL     1       9.296 -19.720  31.338  1.00  0.00    -0.011 C 
ATOM      9  C   UNL     1       9.790 -21.172  31.237  1.00  0.00     0.008 C 
ATOM     10  C   UNL     1       7.761 -19.686  31.456  1.00  0.00     0.008 C 
ENDBRANCH   5   8
ENDBRANCH   4   5
ENDBRANCH   1   3
BRANCH   1  11
ATOM     11  C   UNL     1      12.318 -15.783  29.820  1.00  0.00     0.002 C 
ATOM     12  C   UNL     1      11.252 -14.730  29.415  1.00  0.00     0.005 C 
ATOM     13  C   UNL     1      13.592 -15.302  29.080  1.00  0.00    -0.026 C 
ATOM     14  C   UNL     1      11.723 -14.130  28.076  1.00  0.00     0.005 C 
ATOM     15  C   UNL     1      12.980 -14.919  27.726  1.00  0.00    -0.001 C 
ATOM     16  C   UNL     1      14.642 -16.403  28.821  1.00  0.00     0.007 C 
ATOM     17  C   UNL     1      14.242 -14.089  29.827  1.00  0.00     0.012 C 
ATOM     18  C   UNL     1      14.001 -14.311  26.738  1.00  0.00     0.000 C 
ATOM     19  C   UNL     1      15.731 -15.903  27.844  1.00  0.00     0.005 C 
ATOM     20  C   UNL     1      15.149 -15.339  26.504  1.00  0.00     0.003 C 
ATOM     21  C   UNL     1      13.330 -14.027  25.388  1.00  0.00     0.031 C 
ATOM     22  C   UNL     1      16.244 -14.790  25.498  1.00  0.00    -0.008 C 
ATOM     23  C   UNL     1      14.328 -13.538  24.386  1.00  0.00    -0.027 C 
ATOM     24  C   UNL     1      15.626 -13.909  24.392  1.00  0.00    -0.065 C 
ATOM     25  C   UNL     1      17.312 -13.919  26.232  1.00  0.00     0.014 C 
ATOM     26  C   UNL     1      16.934 -16.011  24.832  1.00  0.00     0.016 C 
ATOM     27  C   UNL     1      16.573 -13.221  23.433  1.00  0.00     0.063 C 
ATOM     28  C   UNL     1      18.284 -13.180  25.287  1.00  0.00     0.033 C 
ATOM     29  C   UNL     1      17.543 -12.344  24.230  1.00  0.00     0.118 C 
BRANCH  29  30
ATOM     30  O   UNL     1      18.467 -11.764  23.348  1.00  0.00    -0.393 OA
ATOM     31  H   UNL     1      19.060 -12.495  23.030  1.00  0.00     0.210 HD
ENDBRANCH  29  30
ENDBRANCH   1  11
TORSDOF 6
ENDMDL
MODEL 5
REMARK VINA RESULT:    -6.550      2.385      3.663
REMARK INTER + INTRA:          -9.609
REMARK INTER:                  -9.651
REMARK INTRA:                   0.042
REMARK UNBOUND:                -0.953
REMARK SMILES CC[C@@H](C=C[C@@H](C)[C@H]1CC[C@H]2[C@@H]3CC=C4C[C@H](O)CC[C@@]4(C)[C@H]3CC[C@]12C)C(C)C
REMARK SMILES IDX 6 1 7 2 5 3 4 4 3 5 2 6 1 7 28 8 29 9 30 10 8 11 9 12 26 13
REMARK SMILES IDX 10 14 11 15 25 16 27 17 12 18 24 19 23 20 13 21 21 22 14 23
REMARK SMILES IDX 15 24 20 25 22 26 16 27 19 28 17 29 18 30
REMARK H PARENT 18 31
REMARK Flexibility Score: inf
ROOT
ATOM      1  C   UNL     1      12.023 -14.117  28.040  1.00  0.00     0.012 C 
ATOM      2  C   UNL     1      11.939 -12.616  28.353  1.00  0.00     0.012 C 
ENDROOT
BRANCH   1   3
ATOM      3  C   UNL     1      11.748 -14.887  29.317  1.00  0.00    -0.028 C 
ATOM      4  C   UNL     1      12.582 -14.837  30.367  1.00  0.00    -0.027 C 
BRANCH   4   5
ATOM      5  C   UNL     1      12.365 -15.685  31.607  1.00  0.00     0.014 C 
BRANCH   5   6
ATOM      6  C   UNL     1      13.520 -16.698  31.788  1.00  0.00     0.004 C 
ATOM      7  C   UNL     1      14.374 -16.836  30.527  1.00  0.00     0.004 C 
ENDBRANCH   5   6
BRANCH   5   8
ATOM      8  C   UNL     1      10.974 -16.390  31.592  1.00  0.00    -0.011 C 
ATOM      9  C   UNL     1      11.092 -17.870  31.988  1.00  0.00     0.008 C 
ATOM     10  C   UNL     1       9.910 -15.690  32.457  1.00  0.00     0.008 C 
ENDBRANCH   5   8
ENDBRANCH   4   5
ENDBRANCH   1   3
BRANCH   1  11
ATOM     11  C   UNL     1      13.390 -14.466  27.345  1.00  0.00     0.002 C 
ATOM     12  C   UNL     1      13.358 -15.430  26.129  1.00  0.00     0.005 C 
ATOM     13  C   UNL     1      14.221 -13.265  26.825  1.00  0.00    -0.026 C 
ATOM     14  C   UNL     1      14.597 -15.092  25.275  1.00  0.00     0.005 C 
ATOM     15  C   UNL     1      15.328 -14.019  26.074  1.00  0.00    -0.001 C 
ATOM     16  C   UNL     1      14.897 -12.423  27.927  1.00  0.00     0.007 C 
ATOM     17  C   UNL     1      13.355 -12.354  25.892  1.00  0.00     0.012 C 
ATOM     18  C   UNL     1      16.325 -13.087  25.348  1.00  0.00     0.000 C 
ATOM     19  C   UNL     1      15.919 -11.437  27.315  1.00  0.00     0.005 C 
ATOM     20  C   UNL     1      16.978 -12.135  26.396  1.00  0.00     0.003 C 
ATOM     21  C   UNL     1      17.438 -13.910  24.689  1.00  0.00     0.031 C 
ATOM     22  C   UNL     1      18.018 -11.141  25.730  1.00  0.00    -0.008 C 
ATOM     23  C   UNL     1      18.471 -13.019  24.073  1.00  0.00    -0.027 C 
ATOM     24  C   UNL     1      18.777 -11.796  24.556  1.00  0.00    -0.065 C 
ATOM     25  C   UNL     1      17.314  -9.868  25.164  1.00  0.00     0.014 C 
ATOM     26  C   UNL     1      19.046 -10.729  26.817  1.00  0.00     0.016 C 
ATOM     27  C   UNL     1      19.715 -10.921  23.753  1.00  0.00     0.063 C 
ATOM     28  C   UNL     1      18.232  -8.960  24.317  1.00  0.00     0.033 C 
ATOM     29  C   UNL     1      18.931  -9.735  23.187  1.00  0.00     0.118 C 
BRANCH  29  30
ATOM     30  O   UNL     1      19.815  -8.885  22.504  1.00  0.00    -0.393 OA
ATOM     31  H   UNL     1      19.272  -8.137  22.141  1.00  0.00     0.210 HD
ENDBRANCH  29  30
ENDBRANCH   1  11
TORSDOF 6
ENDMDL
MODEL 6
REMARK VINA RESULT:    -6.444      9.781     12.979
REMARK INTER + INTRA:          -9.468
REMARK INTER:                  -8.566
REMARK INTRA:                  -0.902
REMARK UNBOUND:                -0.953
REMARK SMILES CC[C@@H](C=C[C@@H](C)[C@H]1CC[C@H]2[C@@H]3CC=C4C[C@H](O)CC[C@@]4(C)[C@H]3CC[C@]12C)C(C)C
REMARK SMILES IDX 6 1 7 2 5 3 4 4 3 5 2 6 1 7 28 8 29 9 30 10 8 11 9 12 26 13
REMARK SMILES IDX 10 14 11 15 25 16 27 17 12 18 24 19 23 20 13 21 21 22 14 23
REMARK SMILES IDX 15 24 20 25 22 26 16 27 19 28 17 29 18 30
REMARK H PARENT 18 31
REMARK Flexibility Score: inf
ROOT
ATOM      1  C   UNL     1       6.314 -20.045  27.498  1.00  0.00     0.012 C 
ATOM      2  C   UNL     1       5.314 -19.718  28.617  1.00  0.00     0.012 C 
ENDROOT
BRANCH   1   3
ATOM      3  C   UNL     1       7.673 -20.284  28.128  1.00  0.00    -0.028 C 
ATOM      4  C   UNL     1       7.810 -20.533  29.440  1.00  0.00    -0.027 C 
BRANCH   4   5
ATOM      5  C   UNL     1       9.174 -20.670  30.093  1.00  0.00     0.014 C 
BRANCH   5   6
ATOM      6  C   UNL     1       9.641 -22.144  30.085  1.00  0.00     0.004 C 
ATOM      7  C   UNL     1       9.760 -22.723  31.495  1.00  0.00     0.004 C 
ENDBRANCH   5   6
BRANCH   5   8
ATOM      8  C   UNL     1       9.193 -20.064  31.529  1.00  0.00    -0.011 C 
ATOM      9  C   UNL     1      10.294 -19.003  31.676  1.00  0.00     0.008 C 
ATOM     10  C   UNL     1       7.837 -19.491  31.983  1.00  0.00     0.008 C 
ENDBRANCH   5   8
ENDBRANCH   4   5
ENDBRANCH   1   3
BRANCH   1  11
ATOM     11  C   UNL     1       6.291 -18.934  26.386  1.00  0.00     0.002 C 
ATOM     12  C   UNL     1       7.599 -18.680  25.590  1.00  0.00     0.005 C 
ATOM     13  C   UNL     1       5.224 -19.099  25.274  1.00  0.00    -0.026 C 
ATOM     14  C   UNL     1       7.170 -18.103  24.226  1.00  0.00     0.005 C 
ATOM     15  C   UNL     1       5.655 -17.969  24.328  1.00  0.00    -0.001 C 
ATOM     16  C   UNL     1       3.776 -18.805  25.720  1.00  0.00     0.007 C 
ATOM     17  C   UNL     1       5.319 -20.519  24.620  1.00  0.00     0.012 C 
ATOM     18  C   UNL     1       4.816 -17.896  23.033  1.00  0.00     0.000 C 
ATOM     19  C   UNL     1       2.833 -18.717  24.498  1.00  0.00     0.005 C 
ATOM     20  C   UNL     1       3.318 -17.696  23.415  1.00  0.00     0.003 C 
ATOM     21  C   UNL     1       5.257 -16.700  22.180  1.00  0.00     0.031 C 
ATOM     22  C   UNL     1       2.384 -17.611  22.136  1.00  0.00    -0.008 C 
ATOM     23  C   UNL     1       4.384 -16.550  20.974  1.00  0.00    -0.027 C 
ATOM     24  C   UNL     1       3.083 -16.908  20.953  1.00  0.00    -0.065 C 
ATOM     25  C   UNL     1       1.961 -19.030  21.638  1.00  0.00     0.014 C 
ATOM     26  C   UNL     1       1.121 -16.796  22.522  1.00  0.00     0.016 C 
ATOM     27  C   UNL     1       2.348 -16.866  19.630  1.00  0.00     0.063 C 
ATOM     28  C   UNL     1       1.229 -19.032  20.279  1.00  0.00     0.033 C 
ATOM     29  C   UNL     1       2.028 -18.296  19.190  1.00  0.00     0.118 C 
BRANCH  29  30
ATOM     30  O   UNL     1       1.283 -18.253  18.001  1.00  0.00    -0.393 OA
ATOM     31  H   UNL     1       0.345 -18.052  18.256  1.00  0.00     0.210 HD
ENDBRANCH  29  30
ENDBRANCH   1  11
TORSDOF 6
ENDMDL
MODEL 7
REMARK VINA RESULT:    -6.402      3.304      8.449
REMARK INTER + INTRA:          -9.413
REMARK INTER:                  -8.089
REMARK INTRA:                  -1.324
REMARK UNBOUND:                -0.953
REMARK SMILES CC[C@@H](C=C[C@@H](C)[C@H]1CC[C@H]2[C@@H]3CC=C4C[C@H](O)CC[C@@]4(C)[C@H]3CC[C@]12C)C(C)C
REMARK SMILES IDX 6 1 7 2 5 3 4 4 3 5 2 6 1 7 28 8 29 9 30 10 8 11 9 12 26 13
REMARK SMILES IDX 10 14 11 15 25 16 27 17 12 18 24 19 23 20 13 21 21 22 14 23
REMARK SMILES IDX 15 24 20 25 22 26 16 27 19 28 17 29 18 30
REMARK H PARENT 18 31
REMARK Flexibility Score: inf
ROOT
ATOM      1  C   UNL     1      19.370 -17.518  28.008  1.00  0.00     0.012 C 
ATOM      2  C   UNL     1      20.041 -17.784  29.363  1.00  0.00     0.012 C 
ENDROOT
BRANCH   1   3
ATOM      3  C   UNL     1      20.376 -17.812  26.912  1.00  0.00    -0.028 C 
ATOM      4  C   UNL     1      20.032 -18.470  25.794  1.00  0.00    -0.027 C 
BRANCH   4   5
ATOM      5  C   UNL     1      21.056 -18.858  24.742  1.00  0.00     0.014 C 
BRANCH   5   6
ATOM      6  C   UNL     1      20.958 -17.925  23.512  1.00  0.00     0.004 C 
ATOM      7  C   UNL     1      19.600 -17.230  23.416  1.00  0.00     0.004 C 
ENDBRANCH   5   6
BRANCH   5   8
ATOM      8  C   UNL     1      20.936 -20.360  24.341  1.00  0.00    -0.011 C 
ATOM      9  C   UNL     1      19.616 -20.969  24.841  1.00  0.00     0.008 C 
ATOM     10  C   UNL     1      21.105 -20.619  22.833  1.00  0.00     0.008 C 
ENDBRANCH   5   8
ENDBRANCH   4   5
ENDBRANCH   1   3
BRANCH   1  11
ATOM     11  C   UNL     1      18.755 -16.071  27.963  1.00  0.00     0.002 C 
ATOM     12  C   UNL     1      19.442 -15.019  27.053  1.00  0.00     0.005 C 
ATOM     13  C   UNL     1      17.262 -15.974  27.555  1.00  0.00    -0.026 C 
ATOM     14  C   UNL     1      18.353 -13.996  26.674  1.00  0.00     0.005 C 
ATOM     15  C   UNL     1      17.120 -14.449  27.448  1.00  0.00    -0.001 C 
ATOM     16  C   UNL     1      16.266 -16.459  28.629  1.00  0.00     0.007 C 
ATOM     17  C   UNL     1      17.009 -16.713  26.198  1.00  0.00     0.012 C 
ATOM     18  C   UNL     1      15.722 -13.993  26.971  1.00  0.00     0.000 C 
ATOM     19  C   UNL     1      14.819 -16.064  28.254  1.00  0.00     0.005 C 
ATOM     20  C   UNL     1      14.651 -14.535  27.965  1.00  0.00     0.003 C 
ATOM     21  C   UNL     1      15.637 -12.461  26.963  1.00  0.00     0.031 C 
ATOM     22  C   UNL     1      13.182 -14.109  27.545  1.00  0.00    -0.008 C 
ATOM     23  C   UNL     1      14.258 -12.003  26.607  1.00  0.00    -0.027 C 
ATOM     24  C   UNL     1      13.145 -12.706  26.905  1.00  0.00    -0.065 C 
ATOM     25  C   UNL     1      12.571 -15.102  26.506  1.00  0.00     0.014 C 
ATOM     26  C   UNL     1      12.307 -14.093  28.827  1.00  0.00     0.016 C 
ATOM     27  C   UNL     1      11.822 -12.225  26.348  1.00  0.00     0.063 C 
ATOM     28  C   UNL     1      11.232 -14.635  25.896  1.00  0.00     0.033 C 
ATOM     29  C   UNL     1      11.329 -13.222  25.297  1.00  0.00     0.118 C 
BRANCH  29  30
ATOM     30  O   UNL     1      10.068 -12.814  24.835  1.00  0.00    -0.393 OA
ATOM     31  H   UNL     1       9.396 -13.393  25.281  1.00  0.00     0.210 HD
ENDBRANCH  29  30
ENDBRANCH   1  11
TORSDOF 6
ENDMDL
MODEL 8
REMARK VINA RESULT:    -5.678      2.802      4.789
REMARK INTER + INTRA:          -8.457
REMARK INTER:                  -7.269
REMARK INTRA:                  -1.188
REMARK UNBOUND:                -0.953
REMARK SMILES CC[C@@H](C=C[C@@H](C)[C@H]1CC[C@H]2[C@@H]3CC=C4C[C@H](O)CC[C@@]4(C)[C@H]3CC[C@]12C)C(C)C
REMARK SMILES IDX 6 1 7 2 5 3 4 4 3 5 2 6 1 7 28 8 29 9 30 10 8 11 9 12 26 13
REMARK SMILES IDX 10 14 11 15 25 16 27 17 12 18 24 19 23 20 13 21 21 22 14 23
REMARK SMILES IDX 15 24 20 25 22 26 16 27 19 28 17 29 18 30
REMARK H PARENT 18 31
REMARK Flexibility Score: inf
ROOT
ATOM      1  C   UNL     1      16.405 -12.370  25.352  1.00  0.00     0.012 C 
ATOM      2  C   UNL     1      17.037 -11.014  25.005  1.00  0.00     0.012 C 
ENDROOT
BRANCH   1   3
ATOM      3  C   UNL     1      15.251 -12.128  26.305  1.00  0.00    -0.028 C 
ATOM      4  C   UNL     1      14.168 -12.922  26.320  1.00  0.00    -0.027 C 
BRANCH   4   5
ATOM      5  C   UNL     1      12.966 -12.624  27.198  1.00  0.00     0.014 C 
BRANCH   5   6
ATOM      6  C   UNL     1      13.025 -13.447  28.507  1.00  0.00     0.004 C 
ATOM      7  C   UNL     1      14.010 -14.613  28.416  1.00  0.00     0.004 C 
ENDBRANCH   5   6
BRANCH   5   8
ATOM      8  C   UNL     1      11.623 -12.843  26.436  1.00  0.00    -0.011 C 
ATOM      9  C   UNL     1      11.506 -11.904  25.226  1.00  0.00     0.008 C 
ATOM     10  C   UNL     1      11.380 -14.301  26.005  1.00  0.00     0.008 C 
ENDBRANCH   5   8
ENDBRANCH   4   5
ENDBRANCH   1   3
BRANCH   1  11
ATOM     11  C   UNL     1      17.493 -13.375  25.881  1.00  0.00     0.002 C 
ATOM     12  C   UNL     1      17.367 -13.875  27.344  1.00  0.00     0.005 C 
ATOM     13  C   UNL     1      17.667 -14.685  25.071  1.00  0.00    -0.026 C 
ATOM     14  C   UNL     1      18.066 -15.248  27.395  1.00  0.00     0.005 C 
ATOM     15  C   UNL     1      18.637 -15.436  25.994  1.00  0.00    -0.001 C 
ATOM     16  C   UNL     1      18.365 -14.512  23.705  1.00  0.00     0.007 C 
ATOM     17  C   UNL     1      16.293 -15.416  24.896  1.00  0.00     0.012 C 
ATOM     18  C   UNL     1      18.975 -16.862  25.503  1.00  0.00     0.000 C 
ATOM     19  C   UNL     1      18.746 -15.885  23.106  1.00  0.00     0.005 C 
ATOM     20  C   UNL     1      19.599 -16.769  24.078  1.00  0.00     0.003 C 
ATOM     21  C   UNL     1      20.004 -17.515  26.434  1.00  0.00     0.031 C 
ATOM     22  C   UNL     1      19.975 -18.196  23.499  1.00  0.00    -0.008 C 
ATOM     23  C   UNL     1      20.423 -18.855  25.916  1.00  0.00    -0.027 C 
ATOM     24  C   UNL     1      20.463 -19.159  24.601  1.00  0.00    -0.065 C 
ATOM     25  C   UNL     1      18.751 -18.876  22.807  1.00  0.00     0.014 C 
ATOM     26  C   UNL     1      21.118 -18.005  22.466  1.00  0.00     0.016 C 
ATOM     27  C   UNL     1      20.741 -20.594  24.205  1.00  0.00     0.063 C 
ATOM     28  C   UNL     1      18.987 -20.349  22.409  1.00  0.00     0.033 C 
ATOM     29  C   UNL     1      19.475 -21.199  23.594  1.00  0.00     0.118 C 
BRANCH  29  30
ATOM     30  O   UNL     1      19.755 -22.504  23.161  1.00  0.00    -0.393 OA
ATOM     31  H   UNL     1      19.141 -22.694  22.404  1.00  0.00     0.210 HD
ENDBRANCH  29  30
ENDBRANCH   1  11
TORSDOF 6
ENDMDL
MODEL 9
REMARK VINA RESULT:    -5.630      3.407      5.090
REMARK INTER + INTRA:          -8.394
REMARK INTER:                  -7.247
REMARK INTRA:                  -1.147
REMARK UNBOUND:                -0.953
REMARK SMILES CC[C@@H](C=C[C@@H](C)[C@H]1CC[C@H]2[C@@H]3CC=C4C[C@H](O)CC[C@@]4(C)[C@H]3CC[C@]12C)C(C)C
REMARK SMILES IDX 6 1 7 2 5 3 4 4 3 5 2 6 1 7 28 8 29 9 30 10 8 11 9 12 26 13
REMARK SMILES IDX 10 14 11 15 25 16 27 17 12 18 24 19 23 20 13 21 21 22 14 23
REMARK SMILES IDX 15 24 20 25 22 26 16 27 19 28 17 29 18 30
REMARK H PARENT 18 31
REMARK Flexibility Score: inf
ROOT
ATOM      1  C   UNL     1      16.730 -14.344  26.259  1.00  0.00     0.012 C 
ATOM      2  C   UNL     1      17.141 -12.991  25.659  1.00  0.00     0.012 C 
ENDROOT
BRANCH   1   3
ATOM      3  C   UNL     1      15.940 -14.083  27.527  1.00  0.00    -0.028 C 
ATOM      4  C   UNL     1      14.916 -14.869  27.896  1.00  0.00    -0.027 C 
BRANCH   4   5
ATOM      5  C   UNL     1      14.057 -14.553  29.107  1.00  0.00     0.014 C 
BRANCH   5   6
ATOM      6  C   UNL     1      14.058 -15.736  30.104  1.00  0.00     0.004 C 
ATOM      7  C   UNL     1      12.940 -15.623  31.140  1.00  0.00     0.004 C 
ENDBRANCH   5   6
BRANCH   5   8
ATOM      8  C   UNL     1      12.609 -14.141  28.700  1.00  0.00    -0.011 C 
ATOM      9  C   UNL     1      12.484 -12.617  28.544  1.00  0.00     0.008 C 
ATOM     10  C   UNL     1      12.090 -14.850  27.437  1.00  0.00     0.008 C 
ENDBRANCH   5   8
ENDBRANCH   4   5
ENDBRANCH   1   3
BRANCH   1  11
ATOM     11  C   UNL     1      17.983 -15.275  26.446  1.00  0.00     0.002 C 
ATOM     12  C   UNL     1      18.314 -15.764  27.881  1.00  0.00     0.005 C 
ATOM     13  C   UNL     1      17.995 -16.583  25.613  1.00  0.00    -0.026 C 
ATOM     14  C   UNL     1      19.081 -17.092  27.720  1.00  0.00     0.005 C 
ATOM     15  C   UNL     1      19.234 -17.264  26.213  1.00  0.00    -0.001 C 
ATOM     16  C   UNL     1      18.257 -16.386  24.105  1.00  0.00     0.007 C 
ATOM     17  C   UNL     1      16.676 -17.396  25.839  1.00  0.00     0.012 C 
ATOM     18  C   UNL     1      19.501 -18.673  25.638  1.00  0.00     0.000 C 
ATOM     19  C   UNL     1      18.532 -17.741  23.414  1.00  0.00     0.005 C 
ATOM     20  C   UNL     1      19.681 -18.560  24.094  1.00  0.00     0.003 C 
ATOM     21  C   UNL     1      20.793 -19.251  26.230  1.00  0.00     0.031 C 
ATOM     22  C   UNL     1      19.960 -19.970  23.424  1.00  0.00    -0.008 C 
ATOM     23  C   UNL     1      21.125 -20.570  25.605  1.00  0.00    -0.027 C 
ATOM     24  C   UNL     1      20.802 -20.888  24.333  1.00  0.00    -0.065 C 
ATOM     25  C   UNL     1      18.632 -20.730  23.111  1.00  0.00     0.014 C 
ATOM     26  C   UNL     1      20.743 -19.724  22.106  1.00  0.00     0.016 C 
ATOM     27  C   UNL     1      21.041 -22.309  23.867  1.00  0.00     0.063 C 
ATOM     28  C   UNL     1      18.832 -22.191  22.654  1.00  0.00     0.033 C 
ATOM     29  C   UNL     1      19.692 -22.996  23.644  1.00  0.00     0.118 C 
BRANCH  29  30
ATOM     30  O   UNL     1      19.913 -24.288  23.141  1.00  0.00    -0.393 OA
ATOM     31  H   UNL     1      19.042 -24.763  23.177  1.00  0.00     0.210 HD
ENDBRANCH  29  30
ENDBRANCH   1  11
TORSDOF 6
ENDMDL
