MODEL 1
REMARK VINA RESULT:    -4.119      0.000      0.000
REMARK INTER + INTRA:         -13.577
REMARK INTER:                 -10.742
REMARK INTRA:                  -2.835
REMARK UNBOUND:                -2.835
REMARK SMILES CCCCCCCCCCCCCCCCCCCCCCCCCCCCCO
REMARK SMILES IDX 16 1 15 2 14 3 13 4 12 5 11 6 10 7 9 8 8 9 7 10 6 11 5 12
REMARK SMILES IDX 4 13 3 14 2 15 1 16 17 17 18 18 19 19 20 20 21 21 22 22
REMARK SMILES IDX 23 23 24 24 25 25 26 26 27 27 28 28 29 29 30 30
REMARK H PARENT 30 31
REMARK Flexibility Score: inf
ROOT
ATOM      1  C   UNL     1     208.932 205.342 207.684  1.00  0.00     0.000 C 
ENDROOT
BRANCH   1   2
ATOM      2  C   UNL     1     210.309 206.008 207.860  1.00  0.00     0.000 C 
BRANCH   2   3
ATOM      3  C   UNL     1     210.714 207.010 206.762  1.00  0.00     0.000 C 
BRANCH   3   4
ATOM      4  C   UNL     1     209.657 207.204 205.653  1.00  0.00     0.000 C 
BRANCH   4   5
ATOM      5  C   UNL     1     210.072 206.577 204.309  1.00  0.00     0.000 C 
BRANCH   5   6
ATOM      6  C   UNL     1     211.254 205.604 204.447  1.00  0.00     0.000 C 
BRANCH   6   7
ATOM      7  C   UNL     1     210.812 204.157 204.715  1.00  0.00     0.000 C 
BRANCH   7   8
ATOM      8  C   UNL     1     209.749 203.720 203.695  1.00  0.00    -0.000 C 
BRANCH   8   9
ATOM      9  C   UNL     1     208.564 202.983 204.340  1.00  0.00    -0.000 C 
BRANCH   9  10
ATOM     10  C   UNL     1     207.205 203.566 203.915  1.00  0.00    -0.000 C 
BRANCH  10  11
ATOM     11  C   UNL     1     206.352 204.014 205.116  1.00  0.00    -0.000 C 
BRANCH  11  12
ATOM     12  C   UNL     1     206.422 205.533 205.358  1.00  0.00    -0.000 C 
BRANCH  12  13
ATOM     13  C   UNL     1     205.051 206.149 205.681  1.00  0.00    -0.000 C 
BRANCH  13  14
ATOM     14  C   UNL     1     204.740 207.382 204.815  1.00  0.00    -0.000 C 
BRANCH  14  15
ATOM     15  C   UNL     1     203.407 208.047 205.196  1.00  0.00    -0.003 C 
ATOM     16  C   UNL     1     203.558 209.076 206.317  1.00  0.00     0.004 C 
ENDBRANCH  14  15
ENDBRANCH  13  14
ENDBRANCH  12  13
ENDBRANCH  11  12
ENDBRANCH  10  11
ENDBRANCH   9  10
ENDBRANCH   8   9
ENDBRANCH   7   8
ENDBRANCH   6   7
ENDBRANCH   5   6
ENDBRANCH   4   5
ENDBRANCH   3   4
ENDBRANCH   2   3
ENDBRANCH   1   2
BRANCH   1  17
ATOM     17  C   UNL     1     208.910 203.814 207.880  1.00  0.00     0.000 C 
BRANCH  17  18
ATOM     18  C   UNL     1     207.627 203.252 208.520  1.00  0.00     0.000 C 
BRANCH  18  19
ATOM     19  C   UNL     1     207.853 201.977 209.360  1.00  0.00     0.000 C 
BRANCH  19  20
ATOM     20  C   UNL     1     209.224 201.327 209.097  1.00  0.00     0.000 C 
BRANCH  20  21
ATOM     21  C   UNL     1     209.368 199.956 209.777  1.00  0.00     0.000 C 
BRANCH  21  22
ATOM     22  C   UNL     1     210.837 199.557 209.998  1.00  0.00     0.000 C 
BRANCH  22  23
ATOM     23  C   UNL     1     211.007 198.037 210.207  1.00  0.00     0.000 C 
BRANCH  23  24
ATOM     24  C   UNL     1     212.232 197.660 211.057  1.00  0.00     0.000 C 
BRANCH  24  25
ATOM     25  C   UNL     1     212.140 198.167 212.502  1.00  0.00     0.000 C 
BRANCH  25  26
ATOM     26  C   UNL     1     212.583 197.085 213.495  1.00  0.00     0.000 C 
BRANCH  26  27
ATOM     27  C   UNL     1     213.710 197.598 214.404  1.00  0.00     0.002 C 
BRANCH  27  28
ATOM     28  C   UNL     1     213.258 197.791 215.861  1.00  0.00     0.028 C 
BRANCH  28  29
ATOM     29  C   UNL     1     212.293 196.708 216.363  1.00  0.00     0.156 C 
BRANCH  29  30
ATOM     30  O   UNL     1     211.137 197.285 216.914  1.00  0.00    -0.396 OA
ATOM     31  H   UNL     1     210.445 197.269 216.204  1.00  0.00     0.210 HD
ENDBRANCH  29  30
ENDBRANCH  28  29
ENDBRANCH  27  28
ENDBRANCH  26  27
ENDBRANCH  25  26
ENDBRANCH  24  25
ENDBRANCH  23  24
ENDBRANCH  22  23
ENDBRANCH  21  22
ENDBRANCH  20  21
ENDBRANCH  19  20
ENDBRANCH  18  19
ENDBRANCH  17  18
ENDBRANCH   1  17
TORSDOF 28
ENDMDL
MODEL 2
REMARK VINA RESULT:    -4.048      3.091      4.585
REMARK INTER + INTRA:         -13.392
REMARK INTER:                  -8.685
REMARK INTRA:                  -4.707
REMARK UNBOUND:                -2.835
REMARK SMILES CCCCCCCCCCCCCCCCCCCCCCCCCCCCCO
REMARK SMILES IDX 16 1 15 2 14 3 13 4 12 5 11 6 10 7 9 8 8 9 7 10 6 11 5 12
REMARK SMILES IDX 4 13 3 14 2 15 1 16 17 17 18 18 19 19 20 20 21 21 22 22
REMARK SMILES IDX 23 23 24 24 25 25 26 26 27 27 28 28 29 29 30 30
REMARK H PARENT 30 31
REMARK Flexibility Score: inf
ROOT
ATOM      1  C   UNL     1     210.960 206.834 207.568  1.00  0.00     0.000 C 
ENDROOT
BRANCH   1   2
ATOM      2  C   UNL     1     211.456 208.000 206.692  1.00  0.00     0.000 C 
BRANCH   2   3
ATOM      3  C   UNL     1     212.713 207.716 205.849  1.00  0.00     0.000 C 
BRANCH   3   4
ATOM      4  C   UNL     1     213.062 206.218 205.706  1.00  0.00     0.000 C 
BRANCH   4   5
ATOM      5  C   UNL     1     212.906 205.699 204.265  1.00  0.00     0.000 C 
BRANCH   5   6
ATOM      6  C   UNL     1     211.630 204.863 204.069  1.00  0.00     0.000 C 
BRANCH   6   7
ATOM      7  C   UNL     1     210.362 205.723 203.956  1.00  0.00     0.000 C 
BRANCH   7   8
ATOM      8  C   UNL     1     209.183 204.879 203.447  1.00  0.00    -0.000 C 
BRANCH   8   9
ATOM      9  C   UNL     1     209.337 203.382 203.760  1.00  0.00    -0.000 C 
BRANCH   9  10
ATOM     10  C   UNL     1     207.998 202.713 204.121  1.00  0.00    -0.000 C 
BRANCH  10  11
ATOM     11  C   UNL     1     207.055 203.656 204.889  1.00  0.00    -0.000 C 
BRANCH  11  12
ATOM     12  C   UNL     1     205.875 202.911 205.541  1.00  0.00    -0.000 C 
BRANCH  12  13
ATOM     13  C   UNL     1     205.848 203.059 207.071  1.00  0.00    -0.000 C 
BRANCH  13  14
ATOM     14  C   UNL     1     206.926 202.207 207.763  1.00  0.00    -0.000 C 
BRANCH  14  15
ATOM     15  C   UNL     1     206.999 202.468 209.277  1.00  0.00    -0.003 C 
ATOM     16  C   UNL     1     207.153 201.183 210.092  1.00  0.00     0.004 C 
ENDBRANCH  14  15
ENDBRANCH  13  14
ENDBRANCH  12  13
ENDBRANCH  11  12
ENDBRANCH  10  11
ENDBRANCH   9  10
ENDBRANCH   8   9
ENDBRANCH   7   8
ENDBRANCH   6   7
ENDBRANCH   5   6
ENDBRANCH   4   5
ENDBRANCH   3   4
ENDBRANCH   2   3
ENDBRANCH   1   2
BRANCH   1  17
ATOM     17  C   UNL     1     209.465 206.493 207.425  1.00  0.00     0.000 C 
BRANCH  17  18
ATOM     18  C   UNL     1     209.115 204.999 207.561  1.00  0.00     0.000 C 
BRANCH  18  19
ATOM     19  C   UNL     1     210.299 204.049 207.283  1.00  0.00     0.000 C 
BRANCH  19  20
ATOM     20  C   UNL     1     210.349 202.861 208.260  1.00  0.00     0.000 C 
BRANCH  20  21
ATOM     21  C   UNL     1     211.297 201.747 207.787  1.00  0.00     0.000 C 
BRANCH  21  22
ATOM     22  C   UNL     1     212.007 202.095 206.467  1.00  0.00     0.000 C 
BRANCH  22  23
ATOM     23  C   UNL     1     213.108 201.075 206.107  1.00  0.00     0.000 C 
BRANCH  23  24
ATOM     24  C   UNL     1     212.577 199.802 205.426  1.00  0.00     0.000 C 
BRANCH  24  25
ATOM     25  C   UNL     1     212.898 198.523 206.209  1.00  0.00     0.000 C 
BRANCH  25  26
ATOM     26  C   UNL     1     213.558 198.852 207.554  1.00  0.00     0.000 C 
BRANCH  26  27
ATOM     27  C   UNL     1     212.973 197.991 208.683  1.00  0.00     0.002 C 
BRANCH  27  28
ATOM     28  C   UNL     1     211.580 198.464 209.131  1.00  0.00     0.028 C 
BRANCH  28  29
ATOM     29  C   UNL     1     211.442 198.646 210.649  1.00  0.00     0.156 C 
BRANCH  29  30
ATOM     30  O   UNL     1     211.197 199.991 210.971  1.00  0.00    -0.396 OA
ATOM     31  H   UNL     1     211.847 200.531 210.451  1.00  0.00     0.210 HD
ENDBRANCH  29  30
ENDBRANCH  28  29
ENDBRANCH  27  28
ENDBRANCH  26  27
ENDBRANCH  25  26
ENDBRANCH  24  25
ENDBRANCH  23  24
ENDBRANCH  22  23
ENDBRANCH  21  22
ENDBRANCH  20  21
ENDBRANCH  19  20
ENDBRANCH  18  19
ENDBRANCH  17  18
ENDBRANCH   1  17
TORSDOF 28
ENDMDL
MODEL 3
REMARK VINA RESULT:    -4.024      5.581      9.185
REMARK INTER + INTRA:         -13.328
REMARK INTER:                  -9.133
REMARK INTRA:                  -4.195
REMARK UNBOUND:                -2.835
REMARK SMILES CCCCCCCCCCCCCCCCCCCCCCCCCCCCCO
REMARK SMILES IDX 16 1 15 2 14 3 13 4 12 5 11 6 10 7 9 8 8 9 7 10 6 11 5 12
REMARK SMILES IDX 4 13 3 14 2 15 1 16 17 17 18 18 19 19 20 20 21 21 22 22
REMARK SMILES IDX 23 23 24 24 25 25 26 26 27 27 28 28 29 29 30 30
REMARK H PARENT 30 31
REMARK Flexibility Score: inf
ROOT
ATOM      1  C   UNL     1     203.762 206.578 205.663  1.00  0.00     0.000 C 
ENDROOT
BRANCH   1   2
ATOM      2  C   UNL     1     202.718 206.587 204.530  1.00  0.00     0.000 C 
BRANCH   2   3
ATOM      3  C   UNL     1     202.647 205.305 203.678  1.00  0.00     0.000 C 
BRANCH   3   4
ATOM      4  C   UNL     1     201.227 204.721 203.518  1.00  0.00     0.000 C 
BRANCH   4   5
ATOM      5  C   UNL     1     201.149 203.224 203.869  1.00  0.00     0.000 C 
BRANCH   5   6
ATOM      6  C   UNL     1     202.285 202.771 204.799  1.00  0.00     0.000 C 
BRANCH   6   7
ATOM      7  C   UNL     1     201.828 202.571 206.252  1.00  0.00     0.000 C 
BRANCH   7   8
ATOM      8  C   UNL     1     202.058 203.850 207.071  1.00  0.00    -0.000 C 
BRANCH   8   9
ATOM      9  C   UNL     1     200.771 204.661 207.294  1.00  0.00    -0.000 C 
BRANCH   9  10
ATOM     10  C   UNL     1     199.851 204.028 208.354  1.00  0.00    -0.000 C 
BRANCH  10  11
ATOM     11  C   UNL     1     198.448 203.711 207.806  1.00  0.00    -0.000 C 
BRANCH  11  12
ATOM     12  C   UNL     1     198.384 203.778 206.268  1.00  0.00    -0.000 C 
BRANCH  12  13
ATOM     13  C   UNL     1     197.998 202.434 205.629  1.00  0.00    -0.000 C 
BRANCH  13  14
ATOM     14  C   UNL     1     198.398 201.231 206.500  1.00  0.00    -0.000 C 
BRANCH  14  15
ATOM     15  C   UNL     1     197.212 200.296 206.791  1.00  0.00    -0.003 C 
ATOM     16  C   UNL     1     195.863 200.921 206.434  1.00  0.00     0.004 C 
ENDBRANCH  14  15
ENDBRANCH  13  14
ENDBRANCH  12  13
ENDBRANCH  11  12
ENDBRANCH  10  11
ENDBRANCH   9  10
ENDBRANCH   8   9
ENDBRANCH   7   8
ENDBRANCH   6   7
ENDBRANCH   5   6
ENDBRANCH   4   5
ENDBRANCH   3   4
ENDBRANCH   2   3
ENDBRANCH   1   2
BRANCH   1  17
ATOM     17  C   UNL     1     205.230 206.502 205.204  1.00  0.00     0.000 C 
BRANCH  17  18
ATOM     18  C   UNL     1     206.074 205.403 205.878  1.00  0.00     0.000 C 
BRANCH  18  19
ATOM     19  C   UNL     1     205.573 203.970 205.600  1.00  0.00     0.000 C 
BRANCH  19  20
ATOM     20  C   UNL     1     205.368 203.153 206.889  1.00  0.00     0.000 C 
BRANCH  20  21
ATOM     21  C   UNL     1     206.590 202.290 207.242  1.00  0.00     0.000 C 
BRANCH  21  22
ATOM     22  C   UNL     1     207.227 202.688 208.586  1.00  0.00     0.000 C 
BRANCH  22  23
ATOM     23  C   UNL     1     208.332 203.752 208.418  1.00  0.00     0.000 C 
BRANCH  23  24
ATOM     24  C   UNL     1     209.159 203.592 207.131  1.00  0.00     0.000 C 
BRANCH  24  25
ATOM     25  C   UNL     1     210.242 204.668 206.976  1.00  0.00     0.000 C 
BRANCH  25  26
ATOM     26  C   UNL     1     209.880 205.932 207.766  1.00  0.00     0.000 C 
BRANCH  26  27
ATOM     27  C   UNL     1     209.993 207.185 206.886  1.00  0.00     0.002 C 
BRANCH  27  28
ATOM     28  C   UNL     1     211.408 207.787 206.885  1.00  0.00     0.028 C 
BRANCH  28  29
ATOM     29  C   UNL     1     211.441 209.304 206.653  1.00  0.00     0.156 C 
BRANCH  29  30
ATOM     30  O   UNL     1     210.614 209.969 207.573  1.00  0.00    -0.396 OA
ATOM     31  H   UNL     1     209.883 210.386 207.048  1.00  0.00     0.210 HD
ENDBRANCH  29  30
ENDBRANCH  28  29
ENDBRANCH  27  28
ENDBRANCH  26  27
ENDBRANCH  25  26
ENDBRANCH  24  25
ENDBRANCH  23  24
ENDBRANCH  22  23
ENDBRANCH  21  22
ENDBRANCH  20  21
ENDBRANCH  19  20
ENDBRANCH  18  19
ENDBRANCH  17  18
ENDBRANCH   1  17
TORSDOF 28
ENDMDL
MODEL 4
REMARK VINA RESULT:    -4.022     10.849     14.731
REMARK INTER + INTRA:         -13.323
REMARK INTER:                  -8.210
REMARK INTRA:                  -5.113
REMARK UNBOUND:                -2.835
REMARK SMILES CCCCCCCCCCCCCCCCCCCCCCCCCCCCCO
REMARK SMILES IDX 16 1 15 2 14 3 13 4 12 5 11 6 10 7 9 8 8 9 7 10 6 11 5 12
REMARK SMILES IDX 4 13 3 14 2 15 1 16 17 17 18 18 19 19 20 20 21 21 22 22
REMARK SMILES IDX 23 23 24 24 25 25 26 26 27 27 28 28 29 29 30 30
REMARK H PARENT 30 31
REMARK Flexibility Score: inf
ROOT
ATOM      1  C   UNL     1     200.099 205.358 209.244  1.00  0.00     0.000 C 
ENDROOT
BRANCH   1   2
ATOM      2  C   UNL     1     199.919 204.695 207.865  1.00  0.00     0.000 C 
BRANCH   2   3
ATOM      3  C   UNL     1     199.247 203.309 207.871  1.00  0.00     0.000 C 
BRANCH   3   4
ATOM      4  C   UNL     1     197.735 203.330 207.557  1.00  0.00     0.000 C 
BRANCH   4   5
ATOM      5  C   UNL     1     197.161 201.931 207.269  1.00  0.00     0.000 C 
BRANCH   5   6
ATOM      6  C   UNL     1     196.375 201.870 205.949  1.00  0.00     0.000 C 
BRANCH   6   7
ATOM      7  C   UNL     1     195.062 201.081 206.067  1.00  0.00     0.000 C 
BRANCH   7   8
ATOM      8  C   UNL     1     194.279 201.137 204.747  1.00  0.00    -0.000 C 
BRANCH   8   9
ATOM      9  C   UNL     1     195.155 201.523 203.544  1.00  0.00    -0.000 C 
BRANCH   9  10
ATOM     10  C   UNL     1     195.708 200.295 202.799  1.00  0.00    -0.000 C 
BRANCH  10  11
ATOM     11  C   UNL     1     194.595 199.374 202.269  1.00  0.00    -0.000 C 
BRANCH  11  12
ATOM     12  C   UNL     1     194.859 197.888 202.576  1.00  0.00    -0.000 C 
BRANCH  12  13
ATOM     13  C   UNL     1     194.640 197.536 204.056  1.00  0.00    -0.000 C 
BRANCH  13  14
ATOM     14  C   UNL     1     195.885 196.902 204.700  1.00  0.00    -0.000 C 
BRANCH  14  15
ATOM     15  C   UNL     1     196.536 197.820 205.747  1.00  0.00    -0.003 C 
ATOM     16  C   UNL     1     197.761 198.559 205.207  1.00  0.00     0.004 C 
ENDBRANCH  14  15
ENDBRANCH  13  14
ENDBRANCH  12  13
ENDBRANCH  11  12
ENDBRANCH  10  11
ENDBRANCH   9  10
ENDBRANCH   8   9
ENDBRANCH   7   8
ENDBRANCH   6   7
ENDBRANCH   5   6
ENDBRANCH   4   5
ENDBRANCH   3   4
ENDBRANCH   2   3
ENDBRANCH   1   2
BRANCH   1  17
ATOM     17  C   UNL     1     199.235 206.610 209.489  1.00  0.00     0.000 C 
BRANCH  17  18
ATOM     18  C   UNL     1     197.715 206.392 209.379  1.00  0.00     0.000 C 
BRANCH  18  19
ATOM     19  C   UNL     1     196.892 207.698 209.396  1.00  0.00     0.000 C 
BRANCH  19  20
ATOM     20  C   UNL     1     195.839 207.751 208.274  1.00  0.00     0.000 C 
BRANCH  20  21
ATOM     21  C   UNL     1     195.719 206.421 207.514  1.00  0.00     0.000 C 
BRANCH  21  22
ATOM     22  C   UNL     1     195.738 206.608 205.987  1.00  0.00     0.000 C 
BRANCH  22  23
ATOM     23  C   UNL     1     195.359 205.315 205.233  1.00  0.00     0.000 C 
BRANCH  23  24
ATOM     24  C   UNL     1     196.104 205.132 203.900  1.00  0.00     0.000 C 
BRANCH  24  25
ATOM     25  C   UNL     1     197.626 205.041 204.071  1.00  0.00     0.000 C 
BRANCH  25  26
ATOM     26  C   UNL     1     198.180 203.772 203.410  1.00  0.00     0.000 C 
BRANCH  26  27
ATOM     27  C   UNL     1     199.354 203.197 204.216  1.00  0.00     0.002 C 
BRANCH  27  28
ATOM     28  C   UNL     1     199.599 201.706 203.927  1.00  0.00     0.028 C 
BRANCH  28  29
ATOM     29  C   UNL     1     201.015 201.228 204.278  1.00  0.00     0.156 C 
BRANCH  29  30
ATOM     30  O   UNL     1     201.187 201.152 205.670  1.00  0.00    -0.396 OA
ATOM     31  H   UNL     1     202.063 201.571 205.872  1.00  0.00     0.210 HD
ENDBRANCH  29  30
ENDBRANCH  28  29
ENDBRANCH  27  28
ENDBRANCH  26  27
ENDBRANCH  25  26
ENDBRANCH  24  25
ENDBRANCH  23  24
ENDBRANCH  22  23
ENDBRANCH  21  22
ENDBRANCH  20  21
ENDBRANCH  19  20
ENDBRANCH  18  19
ENDBRANCH  17  18
ENDBRANCH   1  17
TORSDOF 28
ENDMDL
MODEL 5
REMARK VINA RESULT:    -4.004      6.536     10.414
REMARK INTER + INTRA:         -13.277
REMARK INTER:                 -10.064
REMARK INTRA:                  -3.214
REMARK UNBOUND:                -2.835
REMARK SMILES CCCCCCCCCCCCCCCCCCCCCCCCCCCCCO
REMARK SMILES IDX 16 1 15 2 14 3 13 4 12 5 11 6 10 7 9 8 8 9 7 10 6 11 5 12
REMARK SMILES IDX 4 13 3 14 2 15 1 16 17 17 18 18 19 19 20 20 21 21 22 22
REMARK SMILES IDX 23 23 24 24 25 25 26 26 27 27 28 28 29 29 30 30
REMARK H PARENT 30 31
REMARK Flexibility Score: inf
ROOT
ATOM      1  C   UNL     1     201.070 202.307 206.009  1.00  0.00     0.000 C 
ENDROOT
BRANCH   1   2
ATOM      2  C   UNL     1     201.361 203.819 206.071  1.00  0.00     0.000 C 
BRANCH   2   3
ATOM      3  C   UNL     1     201.671 204.383 207.471  1.00  0.00     0.000 C 
BRANCH   3   4
ATOM      4  C   UNL     1     200.607 204.056 208.541  1.00  0.00     0.000 C 
BRANCH   4   5
ATOM      5  C   UNL     1     199.929 205.312 209.119  1.00  0.00     0.000 C 
BRANCH   5   6
ATOM      6  C   UNL     1     198.465 205.455 208.673  1.00  0.00     0.000 C 
BRANCH   6   7
ATOM      7  C   UNL     1     197.907 204.178 208.027  1.00  0.00     0.000 C 
BRANCH   7   8
ATOM      8  C   UNL     1     197.107 204.520 206.760  1.00  0.00    -0.000 C 
BRANCH   8   9
ATOM      9  C   UNL     1     197.875 204.210 205.464  1.00  0.00    -0.000 C 
BRANCH   9  10
ATOM     10  C   UNL     1     196.960 203.664 204.353  1.00  0.00    -0.000 C 
BRANCH  10  11
ATOM     11  C   UNL     1     195.615 203.150 204.894  1.00  0.00    -0.000 C 
BRANCH  11  12
ATOM     12  C   UNL     1     195.258 201.749 204.363  1.00  0.00    -0.000 C 
BRANCH  12  13
ATOM     13  C   UNL     1     196.488 200.963 203.881  1.00  0.00    -0.000 C 
BRANCH  13  14
ATOM     14  C   UNL     1     196.884 199.837 204.851  1.00  0.00    -0.000 C 
BRANCH  14  15
ATOM     15  C   UNL     1     198.030 200.247 205.791  1.00  0.00    -0.003 C 
ATOM     16  C   UNL     1     197.535 200.730 207.154  1.00  0.00     0.004 C 
ENDBRANCH  14  15
ENDBRANCH  13  14
ENDBRANCH  12  13
ENDBRANCH  11  12
ENDBRANCH  10  11
ENDBRANCH   9  10
ENDBRANCH   8   9
ENDBRANCH   7   8
ENDBRANCH   6   7
ENDBRANCH   5   6
ENDBRANCH   4   5
ENDBRANCH   3   4
ENDBRANCH   2   3
ENDBRANCH   1   2
BRANCH   1  17
ATOM     17  C   UNL     1     202.099 201.471 205.225  1.00  0.00     0.000 C 
BRANCH  17  18
ATOM     18  C   UNL     1     203.425 201.201 205.962  1.00  0.00     0.000 C 
BRANCH  18  19
ATOM     19  C   UNL     1     204.579 202.134 205.537  1.00  0.00     0.000 C 
BRANCH  19  20
ATOM     20  C   UNL     1     205.097 203.003 206.698  1.00  0.00     0.000 C 
BRANCH  20  21
ATOM     21  C   UNL     1     206.449 202.515 207.243  1.00  0.00     0.000 C 
BRANCH  21  22
ATOM     22  C   UNL     1     207.397 203.674 207.596  1.00  0.00     0.000 C 
BRANCH  22  23
ATOM     23  C   UNL     1     208.815 203.182 207.956  1.00  0.00     0.000 C 
BRANCH  23  24
ATOM     24  C   UNL     1     209.930 204.177 207.590  1.00  0.00     0.000 C 
BRANCH  24  25
ATOM     25  C   UNL     1     209.465 205.639 207.628  1.00  0.00     0.000 C 
BRANCH  25  26
ATOM     26  C   UNL     1     210.628 206.578 207.973  1.00  0.00     0.000 C 
BRANCH  26  27
ATOM     27  C   UNL     1     211.594 206.722 206.788  1.00  0.00     0.002 C 
BRANCH  27  28
ATOM     28  C   UNL     1     211.886 208.189 206.433  1.00  0.00     0.028 C 
BRANCH  28  29
ATOM     29  C   UNL     1     210.655 209.104 206.503  1.00  0.00     0.156 C 
BRANCH  29  30
ATOM     30  O   UNL     1     210.764 210.009 207.571  1.00  0.00    -0.396 OA
ATOM     31  H   UNL     1     210.530 209.507 208.394  1.00  0.00     0.210 HD
ENDBRANCH  29  30
ENDBRANCH  28  29
ENDBRANCH  27  28
ENDBRANCH  26  27
ENDBRANCH  25  26
ENDBRANCH  24  25
ENDBRANCH  23  24
ENDBRANCH  22  23
ENDBRANCH  21  22
ENDBRANCH  20  21
ENDBRANCH  19  20
ENDBRANCH  18  19
ENDBRANCH  17  18
ENDBRANCH   1  17
TORSDOF 28
ENDMDL
MODEL 6
REMARK VINA RESULT:    -3.940      5.595     10.187
REMARK INTER + INTRA:         -13.109
REMARK INTER:                  -8.684
REMARK INTRA:                  -4.426
REMARK UNBOUND:                -2.835
REMARK SMILES CCCCCCCCCCCCCCCCCCCCCCCCCCCCCO
REMARK SMILES IDX 16 1 15 2 14 3 13 4 12 5 11 6 10 7 9 8 8 9 7 10 6 11 5 12
REMARK SMILES IDX 4 13 3 14 2 15 1 16 17 17 18 18 19 19 20 20 21 21 22 22
REMARK SMILES IDX 23 23 24 24 25 25 26 26 27 27 28 28 29 29 30 30
REMARK H PARENT 30 31
REMARK Flexibility Score: inf
ROOT
ATOM      1  C   UNL     1     206.384 206.107 204.651  1.00  0.00     0.000 C 
ENDROOT
BRANCH   1   2
ATOM      2  C   UNL     1     207.851 205.861 205.054  1.00  0.00     0.000 C 
BRANCH   2   3
ATOM      3  C   UNL     1     208.624 204.853 204.183  1.00  0.00     0.000 C 
BRANCH   3   4
ATOM      4  C   UNL     1     208.312 203.372 204.491  1.00  0.00     0.000 C 
BRANCH   4   5
ATOM      5  C   UNL     1     207.467 202.695 203.396  1.00  0.00     0.000 C 
BRANCH   5   6
ATOM      6  C   UNL     1     206.378 201.774 203.970  1.00  0.00     0.000 C 
BRANCH   6   7
ATOM      7  C   UNL     1     205.221 202.547 204.622  1.00  0.00     0.000 C 
BRANCH   7   8
ATOM      8  C   UNL     1     205.011 202.081 206.071  1.00  0.00    -0.000 C 
BRANCH   8   9
ATOM      9  C   UNL     1     205.602 203.051 207.106  1.00  0.00    -0.000 C 
BRANCH   9  10
ATOM     10  C   UNL     1     206.829 202.467 207.830  1.00  0.00    -0.000 C 
BRANCH  10  11
ATOM     11  C   UNL     1     207.913 203.525 208.103  1.00  0.00    -0.000 C 
BRANCH  11  12
ATOM     12  C   UNL     1     209.326 202.918 208.181  1.00  0.00    -0.000 C 
BRANCH  12  13
ATOM     13  C   UNL     1     210.401 203.826 207.562  1.00  0.00    -0.000 C 
BRANCH  13  14
ATOM     14  C   UNL     1     210.150 205.316 207.852  1.00  0.00    -0.000 C 
BRANCH  14  15
ATOM     15  C   UNL     1     211.049 206.238 207.012  1.00  0.00    -0.003 C 
ATOM     16  C   UNL     1     210.497 207.659 206.895  1.00  0.00     0.004 C 
ENDBRANCH  14  15
ENDBRANCH  13  14
ENDBRANCH  12  13
ENDBRANCH  11  12
ENDBRANCH  10  11
ENDBRANCH   9  10
ENDBRANCH   8   9
ENDBRANCH   7   8
ENDBRANCH   6   7
ENDBRANCH   5   6
ENDBRANCH   4   5
ENDBRANCH   3   4
ENDBRANCH   2   3
ENDBRANCH   1   2
BRANCH   1  17
ATOM     17  C   UNL     1     205.387 206.198 205.822  1.00  0.00     0.000 C 
BRANCH  17  18
ATOM     18  C   UNL     1     204.186 207.135 205.591  1.00  0.00     0.000 C 
BRANCH  18  19
ATOM     19  C   UNL     1     202.840 206.562 206.083  1.00  0.00     0.000 C 
BRANCH  19  20
ATOM     20  C   UNL     1     202.649 205.083 205.699  1.00  0.00     0.000 C 
BRANCH  20  21
ATOM     21  C   UNL     1     202.038 204.252 206.839  1.00  0.00     0.000 C 
BRANCH  21  22
ATOM     22  C   UNL     1     201.338 205.122 207.897  1.00  0.00     0.000 C 
BRANCH  22  23
ATOM     23  C   UNL     1     200.260 204.341 208.679  1.00  0.00     0.000 C 
BRANCH  23  24
ATOM     24  C   UNL     1     198.826 204.597 208.184  1.00  0.00     0.000 C 
BRANCH  24  25
ATOM     25  C   UNL     1     198.261 203.436 207.355  1.00  0.00     0.000 C 
BRANCH  25  26
ATOM     26  C   UNL     1     199.066 202.151 207.587  1.00  0.00     0.000 C 
BRANCH  26  27
ATOM     27  C   UNL     1     199.201 201.341 206.289  1.00  0.00     0.002 C 
BRANCH  27  28
ATOM     28  C   UNL     1     198.094 201.662 205.270  1.00  0.00     0.028 C 
BRANCH  28  29
ATOM     29  C   UNL     1     197.135 200.493 205.003  1.00  0.00     0.156 C 
BRANCH  29  30
ATOM     30  O   UNL     1     197.463 199.842 203.803  1.00  0.00    -0.396 OA
ATOM     31  H   UNL     1     196.806 199.108 203.688  1.00  0.00     0.210 HD
ENDBRANCH  29  30
ENDBRANCH  28  29
ENDBRANCH  27  28
ENDBRANCH  26  27
ENDBRANCH  25  26
ENDBRANCH  24  25
ENDBRANCH  23  24
ENDBRANCH  22  23
ENDBRANCH  21  22
ENDBRANCH  20  21
ENDBRANCH  19  20
ENDBRANCH  18  19
ENDBRANCH  17  18
ENDBRANCH   1  17
TORSDOF 28
ENDMDL
MODEL 7
REMARK VINA RESULT:    -3.939      4.792      8.550
REMARK INTER + INTRA:         -13.106
REMARK INTER:                  -8.083
REMARK INTRA:                  -5.023
REMARK UNBOUND:                -2.835
REMARK SMILES CCCCCCCCCCCCCCCCCCCCCCCCCCCCCO
REMARK SMILES IDX 16 1 15 2 14 3 13 4 12 5 11 6 10 7 9 8 8 9 7 10 6 11 5 12
REMARK SMILES IDX 4 13 3 14 2 15 1 16 17 17 18 18 19 19 20 20 21 21 22 22
REMARK SMILES IDX 23 23 24 24 25 25 26 26 27 27 28 28 29 29 30 30
REMARK H PARENT 30 31
REMARK Flexibility Score: inf
ROOT
ATOM      1  C   UNL     1     204.977 200.256 206.381  1.00  0.00     0.000 C 
ENDROOT
BRANCH   1   2
ATOM      2  C   UNL     1     204.256 201.557 205.981  1.00  0.00     0.000 C 
BRANCH   2   3
ATOM      3  C   UNL     1     202.813 201.391 205.468  1.00  0.00     0.000 C 
BRANCH   3   4
ATOM      4  C   UNL     1     202.383 202.439 204.419  1.00  0.00     0.000 C 
BRANCH   4   5
ATOM      5  C   UNL     1     201.692 201.814 203.193  1.00  0.00     0.000 C 
BRANCH   5   6
ATOM      6  C   UNL     1     200.879 200.557 203.544  1.00  0.00     0.000 C 
BRANCH   6   7
ATOM      7  C   UNL     1     199.371 200.828 203.650  1.00  0.00     0.000 C 
BRANCH   7   8
ATOM      8  C   UNL     1     198.887 200.631 205.096  1.00  0.00    -0.000 C 
BRANCH   8   9
ATOM      9  C   UNL     1     198.602 201.957 205.819  1.00  0.00    -0.000 C 
BRANCH   9  10
ATOM     10  C   UNL     1     199.539 202.188 207.019  1.00  0.00    -0.000 C 
BRANCH  10  11
ATOM     11  C   UNL     1     199.203 203.476 207.792  1.00  0.00    -0.000 C 
BRANCH  11  12
ATOM     12  C   UNL     1     200.449 204.138 208.409  1.00  0.00    -0.000 C 
BRANCH  12  13
ATOM     13  C   UNL     1     201.622 204.241 207.421  1.00  0.00    -0.000 C 
BRANCH  13  14
ATOM     14  C   UNL     1     202.002 205.698 207.107  1.00  0.00    -0.000 C 
BRANCH  14  15
ATOM     15  C   UNL     1     202.723 205.841 205.757  1.00  0.00    -0.003 C 
ATOM     16  C   UNL     1     204.238 205.670 205.873  1.00  0.00     0.004 C 
ENDBRANCH  14  15
ENDBRANCH  13  14
ENDBRANCH  12  13
ENDBRANCH  11  12
ENDBRANCH  10  11
ENDBRANCH   9  10
ENDBRANCH   8   9
ENDBRANCH   7   8
ENDBRANCH   6   7
ENDBRANCH   5   6
ENDBRANCH   4   5
ENDBRANCH   3   4
ENDBRANCH   2   3
ENDBRANCH   1   2
BRANCH   1  17
ATOM     17  C   UNL     1     204.478 198.983 205.670  1.00  0.00     0.000 C 
BRANCH  17  18
ATOM     18  C   UNL     1     205.161 198.670 204.325  1.00  0.00     0.000 C 
BRANCH  18  19
ATOM     19  C   UNL     1     204.314 199.043 203.090  1.00  0.00     0.000 C 
BRANCH  19  20
ATOM     20  C   UNL     1     204.909 200.220 202.296  1.00  0.00     0.000 C 
BRANCH  20  21
ATOM     21  C   UNL     1     206.290 200.647 202.818  1.00  0.00     0.000 C 
BRANCH  21  22
ATOM     22  C   UNL     1     206.381 202.160 203.081  1.00  0.00     0.000 C 
BRANCH  22  23
ATOM     23  C   UNL     1     207.490 202.513 204.096  1.00  0.00     0.000 C 
BRANCH  23  24
ATOM     24  C   UNL     1     207.125 203.675 205.035  1.00  0.00     0.000 C 
BRANCH  24  25
ATOM     25  C   UNL     1     208.309 204.154 205.886  1.00  0.00     0.000 C 
BRANCH  25  26
ATOM     26  C   UNL     1     208.487 203.271 207.128  1.00  0.00     0.000 C 
BRANCH  26  27
ATOM     27  C   UNL     1     207.146 203.044 207.841  1.00  0.00     0.002 C 
BRANCH  27  28
ATOM     28  C   UNL     1     207.317 202.509 209.273  1.00  0.00     0.028 C 
BRANCH  28  29
ATOM     29  C   UNL     1     207.452 200.982 209.356  1.00  0.00     0.156 C 
BRANCH  29  30
ATOM     30  O   UNL     1     208.763 200.613 209.697  1.00  0.00    -0.396 OA
ATOM     31  H   UNL     1     208.702 200.086 210.535  1.00  0.00     0.210 HD
ENDBRANCH  29  30
ENDBRANCH  28  29
ENDBRANCH  27  28
ENDBRANCH  26  27
ENDBRANCH  25  26
ENDBRANCH  24  25
ENDBRANCH  23  24
ENDBRANCH  22  23
ENDBRANCH  21  22
ENDBRANCH  20  21
ENDBRANCH  19  20
ENDBRANCH  18  19
ENDBRANCH  17  18
ENDBRANCH   1  17
TORSDOF 28
ENDMDL
MODEL 8
REMARK VINA RESULT:    -3.933      4.923      8.570
REMARK INTER + INTRA:         -13.091
REMARK INTER:                  -7.813
REMARK INTRA:                  -5.278
REMARK UNBOUND:                -2.835
REMARK SMILES CCCCCCCCCCCCCCCCCCCCCCCCCCCCCO
REMARK SMILES IDX 16 1 15 2 14 3 13 4 12 5 11 6 10 7 9 8 8 9 7 10 6 11 5 12
REMARK SMILES IDX 4 13 3 14 2 15 1 16 17 17 18 18 19 19 20 20 21 21 22 22
REMARK SMILES IDX 23 23 24 24 25 25 26 26 27 27 28 28 29 29 30 30
REMARK H PARENT 30 31
REMARK Flexibility Score: inf
ROOT
ATOM      1  C   UNL     1     206.884 203.115 207.644  1.00  0.00     0.000 C 
ENDROOT
BRANCH   1   2
ATOM      2  C   UNL     1     207.054 202.378 208.986  1.00  0.00     0.000 C 
BRANCH   2   3
ATOM      3  C   UNL     1     208.412 201.682 209.199  1.00  0.00     0.000 C 
BRANCH   3   4
ATOM      4  C   UNL     1     209.601 202.373 208.498  1.00  0.00     0.000 C 
BRANCH   4   5
ATOM      5  C   UNL     1     210.791 201.425 208.255  1.00  0.00     0.000 C 
BRANCH   5   6
ATOM      6  C   UNL     1     211.648 201.844 207.050  1.00  0.00     0.000 C 
BRANCH   6   7
ATOM      7  C   UNL     1     211.242 203.207 206.469  1.00  0.00     0.000 C 
BRANCH   7   8
ATOM      8  C   UNL     1     211.573 203.274 204.970  1.00  0.00    -0.000 C 
BRANCH   8   9
ATOM      9  C   UNL     1     210.345 203.583 204.097  1.00  0.00    -0.000 C 
BRANCH   9  10
ATOM     10  C   UNL     1     209.046 203.677 204.918  1.00  0.00    -0.000 C 
BRANCH  10  11
ATOM     11  C   UNL     1     208.236 204.946 204.599  1.00  0.00    -0.000 C 
BRANCH  11  12
ATOM     12  C   UNL     1     208.675 206.157 205.443  1.00  0.00    -0.000 C 
BRANCH  12  13
ATOM     13  C   UNL     1     208.773 205.835 206.943  1.00  0.00    -0.000 C 
BRANCH  13  14
ATOM     14  C   UNL     1     210.006 206.476 207.603  1.00  0.00    -0.000 C 
BRANCH  14  15
ATOM     15  C   UNL     1     210.835 207.311 206.614  1.00  0.00    -0.003 C 
ATOM     16  C   UNL     1     212.224 206.724 206.360  1.00  0.00     0.004 C 
ENDBRANCH  14  15
ENDBRANCH  13  14
ENDBRANCH  12  13
ENDBRANCH  11  12
ENDBRANCH  10  11
ENDBRANCH   9  10
ENDBRANCH   8   9
ENDBRANCH   7   8
ENDBRANCH   6   7
ENDBRANCH   5   6
ENDBRANCH   4   5
ENDBRANCH   3   4
ENDBRANCH   2   3
ENDBRANCH   1   2
BRANCH   1  17
ATOM     17  C   UNL     1     205.760 202.577 206.737  1.00  0.00     0.000 C 
BRANCH  17  18
ATOM     18  C   UNL     1     205.551 201.052 206.782  1.00  0.00     0.000 C 
BRANCH  18  19
ATOM     19  C   UNL     1     204.264 200.575 206.076  1.00  0.00     0.000 C 
BRANCH  19  20
ATOM     20  C   UNL     1     203.317 201.735 205.720  1.00  0.00     0.000 C 
BRANCH  20  21
ATOM     21  C   UNL     1     202.233 201.324 204.710  1.00  0.00     0.000 C 
BRANCH  21  22
ATOM     22  C   UNL     1     202.557 201.780 203.277  1.00  0.00     0.000 C 
BRANCH  22  23
ATOM     23  C   UNL     1     203.716 202.800 203.234  1.00  0.00     0.000 C 
BRANCH  23  24
ATOM     24  C   UNL     1     204.856 202.404 202.281  1.00  0.00     0.000 C 
BRANCH  24  25
ATOM     25  C   UNL     1     206.208 202.255 202.992  1.00  0.00     0.000 C 
BRANCH  25  26
ATOM     26  C   UNL     1     206.522 200.780 203.274  1.00  0.00     0.000 C 
BRANCH  26  27
ATOM     27  C   UNL     1     205.709 199.856 202.355  1.00  0.00     0.002 C 
BRANCH  27  28
ATOM     28  C   UNL     1     205.127 198.642 203.098  1.00  0.00     0.028 C 
BRANCH  28  29
ATOM     29  C   UNL     1     203.686 198.298 202.695  1.00  0.00     0.156 C 
BRANCH  29  30
ATOM     30  O   UNL     1     202.941 197.882 203.810  1.00  0.00    -0.396 OA
ATOM     31  H   UNL     1     203.540 197.957 204.596  1.00  0.00     0.210 HD
ENDBRANCH  29  30
ENDBRANCH  28  29
ENDBRANCH  27  28
ENDBRANCH  26  27
ENDBRANCH  25  26
ENDBRANCH  24  25
ENDBRANCH  23  24
ENDBRANCH  22  23
ENDBRANCH  21  22
ENDBRANCH  20  21
ENDBRANCH  19  20
ENDBRANCH  18  19
ENDBRANCH  17  18
ENDBRANCH   1  17
TORSDOF 28
ENDMDL
MODEL 9
REMARK VINA RESULT:    -3.928      4.910      8.616
REMARK INTER + INTRA:         -13.079
REMARK INTER:                  -7.282
REMARK INTRA:                  -5.797
REMARK UNBOUND:                -2.835
REMARK SMILES CCCCCCCCCCCCCCCCCCCCCCCCCCCCCO
REMARK SMILES IDX 16 1 15 2 14 3 13 4 12 5 11 6 10 7 9 8 8 9 7 10 6 11 5 12
REMARK SMILES IDX 4 13 3 14 2 15 1 16 17 17 18 18 19 19 20 20 21 21 22 22
REMARK SMILES IDX 23 23 24 24 25 25 26 26 27 27 28 28 29 29 30 30
REMARK H PARENT 30 31
REMARK Flexibility Score: inf
ROOT
ATOM      1  C   UNL     1     202.654 206.307 206.756  1.00  0.00     0.000 C 
ENDROOT
BRANCH   1   2
ATOM      2  C   UNL     1     203.550 207.497 206.365  1.00  0.00     0.000 C 
BRANCH   2   3
ATOM      3  C   UNL     1     202.936 208.497 205.367  1.00  0.00     0.000 C 
BRANCH   3   4
ATOM      4  C   UNL     1     203.723 208.647 204.047  1.00  0.00     0.000 C 
BRANCH   4   5
ATOM      5  C   UNL     1     203.133 207.811 202.896  1.00  0.00     0.000 C 
BRANCH   5   6
ATOM      6  C   UNL     1     201.721 207.288 203.205  1.00  0.00     0.000 C 
BRANCH   6   7
ATOM      7  C   UNL     1     201.391 205.980 202.469  1.00  0.00     0.000 C 
BRANCH   7   8
ATOM      8  C   UNL     1     200.109 205.351 203.034  1.00  0.00    -0.000 C 
BRANCH   8   9
ATOM      9  C   UNL     1     200.368 204.043 203.799  1.00  0.00    -0.000 C 
BRANCH   9  10
ATOM     10  C   UNL     1     199.534 203.938 205.089  1.00  0.00    -0.000 C 
BRANCH  10  11
ATOM     11  C   UNL     1     199.502 202.508 205.656  1.00  0.00    -0.000 C 
BRANCH  11  12
ATOM     12  C   UNL     1     199.613 202.477 207.192  1.00  0.00    -0.000 C 
BRANCH  12  13
ATOM     13  C   UNL     1     199.109 203.771 207.853  1.00  0.00    -0.000 C 
BRANCH  13  14
ATOM     14  C   UNL     1     200.133 204.368 208.833  1.00  0.00    -0.000 C 
BRANCH  14  15
ATOM     15  C   UNL     1     199.937 205.879 209.039  1.00  0.00    -0.003 C 
ATOM     16  C   UNL     1     198.474 206.261 209.270  1.00  0.00     0.004 C 
ENDBRANCH  14  15
ENDBRANCH  13  14
ENDBRANCH  12  13
ENDBRANCH  11  12
ENDBRANCH  10  11
ENDBRANCH   9  10
ENDBRANCH   8   9
ENDBRANCH   7   8
ENDBRANCH   6   7
ENDBRANCH   5   6
ENDBRANCH   4   5
ENDBRANCH   3   4
ENDBRANCH   2   3
ENDBRANCH   1   2
BRANCH   1  17
ATOM     17  C   UNL     1     202.881 205.018 205.943  1.00  0.00     0.000 C 
BRANCH  17  18
ATOM     18  C   UNL     1     203.053 203.736 206.778  1.00  0.00     0.000 C 
BRANCH  18  19
ATOM     19  C   UNL     1     203.490 202.505 205.955  1.00  0.00     0.000 C 
BRANCH  19  20
ATOM     20  C   UNL     1     203.673 202.825 204.460  1.00  0.00     0.000 C 
BRANCH  20  21
ATOM     21  C   UNL     1     204.973 202.240 203.885  1.00  0.00     0.000 C 
BRANCH  21  22
ATOM     22  C   UNL     1     205.868 203.311 203.237  1.00  0.00     0.000 C 
BRANCH  22  23
ATOM     23  C   UNL     1     205.235 204.718 203.297  1.00  0.00     0.000 C 
BRANCH  23  24
ATOM     24  C   UNL     1     206.024 205.717 204.161  1.00  0.00     0.000 C 
BRANCH  24  25
ATOM     25  C   UNL     1     207.132 205.052 204.987  1.00  0.00     0.000 C 
BRANCH  25  26
ATOM     26  C   UNL     1     206.649 204.743 206.410  1.00  0.00     0.000 C 
BRANCH  26  27
ATOM     27  C   UNL     1     207.063 203.328 206.840  1.00  0.00     0.002 C 
BRANCH  27  28
ATOM     28  C   UNL     1     206.838 203.073 208.340  1.00  0.00     0.028 C 
BRANCH  28  29
ATOM     29  C   UNL     1     207.464 201.768 208.851  1.00  0.00     0.156 C 
BRANCH  29  30
ATOM     30  O   UNL     1     207.543 201.766 210.253  1.00  0.00    -0.396 OA
ATOM     31  H   UNL     1     207.810 200.849 210.521  1.00  0.00     0.210 HD
ENDBRANCH  29  30
ENDBRANCH  28  29
ENDBRANCH  27  28
ENDBRANCH  26  27
ENDBRANCH  25  26
ENDBRANCH  24  25
ENDBRANCH  23  24
ENDBRANCH  22  23
ENDBRANCH  21  22
ENDBRANCH  20  21
ENDBRANCH  19  20
ENDBRANCH  18  19
ENDBRANCH  17  18
ENDBRANCH   1  17
TORSDOF 28
ENDMDL
