MODEL 1
REMARK VINA RESULT:    -4.531      0.000      0.000
REMARK INTER + INTRA:          -5.102
REMARK INTER:                  -5.060
REMARK INTRA:                  -0.042
REMARK UNBOUND:                -0.042
REMARK SMILES O=C([O-])c1ccc(O)c(O)c1
REMARK SMILES IDX 4 1 11 2 5 3 9 4 6 5 7 6 2 7 1 8 3 9 10 10 8 12
REMARK H PARENT 10 11 8 13
REMARK Flexibility Score: inf
ROOT
ATOM      1  C   UNL     1      12.144  13.930  20.464  1.00  0.00     0.001 A 
ATOM      2  C   UNL     1      11.367  14.543  19.463  1.00  0.00     0.060 A 
ATOM      3  C   UNL     1      11.766  12.663  20.939  1.00  0.00     0.014 A 
ATOM      4  C   UNL     1      10.233  13.900  18.946  1.00  0.00     0.158 A 
ATOM      5  C   UNL     1      10.636  12.021  20.423  1.00  0.00     0.051 A 
ATOM      6  C   UNL     1       9.868  12.637  19.427  1.00  0.00     0.157 A 
ENDROOT
BRANCH   1   7
ATOM      7  C   UNL     1      13.340  14.607  21.012  1.00  0.00     0.072 C 
ATOM      8  O   UNL     1      14.334  13.938  21.400  1.00  0.00    -0.545 OA
ATOM      9  O   UNL     1      13.382  15.994  21.106  1.00  0.00    -0.545 OA
ENDBRANCH   1   7
BRANCH   4  10
ATOM     10  O   UNL     1       9.467  14.509  17.955  1.00  0.00    -0.504 OA
ATOM     11  H   UNL     1       8.951  15.364  18.131  1.00  0.00     0.293 HD
ENDBRANCH   4  10
BRANCH   6  12
ATOM     12  O   UNL     1       8.741  12.000  18.910  1.00  0.00    -0.504 OA
ATOM     13  H   UNL     1       8.655  10.990  18.911  1.00  0.00     0.293 HD
ENDBRANCH   6  12
TORSDOF 3
ENDMDL
MODEL 2
REMARK VINA RESULT:    -4.395      1.485      2.617
REMARK INTER + INTRA:          -4.951
REMARK INTER:                  -4.913
REMARK INTRA:                  -0.038
REMARK UNBOUND:                -0.042
REMARK SMILES O=C([O-])c1ccc(O)c(O)c1
REMARK SMILES IDX 4 1 11 2 5 3 9 4 6 5 7 6 2 7 1 8 3 9 10 10 8 12
REMARK H PARENT 10 11 8 13
REMARK Flexibility Score: inf
ROOT
ATOM      1  C   UNL     1      11.727  12.779  20.973  1.00  0.00     0.001 A 
ATOM      2  C   UNL     1      10.606  12.114  20.443  1.00  0.00     0.060 A 
ATOM      3  C   UNL     1      12.094  14.027  20.440  1.00  0.00     0.014 A 
ATOM      4  C   UNL     1       9.866  12.686  19.398  1.00  0.00     0.158 A 
ATOM      5  C   UNL     1      11.356  14.597  19.399  1.00  0.00     0.051 A 
ATOM      6  C   UNL     1      10.241  13.930  18.876  1.00  0.00     0.157 A 
ENDROOT
BRANCH   1   7
ATOM      7  C   UNL     1      12.511  12.177  22.074  1.00  0.00     0.072 C 
ATOM      8  O   UNL     1      13.738  11.931  21.929  1.00  0.00    -0.545 OA
ATOM      9  O   UNL     1      11.902  11.875  23.287  1.00  0.00    -0.545 OA
ENDBRANCH   1   7
BRANCH   4  10
ATOM     10  O   UNL     1       8.756  12.025  18.876  1.00  0.00    -0.504 OA
ATOM     11  H   UNL     1       8.220  12.411  18.107  1.00  0.00     0.293 HD
ENDBRANCH   4  10
BRANCH   6  12
ATOM     12  O   UNL     1       9.502  14.495  17.838  1.00  0.00    -0.504 OA
ATOM     13  H   UNL     1       9.721  14.305  16.867  1.00  0.00     0.293 HD
ENDBRANCH   6  12
TORSDOF 3
ENDMDL
MODEL 3
REMARK VINA RESULT:    -4.103      1.657      2.277
REMARK INTER + INTRA:          -4.624
REMARK INTER:                  -4.583
REMARK INTRA:                  -0.042
REMARK UNBOUND:                -0.042
REMARK SMILES O=C([O-])c1ccc(O)c(O)c1
REMARK SMILES IDX 4 1 11 2 5 3 9 4 6 5 7 6 2 7 1 8 3 9 10 10 8 12
REMARK H PARENT 10 11 8 13
REMARK Flexibility Score: inf
ROOT
ATOM      1  C   UNL     1      12.592  12.830  20.915  1.00  0.00     0.001 A 
ATOM      2  C   UNL     1      12.926  13.659  19.828  1.00  0.00     0.060 A 
ATOM      3  C   UNL     1      11.242  12.509  21.137  1.00  0.00     0.014 A 
ATOM      4  C   UNL     1      11.928  14.159  18.979  1.00  0.00     0.158 A 
ATOM      5  C   UNL     1      10.247  13.007  20.292  1.00  0.00     0.051 A 
ATOM      6  C   UNL     1      10.586  13.832  19.211  1.00  0.00     0.157 A 
ENDROOT
BRANCH   1   7
ATOM      7  C   UNL     1      13.643  12.302  21.812  1.00  0.00     0.072 C 
ATOM      8  O   UNL     1      13.405  12.106  23.034  1.00  0.00    -0.545 OA
ATOM      9  O   UNL     1      14.910  12.013  21.318  1.00  0.00    -0.545 OA
ENDBRANCH   1   7
BRANCH   4  10
ATOM     10  O   UNL     1      12.262  14.979  17.903  1.00  0.00    -0.504 OA
ATOM     11  H   UNL     1      12.919  15.744  18.003  1.00  0.00     0.293 HD
ENDBRANCH   4  10
BRANCH   6  12
ATOM     12  O   UNL     1       9.597  14.330  18.365  1.00  0.00    -0.504 OA
ATOM     13  H   UNL     1       9.806  14.616  17.416  1.00  0.00     0.293 HD
ENDBRANCH   6  12
TORSDOF 3
ENDMDL
MODEL 4
REMARK VINA RESULT:    -3.931      1.343      2.138
REMARK INTER + INTRA:          -4.433
REMARK INTER:                  -4.390
REMARK INTRA:                  -0.043
REMARK UNBOUND:                -0.042
REMARK SMILES O=C([O-])c1ccc(O)c(O)c1
REMARK SMILES IDX 4 1 11 2 5 3 9 4 6 5 7 6 2 7 1 8 3 9 10 10 8 12
REMARK H PARENT 10 11 8 13
REMARK Flexibility Score: inf
ROOT
ATOM      1  C   UNL     1      12.226  14.531  20.259  1.00  0.00     0.001 A 
ATOM      2  C   UNL     1      11.532  13.829  21.261  1.00  0.00     0.060 A 
ATOM      3  C   UNL     1      11.851  14.352  18.917  1.00  0.00     0.014 A 
ATOM      4  C   UNL     1      10.481  12.962  20.927  1.00  0.00     0.158 A 
ATOM      5  C   UNL     1      10.804  13.488  18.584  1.00  0.00     0.051 A 
ATOM      6  C   UNL     1      10.116  12.792  19.586  1.00  0.00     0.157 A 
ENDROOT
BRANCH   1   7
ATOM      7  C   UNL     1      13.335  15.446  20.608  1.00  0.00     0.072 C 
ATOM      8  O   UNL     1      14.208  15.753  19.753  1.00  0.00    -0.545 OA
ATOM      9  O   UNL     1      13.430  15.980  21.888  1.00  0.00    -0.545 OA
ENDBRANCH   1   7
BRANCH   4  10
ATOM     10  O   UNL     1       9.795  12.269  21.923  1.00  0.00    -0.504 OA
ATOM     11  H   UNL     1       9.808  12.575  22.889  1.00  0.00     0.293 HD
ENDBRANCH   4  10
BRANCH   6  12
ATOM     12  O   UNL     1       9.071  11.930  19.258  1.00  0.00    -0.504 OA
ATOM     13  H   UNL     1       8.416  12.150  18.516  1.00  0.00     0.293 HD
ENDBRANCH   6  12
TORSDOF 3
ENDMDL
MODEL 5
REMARK VINA RESULT:    -3.625      2.369      3.517
REMARK INTER + INTRA:          -4.090
REMARK INTER:                  -4.054
REMARK INTRA:                  -0.037
REMARK UNBOUND:                -0.042
REMARK SMILES O=C([O-])c1ccc(O)c(O)c1
REMARK SMILES IDX 4 1 11 2 5 3 9 4 6 5 7 6 2 7 1 8 3 9 10 10 8 12
REMARK H PARENT 10 11 8 13
REMARK Flexibility Score: inf
ROOT
ATOM      1  C   UNL     1      11.051  13.302  21.737  1.00  0.00     0.001 A 
ATOM      2  C   UNL     1      12.132  14.197  21.634  1.00  0.00     0.060 A 
ATOM      3  C   UNL     1      10.372  12.917  20.569  1.00  0.00     0.014 A 
ATOM      4  C   UNL     1      12.526  14.699  20.385  1.00  0.00     0.158 A 
ATOM      5  C   UNL     1      10.765  13.417  19.324  1.00  0.00     0.051 A 
ATOM      6  C   UNL     1      11.842  14.307  19.228  1.00  0.00     0.157 A 
ENDROOT
BRANCH   1   7
ATOM      7  C   UNL     1      10.632  12.773  23.054  1.00  0.00     0.072 C 
ATOM      8  O   UNL     1      11.372  11.976  23.690  1.00  0.00    -0.545 OA
ATOM      9  O   UNL     1       9.414  13.148  23.608  1.00  0.00    -0.545 OA
ENDBRANCH   1   7
BRANCH   4  10
ATOM     10  O   UNL     1      13.598  15.584  20.287  1.00  0.00    -0.504 OA
ATOM     11  H   UNL     1      13.831  16.042  19.413  1.00  0.00     0.293 HD
ENDBRANCH   4  10
BRANCH   6  12
ATOM     12  O   UNL     1      12.237  14.807  17.988  1.00  0.00    -0.504 OA
ATOM     13  H   UNL     1      11.569  15.210  17.342  1.00  0.00     0.293 HD
ENDBRANCH   6  12
TORSDOF 3
ENDMDL
MODEL 6
REMARK VINA RESULT:    -3.599     23.784     25.267
REMARK INTER + INTRA:          -4.062
REMARK INTER:                  -4.017
REMARK INTRA:                  -0.045
REMARK UNBOUND:                -0.042
REMARK SMILES O=C([O-])c1ccc(O)c(O)c1
REMARK SMILES IDX 4 1 11 2 5 3 9 4 6 5 7 6 2 7 1 8 3 9 10 10 8 12
REMARK H PARENT 10 11 8 13
REMARK Flexibility Score: inf
ROOT
ATOM      1  C   UNL     1      -1.621  30.510   6.209  1.00  0.00     0.001 A 
ATOM      2  C   UNL     1      -1.744  30.234   7.584  1.00  0.00     0.060 A 
ATOM      3  C   UNL     1      -0.570  31.334   5.771  1.00  0.00     0.014 A 
ATOM      4  C   UNL     1      -0.833  30.773   8.504  1.00  0.00     0.158 A 
ATOM      5  C   UNL     1       0.338  31.871   6.688  1.00  0.00     0.051 A 
ATOM      6  C   UNL     1       0.210  31.592   8.055  1.00  0.00     0.157 A 
ENDROOT
BRANCH   1   7
ATOM      7  C   UNL     1      -2.582  29.943   5.237  1.00  0.00     0.072 C 
ATOM      8  O   UNL     1      -2.510  30.243   4.015  1.00  0.00    -0.545 OA
ATOM      9  O   UNL     1      -3.578  29.071   5.659  1.00  0.00    -0.545 OA
ENDBRANCH   1   7
BRANCH   4  10
ATOM     10  O   UNL     1      -0.957  30.496   9.864  1.00  0.00    -0.504 OA
ATOM     11  H   UNL     1      -0.346  29.835  10.329  1.00  0.00     0.293 HD
ENDBRANCH   4  10
BRANCH   6  12
ATOM     12  O   UNL     1       1.114  32.125   8.972  1.00  0.00    -0.504 OA
ATOM     13  H   UNL     1       2.075  31.805   9.016  1.00  0.00     0.293 HD
ENDBRANCH   6  12
TORSDOF 3
ENDMDL
MODEL 7
REMARK VINA RESULT:    -3.525      1.828      2.310
REMARK INTER + INTRA:          -3.979
REMARK INTER:                  -3.943
REMARK INTRA:                  -0.036
REMARK UNBOUND:                -0.042
REMARK SMILES O=C([O-])c1ccc(O)c(O)c1
REMARK SMILES IDX 4 1 11 2 5 3 9 4 6 5 7 6 2 7 1 8 3 9 10 10 8 12
REMARK H PARENT 10 11 8 13
REMARK Flexibility Score: inf
ROOT
ATOM      1  C   UNL     1      12.992  13.843  20.249  1.00  0.00     0.001 A 
ATOM      2  C   UNL     1      11.792  13.637  19.544  1.00  0.00     0.060 A 
ATOM      3  C   UNL     1      13.020  13.601  21.633  1.00  0.00     0.014 A 
ATOM      4  C   UNL     1      10.639  13.198  20.211  1.00  0.00     0.158 A 
ATOM      5  C   UNL     1      11.872  13.162  22.298  1.00  0.00     0.051 A 
ATOM      6  C   UNL     1      10.679  12.959  21.591  1.00  0.00     0.157 A 
ENDROOT
BRANCH   1   7
ATOM      7  C   UNL     1      14.209  14.308  19.547  1.00  0.00     0.072 C 
ATOM      8  O   UNL     1      14.575  15.511  19.625  1.00  0.00    -0.545 OA
ATOM      9  O   UNL     1      14.967  13.421  18.790  1.00  0.00    -0.545 OA
ENDBRANCH   1   7
BRANCH   4  10
ATOM     10  O   UNL     1       9.452  12.994  19.510  1.00  0.00    -0.504 OA
ATOM     11  H   UNL     1       9.402  12.355  18.725  1.00  0.00     0.293 HD
ENDBRANCH   4  10
BRANCH   6  12
ATOM     12  O   UNL     1       9.533  12.522  22.251  1.00  0.00    -0.504 OA
ATOM     13  H   UNL     1       8.904  11.846  21.831  1.00  0.00     0.293 HD
ENDBRANCH   6  12
TORSDOF 3
ENDMDL
MODEL 8
REMARK VINA RESULT:    -3.472      1.333      4.587
REMARK INTER + INTRA:          -3.920
REMARK INTER:                  -3.878
REMARK INTRA:                  -0.042
REMARK UNBOUND:                -0.042
REMARK SMILES O=C([O-])c1ccc(O)c(O)c1
REMARK SMILES IDX 4 1 11 2 5 3 9 4 6 5 7 6 2 7 1 8 3 9 10 10 8 12
REMARK H PARENT 10 11 8 13
REMARK Flexibility Score: inf
ROOT
ATOM      1  C   UNL     1      11.396  13.755  19.945  1.00  0.00     0.001 A 
ATOM      2  C   UNL     1      11.750  14.041  21.277  1.00  0.00     0.060 A 
ATOM      3  C   UNL     1      12.122  14.357  18.903  1.00  0.00     0.014 A 
ATOM      4  C   UNL     1      12.810  14.915  21.561  1.00  0.00     0.158 A 
ATOM      5  C   UNL     1      13.177  15.228  19.186  1.00  0.00     0.051 A 
ATOM      6  C   UNL     1      13.525  15.509  20.514  1.00  0.00     0.157 A 
ENDROOT
BRANCH   1   7
ATOM      7  C   UNL     1      10.279  12.834  19.643  1.00  0.00     0.072 C 
ATOM      8  O   UNL     1      10.010  11.875  20.415  1.00  0.00    -0.545 OA
ATOM      9  O   UNL     1       9.508  13.014  18.500  1.00  0.00    -0.545 OA
ENDBRANCH   1   7
BRANCH   4  10
ATOM     10  O   UNL     1      13.158  15.196  22.881  1.00  0.00    -0.504 OA
ATOM     11  H   UNL     1      12.500  15.619  23.526  1.00  0.00     0.293 HD
ENDBRANCH   4  10
BRANCH   6  12
ATOM     12  O   UNL     1      14.578  16.376  20.800  1.00  0.00    -0.504 OA
ATOM     13  H   UNL     1      15.383  16.452  20.190  1.00  0.00     0.293 HD
ENDBRANCH   6  12
TORSDOF 3
ENDMDL
