MODEL 1
REMARK VINA RESULT:    -6.425      0.000      0.000
REMARK INTER + INTRA:          -8.019
REMARK INTER:                  -7.740
REMARK INTRA:                  -0.280
REMARK UNBOUND:                -0.280
REMARK SMILES O=c1c(O)c(-c2ccc(O)c(O)c2)oc2cc(O)cc(O)c12
REMARK SMILES IDX 5 1 3 2 2 3 1 4 22 5 20 6 19 7 17 8 16 9 15 10 14 11 6 12
REMARK SMILES IDX 7 13 8 14 9 15 13 16 11 17 10 18 12 20 4 22 21 24 18 26
REMARK H PARENT 10 19 12 21 4 23 21 25 18 27
REMARK Flexibility Score: inf
ROOT
ATOM      1  C   UNL     1      46.960 -41.676  30.529  1.00  0.00     0.180 A 
ATOM      2  C   UNL     1      47.061 -40.436  29.870  1.00  0.00     0.208 A 
ATOM      3  C   UNL     1      48.324 -39.836  29.744  1.00  0.00     0.238 A 
ATOM      4  O   UNL     1      48.428 -38.730  29.146  1.00  0.00    -0.285 OA
ATOM      5  C   UNL     1      49.456 -40.471  30.295  1.00  0.00     0.111 A 
ATOM      6  C   UNL     1      50.762 -39.931  30.215  1.00  0.00     0.134 A 
ATOM      7  C   UNL     1      51.836 -40.621  30.796  1.00  0.00     0.093 A 
ATOM      8  C   UNL     1      51.629 -41.838  31.455  1.00  0.00     0.123 A 
ATOM      9  C   UNL     1      50.343 -42.375  31.536  1.00  0.00     0.094 A 
ATOM     10  C   UNL     1      49.259 -41.704  30.962  1.00  0.00     0.146 A 
ATOM     11  O   UNL     1      48.047 -42.240  31.049  1.00  0.00    -0.452 OA
ENDROOT
BRANCH   1  12
ATOM     12  C   UNL     1      45.667 -42.382  30.685  1.00  0.00     0.025 A 
ATOM     13  C   UNL     1      45.057 -42.433  31.949  1.00  0.00     0.016 A 
ATOM     14  C   UNL     1      43.847 -43.111  32.123  1.00  0.00     0.051 A 
ATOM     15  C   UNL     1      43.239 -43.760  31.041  1.00  0.00     0.157 A 
ATOM     16  C   UNL     1      45.063 -43.051  29.606  1.00  0.00     0.062 A 
ATOM     17  C   UNL     1      43.851 -43.734  29.780  1.00  0.00     0.158 A 
BRANCH  15  18
ATOM     18  O   UNL     1      42.032 -44.435  31.210  1.00  0.00    -0.504 OA
ATOM     19  H   UNL     1      41.994 -45.447  31.269  1.00  0.00     0.293 HD
ENDBRANCH  15  18
BRANCH  17  20
ATOM     20  O   UNL     1      43.250 -44.392  28.709  1.00  0.00    -0.504 OA
ATOM     21  H   UNL     1      42.501 -45.060  28.850  1.00  0.00     0.293 HD
ENDBRANCH  17  20
ENDBRANCH   1  12
BRANCH   2  22
ATOM     22  O   UNL     1      45.917 -39.803  29.377  1.00  0.00    -0.502 OA
ATOM     23  H   UNL     1      45.033 -40.288  29.271  1.00  0.00     0.293 HD
ENDBRANCH   2  22
BRANCH   6  24
ATOM     24  O   UNL     1      51.000 -38.720  29.566  1.00  0.00    -0.507 OA
ATOM     25  H   UNL     1      51.325 -38.684  28.606  1.00  0.00     0.293 HD
ENDBRANCH   6  24
BRANCH   8  26
ATOM     26  O   UNL     1      52.696 -42.523  32.034  1.00  0.00    -0.508 OA
ATOM     27  H   UNL     1      53.495 -42.819  31.486  1.00  0.00     0.293 HD
ENDBRANCH   8  26
TORSDOF 6
ENDMDL
MODEL 2
REMARK VINA RESULT:    -6.152      2.223      7.012
REMARK INTER + INTRA:          -7.690
REMARK INTER:                  -7.764
REMARK INTRA:                   0.073
REMARK UNBOUND:                -0.280
REMARK SMILES O=c1c(O)c(-c2ccc(O)c(O)c2)oc2cc(O)cc(O)c12
REMARK SMILES IDX 5 1 3 2 2 3 1 4 22 5 20 6 19 7 17 8 16 9 15 10 14 11 6 12
REMARK SMILES IDX 7 13 8 14 9 15 13 16 11 17 10 18 12 20 4 22 21 24 18 26
REMARK H PARENT 10 19 12 21 4 23 21 25 18 27
REMARK Flexibility Score: inf
ROOT
ATOM      1  C   UNL     1      49.021 -40.036  30.131  1.00  0.00     0.180 A 
ATOM      2  C   UNL     1      48.115 -39.247  30.865  1.00  0.00     0.208 A 
ATOM      3  C   UNL     1      46.911 -39.823  31.299  1.00  0.00     0.238 A 
ATOM      4  O   UNL     1      46.096 -39.127  31.966  1.00  0.00    -0.285 OA
ATOM      5  C   UNL     1      46.624 -41.165  30.977  1.00  0.00     0.111 A 
ATOM      6  C   UNL     1      45.432 -41.818  31.373  1.00  0.00     0.134 A 
ATOM      7  C   UNL     1      45.217 -43.155  31.005  1.00  0.00     0.093 A 
ATOM      8  C   UNL     1      46.169 -43.848  30.250  1.00  0.00     0.123 A 
ATOM      9  C   UNL     1      47.346 -43.209  29.858  1.00  0.00     0.094 A 
ATOM     10  C   UNL     1      47.580 -41.877  30.216  1.00  0.00     0.146 A 
ATOM     11  O   UNL     1      48.711 -41.295  29.833  1.00  0.00    -0.452 OA
ENDROOT
BRANCH   1  12
ATOM     12  C   UNL     1      50.320 -39.508  29.655  1.00  0.00     0.025 A 
ATOM     13  C   UNL     1      51.490 -40.253  29.873  1.00  0.00     0.016 A 
ATOM     14  C   UNL     1      52.730 -39.764  29.450  1.00  0.00     0.051 A 
ATOM     15  C   UNL     1      52.818 -38.517  28.818  1.00  0.00     0.157 A 
ATOM     16  C   UNL     1      50.416 -38.247  29.038  1.00  0.00     0.062 A 
ATOM     17  C   UNL     1      51.659 -37.755  28.616  1.00  0.00     0.158 A 
BRANCH  15  18
ATOM     18  O   UNL     1      54.051 -38.026  28.393  1.00  0.00    -0.504 OA
ATOM     19  H   UNL     1      54.211 -37.760  27.428  1.00  0.00     0.293 HD
ENDBRANCH  15  18
BRANCH  17  20
ATOM     20  O   UNL     1      51.753 -36.509  28.000  1.00  0.00    -0.504 OA
ATOM     21  H   UNL     1      51.425 -36.360  27.052  1.00  0.00     0.293 HD
ENDBRANCH  17  20
ENDBRANCH   1  12
BRANCH   2  22
ATOM     22  O   UNL     1      48.401 -37.904  31.128  1.00  0.00    -0.502 OA
ATOM     23  H   UNL     1      49.341 -37.577  31.320  1.00  0.00     0.293 HD
ENDBRANCH   2  22
BRANCH   6  24
ATOM     24  O   UNL     1      44.464 -41.153  32.125  1.00  0.00    -0.507 OA
ATOM     25  H   UNL     1      44.714 -40.492  32.851  1.00  0.00     0.293 HD
ENDBRANCH   6  24
BRANCH   8  26
ATOM     26  O   UNL     1      45.955 -45.176  29.883  1.00  0.00    -0.508 OA
ATOM     27  H   UNL     1      46.709 -45.853  29.878  1.00  0.00     0.293 HD
ENDBRANCH   8  26
TORSDOF 6
ENDMDL
MODEL 3
REMARK VINA RESULT:    -5.910      1.794      3.585
REMARK INTER + INTRA:          -7.398
REMARK INTER:                  -7.105
REMARK INTRA:                  -0.293
REMARK UNBOUND:                -0.280
REMARK SMILES O=c1c(O)c(-c2ccc(O)c(O)c2)oc2cc(O)cc(O)c12
REMARK SMILES IDX 5 1 3 2 2 3 1 4 22 5 20 6 19 7 17 8 16 9 15 10 14 11 6 12
REMARK SMILES IDX 7 13 8 14 9 15 13 16 11 17 10 18 12 20 4 22 21 24 18 26
REMARK H PARENT 10 19 12 21 4 23 21 25 18 27
REMARK Flexibility Score: inf
ROOT
ATOM      1  C   UNL     1      49.128 -41.305  30.643  1.00  0.00     0.180 A 
ATOM      2  C   UNL     1      50.228 -41.865  31.321  1.00  0.00     0.208 A 
ATOM      3  C   UNL     1      51.496 -41.288  31.150  1.00  0.00     0.238 A 
ATOM      4  O   UNL     1      52.487 -41.775  31.760  1.00  0.00    -0.285 OA
ATOM      5  C   UNL     1      51.648 -40.178  30.292  1.00  0.00     0.111 A 
ATOM      6  C   UNL     1      52.891 -39.541  30.063  1.00  0.00     0.134 A 
ATOM      7  C   UNL     1      52.960 -38.447  29.188  1.00  0.00     0.093 A 
ATOM      8  C   UNL     1      51.811 -37.979  28.539  1.00  0.00     0.123 A 
ATOM      9  C   UNL     1      50.583 -38.604  28.763  1.00  0.00     0.094 A 
ATOM     10  C   UNL     1      50.493 -39.695  29.633  1.00  0.00     0.146 A 
ATOM     11  O   UNL     1      49.311 -40.267  29.831  1.00  0.00    -0.452 OA
ENDROOT
BRANCH   1  12
ATOM     12  C   UNL     1      47.757 -41.844  30.787  1.00  0.00     0.025 A 
ATOM     13  C   UNL     1      46.861 -41.224  31.673  1.00  0.00     0.016 A 
ATOM     14  C   UNL     1      45.568 -41.728  31.840  1.00  0.00     0.051 A 
ATOM     15  C   UNL     1      45.158 -42.868  31.136  1.00  0.00     0.157 A 
ATOM     16  C   UNL     1      47.348 -43.000  30.097  1.00  0.00     0.062 A 
ATOM     17  C   UNL     1      46.052 -43.508  30.266  1.00  0.00     0.158 A 
BRANCH  15  18
ATOM     18  O   UNL     1      43.870 -43.373  31.297  1.00  0.00    -0.504 OA
ATOM     19  H   UNL     1      43.496 -43.588  32.215  1.00  0.00     0.293 HD
ENDBRANCH  15  18
BRANCH  17  20
ATOM     20  O   UNL     1      45.646 -44.649  29.578  1.00  0.00    -0.504 OA
ATOM     21  H   UNL     1      45.381 -44.612  28.600  1.00  0.00     0.293 HD
ENDBRANCH  17  20
ENDBRANCH   1  12
BRANCH   2  22
ATOM     22  O   UNL     1      50.060 -42.996  32.125  1.00  0.00    -0.502 OA
ATOM     23  H   UNL     1      50.264 -43.931  31.794  1.00  0.00     0.293 HD
ENDBRANCH   2  22
BRANCH   6  24
ATOM     24  O   UNL     1      54.053 -39.985  30.694  1.00  0.00    -0.507 OA
ATOM     25  H   UNL     1      54.388 -40.936  30.587  1.00  0.00     0.293 HD
ENDBRANCH   6  24
BRANCH   8  26
ATOM     26  O   UNL     1      51.880 -36.892  27.669  1.00  0.00    -0.508 OA
ATOM     27  H   UNL     1      51.508 -35.985  27.924  1.00  0.00     0.293 HD
ENDBRANCH   8  26
TORSDOF 6
ENDMDL
MODEL 4
REMARK VINA RESULT:    -5.138      1.928      3.915
REMARK INTER + INTRA:          -6.469
REMARK INTER:                  -6.252
REMARK INTRA:                  -0.217
REMARK UNBOUND:                -0.280
REMARK SMILES O=c1c(O)c(-c2ccc(O)c(O)c2)oc2cc(O)cc(O)c12
REMARK SMILES IDX 5 1 3 2 2 3 1 4 22 5 20 6 19 7 17 8 16 9 15 10 14 11 6 12
REMARK SMILES IDX 7 13 8 14 9 15 13 16 11 17 10 18 12 20 4 22 21 24 18 26
REMARK H PARENT 10 19 12 21 4 23 21 25 18 27
REMARK Flexibility Score: inf
ROOT
ATOM      1  C   UNL     1      49.316 -41.261  30.598  1.00  0.00     0.180 A 
ATOM      2  C   UNL     1      50.414 -41.800  31.295  1.00  0.00     0.208 A 
ATOM      3  C   UNL     1      51.678 -41.213  31.128  1.00  0.00     0.238 A 
ATOM      4  O   UNL     1      52.667 -41.681  31.756  1.00  0.00    -0.285 OA
ATOM      5  C   UNL     1      51.827 -40.115  30.256  1.00  0.00     0.111 A 
ATOM      6  C   UNL     1      53.066 -39.469  30.029  1.00  0.00     0.134 A 
ATOM      7  C   UNL     1      53.133 -38.387  29.139  1.00  0.00     0.093 A 
ATOM      8  C   UNL     1      51.987 -37.941  28.472  1.00  0.00     0.123 A 
ATOM      9  C   UNL     1      50.763 -38.574  28.693  1.00  0.00     0.094 A 
ATOM     10  C   UNL     1      50.674 -39.653  29.578  1.00  0.00     0.146 A 
ATOM     11  O   UNL     1      49.496 -40.234  29.772  1.00  0.00    -0.452 OA
ENDROOT
BRANCH   1  12
ATOM     12  C   UNL     1      47.948 -41.812  30.736  1.00  0.00     0.025 A 
ATOM     13  C   UNL     1      47.645 -43.058  30.163  1.00  0.00     0.016 A 
ATOM     14  C   UNL     1      46.355 -43.588  30.264  1.00  0.00     0.051 A 
ATOM     15  C   UNL     1      45.348 -42.873  30.924  1.00  0.00     0.157 A 
ATOM     16  C   UNL     1      46.929 -41.089  31.381  1.00  0.00     0.062 A 
ATOM     17  C   UNL     1      45.634 -41.619  31.480  1.00  0.00     0.158 A 
BRANCH  15  18
ATOM     18  O   UNL     1      44.061 -43.398  31.029  1.00  0.00    -0.504 OA
ATOM     19  H   UNL     1      43.885 -44.279  31.500  1.00  0.00     0.293 HD
ENDBRANCH  15  18
BRANCH  17  20
ATOM     20  O   UNL     1      44.627 -40.905  32.125  1.00  0.00    -0.504 OA
ATOM     21  H   UNL     1      43.712 -41.309  32.290  1.00  0.00     0.293 HD
ENDBRANCH  17  20
ENDBRANCH   1  12
BRANCH   2  22
ATOM     22  O   UNL     1      50.249 -42.920  32.114  1.00  0.00    -0.502 OA
ATOM     23  H   UNL     1      50.815 -43.755  32.012  1.00  0.00     0.293 HD
ENDBRANCH   2  22
BRANCH   6  24
ATOM     24  O   UNL     1      54.226 -39.892  30.679  1.00  0.00    -0.507 OA
ATOM     25  H   UNL     1      54.747 -39.277  31.293  1.00  0.00     0.293 HD
ENDBRANCH   6  24
BRANCH   8  26
ATOM     26  O   UNL     1      52.054 -36.866  27.586  1.00  0.00    -0.508 OA
ATOM     27  H   UNL     1      52.478 -36.960  26.671  1.00  0.00     0.293 HD
ENDBRANCH   8  26
TORSDOF 6
ENDMDL
MODEL 5
REMARK VINA RESULT:    -5.029      2.276      6.731
REMARK INTER + INTRA:          -6.338
REMARK INTER:                  -6.021
REMARK INTRA:                  -0.317
REMARK UNBOUND:                -0.280
REMARK SMILES O=c1c(O)c(-c2ccc(O)c(O)c2)oc2cc(O)cc(O)c12
REMARK SMILES IDX 5 1 3 2 2 3 1 4 22 5 20 6 19 7 17 8 16 9 15 10 14 11 6 12
REMARK SMILES IDX 7 13 8 14 9 15 13 16 11 17 10 18 12 20 4 22 21 24 18 26
REMARK H PARENT 10 19 12 21 4 23 21 25 18 27
REMARK Flexibility Score: inf
ROOT
ATOM      1  C   UNL     1      48.119 -40.663  30.584  1.00  0.00     0.180 A 
ATOM      2  C   UNL     1      48.977 -41.713  30.962  1.00  0.00     0.208 A 
ATOM      3  C   UNL     1      48.580 -43.036  30.715  1.00  0.00     0.238 A 
ATOM      4  O   UNL     1      49.345 -43.984  31.041  1.00  0.00    -0.285 OA
ATOM      5  C   UNL     1      47.329 -43.288  30.116  1.00  0.00     0.111 A 
ATOM      6  C   UNL     1      46.853 -44.592  29.836  1.00  0.00     0.134 A 
ATOM      7  C   UNL     1      45.592 -44.760  29.245  1.00  0.00     0.093 A 
ATOM      8  C   UNL     1      44.800 -43.650  28.929  1.00  0.00     0.123 A 
ATOM      9  C   UNL     1      45.265 -42.363  29.201  1.00  0.00     0.094 A 
ATOM     10  C   UNL     1      46.520 -42.174  29.789  1.00  0.00     0.146 A 
ATOM     11  O   UNL     1      46.940 -40.938  30.033  1.00  0.00    -0.452 OA
ENDROOT
BRANCH   1  12
ATOM     12  C   UNL     1      48.475 -39.240  30.793  1.00  0.00     0.025 A 
ATOM     13  C   UNL     1      47.917 -38.541  31.875  1.00  0.00     0.016 A 
ATOM     14  C   UNL     1      48.223 -37.193  32.080  1.00  0.00     0.051 A 
ATOM     15  C   UNL     1      49.078 -36.521  31.197  1.00  0.00     0.157 A 
ATOM     16  C   UNL     1      49.318 -38.557  29.898  1.00  0.00     0.062 A 
ATOM     17  C   UNL     1      49.623 -37.204  30.101  1.00  0.00     0.158 A 
BRANCH  15  18
ATOM     18  O   UNL     1      49.388 -35.178  31.398  1.00  0.00    -0.504 OA
ATOM     19  H   UNL     1      49.158 -34.705  32.265  1.00  0.00     0.293 HD
ENDBRANCH  15  18
BRANCH  17  20
ATOM     20  O   UNL     1      50.463 -36.529  29.217  1.00  0.00    -0.504 OA
ATOM     21  H   UNL     1      50.135 -35.742  28.670  1.00  0.00     0.293 HD
ENDBRANCH  17  20
ENDBRANCH   1  12
BRANCH   2  22
ATOM     22  O   UNL     1      50.189 -41.438  31.601  1.00  0.00    -0.502 OA
ATOM     23  H   UNL     1      51.011 -41.131  31.095  1.00  0.00     0.293 HD
ENDBRANCH   2  22
BRANCH   6  24
ATOM     24  O   UNL     1      47.619 -45.717  30.141  1.00  0.00    -0.507 OA
ATOM     25  H   UNL     1      48.530 -45.639  30.578  1.00  0.00     0.293 HD
ENDBRANCH   6  24
BRANCH   8  26
ATOM     26  O   UNL     1      43.546 -43.817  28.342  1.00  0.00    -0.508 OA
ATOM     27  H   UNL     1      42.833 -44.394  28.771  1.00  0.00     0.293 HD
ENDBRANCH   8  26
TORSDOF 6
ENDMDL
MODEL 6
REMARK VINA RESULT:    -4.683      1.499      3.311
REMARK INTER + INTRA:          -5.921
REMARK INTER:                  -5.592
REMARK INTRA:                  -0.329
REMARK UNBOUND:                -0.280
REMARK SMILES O=c1c(O)c(-c2ccc(O)c(O)c2)oc2cc(O)cc(O)c12
REMARK SMILES IDX 5 1 3 2 2 3 1 4 22 5 20 6 19 7 17 8 16 9 15 10 14 11 6 12
REMARK SMILES IDX 7 13 8 14 9 15 13 16 11 17 10 18 12 20 4 22 21 24 18 26
REMARK H PARENT 10 19 12 21 4 23 21 25 18 27
REMARK Flexibility Score: inf
ROOT
ATOM      1  C   UNL     1      46.684 -42.226  30.037  1.00  0.00     0.180 A 
ATOM      2  C   UNL     1      47.875 -42.875  30.418  1.00  0.00     0.208 A 
ATOM      3  C   UNL     1      49.035 -42.108  30.605  1.00  0.00     0.238 A 
ATOM      4  O   UNL     1      50.105 -42.677  30.956  1.00  0.00    -0.285 OA
ATOM      5  C   UNL     1      48.993 -40.715  30.388  1.00  0.00     0.111 A 
ATOM      6  C   UNL     1      50.119 -39.872  30.550  1.00  0.00     0.134 A 
ATOM      7  C   UNL     1      49.998 -38.496  30.307  1.00  0.00     0.093 A 
ATOM      8  C   UNL     1      48.774 -37.949  29.905  1.00  0.00     0.123 A 
ATOM      9  C   UNL     1      47.661 -38.776  29.744  1.00  0.00     0.094 A 
ATOM     10  C   UNL     1      47.761 -40.150  29.983  1.00  0.00     0.146 A 
ATOM     11  O   UNL     1      46.685 -40.913  29.827  1.00  0.00    -0.452 OA
ENDROOT
BRANCH   1  12
ATOM     12  C   UNL     1      45.415 -42.963  29.839  1.00  0.00     0.025 A 
ATOM     13  C   UNL     1      45.103 -43.473  28.569  1.00  0.00     0.016 A 
ATOM     14  C   UNL     1      43.901 -44.153  28.355  1.00  0.00     0.051 A 
ATOM     15  C   UNL     1      42.988 -44.319  29.404  1.00  0.00     0.157 A 
ATOM     16  C   UNL     1      44.486 -43.115  30.885  1.00  0.00     0.062 A 
ATOM     17  C   UNL     1      43.279 -43.795  30.670  1.00  0.00     0.158 A 
BRANCH  15  18
ATOM     18  O   UNL     1      41.789 -44.999  29.196  1.00  0.00    -0.504 OA
ATOM     19  H   UNL     1      41.221 -45.320  29.971  1.00  0.00     0.293 HD
ENDBRANCH  15  18
BRANCH  17  20
ATOM     20  O   UNL     1      42.362 -43.950  31.708  1.00  0.00    -0.504 OA
ATOM     21  H   UNL     1      42.636 -44.335  32.604  1.00  0.00     0.293 HD
ENDBRANCH  17  20
ENDBRANCH   1  12
BRANCH   2  22
ATOM     22  O   UNL     1      47.902 -44.263  30.577  1.00  0.00    -0.502 OA
ATOM     23  H   UNL     1      47.101 -44.786  30.911  1.00  0.00     0.293 HD
ENDBRANCH   2  22
BRANCH   6  24
ATOM     24  O   UNL     1      51.352 -40.389  30.949  1.00  0.00    -0.507 OA
ATOM     25  H   UNL     1      51.847 -40.025  31.755  1.00  0.00     0.293 HD
ENDBRANCH   6  24
BRANCH   8  26
ATOM     26  O   UNL     1      48.654 -36.581  29.663  1.00  0.00    -0.508 OA
ATOM     27  H   UNL     1      47.784 -36.088  29.827  1.00  0.00     0.293 HD
ENDBRANCH   8  26
TORSDOF 6
ENDMDL
MODEL 7
REMARK VINA RESULT:    -3.932      9.126     12.561
REMARK INTER + INTRA:          -5.016
REMARK INTER:                  -5.107
REMARK INTRA:                   0.091
REMARK UNBOUND:                -0.280
REMARK SMILES O=c1c(O)c(-c2ccc(O)c(O)c2)oc2cc(O)cc(O)c12
REMARK SMILES IDX 5 1 3 2 2 3 1 4 22 5 20 6 19 7 17 8 16 9 15 10 14 11 6 12
REMARK SMILES IDX 7 13 8 14 9 15 13 16 11 17 10 18 12 20 4 22 21 24 18 26
REMARK H PARENT 10 19 12 21 4 23 21 25 18 27
REMARK Flexibility Score: inf
ROOT
ATOM      1  C   UNL     1      54.542 -35.751  24.077  1.00  0.00     0.180 A 
ATOM      2  C   UNL     1      54.772 -36.591  22.970  1.00  0.00     0.208 A 
ATOM      3  C   UNL     1      54.896 -36.016  21.696  1.00  0.00     0.238 A 
ATOM      4  O   UNL     1      55.112 -36.758  20.699  1.00  0.00    -0.285 OA
ATOM      5  C   UNL     1      54.767 -34.620  21.545  1.00  0.00     0.111 A 
ATOM      6  C   UNL     1      54.874 -33.963  20.296  1.00  0.00     0.134 A 
ATOM      7  C   UNL     1      54.725 -32.569  20.228  1.00  0.00     0.093 A 
ATOM      8  C   UNL     1      54.471 -31.823  21.384  1.00  0.00     0.123 A 
ATOM      9  C   UNL     1      54.366 -32.466  22.618  1.00  0.00     0.094 A 
ATOM     10  C   UNL     1      54.512 -33.854  22.707  1.00  0.00     0.146 A 
ATOM     11  O   UNL     1      54.412 -34.440  23.895  1.00  0.00    -0.452 OA
ENDROOT
BRANCH   1  12
ATOM     12  C   UNL     1      54.420 -36.279  25.455  1.00  0.00     0.025 A 
ATOM     13  C   UNL     1      55.125 -35.656  26.497  1.00  0.00     0.016 A 
ATOM     14  C   UNL     1      55.041 -36.150  27.802  1.00  0.00     0.051 A 
ATOM     15  C   UNL     1      54.264 -37.282  28.079  1.00  0.00     0.157 A 
ATOM     16  C   UNL     1      53.657 -37.427  25.734  1.00  0.00     0.062 A 
ATOM     17  C   UNL     1      53.574 -37.925  27.042  1.00  0.00     0.158 A 
BRANCH  15  18
ATOM     18  O   UNL     1      54.175 -37.777  29.379  1.00  0.00    -0.504 OA
ATOM     19  H   UNL     1      54.987 -38.142  29.864  1.00  0.00     0.293 HD
ENDBRANCH  15  18
BRANCH  17  20
ATOM     20  O   UNL     1      52.813 -39.058  27.319  1.00  0.00    -0.504 OA
ATOM     21  H   UNL     1      52.908 -39.560  28.194  1.00  0.00     0.293 HD
ENDBRANCH  17  20
ENDBRANCH   1  12
BRANCH   2  22
ATOM     22  O   UNL     1      54.846 -37.976  23.139  1.00  0.00    -0.502 OA
ATOM     23  H   UNL     1      55.709 -38.492  23.018  1.00  0.00     0.293 HD
ENDBRANCH   2  22
BRANCH   6  24
ATOM     24  O   UNL     1      55.125 -34.680  19.126  1.00  0.00    -0.507 OA
ATOM     25  H   UNL     1      56.025 -35.112  18.948  1.00  0.00     0.293 HD
ENDBRANCH   6  24
BRANCH   8  26
ATOM     26  O   UNL     1      54.322 -30.439  21.317  1.00  0.00    -0.508 OA
ATOM     27  H   UNL     1      53.636 -30.009  20.708  1.00  0.00     0.293 HD
ENDBRANCH   8  26
TORSDOF 6
ENDMDL
