MODEL 1
REMARK VINA RESULT:    -3.920      0.000      0.000
REMARK INTER + INTRA:          -4.903
REMARK INTER:                  -4.722
REMARK INTRA:                  -0.181
REMARK UNBOUND:                -0.181
REMARK SMILES OCC(O)CO
REMARK SMILES IDX 3 1 5 2 6 3 2 5 1 6 4 8
REMARK H PARENT 6 4 1 7 4 9
REMARK Flexibility Score: inf
ROOT
ATOM      1  C   UNL     1      49.019  22.378   8.407  1.00  0.00     0.165 C 
ENDROOT
BRANCH   1   2
ATOM      2  C   UNL     1      49.663  22.007   9.754  1.00  0.00     0.190 C 
BRANCH   2   3
ATOM      3  O   UNL     1      50.246  23.130  10.358  1.00  0.00    -0.394 OA
ATOM      4  H   UNL     1      50.127  23.887   9.727  1.00  0.00     0.210 HD
ENDBRANCH   2   3
ENDBRANCH   1   2
BRANCH   1   5
ATOM      5  C   UNL     1      49.830  23.467   7.689  1.00  0.00     0.190 C 
BRANCH   5   6
ATOM      6  O   UNL     1      51.204  23.228   7.832  1.00  0.00    -0.394 OA
ATOM      7  H   UNL     1      51.494  22.739   7.018  1.00  0.00     0.210 HD
ENDBRANCH   5   6
ENDBRANCH   1   5
BRANCH   1   8
ATOM      8  O   UNL     1      48.953  21.240   7.588  1.00  0.00    -0.388 OA
ATOM      9  H   UNL     1      48.891  21.564   6.652  1.00  0.00     0.211 HD
ENDBRANCH   1   8
TORSDOF 5
ENDMDL
MODEL 2
REMARK VINA RESULT:    -3.751      1.592      2.241
REMARK INTER + INTRA:          -4.700
REMARK INTER:                  -4.697
REMARK INTRA:                  -0.002
REMARK UNBOUND:                -0.181
REMARK SMILES OCC(O)CO
REMARK SMILES IDX 3 1 5 2 6 3 2 5 1 6 4 8
REMARK H PARENT 6 4 1 7 4 9
REMARK Flexibility Score: inf
ROOT
ATOM      1  C   UNL     1      48.910  22.770   7.387  1.00  0.00     0.165 C 
ENDROOT
BRANCH   1   2
ATOM      2  C   UNL     1      50.292  23.261   7.848  1.00  0.00     0.190 C 
BRANCH   2   3
ATOM      3  O   UNL     1      50.742  22.529   8.957  1.00  0.00    -0.394 OA
ATOM      4  H   UNL     1      51.220  21.736   8.598  1.00  0.00     0.210 HD
ENDBRANCH   2   3
ENDBRANCH   1   2
BRANCH   1   5
ATOM      5  C   UNL     1      48.616  23.220   5.947  1.00  0.00     0.190 C 
BRANCH   5   6
ATOM      6  O   UNL     1      48.477  22.108   5.105  1.00  0.00    -0.394 OA
ATOM      7  H   UNL     1      48.327  22.461   4.190  1.00  0.00     0.210 HD
ENDBRANCH   5   6
ENDBRANCH   1   5
BRANCH   1   8
ATOM      8  O   UNL     1      48.866  21.368   7.446  1.00  0.00    -0.388 OA
ATOM      9  H   UNL     1      49.512  21.090   8.146  1.00  0.00     0.211 HD
ENDBRANCH   1   8
TORSDOF 5
ENDMDL
MODEL 3
REMARK VINA RESULT:    -3.693      1.231      2.233
REMARK INTER + INTRA:          -4.629
REMARK INTER:                  -4.406
REMARK INTRA:                  -0.223
REMARK UNBOUND:                -0.181
REMARK SMILES OCC(O)CO
REMARK SMILES IDX 3 1 5 2 6 3 2 5 1 6 4 8
REMARK H PARENT 6 4 1 7 4 9
REMARK Flexibility Score: inf
ROOT
ATOM      1  C   UNL     1      49.637  23.355   7.924  1.00  0.00     0.165 C 
ENDROOT
BRANCH   1   2
ATOM      2  C   UNL     1      49.091  21.956   8.252  1.00  0.00     0.190 C 
BRANCH   2   3
ATOM      3  O   UNL     1      49.745  21.409   9.366  1.00  0.00    -0.394 OA
ATOM      4  H   UNL     1      49.059  21.307  10.076  1.00  0.00     0.210 HD
ENDBRANCH   2   3
ENDBRANCH   1   2
BRANCH   1   5
ATOM      5  C   UNL     1      49.009  24.421   8.835  1.00  0.00     0.190 C 
BRANCH   5   6
ATOM      6  O   UNL     1      49.444  24.251  10.158  1.00  0.00    -0.394 OA
ATOM      7  H   UNL     1      48.719  23.770  10.636  1.00  0.00     0.210 HD
ENDBRANCH   5   6
ENDBRANCH   1   5
BRANCH   1   8
ATOM      8  O   UNL     1      51.030  23.369   8.096  1.00  0.00    -0.388 OA
ATOM      9  H   UNL     1      51.225  22.813   8.895  1.00  0.00     0.211 HD
ENDBRANCH   1   8
TORSDOF 5
ENDMDL
MODEL 4
REMARK VINA RESULT:    -3.551      0.773      2.228
REMARK INTER + INTRA:          -4.459
REMARK INTER:                  -4.242
REMARK INTRA:                  -0.217
REMARK UNBOUND:                -0.181
REMARK SMILES OCC(O)CO
REMARK SMILES IDX 3 1 5 2 6 3 2 5 1 6 4 8
REMARK H PARENT 6 4 1 7 4 9
REMARK Flexibility Score: inf
ROOT
ATOM      1  C   UNL     1      49.288  22.181   8.471  1.00  0.00     0.165 C 
ENDROOT
BRANCH   1   2
ATOM      2  C   UNL     1      49.893  23.282   7.584  1.00  0.00     0.190 C 
BRANCH   2   3
ATOM      3  O   UNL     1      51.270  23.412   7.814  1.00  0.00    -0.394 OA
ATOM      4  H   UNL     1      51.709  22.653   7.347  1.00  0.00     0.210 HD
ENDBRANCH   2   3
ENDBRANCH   1   2
BRANCH   1   5
ATOM      5  C   UNL     1      48.687  22.774   9.755  1.00  0.00     0.190 C 
BRANCH   5   6
ATOM      6  O   UNL     1      49.426  23.891  10.169  1.00  0.00    -0.394 OA
ATOM      7  H   UNL     1      49.298  23.968  11.151  1.00  0.00     0.210 HD
ENDBRANCH   5   6
ENDBRANCH   1   5
BRANCH   1   8
ATOM      8  O   UNL     1      48.280  21.507   7.762  1.00  0.00    -0.388 OA
ATOM      9  H   UNL     1      47.556  21.311   8.412  1.00  0.00     0.211 HD
ENDBRANCH   1   8
TORSDOF 5
ENDMDL
MODEL 5
REMARK VINA RESULT:    -3.533      7.434      8.231
REMARK INTER + INTRA:          -4.436
REMARK INTER:                  -4.214
REMARK INTRA:                  -0.222
REMARK UNBOUND:                -0.181
REMARK SMILES OCC(O)CO
REMARK SMILES IDX 3 1 5 2 6 3 2 5 1 6 4 8
REMARK H PARENT 6 4 1 7 4 9
REMARK Flexibility Score: inf
ROOT
ATOM      1  C   UNL     1      45.595  26.470  13.757  1.00  0.00     0.165 C 
ENDROOT
BRANCH   1   2
ATOM      2  C   UNL     1      45.598  27.359  15.012  1.00  0.00     0.190 C 
BRANCH   2   3
ATOM      3  O   UNL     1      46.182  26.692  16.099  1.00  0.00    -0.394 OA
ATOM      4  H   UNL     1      45.438  26.410  16.692  1.00  0.00     0.210 HD
ENDBRANCH   2   3
ENDBRANCH   1   2
BRANCH   1   5
ATOM      5  C   UNL     1      46.345  25.153  14.012  1.00  0.00     0.190 C 
BRANCH   5   6
ATOM      6  O   UNL     1      45.491  24.212  14.605  1.00  0.00    -0.394 OA
ATOM      7  H   UNL     1      44.666  24.188  14.054  1.00  0.00     0.210 HD
ENDBRANCH   5   6
ENDBRANCH   1   5
BRANCH   1   8
ATOM      8  O   UNL     1      44.272  26.181  13.389  1.00  0.00    -0.388 OA
ATOM      9  H   UNL     1      44.305  25.819  12.465  1.00  0.00     0.211 HD
ENDBRANCH   1   8
TORSDOF 5
ENDMDL
MODEL 6
REMARK VINA RESULT:    -3.478     14.741     15.272
REMARK INTER + INTRA:          -4.371
REMARK INTER:                  -4.347
REMARK INTRA:                  -0.024
REMARK UNBOUND:                -0.181
REMARK SMILES OCC(O)CO
REMARK SMILES IDX 3 1 5 2 6 3 2 5 1 6 4 8
REMARK H PARENT 6 4 1 7 4 9
REMARK Flexibility Score: inf
ROOT
ATOM      1  C   UNL     1      36.737  27.662  11.574  1.00  0.00     0.165 C 
ENDROOT
BRANCH   1   2
ATOM      2  C   UNL     1      36.092  28.652  10.590  1.00  0.00     0.190 C 
BRANCH   2   3
ATOM      3  O   UNL     1      34.898  28.135  10.067  1.00  0.00    -0.394 OA
ATOM      4  H   UNL     1      34.688  28.669   9.257  1.00  0.00     0.210 HD
ENDBRANCH   2   3
ENDBRANCH   1   2
BRANCH   1   5
ATOM      5  C   UNL     1      36.305  27.959  13.018  1.00  0.00     0.190 C 
BRANCH   5   6
ATOM      6  O   UNL     1      35.543  26.898  13.528  1.00  0.00    -0.394 OA
ATOM      7  H   UNL     1      36.116  26.088  13.480  1.00  0.00     0.210 HD
ENDBRANCH   5   6
ENDBRANCH   1   5
BRANCH   1   8
ATOM      8  O   UNL     1      36.356  26.353  11.241  1.00  0.00    -0.388 OA
ATOM      9  H   UNL     1      35.571  26.131  11.806  1.00  0.00     0.211 HD
ENDBRANCH   1   8
TORSDOF 5
ENDMDL
MODEL 7
REMARK VINA RESULT:    -3.453     13.893     14.205
REMARK INTER + INTRA:          -4.340
REMARK INTER:                  -4.337
REMARK INTRA:                  -0.003
REMARK UNBOUND:                -0.181
REMARK SMILES OCC(O)CO
REMARK SMILES IDX 3 1 5 2 6 3 2 5 1 6 4 8
REMARK H PARENT 6 4 1 7 4 9
REMARK Flexibility Score: inf
ROOT
ATOM      1  C   UNL     1      36.467  27.621  11.450  1.00  0.00     0.165 C 
ENDROOT
BRANCH   1   2
ATOM      2  C   UNL     1      36.313  27.883  12.958  1.00  0.00     0.190 C 
BRANCH   2   3
ATOM      3  O   UNL     1      35.542  26.883  13.566  1.00  0.00    -0.394 OA
ATOM      4  H   UNL     1      34.708  27.320  13.882  1.00  0.00     0.210 HD
ENDBRANCH   2   3
ENDBRANCH   1   2
BRANCH   1   5
ATOM      5  C   UNL     1      37.788  28.199  10.921  1.00  0.00     0.190 C 
BRANCH   5   6
ATOM      6  O   UNL     1      38.649  27.167  10.523  1.00  0.00    -0.394 OA
ATOM      7  H   UNL     1      38.179  26.314  10.715  1.00  0.00     0.210 HD
ENDBRANCH   5   6
ENDBRANCH   1   5
BRANCH   1   8
ATOM      8  O   UNL     1      36.443  26.238  11.209  1.00  0.00    -0.388 OA
ATOM      9  H   UNL     1      37.353  25.897  11.409  1.00  0.00     0.211 HD
ENDBRANCH   1   8
TORSDOF 5
ENDMDL
MODEL 8
REMARK VINA RESULT:    -3.449     14.379     14.782
REMARK INTER + INTRA:          -4.335
REMARK INTER:                  -4.155
REMARK INTRA:                  -0.181
REMARK UNBOUND:                -0.181
REMARK SMILES OCC(O)CO
REMARK SMILES IDX 3 1 5 2 6 3 2 5 1 6 4 8
REMARK H PARENT 6 4 1 7 4 9
REMARK Flexibility Score: inf
ROOT
ATOM      1  C   UNL     1      36.533  28.213  11.236  1.00  0.00     0.165 C 
ENDROOT
BRANCH   1   2
ATOM      2  C   UNL     1      36.473  28.034  12.762  1.00  0.00     0.190 C 
BRANCH   2   3
ATOM      3  O   UNL     1      35.641  26.961  13.111  1.00  0.00    -0.394 OA
ATOM      4  H   UNL     1      34.707  27.280  13.005  1.00  0.00     0.210 HD
ENDBRANCH   2   3
ENDBRANCH   1   2
BRANCH   1   5
ATOM      5  C   UNL     1      37.241  27.023  10.568  1.00  0.00     0.190 C 
BRANCH   5   6
ATOM      6  O   UNL     1      36.546  25.833  10.826  1.00  0.00    -0.394 OA
ATOM      7  H   UNL     1      36.832  25.182  10.133  1.00  0.00     0.210 HD
ENDBRANCH   5   6
ENDBRANCH   1   5
BRANCH   1   8
ATOM      8  O   UNL     1      35.231  28.317  10.723  1.00  0.00    -0.388 OA
ATOM      9  H   UNL     1      34.818  29.112  11.149  1.00  0.00     0.211 HD
ENDBRANCH   1   8
TORSDOF 5
ENDMDL
MODEL 9
REMARK VINA RESULT:    -3.394      1.508      2.407
REMARK INTER + INTRA:          -4.270
REMARK INTER:                  -4.267
REMARK INTRA:                  -0.003
REMARK UNBOUND:                -0.181
REMARK SMILES OCC(O)CO
REMARK SMILES IDX 3 1 5 2 6 3 2 5 1 6 4 8
REMARK H PARENT 6 4 1 7 4 9
REMARK Flexibility Score: inf
ROOT
ATOM      1  C   UNL     1      48.958  23.235   9.400  1.00  0.00     0.165 C 
ENDROOT
BRANCH   1   2
ATOM      2  C   UNL     1      48.829  24.767   9.420  1.00  0.00     0.190 C 
BRANCH   2   3
ATOM      3  O   UNL     1      49.554  25.319  10.486  1.00  0.00    -0.394 OA
ATOM      4  H   UNL     1      50.082  24.578  10.884  1.00  0.00     0.210 HD
ENDBRANCH   2   3
ENDBRANCH   1   2
BRANCH   1   5
ATOM      5  C   UNL     1      48.636  22.671   8.007  1.00  0.00     0.190 C 
BRANCH   5   6
ATOM      6  O   UNL     1      49.067  21.341   7.906  1.00  0.00    -0.394 OA
ATOM      7  H   UNL     1      48.977  21.085   6.951  1.00  0.00     0.210 HD
ENDBRANCH   5   6
ENDBRANCH   1   5
BRANCH   1   8
ATOM      8  O   UNL     1      50.267  22.868   9.751  1.00  0.00    -0.388 OA
ATOM      9  H   UNL     1      50.299  21.876   9.740  1.00  0.00     0.211 HD
ENDBRANCH   1   8
TORSDOF 5
ENDMDL
