MODEL 1
REMARK VINA RESULT:    -3.299      0.000      0.000
REMARK INTER + INTRA:          -3.948
REMARK INTER:                  -3.878
REMARK INTRA:                  -0.069
REMARK UNBOUND:                -0.069
REMARK SMILES CCCCC(=O)[O-]
REMARK SMILES IDX 4 1 5 2 6 3 7 4 3 5 2 6 1 7
REMARK H PARENT
REMARK Flexibility Score: inf
ROOT
ATOM      1  C   UNL     1      17.688 -37.347  27.013  1.00  0.00     0.053 C 
ENDROOT
BRANCH   1   2
ATOM      2  C   UNL     1      17.753 -36.221  26.030  1.00  0.00     0.041 C 
ATOM      3  O   UNL     1      16.695 -35.670  25.626  1.00  0.00    -0.550 OA
ATOM      4  O   UNL     1      18.984 -35.746  25.598  1.00  0.00    -0.550 OA
ENDBRANCH   1   2
BRANCH   1   5
ATOM      5  C   UNL     1      16.248 -37.845  27.164  1.00  0.00     0.006 C 
BRANCH   5   6
ATOM      6  C   UNL     1      15.879 -38.020  28.642  1.00  0.00    -0.003 C 
ATOM      7  C   UNL     1      17.058 -37.676  29.548  1.00  0.00     0.004 C 
ENDBRANCH   5   6
ENDBRANCH   1   5
TORSDOF 3
ENDMDL
MODEL 2
REMARK VINA RESULT:    -3.259     13.353     14.935
REMARK INTER + INTRA:          -3.900
REMARK INTER:                  -3.855
REMARK INTRA:                  -0.044
REMARK UNBOUND:                -0.069
REMARK SMILES CCCCC(=O)[O-]
REMARK SMILES IDX 4 1 5 2 6 3 7 4 3 5 2 6 1 7
REMARK H PARENT
REMARK Flexibility Score: inf
ROOT
ATOM      1  C   UNL     1      22.905 -24.808  19.455  1.00  0.00     0.053 C 
ENDROOT
BRANCH   1   2
ATOM      2  C   UNL     1      23.608 -23.907  20.420  1.00  0.00     0.041 C 
ATOM      3  O   UNL     1      24.487 -23.103  20.012  1.00  0.00    -0.550 OA
ATOM      4  O   UNL     1      23.258 -23.919  21.764  1.00  0.00    -0.550 OA
ENDBRANCH   1   2
BRANCH   1   5
ATOM      5  C   UNL     1      22.129 -25.895  20.204  1.00  0.00     0.006 C 
BRANCH   5   6
ATOM      6  C   UNL     1      20.620 -25.631  20.144  1.00  0.00    -0.003 C 
ATOM      7  C   UNL     1      19.827 -26.871  20.548  1.00  0.00     0.004 C 
ENDBRANCH   5   6
ENDBRANCH   1   5
TORSDOF 3
ENDMDL
MODEL 3
REMARK VINA RESULT:    -3.226     13.059     14.444
REMARK INTER + INTRA:          -3.861
REMARK INTER:                  -3.766
REMARK INTRA:                  -0.095
REMARK UNBOUND:                -0.069
REMARK SMILES CCCCC(=O)[O-]
REMARK SMILES IDX 4 1 5 2 6 3 7 4 3 5 2 6 1 7
REMARK H PARENT
REMARK Flexibility Score: inf
ROOT
ATOM      1  C   UNL     1      22.172 -24.960  20.717  1.00  0.00     0.053 C 
ENDROOT
BRANCH   1   2
ATOM      2  C   UNL     1      23.233 -24.603  19.725  1.00  0.00     0.041 C 
ATOM      3  O   UNL     1      23.333 -25.245  18.645  1.00  0.00    -0.550 OA
ATOM      4  O   UNL     1      24.079 -23.530  19.968  1.00  0.00    -0.550 OA
ENDBRANCH   1   2
BRANCH   1   5
ATOM      5  C   UNL     1      20.888 -25.387  20.000  1.00  0.00     0.006 C 
BRANCH   5   6
ATOM      6  C   UNL     1      20.290 -26.643  20.645  1.00  0.00    -0.003 C 
ATOM      7  C   UNL     1      21.356 -27.715  20.856  1.00  0.00     0.004 C 
ENDBRANCH   5   6
ENDBRANCH   1   5
TORSDOF 3
ENDMDL
MODEL 4
REMARK VINA RESULT:    -3.222      7.804      8.416
REMARK INTER + INTRA:          -3.856
REMARK INTER:                  -3.811
REMARK INTRA:                  -0.046
REMARK UNBOUND:                -0.069
REMARK SMILES CCCCC(=O)[O-]
REMARK SMILES IDX 4 1 5 2 6 3 7 4 3 5 2 6 1 7
REMARK H PARENT
REMARK Flexibility Score: inf
ROOT
ATOM      1  C   UNL     1      14.361 -31.452  21.261  1.00  0.00     0.053 C 
ENDROOT
BRANCH   1   2
ATOM      2  C   UNL     1      14.355 -32.891  20.852  1.00  0.00     0.041 C 
ATOM      3  O   UNL     1      13.900 -33.228  19.727  1.00  0.00    -0.550 OA
ATOM      4  O   UNL     1      14.898 -33.855  21.691  1.00  0.00    -0.550 OA
ENDBRANCH   1   2
BRANCH   1   5
ATOM      5  C   UNL     1      13.021 -31.070  21.897  1.00  0.00     0.006 C 
BRANCH   5   6
ATOM      6  C   UNL     1      13.148 -30.962  23.421  1.00  0.00    -0.003 C 
ATOM      7  C   UNL     1      13.073 -29.508  23.879  1.00  0.00     0.004 C 
ENDBRANCH   5   6
ENDBRANCH   1   5
TORSDOF 3
ENDMDL
MODEL 5
REMARK VINA RESULT:    -3.202      7.894      8.710
REMARK INTER + INTRA:          -3.832
REMARK INTER:                  -3.785
REMARK INTRA:                  -0.047
REMARK UNBOUND:                -0.069
REMARK SMILES CCCCC(=O)[O-]
REMARK SMILES IDX 4 1 5 2 6 3 7 4 3 5 2 6 1 7
REMARK H PARENT
REMARK Flexibility Score: inf
ROOT
ATOM      1  C   UNL     1      14.004 -30.837  21.624  1.00  0.00     0.053 C 
ENDROOT
BRANCH   1   2
ATOM      2  C   UNL     1      14.192 -32.306  21.415  1.00  0.00     0.041 C 
ATOM      3  O   UNL     1      14.606 -33.033  22.356  1.00  0.00    -0.550 OA
ATOM      4  O   UNL     1      13.861 -32.882  20.195  1.00  0.00    -0.550 OA
ENDBRANCH   1   2
BRANCH   1   5
ATOM      5  C   UNL     1      12.811 -30.574  22.547  1.00  0.00     0.006 C 
BRANCH   5   6
ATOM      6  C   UNL     1      13.267 -29.935  23.864  1.00  0.00    -0.003 C 
ATOM      7  C   UNL     1      12.403 -28.728  24.219  1.00  0.00     0.004 C 
ENDBRANCH   5   6
ENDBRANCH   1   5
TORSDOF 3
ENDMDL
MODEL 6
REMARK VINA RESULT:    -3.200      7.099      7.901
REMARK INTER + INTRA:          -3.830
REMARK INTER:                  -3.808
REMARK INTRA:                  -0.022
REMARK UNBOUND:                -0.069
REMARK SMILES CCCCC(=O)[O-]
REMARK SMILES IDX 4 1 5 2 6 3 7 4 3 5 2 6 1 7
REMARK H PARENT
REMARK Flexibility Score: inf
ROOT
ATOM      1  C   UNL     1      15.065 -33.976  19.845  1.00  0.00     0.053 C 
ENDROOT
BRANCH   1   2
ATOM      2  C   UNL     1      14.387 -33.094  20.845  1.00  0.00     0.041 C 
ATOM      3  O   UNL     1      14.665 -33.193  22.070  1.00  0.00    -0.550 OA
ATOM      4  O   UNL     1      13.485 -32.127  20.421  1.00  0.00    -0.550 OA
ENDBRANCH   1   2
BRANCH   1   5
ATOM      5  C   UNL     1      15.832 -35.098  20.551  1.00  0.00     0.006 C 
BRANCH   5   6
ATOM      6  C   UNL     1      16.529 -36.010  19.535  1.00  0.00    -0.003 C 
ATOM      7  C   UNL     1      17.464 -36.996  20.231  1.00  0.00     0.004 C 
ENDBRANCH   5   6
ENDBRANCH   1   5
TORSDOF 3
ENDMDL
MODEL 7
REMARK VINA RESULT:    -3.063      7.679      8.938
REMARK INTER + INTRA:          -3.670
REMARK INTER:                  -3.625
REMARK INTRA:                  -0.044
REMARK UNBOUND:                -0.069
REMARK SMILES CCCCC(=O)[O-]
REMARK SMILES IDX 4 1 5 2 6 3 7 4 3 5 2 6 1 7
REMARK H PARENT
REMARK Flexibility Score: inf
ROOT
ATOM      1  C   UNL     1      13.782 -31.077  22.543  1.00  0.00     0.053 C 
ENDROOT
BRANCH   1   2
ATOM      2  C   UNL     1      12.772 -30.107  23.070  1.00  0.00     0.041 C 
ATOM      3  O   UNL     1      12.985 -29.494  24.150  1.00  0.00    -0.550 OA
ATOM      4  O   UNL     1      11.618 -29.842  22.345  1.00  0.00    -0.550 OA
ENDBRANCH   1   2
BRANCH   1   5
ATOM      5  C   UNL     1      13.438 -31.482  21.107  1.00  0.00     0.006 C 
BRANCH   5   6
ATOM      6  C   UNL     1      14.166 -32.772  20.712  1.00  0.00    -0.003 C 
ATOM      7  C   UNL     1      14.893 -33.383  21.906  1.00  0.00     0.004 C 
ENDBRANCH   5   6
ENDBRANCH   1   5
TORSDOF 3
ENDMDL
MODEL 8
REMARK VINA RESULT:    -3.037      7.819      8.919
REMARK INTER + INTRA:          -3.639
REMARK INTER:                  -3.568
REMARK INTRA:                  -0.071
REMARK UNBOUND:                -0.069
REMARK SMILES CCCCC(=O)[O-]
REMARK SMILES IDX 4 1 5 2 6 3 7 4 3 5 2 6 1 7
REMARK H PARENT
REMARK Flexibility Score: inf
ROOT
ATOM      1  C   UNL     1      13.128 -30.238  23.267  1.00  0.00     0.053 C 
ENDROOT
BRANCH   1   2
ATOM      2  C   UNL     1      12.368 -30.595  22.029  1.00  0.00     0.041 C 
ATOM      3  O   UNL     1      12.902 -31.311  21.141  1.00  0.00    -0.550 OA
ATOM      4  O   UNL     1      11.051 -30.179  21.877  1.00  0.00    -0.550 OA
ENDBRANCH   1   2
BRANCH   1   5
ATOM      5  C   UNL     1      13.913 -31.448  23.782  1.00  0.00     0.006 C 
BRANCH   5   6
ATOM      6  C   UNL     1      15.417 -31.270  23.540  1.00  0.00    -0.003 C 
ATOM      7  C   UNL     1      15.749 -29.826  23.175  1.00  0.00     0.004 C 
ENDBRANCH   5   6
ENDBRANCH   1   5
TORSDOF 3
ENDMDL
MODEL 9
REMARK VINA RESULT:    -3.003      8.047      9.169
REMARK INTER + INTRA:          -3.599
REMARK INTER:                  -3.538
REMARK INTRA:                  -0.061
REMARK UNBOUND:                -0.069
REMARK SMILES CCCCC(=O)[O-]
REMARK SMILES IDX 4 1 5 2 6 3 7 4 3 5 2 6 1 7
REMARK H PARENT
REMARK Flexibility Score: inf
ROOT
ATOM      1  C   UNL     1      13.277 -29.879  23.547  1.00  0.00     0.053 C 
ENDROOT
BRANCH   1   2
ATOM      2  C   UNL     1      11.995 -29.135  23.343  1.00  0.00     0.041 C 
ATOM      3  O   UNL     1      11.235 -29.433  22.383  1.00  0.00    -0.550 OA
ATOM      4  O   UNL     1      11.614 -28.147  24.241  1.00  0.00    -0.550 OA
ENDBRANCH   1   2
BRANCH   1   5
ATOM      5  C   UNL     1      13.560 -30.798  22.356  1.00  0.00     0.006 C 
BRANCH   5   6
ATOM      6  C   UNL     1      14.249 -32.090  22.811  1.00  0.00    -0.003 C 
ATOM      7  C   UNL     1      13.878 -32.435  24.251  1.00  0.00     0.004 C 
ENDBRANCH   5   6
ENDBRANCH   1   5
TORSDOF 3
ENDMDL
