MODEL 1
REMARK VINA RESULT:     1.004      0.000      0.000
REMARK INTER + INTRA:           1.159
REMARK INTER:                   1.709
REMARK INTRA:                  -0.550
REMARK UNBOUND:                -0.550
REMARK SMILES CCCCCCCCCCCCCC(=O)[O-]
REMARK SMILES IDX 8 1 9 2 10 3 11 4 12 5 13 6 14 7 15 8 16 9 7 10 6 11 5 12
REMARK SMILES IDX 4 13 3 14 2 15 1 16
REMARK H PARENT
REMARK Flexibility Score: inf
ROOT
ATOM      1  C   UNL     1      21.519  22.450  47.280  1.00  0.00     0.000 C 
ENDROOT
BRANCH   1   2
ATOM      2  C   UNL     1      22.107  22.839  45.912  1.00  0.00     0.000 C 
BRANCH   2   3
ATOM      3  C   UNL     1      23.562  22.381  45.735  1.00  0.00     0.000 C 
BRANCH   3   4
ATOM      4  C   UNL     1      24.536  23.413  46.322  1.00  0.00     0.000 C 
BRANCH   4   5
ATOM      5  C   UNL     1      25.997  23.138  45.931  1.00  0.00     0.006 C 
BRANCH   5   6
ATOM      6  C   UNL     1      26.935  24.294  46.301  1.00  0.00     0.053 C 
BRANCH   6   7
ATOM      7  C   UNL     1      28.209  24.202  45.521  1.00  0.00     0.041 C 
ATOM      8  O   UNL     1      29.033  23.281  45.758  1.00  0.00    -0.550 OA
ATOM      9  O   UNL     1      28.463  25.106  44.496  1.00  0.00    -0.550 OA
ENDBRANCH   6   7
ENDBRANCH   5   6
ENDBRANCH   4   5
ENDBRANCH   3   4
ENDBRANCH   2   3
ENDBRANCH   1   2
BRANCH   1  10
ATOM     10  C   UNL     1      20.039  22.017  47.252  1.00  0.00     0.000 C 
BRANCH  10  11
ATOM     11  C   UNL     1      19.092  22.865  48.124  1.00  0.00    -0.000 C 
BRANCH  11  12
ATOM     12  C   UNL     1      19.320  24.385  48.044  1.00  0.00    -0.000 C 
BRANCH  12  13
ATOM     13  C   UNL     1      18.171  25.125  47.343  1.00  0.00    -0.000 C 
BRANCH  13  14
ATOM     14  C   UNL     1      17.571  24.271  46.221  1.00  0.00    -0.000 C 
BRANCH  14  15
ATOM     15  C   UNL     1      18.478  24.269  44.986  1.00  0.00    -0.003 C 
ATOM     16  C   UNL     1      17.706  24.673  43.733  1.00  0.00     0.004 C 
ENDBRANCH  14  15
ENDBRANCH  13  14
ENDBRANCH  12  13
ENDBRANCH  11  12
ENDBRANCH  10  11
ENDBRANCH   1  10
TORSDOF 12
ENDMDL
MODEL 2
REMARK VINA RESULT:     1.178      3.724      8.162
REMARK INTER + INTRA:           1.455
REMARK INTER:                   2.079
REMARK INTRA:                  -0.624
REMARK UNBOUND:                -0.550
REMARK SMILES CCCCCCCCCCCCCC(=O)[O-]
REMARK SMILES IDX 8 1 9 2 10 3 11 4 12 5 13 6 14 7 15 8 16 9 7 10 6 11 5 12
REMARK SMILES IDX 4 13 3 14 2 15 1 16
REMARK H PARENT
REMARK Flexibility Score: inf
ROOT
ATOM      1  C   UNL     1      22.046  22.523  46.010  1.00  0.00     0.000 C 
ENDROOT
BRANCH   1   2
ATOM      2  C   UNL     1      21.102  21.905  47.058  1.00  0.00     0.000 C 
BRANCH   2   3
ATOM      3  C   UNL     1      20.611  22.925  48.095  1.00  0.00     0.000 C 
BRANCH   3   4
ATOM      4  C   UNL     1      19.081  23.056  48.054  1.00  0.00     0.000 C 
BRANCH   4   5
ATOM      5  C   UNL     1      18.618  24.456  47.620  1.00  0.00     0.006 C 
BRANCH   5   6
ATOM      6  C   UNL     1      17.478  24.409  46.593  1.00  0.00     0.053 C 
BRANCH   6   7
ATOM      7  C   UNL     1      18.029  24.418  45.202  1.00  0.00     0.041 C 
ATOM      8  O   UNL     1      17.262  24.268  44.216  1.00  0.00    -0.550 OA
ATOM      9  O   UNL     1      19.385  24.642  44.993  1.00  0.00    -0.550 OA
ENDBRANCH   6   7
ENDBRANCH   5   6
ENDBRANCH   4   5
ENDBRANCH   3   4
ENDBRANCH   2   3
ENDBRANCH   1   2
BRANCH   1  10
ATOM     10  C   UNL     1      23.400  23.010  46.564  1.00  0.00     0.000 C 
BRANCH  10  11
ATOM     11  C   UNL     1      24.584  22.910  45.581  1.00  0.00    -0.000 C 
BRANCH  11  12
ATOM     12  C   UNL     1      25.933  23.396  46.139  1.00  0.00    -0.000 C 
BRANCH  12  13
ATOM     13  C   UNL     1      26.546  24.535  45.311  1.00  0.00    -0.000 C 
BRANCH  13  14
ATOM     14  C   UNL     1      28.067  24.595  45.500  1.00  0.00    -0.000 C 
BRANCH  14  15
ATOM     15  C   UNL     1      28.584  23.337  46.206  1.00  0.00    -0.003 C 
ATOM     16  C   UNL     1      29.611  22.606  45.346  1.00  0.00     0.004 C 
ENDBRANCH  14  15
ENDBRANCH  13  14
ENDBRANCH  12  13
ENDBRANCH  11  12
ENDBRANCH  10  11
ENDBRANCH   1  10
TORSDOF 12
ENDMDL
MODEL 3
REMARK VINA RESULT:     1.743     15.088     18.611
REMARK INTER + INTRA:           2.416
REMARK INTER:                   1.494
REMARK INTRA:                   0.922
REMARK UNBOUND:                -0.550
REMARK SMILES CCCCCCCCCCCCCC(=O)[O-]
REMARK SMILES IDX 8 1 9 2 10 3 11 4 12 5 13 6 14 7 15 8 16 9 7 10 6 11 5 12
REMARK SMILES IDX 4 13 3 14 2 15 1 16
REMARK H PARENT
REMARK Flexibility Score: inf
ROOT
ATOM      1  C   UNL     1      32.473  24.295  34.220  1.00  0.00     0.000 C 
ENDROOT
BRANCH   1   2
ATOM      2  C   UNL     1      31.390  25.100  34.962  1.00  0.00     0.000 C 
BRANCH   2   3
ATOM      3  C   UNL     1      29.970  24.784  34.470  1.00  0.00     0.000 C 
BRANCH   3   4
ATOM      4  C   UNL     1      30.006  24.104  33.093  1.00  0.00     0.000 C 
BRANCH   4   5
ATOM      5  C   UNL     1      29.350  24.957  31.995  1.00  0.00     0.006 C 
BRANCH   5   6
ATOM      6  C   UNL     1      30.248  25.124  30.762  1.00  0.00     0.053 C 
BRANCH   6   7
ATOM      7  C   UNL     1      29.557  24.608  29.539  1.00  0.00     0.041 C 
ATOM      8  O   UNL     1      28.347  24.263  29.593  1.00  0.00    -0.550 OA
ATOM      9  O   UNL     1      30.235  24.555  28.328  1.00  0.00    -0.550 OA
ENDBRANCH   6   7
ENDBRANCH   5   6
ENDBRANCH   4   5
ENDBRANCH   3   4
ENDBRANCH   2   3
ENDBRANCH   1   2
BRANCH   1  10
ATOM     10  C   UNL     1      33.347  25.119  33.253  1.00  0.00     0.000 C 
BRANCH  10  11
ATOM     11  C   UNL     1      33.118  24.831  31.755  1.00  0.00    -0.000 C 
BRANCH  11  12
ATOM     12  C   UNL     1      34.382  24.442  30.969  1.00  0.00    -0.000 C 
BRANCH  12  13
ATOM     13  C   UNL     1      34.337  24.898  29.503  1.00  0.00    -0.000 C 
BRANCH  13  14
ATOM     14  C   UNL     1      33.738  23.808  28.606  1.00  0.00    -0.000 C 
BRANCH  14  15
ATOM     15  C   UNL     1      32.519  23.159  29.270  1.00  0.00    -0.003 C 
ATOM     16  C   UNL     1      31.879  22.120  28.353  1.00  0.00     0.004 C 
ENDBRANCH  14  15
ENDBRANCH  13  14
ENDBRANCH  12  13
ENDBRANCH  11  12
ENDBRANCH  10  11
ENDBRANCH   1  10
TORSDOF 12
ENDMDL
MODEL 4
REMARK VINA RESULT:     2.730      3.630      7.866
REMARK INTER + INTRA:           4.096
REMARK INTER:                   3.891
REMARK INTRA:                   0.205
REMARK UNBOUND:                -0.550
REMARK SMILES CCCCCCCCCCCCCC(=O)[O-]
REMARK SMILES IDX 8 1 9 2 10 3 11 4 12 5 13 6 14 7 15 8 16 9 7 10 6 11 5 12
REMARK SMILES IDX 4 13 3 14 2 15 1 16
REMARK H PARENT
REMARK Flexibility Score: inf
ROOT
ATOM      1  C   UNL     1      20.321  22.123  47.004  1.00  0.00     0.000 C 
ENDROOT
BRANCH   1   2
ATOM      2  C   UNL     1      19.951  23.223  48.015  1.00  0.00     0.000 C 
BRANCH   2   3
ATOM      3  C   UNL     1      18.457  23.578  47.991  1.00  0.00     0.000 C 
BRANCH   3   4
ATOM      4  C   UNL     1      18.239  24.990  47.427  1.00  0.00     0.000 C 
BRANCH   4   5
ATOM      5  C   UNL     1      16.913  25.125  46.663  1.00  0.00     0.006 C 
BRANCH   5   6
ATOM      6  C   UNL     1      16.918  24.362  45.332  1.00  0.00     0.053 C 
BRANCH   6   7
ATOM      7  C   UNL     1      18.056  24.817  44.474  1.00  0.00     0.041 C 
ATOM      8  O   UNL     1      19.213  24.922  44.958  1.00  0.00    -0.550 OA
ATOM      9  O   UNL     1      17.848  25.078  43.125  1.00  0.00    -0.550 OA
ENDBRANCH   6   7
ENDBRANCH   5   6
ENDBRANCH   4   5
ENDBRANCH   3   4
ENDBRANCH   2   3
ENDBRANCH   1   2
BRANCH   1  10
ATOM     10  C   UNL     1      21.349  22.543  45.934  1.00  0.00     0.000 C 
BRANCH  10  11
ATOM     11  C   UNL     1      22.810  22.153  46.240  1.00  0.00    -0.000 C 
BRANCH  11  12
ATOM     12  C   UNL     1      23.865  23.166  45.763  1.00  0.00    -0.000 C 
BRANCH  12  13
ATOM     13  C   UNL     1      25.292  22.786  46.188  1.00  0.00    -0.000 C 
BRANCH  13  14
ATOM     14  C   UNL     1      26.290  23.887  45.811  1.00  0.00    -0.000 C 
BRANCH  14  15
ATOM     15  C   UNL     1      27.729  23.448  46.103  1.00  0.00    -0.003 C 
ATOM     16  C   UNL     1      28.714  24.585  45.846  1.00  0.00     0.004 C 
ENDBRANCH  14  15
ENDBRANCH  13  14
ENDBRANCH  12  13
ENDBRANCH  11  12
ENDBRANCH  10  11
ENDBRANCH   1  10
TORSDOF 12
ENDMDL
