MODEL 1
REMARK VINA RESULT:    -3.320      0.000      0.000
REMARK INTER + INTRA:          -5.066
REMARK INTER:                  -4.679
REMARK INTRA:                  -0.387
REMARK UNBOUND:                -0.387
REMARK SMILES CCCCCCCCC(=O)[O-]
REMARK SMILES IDX 6 1 7 2 8 3 9 4 10 5 11 6 5 7 4 8 3 9 2 10 1 11
REMARK H PARENT
REMARK Flexibility Score: inf
ROOT
ATOM      1  C   UNL     1      -4.539  -5.245   8.547  1.00  0.00     0.000 C 
ENDROOT
BRANCH   1   2
ATOM      2  C   UNL     1      -3.567  -6.428   8.468  1.00  0.00     0.006 C 
BRANCH   2   3
ATOM      3  C   UNL     1      -3.882  -7.320   7.262  1.00  0.00     0.053 C 
BRANCH   3   4
ATOM      4  C   UNL     1      -2.697  -7.410   6.355  1.00  0.00     0.041 C 
ATOM      5  O   UNL     1      -2.750  -6.929   5.191  1.00  0.00    -0.550 OA
ATOM      6  O   UNL     1      -1.516  -7.983   6.808  1.00  0.00    -0.550 OA
ENDBRANCH   3   4
ENDBRANCH   2   3
ENDBRANCH   1   2
BRANCH   1   7
ATOM      7  C   UNL     1      -4.990  -4.809   7.146  1.00  0.00     0.000 C 
BRANCH   7   8
ATOM      8  C   UNL     1      -6.042  -3.688   7.184  1.00  0.00    -0.000 C 
BRANCH   8   9
ATOM      9  C   UNL     1      -7.418  -4.182   7.653  1.00  0.00    -0.000 C 
BRANCH   9  10
ATOM     10  C   UNL     1      -7.976  -5.242   6.696  1.00  0.00    -0.003 C 
ATOM     11  C   UNL     1      -8.599  -4.598   5.461  1.00  0.00     0.004 C 
ENDBRANCH   9  10
ENDBRANCH   8   9
ENDBRANCH   7   8
ENDBRANCH   1   7
TORSDOF 7
ENDMDL
MODEL 2
REMARK VINA RESULT:    -3.283      1.469      2.409
REMARK INTER + INTRA:          -5.013
REMARK INTER:                  -4.637
REMARK INTRA:                  -0.376
REMARK UNBOUND:                -0.387
REMARK SMILES CCCCCCCCC(=O)[O-]
REMARK SMILES IDX 6 1 7 2 8 3 9 4 10 5 11 6 5 7 4 8 3 9 2 10 1 11
REMARK H PARENT
REMARK Flexibility Score: inf
ROOT
ATOM      1  C   UNL     1      -3.771  -6.473   8.449  1.00  0.00     0.000 C 
ENDROOT
BRANCH   1   2
ATOM      2  C   UNL     1      -4.612  -7.471   7.643  1.00  0.00     0.006 C 
BRANCH   2   3
ATOM      3  C   UNL     1      -3.719  -8.476   6.907  1.00  0.00     0.053 C 
BRANCH   3   4
ATOM      4  C   UNL     1      -2.551  -7.780   6.285  1.00  0.00     0.041 C 
ATOM      5  O   UNL     1      -1.380  -8.030   6.677  1.00  0.00    -0.550 OA
ATOM      6  O   UNL     1      -2.749  -6.891   5.236  1.00  0.00    -0.550 OA
ENDBRANCH   3   4
ENDBRANCH   2   3
ENDBRANCH   1   2
BRANCH   1   7
ATOM      7  C   UNL     1      -4.493  -5.123   8.575  1.00  0.00     0.000 C 
BRANCH   7   8
ATOM      8  C   UNL     1      -5.188  -4.699   7.271  1.00  0.00    -0.000 C 
BRANCH   8   9
ATOM      9  C   UNL     1      -5.997  -3.403   7.424  1.00  0.00    -0.000 C 
BRANCH   9  10
ATOM     10  C   UNL     1      -6.279  -3.104   8.901  1.00  0.00    -0.003 C 
ATOM     11  C   UNL     1      -6.372  -1.602   9.152  1.00  0.00     0.004 C 
ENDBRANCH   9  10
ENDBRANCH   8   9
ENDBRANCH   7   8
ENDBRANCH   1   7
TORSDOF 7
ENDMDL
MODEL 3
REMARK VINA RESULT:    -3.259      1.437      2.256
REMARK INTER + INTRA:          -4.980
REMARK INTER:                  -4.470
REMARK INTRA:                  -0.510
REMARK UNBOUND:                -0.387
REMARK SMILES CCCCCCCCC(=O)[O-]
REMARK SMILES IDX 6 1 7 2 8 3 9 4 10 5 11 6 5 7 4 8 3 9 2 10 1 11
REMARK H PARENT
REMARK Flexibility Score: inf
ROOT
ATOM      1  C   UNL     1      -3.182  -6.997   8.731  1.00  0.00     0.000 C 
ENDROOT
BRANCH   1   2
ATOM      2  C   UNL     1      -3.506  -8.408   8.223  1.00  0.00     0.006 C 
BRANCH   2   3
ATOM      3  C   UNL     1      -3.849  -8.391   6.730  1.00  0.00     0.053 C 
BRANCH   3   4
ATOM      4  C   UNL     1      -2.676  -7.923   5.929  1.00  0.00     0.041 C 
ATOM      5  O   UNL     1      -2.764  -6.882   5.225  1.00  0.00    -0.550 OA
ATOM      6  O   UNL     1      -1.469  -8.608   5.996  1.00  0.00    -0.550 OA
ENDBRANCH   3   4
ENDBRANCH   2   3
ENDBRANCH   1   2
BRANCH   1   7
ATOM      7  C   UNL     1      -4.392  -6.378   9.445  1.00  0.00     0.000 C 
BRANCH   7   8
ATOM      8  C   UNL     1      -4.701  -4.953   8.959  1.00  0.00    -0.000 C 
BRANCH   8   9
ATOM      9  C   UNL     1      -4.889  -4.872   7.437  1.00  0.00    -0.000 C 
BRANCH   9  10
ATOM     10  C   UNL     1      -5.965  -3.843   7.071  1.00  0.00    -0.003 C 
ATOM     11  C   UNL     1      -6.194  -2.855   8.210  1.00  0.00     0.004 C 
ENDBRANCH   9  10
ENDBRANCH   8   9
ENDBRANCH   7   8
ENDBRANCH   1   7
TORSDOF 7
ENDMDL
MODEL 4
REMARK VINA RESULT:    -3.228     17.782     19.033
REMARK INTER + INTRA:          -4.936
REMARK INTER:                  -4.208
REMARK INTRA:                  -0.728
REMARK UNBOUND:                -0.387
REMARK SMILES CCCCCCCCC(=O)[O-]
REMARK SMILES IDX 6 1 7 2 8 3 9 4 10 5 11 6 5 7 4 8 3 9 2 10 1 11
REMARK H PARENT
REMARK Flexibility Score: inf
ROOT
ATOM      1  C   UNL     1       5.167  -0.205  -9.125  1.00  0.00     0.000 C 
ENDROOT
BRANCH   1   2
ATOM      2  C   UNL     1       6.272  -0.873  -8.298  1.00  0.00     0.006 C 
BRANCH   2   3
ATOM      3  C   UNL     1       5.697  -1.531  -7.040  1.00  0.00     0.053 C 
BRANCH   3   4
ATOM      4  C   UNL     1       6.693  -1.491  -5.926  1.00  0.00     0.041 C 
ATOM      5  O   UNL     1       7.565  -0.582  -5.888  1.00  0.00    -0.550 OA
ATOM      6  O   UNL     1       6.631  -2.427  -4.902  1.00  0.00    -0.550 OA
ENDBRANCH   3   4
ENDBRANCH   2   3
ENDBRANCH   1   2
BRANCH   1   7
ATOM      7  C   UNL     1       5.247   1.325  -9.014  1.00  0.00     0.000 C 
BRANCH   7   8
ATOM      8  C   UNL     1       6.553   1.804  -8.360  1.00  0.00    -0.000 C 
BRANCH   8   9
ATOM      9  C   UNL     1       6.310   2.709  -7.143  1.00  0.00    -0.000 C 
BRANCH   9  10
ATOM     10  C   UNL     1       5.227   2.122  -6.230  1.00  0.00    -0.003 C 
ATOM     11  C   UNL     1       4.192   3.178  -5.853  1.00  0.00     0.004 C 
ENDBRANCH   9  10
ENDBRANCH   8   9
ENDBRANCH   7   8
ENDBRANCH   1   7
TORSDOF 7
ENDMDL
MODEL 5
REMARK VINA RESULT:    -3.215     18.005     19.176
REMARK INTER + INTRA:          -4.917
REMARK INTER:                  -4.345
REMARK INTRA:                  -0.572
REMARK UNBOUND:                -0.387
REMARK SMILES CCCCCCCCC(=O)[O-]
REMARK SMILES IDX 6 1 7 2 8 3 9 4 10 5 11 6 5 7 4 8 3 9 2 10 1 11
REMARK H PARENT
REMARK Flexibility Score: inf
ROOT
ATOM      1  C   UNL     1       8.577   1.474  -6.873  1.00  0.00     0.000 C 
ENDROOT
BRANCH   1   2
ATOM      2  C   UNL     1       8.285   0.218  -6.043  1.00  0.00     0.006 C 
BRANCH   2   3
ATOM      3  C   UNL     1       6.780   0.048  -5.812  1.00  0.00     0.053 C 
BRANCH   3   4
ATOM      4  C   UNL     1       6.380  -1.381  -5.999  1.00  0.00     0.041 C 
ATOM      5  O   UNL     1       6.763  -2.259  -5.181  1.00  0.00    -0.550 OA
ATOM      6  O   UNL     1       5.543  -1.738  -7.049  1.00  0.00    -0.550 OA
ENDBRANCH   3   4
ENDBRANCH   2   3
ENDBRANCH   1   2
BRANCH   1   7
ATOM      7  C   UNL     1       7.286   2.049  -7.473  1.00  0.00     0.000 C 
BRANCH   7   8
ATOM      8  C   UNL     1       7.279   3.586  -7.499  1.00  0.00    -0.000 C 
BRANCH   8   9
ATOM      9  C   UNL     1       5.972   4.183  -6.957  1.00  0.00    -0.000 C 
BRANCH   9  10
ATOM     10  C   UNL     1       4.865   3.124  -6.907  1.00  0.00    -0.003 C 
ATOM     11  C   UNL     1       4.213   3.071  -5.528  1.00  0.00     0.004 C 
ENDBRANCH   9  10
ENDBRANCH   8   9
ENDBRANCH   7   8
ENDBRANCH   1   7
TORSDOF 7
ENDMDL
MODEL 6
REMARK VINA RESULT:    -3.210     14.474     15.532
REMARK INTER + INTRA:          -4.910
REMARK INTER:                  -4.314
REMARK INTRA:                  -0.596
REMARK UNBOUND:                -0.387
REMARK SMILES CCCCCCCCC(=O)[O-]
REMARK SMILES IDX 6 1 7 2 8 3 9 4 10 5 11 6 5 7 4 8 3 9 2 10 1 11
REMARK H PARENT
REMARK Flexibility Score: inf
ROOT
ATOM      1  C   UNL     1      -6.265   9.036   5.023  1.00  0.00     0.000 C 
ENDROOT
BRANCH   1   2
ATOM      2  C   UNL     1      -5.148   8.263   4.311  1.00  0.00     0.006 C 
BRANCH   2   3
ATOM      3  C   UNL     1      -4.575   9.073   3.144  1.00  0.00     0.053 C 
BRANCH   3   4
ATOM      4  C   UNL     1      -4.971   8.462   1.838  1.00  0.00     0.041 C 
ATOM      5  O   UNL     1      -4.988   9.162   0.790  1.00  0.00    -0.550 OA
ATOM      6  O   UNL     1      -5.274   7.109   1.767  1.00  0.00    -0.550 OA
ENDBRANCH   3   4
ENDBRANCH   2   3
ENDBRANCH   1   2
BRANCH   1   7
ATOM      7  C   UNL     1      -5.711   9.824   6.219  1.00  0.00     0.000 C 
BRANCH   7   8
ATOM      8  C   UNL     1      -4.824   8.965   7.134  1.00  0.00    -0.000 C 
BRANCH   8   9
ATOM      9  C   UNL     1      -3.687   9.770   7.783  1.00  0.00    -0.000 C 
BRANCH   9  10
ATOM     10  C   UNL     1      -2.323   9.326   7.242  1.00  0.00    -0.003 C 
ATOM     11  C   UNL     1      -2.049   9.935   5.870  1.00  0.00     0.004 C 
ENDBRANCH   9  10
ENDBRANCH   8   9
ENDBRANCH   7   8
ENDBRANCH   1   7
TORSDOF 7
ENDMDL
MODEL 7
REMARK VINA RESULT:    -3.181     19.484     20.211
REMARK INTER + INTRA:          -4.870
REMARK INTER:                  -4.137
REMARK INTRA:                  -0.733
REMARK UNBOUND:                -0.387
REMARK SMILES CCCCCCCCC(=O)[O-]
REMARK SMILES IDX 6 1 7 2 8 3 9 4 10 5 11 6 5 7 4 8 3 9 2 10 1 11
REMARK H PARENT
REMARK Flexibility Score: inf
ROOT
ATOM      1  C   UNL     1       5.087   9.719  -0.310  1.00  0.00     0.000 C 
ENDROOT
BRANCH   1   2
ATOM      2  C   UNL     1       6.037   9.311   0.823  1.00  0.00     0.006 C 
BRANCH   2   3
ATOM      3  C   UNL     1       7.453   9.061   0.293  1.00  0.00     0.053 C 
BRANCH   3   4
ATOM      4  C   UNL     1       7.860   7.643   0.536  1.00  0.00     0.041 C 
ATOM      5  O   UNL     1       6.990   6.767   0.783  1.00  0.00    -0.550 OA
ATOM      6  O   UNL     1       9.198   7.278   0.443  1.00  0.00    -0.550 OA
ENDBRANCH   3   4
ENDBRANCH   2   3
ENDBRANCH   1   2
BRANCH   1   7
ATOM      7  C   UNL     1       5.840   9.834  -1.643  1.00  0.00     0.000 C 
BRANCH   7   8
ATOM      8  C   UNL     1       5.005   9.348  -2.838  1.00  0.00    -0.000 C 
BRANCH   8   9
ATOM      9  C   UNL     1       5.736   8.295  -3.684  1.00  0.00    -0.000 C 
BRANCH   9  10
ATOM     10  C   UNL     1       6.401   7.240  -2.793  1.00  0.00    -0.003 C 
ATOM     11  C   UNL     1       7.869   7.050  -3.163  1.00  0.00     0.004 C 
ENDBRANCH   9  10
ENDBRANCH   8   9
ENDBRANCH   7   8
ENDBRANCH   1   7
TORSDOF 7
ENDMDL
MODEL 8
REMARK VINA RESULT:    -3.158     18.341     19.390
REMARK INTER + INTRA:          -4.837
REMARK INTER:                  -4.207
REMARK INTRA:                  -0.630
REMARK UNBOUND:                -0.387
REMARK SMILES CCCCCCCCC(=O)[O-]
REMARK SMILES IDX 6 1 7 2 8 3 9 4 10 5 11 6 5 7 4 8 3 9 2 10 1 11
REMARK H PARENT
REMARK Flexibility Score: inf
ROOT
ATOM      1  C   UNL     1       7.514   0.800  -6.536  1.00  0.00     0.000 C 
ENDROOT
BRANCH   1   2
ATOM      2  C   UNL     1       6.949   2.083  -7.157  1.00  0.00     0.006 C 
BRANCH   2   3
ATOM      3  C   UNL     1       5.416   2.068  -7.154  1.00  0.00     0.053 C 
BRANCH   3   4
ATOM      4  C   UNL     1       4.883   3.216  -6.357  1.00  0.00     0.041 C 
ATOM      5  O   UNL     1       4.114   3.008  -5.382  1.00  0.00    -0.550 OA
ATOM      6  O   UNL     1       5.274   4.514  -6.660  1.00  0.00    -0.550 OA
ENDBRANCH   3   4
ENDBRANCH   2   3
ENDBRANCH   1   2
BRANCH   1   7
ATOM      7  C   UNL     1       6.389  -0.076  -5.966  1.00  0.00     0.000 C 
BRANCH   7   8
ATOM      8  C   UNL     1       6.394  -1.499  -6.548  1.00  0.00    -0.000 C 
BRANCH   8   9
ATOM      9  C   UNL     1       6.818  -1.534  -8.024  1.00  0.00    -0.000 C 
BRANCH   9  10
ATOM     10  C   UNL     1       5.606  -1.362  -8.947  1.00  0.00    -0.003 C 
ATOM     11  C   UNL     1       4.464  -2.286  -8.538  1.00  0.00     0.004 C 
ENDBRANCH   9  10
ENDBRANCH   8   9
ENDBRANCH   7   8
ENDBRANCH   1   7
TORSDOF 7
ENDMDL
MODEL 9
REMARK VINA RESULT:    -3.105     17.947     19.072
REMARK INTER + INTRA:          -4.763
REMARK INTER:                  -4.156
REMARK INTRA:                  -0.607
REMARK UNBOUND:                -0.387
REMARK SMILES CCCCCCCCC(=O)[O-]
REMARK SMILES IDX 6 1 7 2 8 3 9 4 10 5 11 6 5 7 4 8 3 9 2 10 1 11
REMARK H PARENT
REMARK Flexibility Score: inf
ROOT
ATOM      1  C   UNL     1       6.395  -0.050  -5.849  1.00  0.00     0.000 C 
ENDROOT
BRANCH   1   2
ATOM      2  C   UNL     1       6.172  -1.454  -6.423  1.00  0.00     0.006 C 
BRANCH   2   3
ATOM      3  C   UNL     1       6.453  -1.486  -7.928  1.00  0.00     0.053 C 
BRANCH   3   4
ATOM      4  C   UNL     1       5.173  -1.519  -8.700  1.00  0.00     0.041 C 
ATOM      5  O   UNL     1       4.867  -0.565  -9.464  1.00  0.00    -0.550 OA
ATOM      6  O   UNL     1       4.339  -2.626  -8.615  1.00  0.00    -0.550 OA
ENDBRANCH   3   4
ENDBRANCH   2   3
ENDBRANCH   1   2
BRANCH   1   7
ATOM      7  C   UNL     1       7.588   0.638  -6.528  1.00  0.00     0.000 C 
BRANCH   7   8
ATOM      8  C   UNL     1       7.219   2.001  -7.135  1.00  0.00    -0.000 C 
BRANCH   8   9
ATOM      9  C   UNL     1       5.708   2.162  -7.357  1.00  0.00    -0.000 C 
BRANCH   9  10
ATOM     10  C   UNL     1       5.184   3.428  -6.670  1.00  0.00    -0.003 C 
ATOM     11  C   UNL     1       4.125   3.092  -5.625  1.00  0.00     0.004 C 
ENDBRANCH   9  10
ENDBRANCH   8   9
ENDBRANCH   7   8
ENDBRANCH   1   7
TORSDOF 7
ENDMDL
