MODEL 1
REMARK VINA RESULT:    -4.386      0.000      0.000
REMARK INTER + INTRA:          -5.388
REMARK INTER:                  -5.155
REMARK INTRA:                  -0.233
REMARK UNBOUND:                -0.233
REMARK SMILES COc1cc2ccc(=O)oc2c(OC)c1OC
REMARK SMILES IDX 3 1 15 2 12 3 11 4 5 5 4 6 6 7 7 8 8 9 9 10 10 11 2 12 1 13
REMARK SMILES IDX 16 14 17 15 13 16 14 17
REMARK H PARENT
REMARK Flexibility Score: inf
ROOT
ATOM      1  C   UNL     1       6.910   6.125 -11.114  1.00  0.00     0.165 A 
ATOM      2  C   UNL     1       5.818   6.972 -10.770  1.00  0.00     0.207 A 
ATOM      3  C   UNL     1       4.985   6.621  -9.670  1.00  0.00     0.208 A 
ATOM      4  C   UNL     1       5.247   5.452  -8.943  1.00  0.00     0.184 A 
ATOM      5  C   UNL     1       6.328   4.623  -9.291  1.00  0.00     0.025 A 
ATOM      6  C   UNL     1       7.149   4.959 -10.365  1.00  0.00     0.062 A 
ATOM      7  C   UNL     1       6.553   3.465  -8.537  1.00  0.00     0.020 A 
ATOM      8  C   UNL     1       5.709   3.165  -7.470  1.00  0.00     0.094 A 
ATOM      9  C   UNL     1       4.654   4.034  -7.181  1.00  0.00     0.336 A 
ATOM     10  O   UNL     1       3.878   3.785  -6.221  1.00  0.00    -0.246 OA
ATOM     11  O   UNL     1       4.464   5.128  -7.915  1.00  0.00    -0.419 OA
ENDROOT
BRANCH   1  12
ATOM     12  O   UNL     1       7.741   6.458 -12.197  1.00  0.00    -0.493 OA
ATOM     13  C   UNL     1       7.579   5.989 -13.531  1.00  0.00     0.278 C 
ENDBRANCH   1  12
BRANCH   2  14
ATOM     14  O   UNL     1       5.524   8.153 -11.477  1.00  0.00    -0.490 OA
ATOM     15  C   UNL     1       4.506   8.345 -12.454  1.00  0.00     0.278 C 
ENDBRANCH   2  14
BRANCH   3  16
ATOM     16  O   UNL     1       3.879   7.387  -9.245  1.00  0.00    -0.490 OA
ATOM     17  C   UNL     1       3.878   8.420  -8.266  1.00  0.00     0.278 C 
ENDBRANCH   3  16
TORSDOF 3
ENDMDL
MODEL 2
REMARK VINA RESULT:    -4.298      6.832      9.942
REMARK INTER + INTRA:          -5.285
REMARK INTER:                  -5.048
REMARK INTRA:                  -0.237
REMARK UNBOUND:                -0.233
REMARK SMILES COc1cc2ccc(=O)oc2c(OC)c1OC
REMARK SMILES IDX 3 1 15 2 12 3 11 4 5 5 4 6 6 7 7 8 8 9 9 10 10 11 2 12 1 13
REMARK SMILES IDX 16 14 17 15 13 16 14 17
REMARK H PARENT
REMARK Flexibility Score: inf
ROOT
ATOM      1  C   UNL     1       6.580   0.247 -15.384  1.00  0.00     0.165 A 
ATOM      2  C   UNL     1       7.382   1.415 -15.534  1.00  0.00     0.207 A 
ATOM      3  C   UNL     1       7.323   2.148 -16.753  1.00  0.00     0.208 A 
ATOM      4  C   UNL     1       6.483   1.714 -17.787  1.00  0.00     0.184 A 
ATOM      5  C   UNL     1       5.694   0.560 -17.629  1.00  0.00     0.025 A 
ATOM      6  C   UNL     1       5.745  -0.163 -16.439  1.00  0.00     0.062 A 
ATOM      7  C   UNL     1       4.868   0.163 -18.687  1.00  0.00     0.020 A 
ATOM      8  C   UNL     1       4.847   0.915 -19.860  1.00  0.00     0.094 A 
ATOM      9  C   UNL     1       5.656   2.050 -19.948  1.00  0.00     0.336 A 
ATOM     10  O   UNL     1       5.653   2.745 -20.998  1.00  0.00    -0.246 OA
ATOM     11  O   UNL     1       6.431   2.403 -18.926  1.00  0.00    -0.419 OA
ENDROOT
BRANCH   1  12
ATOM     12  O   UNL     1       6.627  -0.486 -14.187  1.00  0.00    -0.493 OA
ATOM     13  C   UNL     1       6.609  -1.907 -14.093  1.00  0.00     0.278 C 
ENDBRANCH   1  12
BRANCH   2  14
ATOM     14  O   UNL     1       8.238   1.880 -14.518  1.00  0.00    -0.490 OA
ATOM     15  C   UNL     1       7.968   2.894 -13.556  1.00  0.00     0.278 C 
ENDBRANCH   2  14
BRANCH   3  16
ATOM     16  O   UNL     1       8.073   3.315 -17.006  1.00  0.00    -0.490 OA
ATOM     17  C   UNL     1       9.411   3.386 -17.488  1.00  0.00     0.278 C 
ENDBRANCH   3  16
TORSDOF 3
ENDMDL
MODEL 3
REMARK VINA RESULT:    -4.232      6.226      9.806
REMARK INTER + INTRA:          -5.207
REMARK INTER:                  -4.916
REMARK INTRA:                  -0.291
REMARK UNBOUND:                -0.233
REMARK SMILES COc1cc2ccc(=O)oc2c(OC)c1OC
REMARK SMILES IDX 3 1 15 2 12 3 11 4 5 5 4 6 6 7 7 8 8 9 9 10 10 11 2 12 1 13
REMARK SMILES IDX 16 14 17 15 13 16 14 17
REMARK H PARENT
REMARK Flexibility Score: inf
ROOT
ATOM      1  C   UNL     1       7.644   2.171 -15.335  1.00  0.00     0.165 A 
ATOM      2  C   UNL     1       8.493   3.056 -16.059  1.00  0.00     0.207 A 
ATOM      3  C   UNL     1       8.290   3.227 -17.458  1.00  0.00     0.208 A 
ATOM      4  C   UNL     1       7.263   2.526 -18.103  1.00  0.00     0.184 A 
ATOM      5  C   UNL     1       6.429   1.655 -17.380  1.00  0.00     0.025 A 
ATOM      6  C   UNL     1       6.621   1.482 -16.011  1.00  0.00     0.062 A 
ATOM      7  C   UNL     1       5.415   0.975 -18.065  1.00  0.00     0.020 A 
ATOM      8  C   UNL     1       5.259   1.176 -19.435  1.00  0.00     0.094 A 
ATOM      9  C   UNL     1       6.122   2.057 -20.090  1.00  0.00     0.336 A 
ATOM     10  O   UNL     1       6.000   2.255 -21.328  1.00  0.00    -0.246 OA
ATOM     11  O   UNL     1       7.077   2.689 -19.413  1.00  0.00    -0.419 OA
ENDROOT
BRANCH   1  12
ATOM     12  O   UNL     1       7.832   1.992 -13.954  1.00  0.00    -0.493 OA
ATOM     13  C   UNL     1       7.168   2.730 -12.933  1.00  0.00     0.278 C 
ENDBRANCH   1  12
BRANCH   2  14
ATOM     14  O   UNL     1       9.535   3.776 -15.444  1.00  0.00    -0.490 OA
ATOM     15  C   UNL     1      10.866   3.333 -15.201  1.00  0.00     0.278 C 
ENDBRANCH   2  14
BRANCH   3  16
ATOM     16  O   UNL     1       9.072   4.077 -18.268  1.00  0.00    -0.490 OA
ATOM     17  C   UNL     1      10.306   3.759 -18.901  1.00  0.00     0.278 C 
ENDBRANCH   3  16
TORSDOF 3
ENDMDL
MODEL 4
REMARK VINA RESULT:    -4.226      7.472     10.600
REMARK INTER + INTRA:          -5.200
REMARK INTER:                  -4.943
REMARK INTRA:                  -0.257
REMARK UNBOUND:                -0.233
REMARK SMILES COc1cc2ccc(=O)oc2c(OC)c1OC
REMARK SMILES IDX 3 1 15 2 12 3 11 4 5 5 4 6 6 7 7 8 8 9 9 10 10 11 2 12 1 13
REMARK SMILES IDX 16 14 17 15 13 16 14 17
REMARK H PARENT
REMARK Flexibility Score: inf
ROOT
ATOM      1  C   UNL     1       6.276   2.295 -19.263  1.00  0.00     0.165 A 
ATOM      2  C   UNL     1       6.512   2.897 -17.994  1.00  0.00     0.207 A 
ATOM      3  C   UNL     1       7.813   3.387 -17.687  1.00  0.00     0.208 A 
ATOM      4  C   UNL     1       8.841   3.271 -18.631  1.00  0.00     0.184 A 
ATOM      5  C   UNL     1       8.599   2.675 -19.882  1.00  0.00     0.025 A 
ATOM      6  C   UNL     1       7.328   2.194 -20.191  1.00  0.00     0.062 A 
ATOM      7  C   UNL     1       9.655   2.580 -20.796  1.00  0.00     0.020 A 
ATOM      8  C   UNL     1      10.910   3.074 -20.447  1.00  0.00     0.094 A 
ATOM      9  C   UNL     1      11.080   3.654 -19.188  1.00  0.00     0.336 A 
ATOM     10  O   UNL     1      12.206   4.108 -18.850  1.00  0.00    -0.246 OA
ATOM     11  O   UNL     1      10.058   3.731 -18.339  1.00  0.00    -0.419 OA
ENDROOT
BRANCH   1  12
ATOM     12  O   UNL     1       4.997   1.807 -19.580  1.00  0.00    -0.493 OA
ATOM     13  C   UNL     1       4.473   0.548 -19.169  1.00  0.00     0.278 C 
ENDBRANCH   1  12
BRANCH   2  14
ATOM     14  O   UNL     1       5.504   3.030 -17.021  1.00  0.00    -0.490 OA
ATOM     15  C   UNL     1       4.563   4.091 -16.890  1.00  0.00     0.278 C 
ENDBRANCH   2  14
BRANCH   3  16
ATOM     16  O   UNL     1       8.155   3.999 -16.463  1.00  0.00    -0.490 OA
ATOM     17  C   UNL     1       8.498   3.347 -15.246  1.00  0.00     0.278 C 
ENDBRANCH   3  16
TORSDOF 3
ENDMDL
MODEL 5
REMARK VINA RESULT:    -4.175      7.774      9.070
REMARK INTER + INTRA:          -5.139
REMARK INTER:                  -4.856
REMARK INTRA:                  -0.283
REMARK UNBOUND:                -0.233
REMARK SMILES COc1cc2ccc(=O)oc2c(OC)c1OC
REMARK SMILES IDX 3 1 15 2 12 3 11 4 5 5 4 6 6 7 7 8 8 9 9 10 10 11 2 12 1 13
REMARK SMILES IDX 16 14 17 15 13 16 14 17
REMARK H PARENT
REMARK Flexibility Score: inf
ROOT
ATOM      1  C   UNL     1      14.810   4.568  -6.850  1.00  0.00     0.165 A 
ATOM      2  C   UNL     1      13.888   3.817  -7.633  1.00  0.00     0.207 A 
ATOM      3  C   UNL     1      12.757   3.228  -7.002  1.00  0.00     0.208 A 
ATOM      4  C   UNL     1      12.564   3.392  -5.624  1.00  0.00     0.184 A 
ATOM      5  C   UNL     1      13.480   4.136  -4.859  1.00  0.00     0.025 A 
ATOM      6  C   UNL     1      14.590   4.716  -5.469  1.00  0.00     0.062 A 
ATOM      7  C   UNL     1      13.248   4.275  -3.485  1.00  0.00     0.020 A 
ATOM      8  C   UNL     1      12.126   3.678  -2.915  1.00  0.00     0.094 A 
ATOM      9  C   UNL     1      11.258   2.954  -3.734  1.00  0.00     0.336 A 
ATOM     10  O   UNL     1      10.237   2.405  -3.241  1.00  0.00    -0.246 OA
ATOM     11  O   UNL     1      11.503   2.838  -5.037  1.00  0.00    -0.419 OA
ENDROOT
BRANCH   1  12
ATOM     12  O   UNL     1      15.932   5.156  -7.459  1.00  0.00    -0.493 OA
ATOM     13  C   UNL     1      17.167   4.495  -7.715  1.00  0.00     0.278 C 
ENDBRANCH   1  12
BRANCH   2  14
ATOM     14  O   UNL     1      14.049   3.631  -9.019  1.00  0.00    -0.490 OA
ATOM     15  C   UNL     1      14.637   2.514  -9.679  1.00  0.00     0.278 C 
ENDBRANCH   2  14
BRANCH   3  16
ATOM     16  O   UNL     1      11.784   2.466  -7.682  1.00  0.00    -0.490 OA
ATOM     17  C   UNL     1      10.698   2.959  -8.459  1.00  0.00     0.278 C 
ENDBRANCH   3  16
TORSDOF 3
ENDMDL
MODEL 6
REMARK VINA RESULT:    -4.172      6.618     10.435
REMARK INTER + INTRA:          -5.136
REMARK INTER:                  -4.822
REMARK INTRA:                  -0.314
REMARK UNBOUND:                -0.233
REMARK SMILES COc1cc2ccc(=O)oc2c(OC)c1OC
REMARK SMILES IDX 3 1 15 2 12 3 11 4 5 5 4 6 6 7 7 8 8 9 9 10 10 11 2 12 1 13
REMARK SMILES IDX 16 14 17 15 13 16 14 17
REMARK H PARENT
REMARK Flexibility Score: inf
ROOT
ATOM      1  C   UNL     1       7.570   3.049 -16.115  1.00  0.00     0.165 A 
ATOM      2  C   UNL     1       6.705   2.928 -17.240  1.00  0.00     0.207 A 
ATOM      3  C   UNL     1       7.263   2.926 -18.549  1.00  0.00     0.208 A 
ATOM      4  C   UNL     1       8.649   3.043 -18.716  1.00  0.00     0.184 A 
ATOM      5  C   UNL     1       9.495   3.161 -17.599  1.00  0.00     0.025 A 
ATOM      6  C   UNL     1       8.958   3.163 -16.314  1.00  0.00     0.062 A 
ATOM      7  C   UNL     1      10.874   3.274 -17.812  1.00  0.00     0.020 A 
ATOM      8  C   UNL     1      11.370   3.268 -19.113  1.00  0.00     0.094 A 
ATOM      9  C   UNL     1      10.473   3.147 -20.177  1.00  0.00     0.336 A 
ATOM     10  O   UNL     1      10.898   3.138 -21.362  1.00  0.00    -0.246 OA
ATOM     11  O   UNL     1       9.167   3.041 -19.944  1.00  0.00    -0.419 OA
ENDROOT
BRANCH   1  12
ATOM     12  O   UNL     1       7.034   3.052 -14.816  1.00  0.00    -0.493 OA
ATOM     13  C   UNL     1       6.943   1.916 -13.963  1.00  0.00     0.278 C 
ENDBRANCH   1  12
BRANCH   2  14
ATOM     14  O   UNL     1       5.308   2.810 -17.111  1.00  0.00    -0.490 OA
ATOM     15  C   UNL     1       4.553   1.614 -16.951  1.00  0.00     0.278 C 
ENDBRANCH   2  14
BRANCH   3  16
ATOM     16  O   UNL     1       6.499   2.813 -19.730  1.00  0.00    -0.490 OA
ATOM     17  C   UNL     1       6.091   1.612 -20.374  1.00  0.00     0.278 C 
ENDBRANCH   3  16
TORSDOF 3
ENDMDL
MODEL 7
REMARK VINA RESULT:    -4.107     14.289     16.981
REMARK INTER + INTRA:          -5.060
REMARK INTER:                  -4.756
REMARK INTRA:                  -0.304
REMARK UNBOUND:                -0.233
REMARK SMILES COc1cc2ccc(=O)oc2c(OC)c1OC
REMARK SMILES IDX 3 1 15 2 12 3 11 4 5 5 4 6 6 7 7 8 8 9 9 10 10 11 2 12 1 13
REMARK SMILES IDX 16 14 17 15 13 16 14 17
REMARK H PARENT
REMARK Flexibility Score: inf
ROOT
ATOM      1  C   UNL     1      16.227  -3.383 -13.704  1.00  0.00     0.165 A 
ATOM      2  C   UNL     1      16.569  -4.507 -14.509  1.00  0.00     0.207 A 
ATOM      3  C   UNL     1      17.337  -4.310 -15.690  1.00  0.00     0.208 A 
ATOM      4  C   UNL     1      17.747  -3.019 -16.047  1.00  0.00     0.184 A 
ATOM      5  C   UNL     1      17.406  -1.914 -15.245  1.00  0.00     0.025 A 
ATOM      6  C   UNL     1      16.654  -2.098 -14.087  1.00  0.00     0.062 A 
ATOM      7  C   UNL     1      17.837  -0.642 -15.639  1.00  0.00     0.020 A 
ATOM      8  C   UNL     1      18.586  -0.502 -16.805  1.00  0.00     0.094 A 
ATOM      9  C   UNL     1      18.890  -1.641 -17.553  1.00  0.00     0.336 A 
ATOM     10  O   UNL     1      19.567  -1.540 -18.610  1.00  0.00    -0.246 OA
ATOM     11  O   UNL     1      18.467  -2.839 -17.154  1.00  0.00    -0.419 OA
ENDROOT
BRANCH   1  12
ATOM     12  O   UNL     1      15.469  -3.562 -12.534  1.00  0.00    -0.493 OA
ATOM     13  C   UNL     1      16.002  -3.664 -11.218  1.00  0.00     0.278 C 
ENDBRANCH   1  12
BRANCH   2  14
ATOM     14  O   UNL     1      16.174  -5.818 -14.182  1.00  0.00    -0.490 OA
ATOM     15  C   UNL     1      16.863  -6.747 -13.351  1.00  0.00     0.278 C 
ENDBRANCH   2  14
BRANCH   3  16
ATOM     16  O   UNL     1      17.729  -5.351 -16.557  1.00  0.00    -0.490 OA
ATOM     17  C   UNL     1      18.831  -6.236 -16.389  1.00  0.00     0.278 C 
ENDBRANCH   3  16
TORSDOF 3
ENDMDL
MODEL 8
REMARK VINA RESULT:    -4.071      6.352      9.294
REMARK INTER + INTRA:          -5.018
REMARK INTER:                  -4.729
REMARK INTRA:                  -0.289
REMARK UNBOUND:                -0.233
REMARK SMILES COc1cc2ccc(=O)oc2c(OC)c1OC
REMARK SMILES IDX 3 1 15 2 12 3 11 4 5 5 4 6 6 7 7 8 8 9 9 10 10 11 2 12 1 13
REMARK SMILES IDX 16 14 17 15 13 16 14 17
REMARK H PARENT
REMARK Flexibility Score: inf
ROOT
ATOM      1  C   UNL     1       8.717   3.244 -16.701  1.00  0.00     0.165 A 
ATOM      2  C   UNL     1       8.105   2.425 -15.708  1.00  0.00     0.207 A 
ATOM      3  C   UNL     1       6.972   1.639 -16.057  1.00  0.00     0.208 A 
ATOM      4  C   UNL     1       6.471   1.679 -17.365  1.00  0.00     0.184 A 
ATOM      5  C   UNL     1       7.082   2.489 -18.338  1.00  0.00     0.025 A 
ATOM      6  C   UNL     1       8.193   3.262 -18.006  1.00  0.00     0.062 A 
ATOM      7  C   UNL     1       6.550   2.498 -19.633  1.00  0.00     0.020 A 
ATOM      8  C   UNL     1       5.438   1.710 -19.923  1.00  0.00     0.094 A 
ATOM      9  C   UNL     1       4.882   0.929 -18.908  1.00  0.00     0.336 A 
ATOM     10  O   UNL     1       3.877   0.208 -19.146  1.00  0.00    -0.246 OA
ATOM     11  O   UNL     1       5.410   0.940 -17.686  1.00  0.00    -0.419 OA
ENDROOT
BRANCH   1  12
ATOM     12  O   UNL     1       9.837   4.026 -16.372  1.00  0.00    -0.493 OA
ATOM     13  C   UNL     1       9.841   5.445 -16.255  1.00  0.00     0.278 C 
ENDBRANCH   1  12
BRANCH   2  14
ATOM     14  O   UNL     1       8.580   2.361 -14.385  1.00  0.00    -0.490 OA
ATOM     15  C   UNL     1       8.234   3.216 -13.300  1.00  0.00     0.278 C 
ENDBRANCH   2  14
BRANCH   3  16
ATOM     16  O   UNL     1       6.292   0.796 -15.153  1.00  0.00    -0.490 OA
ATOM     17  C   UNL     1       6.645  -0.534 -14.791  1.00  0.00     0.278 C 
ENDBRANCH   3  16
TORSDOF 3
ENDMDL
MODEL 9
REMARK VINA RESULT:    -3.955     13.206     15.025
REMARK INTER + INTRA:          -4.881
REMARK INTER:                  -4.586
REMARK INTRA:                  -0.295
REMARK UNBOUND:                -0.233
REMARK SMILES COc1cc2ccc(=O)oc2c(OC)c1OC
REMARK SMILES IDX 3 1 15 2 12 3 11 4 5 5 4 6 6 7 7 8 8 9 9 10 10 11 2 12 1 13
REMARK SMILES IDX 16 14 17 15 13 16 14 17
REMARK H PARENT
REMARK Flexibility Score: inf
ROOT
ATOM      1  C   UNL     1      18.889  -2.125  -7.241  1.00  0.00     0.165 A 
ATOM      2  C   UNL     1      18.825  -0.802  -7.766  1.00  0.00     0.207 A 
ATOM      3  C   UNL     1      17.992  -0.539  -8.890  1.00  0.00     0.208 A 
ATOM      4  C   UNL     1      17.248  -1.578  -9.464  1.00  0.00     0.184 A 
ATOM      5  C   UNL     1      17.317  -2.880  -8.938  1.00  0.00     0.025 A 
ATOM      6  C   UNL     1      18.129  -3.147  -7.839  1.00  0.00     0.062 A 
ATOM      7  C   UNL     1      16.556  -3.889  -9.543  1.00  0.00     0.020 A 
ATOM      8  C   UNL     1      15.757  -3.579 -10.641  1.00  0.00     0.094 A 
ATOM      9  C   UNL     1      15.736  -2.264 -11.111  1.00  0.00     0.336 A 
ATOM     10  O   UNL     1      15.020  -1.960 -12.102  1.00  0.00    -0.246 OA
ATOM     11  O   UNL     1      16.469  -1.326 -10.516  1.00  0.00    -0.419 OA
ENDROOT
BRANCH   1  12
ATOM     12  O   UNL     1      19.707  -2.400  -6.133  1.00  0.00    -0.493 OA
ATOM     13  C   UNL     1      21.086  -2.749  -6.197  1.00  0.00     0.278 C 
ENDBRANCH   1  12
BRANCH   2  14
ATOM     14  O   UNL     1      19.558   0.266  -7.216  1.00  0.00    -0.490 OA
ATOM     15  C   UNL     1      20.884   0.667  -7.549  1.00  0.00     0.278 C 
ENDBRANCH   2  14
BRANCH   3  16
ATOM     16  O   UNL     1      17.856   0.731  -9.488  1.00  0.00    -0.490 OA
ATOM     17  C   UNL     1      18.680   1.293 -10.503  1.00  0.00     0.278 C 
ENDBRANCH   3  16
TORSDOF 3
ENDMDL
