MODEL 1
REMARK VINA RESULT:    18.222      0.000      0.000
REMARK INTER + INTRA:          26.990
REMARK INTER:                  25.678
REMARK INTRA:                   1.312
REMARK UNBOUND:                 1.312
REMARK SMILES CC1=CCC(=C(C)C)C(=O)CC(C)=CCC1
REMARK SMILES IDX 12 1 14 2 13 3 15 4 16 5 2 6 1 7 3 8 11 10 9 11 10 12 5 13
REMARK SMILES IDX 6 14 7 15 8 16 4 17
REMARK H PARENT
REMARK Flexibility Score: 60.00
ROOT
ATOM      1  C   UNL     1      32.927  11.710  40.927  1.00  0.00    -0.070 C 
ATOM      2  C   UNL     1      33.102  10.370  40.887  1.00  0.00    -0.027 C 
ATOM      3  C   UNL     1      32.055  12.275  42.019  1.00  0.00     0.039 C 
ENDROOT
BRANCH   2   4
ATOM      4  C   UNL     1      33.857   9.608  39.819  1.00  0.00     0.032 C 
BRANCH   4   5
ATOM      5  C   UNL     1      35.356   9.394  40.114  1.00  0.00     0.034 C 
BRANCH   5   6
ATOM      6  C   UNL     1      36.234  10.519  39.591  1.00  0.00    -0.077 C 
ATOM      7  C   UNL     1      36.900  10.323  38.252  1.00  0.00     0.039 C 
ATOM      8  C   UNL     1      36.513  11.653  40.279  1.00  0.00    -0.023 CG0
ATOM      9  G   UNL     1      35.949  12.070  41.623  1.00  0.00     0.000 G0
ENDBRANCH   5   6
ENDBRANCH   4   5
ENDBRANCH   2   4
BRANCH   1  10
ATOM     10  C   UNL     1      33.487  12.651  39.880  1.00  0.00     0.111 C 
BRANCH  10  11
ATOM     11  C   UNL     1      34.390  13.689  40.493  1.00  0.00     0.163 C 
ATOM     12  O   UNL     1      34.435  14.829  39.955  1.00  0.00    -0.294 OA
BRANCH  11  13
ATOM     13  C   UNL     1      35.270  13.395  41.662  1.00  0.00    -0.002 C 
ATOM     14  C   UNL     1      35.468  14.329  42.641  1.00  0.00    -0.069 C 
ATOM     15  C   UNL     1      36.472  14.123  43.753  1.00  0.00     0.039 C 
ATOM     16  C   UNL     1      34.684  15.624  42.659  1.00  0.00     0.039 C 
BRANCH  13  17
ATOM     17  C   UNL     1      36.003  12.063  41.664  1.00  0.00     0.066 CG0
ATOM     18  G   UNL     1      36.478  11.665  40.281  1.00  0.00     0.000 G0
ENDBRANCH  13  17
ENDBRANCH  11  13
ENDBRANCH  10  11
ENDBRANCH   1  10
TORSDOF 0
ENDMDL
MODEL 2
REMARK VINA RESULT:    18.901      1.172      1.562
REMARK INTER + INTRA:          27.948
REMARK INTER:                  27.763
REMARK INTRA:                   0.185
REMARK UNBOUND:                 1.312
REMARK SMILES CC1=CCC(=C(C)C)C(=O)CC(C)=CCC1
REMARK SMILES IDX 12 1 14 2 13 3 15 4 16 5 2 6 1 7 3 8 11 10 9 11 10 12 5 13
REMARK SMILES IDX 6 14 7 15 8 16 4 17
REMARK H PARENT
REMARK Flexibility Score: 60.00
ROOT
ATOM      1  C   UNL     1      32.725  11.391  41.482  1.00  0.00    -0.070 C 
ATOM      2  C   UNL     1      32.862  10.197  40.862  1.00  0.00    -0.027 C 
ATOM      3  C   UNL     1      32.549  11.392  42.979  1.00  0.00     0.039 C 
ENDROOT
BRANCH   2   4
ATOM      4  C   UNL     1      32.952   9.983  39.367  1.00  0.00     0.032 C 
BRANCH   4   5
ATOM      5  C   UNL     1      34.329   9.503  38.863  1.00  0.00     0.034 C 
BRANCH   5   6
ATOM      6  C   UNL     1      35.353   9.353  39.975  1.00  0.00    -0.077 C 
ATOM      7  C   UNL     1      35.487   7.999  40.625  1.00  0.00     0.039 C 
ATOM      8  C   UNL     1      36.101  10.370  40.466  1.00  0.00    -0.023 CG0
ATOM      9  G   UNL     1      36.147  11.799  39.961  1.00  0.00     0.000 G0
ENDBRANCH   5   6
ENDBRANCH   4   5
ENDBRANCH   2   4
BRANCH   1  10
ATOM     10  C   UNL     1      32.649  12.709  40.738  1.00  0.00     0.111 C 
BRANCH  10  11
ATOM     11  C   UNL     1      33.943  13.025  40.035  1.00  0.00     0.163 C 
ATOM     12  O   UNL     1      33.886  13.449  38.849  1.00  0.00    -0.294 OA
BRANCH  11  13
ATOM     13  C   UNL     1      35.275  12.793  40.667  1.00  0.00    -0.002 C 
ATOM     14  C   UNL     1      35.658  13.503  41.772  1.00  0.00    -0.069 C 
ATOM     15  C   UNL     1      37.056  13.407  42.341  1.00  0.00     0.039 C 
ATOM     16  C   UNL     1      34.692  14.426  42.484  1.00  0.00     0.039 C 
BRANCH  13  17
ATOM     17  C   UNL     1      36.213  11.815  39.978  1.00  0.00     0.066 CG0
ATOM     18  G   UNL     1      36.056  10.401  40.501  1.00  0.00     0.000 G0
ENDBRANCH  13  17
ENDBRANCH  11  13
ENDBRANCH  10  11
ENDBRANCH   1  10
TORSDOF 0
ENDMDL
MODEL 3
REMARK VINA RESULT:    19.773      1.642      3.115
REMARK INTER + INTRA:          29.176
REMARK INTER:                  27.376
REMARK INTRA:                   1.800
REMARK UNBOUND:                 1.312
REMARK SMILES CC1=CCC(=C(C)C)C(=O)CC(C)=CCC1
REMARK SMILES IDX 12 1 14 2 13 3 15 4 16 5 2 6 1 7 3 8 11 10 9 11 10 12 5 13
REMARK SMILES IDX 6 14 7 15 8 16 4 17
REMARK H PARENT
REMARK Flexibility Score: 60.00
ROOT
ATOM      1  C   UNL     1      34.785  10.354  40.637  1.00  0.00    -0.070 C 
ATOM      2  C   UNL     1      33.535  10.054  40.218  1.00  0.00    -0.027 C 
ATOM      3  C   UNL     1      35.939   9.640  39.979  1.00  0.00     0.039 C 
ENDROOT
BRANCH   2   4
ATOM      4  C   UNL     1      32.252  10.588  40.817  1.00  0.00     0.032 C 
BRANCH   4   5
ATOM      5  C   UNL     1      32.083  12.119  40.726  1.00  0.00     0.034 C 
BRANCH   5   6
ATOM      6  C   UNL     1      32.833  12.735  39.557  1.00  0.00    -0.077 C 
ATOM      7  C   UNL     1      32.603  12.145  38.189  1.00  0.00     0.039 C 
ATOM      8  C   UNL     1      33.745  13.731  39.674  1.00  0.00    -0.023 CG0
ATOM      9  G   UNL     1      34.122  14.482  40.936  1.00  0.00     0.000 G0
ENDBRANCH   5   6
ENDBRANCH   4   5
ENDBRANCH   2   4
BRANCH   1  10
ATOM     10  C   UNL     1      35.073  11.296  41.788  1.00  0.00     0.111 C 
BRANCH  10  11
ATOM     11  C   UNL     1      35.741  12.561  41.315  1.00  0.00     0.163 C 
ATOM     12  O   UNL     1      36.771  12.454  40.595  1.00  0.00    -0.294 OA
BRANCH  11  13
ATOM     13  C   UNL     1      35.268  13.917  41.721  1.00  0.00    -0.002 C 
ATOM     14  C   UNL     1      35.788  14.539  42.823  1.00  0.00    -0.069 C 
ATOM     15  C   UNL     1      35.222  15.839  43.350  1.00  0.00     0.039 C 
ATOM     16  C   UNL     1      36.964  13.951  43.572  1.00  0.00     0.039 C 
BRANCH  13  17
ATOM     17  C   UNL     1      34.127  14.525  40.920  1.00  0.00     0.066 CG0
ATOM     18  G   UNL     1      33.781  13.701  39.696  1.00  0.00     0.000 G0
ENDBRANCH  13  17
ENDBRANCH  11  13
ENDBRANCH  10  11
ENDBRANCH   1  10
TORSDOF 0
ENDMDL
MODEL 4
REMARK VINA RESULT:    19.841      1.840      4.129
REMARK INTER + INTRA:          29.273
REMARK INTER:                  26.837
REMARK INTRA:                   2.436
REMARK UNBOUND:                 1.312
REMARK SMILES CC1=CCC(=C(C)C)C(=O)CC(C)=CCC1
REMARK SMILES IDX 12 1 14 2 13 3 15 4 16 5 2 6 1 7 3 8 11 10 9 11 10 12 5 13
REMARK SMILES IDX 6 14 7 15 8 16 4 17
REMARK H PARENT
REMARK Flexibility Score: 60.00
ROOT
ATOM      1  C   UNL     1      35.345   9.182  40.092  1.00  0.00    -0.070 C 
ATOM      2  C   UNL     1      36.286  10.103  40.401  1.00  0.00    -0.027 C 
ATOM      3  C   UNL     1      35.291   7.924  40.921  1.00  0.00     0.039 C 
ENDROOT
BRANCH   2   4
ATOM      4  C   UNL     1      36.561  11.377  39.632  1.00  0.00     0.032 C 
BRANCH   4   5
ATOM      5  C   UNL     1      37.061  12.557  40.491  1.00  0.00     0.034 C 
BRANCH   5   6
ATOM      6  C   UNL     1      35.964  13.194  41.327  1.00  0.00    -0.077 C 
ATOM      7  C   UNL     1      36.372  13.910  42.590  1.00  0.00     0.039 C 
ATOM      8  C   UNL     1      34.640  13.101  41.050  1.00  0.00    -0.023 CG0
ATOM      9  G   UNL     1      34.004  12.452  39.837  1.00  0.00     0.000 G0
ENDBRANCH   5   6
ENDBRANCH   4   5
ENDBRANCH   2   4
BRANCH   1  10
ATOM     10  C   UNL     1      34.412   9.314  38.906  1.00  0.00     0.111 C 
BRANCH  10  11
ATOM     11  C   UNL     1      33.159  10.068  39.267  1.00  0.00     0.163 C 
ATOM     12  O   UNL     1      32.085   9.744  38.690  1.00  0.00    -0.294 OA
BRANCH  11  13
ATOM     13  C   UNL     1      33.160  11.212  40.225  1.00  0.00    -0.002 C 
ATOM     14  C   UNL     1      32.376  11.187  41.345  1.00  0.00    -0.069 C 
ATOM     15  C   UNL     1      32.235  12.391  42.250  1.00  0.00     0.039 C 
ATOM     16  C   UNL     1      31.606   9.945  41.736  1.00  0.00     0.039 C 
BRANCH  13  17
ATOM     17  C   UNL     1      33.989  12.431  39.852  1.00  0.00     0.066 CG0
ATOM     18  G   UNL     1      34.621  13.089  41.062  1.00  0.00     0.000 G0
ENDBRANCH  13  17
ENDBRANCH  11  13
ENDBRANCH  10  11
ENDBRANCH   1  10
TORSDOF 0
ENDMDL
MODEL 5
REMARK VINA RESULT:    19.946      1.631      2.573
REMARK INTER + INTRA:          29.420
REMARK INTER:                  27.608
REMARK INTRA:                   1.812
REMARK UNBOUND:                 1.312
REMARK SMILES CC1=CCC(=C(C)C)C(=O)CC(C)=CCC1
REMARK SMILES IDX 12 1 14 2 13 3 15 4 16 5 2 6 1 7 3 8 11 10 9 11 10 12 5 13
REMARK SMILES IDX 6 14 7 15 8 16 4 17
REMARK H PARENT
REMARK Flexibility Score: 60.00
ROOT
ATOM      1  C   UNL     1      33.425  12.724  39.253  1.00  0.00    -0.070 C 
ATOM      2  C   UNL     1      32.975  11.456  39.123  1.00  0.00    -0.027 C 
ATOM      3  C   UNL     1      32.506  13.845  38.839  1.00  0.00     0.039 C 
ENDROOT
BRANCH   2   4
ATOM      4  C   UNL     1      33.777  10.202  39.391  1.00  0.00     0.032 C 
BRANCH   4   5
ATOM      5  C   UNL     1      33.812   9.759  40.869  1.00  0.00     0.034 C 
BRANCH   5   6
ATOM      6  C   UNL     1      33.015  10.672  41.786  1.00  0.00    -0.077 C 
ATOM      7  C   UNL     1      31.519  10.489  41.828  1.00  0.00     0.039 C 
ATOM      8  C   UNL     1      33.552  11.684  42.511  1.00  0.00    -0.023 CG0
ATOM      9  G   UNL     1      35.020  12.041  42.636  1.00  0.00     0.000 G0
ENDBRANCH   5   6
ENDBRANCH   4   5
ENDBRANCH   2   4
BRANCH   1  10
ATOM     10  C   UNL     1      34.831  13.064  39.704  1.00  0.00     0.111 C 
BRANCH  10  11
ATOM     11  C   UNL     1      34.823  13.983  40.898  1.00  0.00     0.163 C 
ATOM     12  O   UNL     1      34.489  15.186  40.719  1.00  0.00    -0.294 OA
BRANCH  11  13
ATOM     13  C   UNL     1      35.254  13.535  42.255  1.00  0.00    -0.002 C 
ATOM     14  C   UNL     1      35.905  14.392  43.100  1.00  0.00    -0.069 C 
ATOM     15  C   UNL     1      36.493  13.929  44.414  1.00  0.00     0.039 C 
ATOM     16  C   UNL     1      36.070  15.857  42.756  1.00  0.00     0.039 C 
BRANCH  13  17
ATOM     17  C   UNL     1      35.026  12.076  42.613  1.00  0.00     0.066 CG0
ATOM     18  G   UNL     1      33.565  11.682  42.517  1.00  0.00     0.000 G0
ENDBRANCH  13  17
ENDBRANCH  11  13
ENDBRANCH  10  11
ENDBRANCH   1  10
TORSDOF 0
ENDMDL
MODEL 6
REMARK VINA RESULT:    20.062      1.880      4.450
REMARK INTER + INTRA:          29.583
REMARK INTER:                  28.368
REMARK INTRA:                   1.215
REMARK UNBOUND:                 1.312
REMARK SMILES CC1=CCC(=C(C)C)C(=O)CC(C)=CCC1
REMARK SMILES IDX 12 1 14 2 13 3 15 4 16 5 2 6 1 7 3 8 11 10 9 11 10 12 5 13
REMARK SMILES IDX 6 14 7 15 8 16 4 17
REMARK H PARENT
REMARK Flexibility Score: 60.00
ROOT
ATOM      1  C   UNL     1      34.077  13.712  39.478  1.00  0.00    -0.070 C 
ATOM      2  C   UNL     1      33.853  14.878  40.123  1.00  0.00    -0.027 C 
ATOM      3  C   UNL     1      32.944  13.120  38.678  1.00  0.00     0.039 C 
ENDROOT
BRANCH   2   4
ATOM      4  C   UNL     1      34.826  15.577  41.048  1.00  0.00     0.032 C 
BRANCH   4   5
ATOM      5  C   UNL     1      34.737  15.146  42.527  1.00  0.00     0.034 C 
BRANCH   5   6
ATOM      6  C   UNL     1      35.694  14.020  42.880  1.00  0.00    -0.077 C 
ATOM      7  C   UNL     1      37.120  14.388  43.203  1.00  0.00     0.039 C 
ATOM      8  C   UNL     1      35.367  12.705  42.856  1.00  0.00    -0.023 CG0
ATOM      9  G   UNL     1      34.003  12.106  42.581  1.00  0.00     0.000 G0
ENDBRANCH   5   6
ENDBRANCH   4   5
ENDBRANCH   2   4
BRANCH   1  10
ATOM     10  C   UNL     1      35.371  12.933  39.594  1.00  0.00     0.111 C 
BRANCH  10  11
ATOM     11  C   UNL     1      35.166  11.618  40.298  1.00  0.00     0.163 C 
ATOM     12  O   UNL     1      35.986  10.687  40.068  1.00  0.00    -0.294 OA
BRANCH  11  13
ATOM     13  C   UNL     1      34.003  11.364  41.198  1.00  0.00    -0.002 C 
ATOM     14  C   UNL     1      32.953  10.591  40.783  1.00  0.00    -0.069 C 
ATOM     15  C   UNL     1      31.693  10.443  41.606  1.00  0.00     0.039 C 
ATOM     16  C   UNL     1      33.004   9.840  39.470  1.00  0.00     0.039 C 
BRANCH  13  17
ATOM     17  C   UNL     1      33.994  12.074  42.542  1.00  0.00     0.066 CG0
ATOM     18  G   UNL     1      35.335  12.698  42.873  1.00  0.00     0.000 G0
ENDBRANCH  13  17
ENDBRANCH  11  13
ENDBRANCH  10  11
ENDBRANCH   1  10
TORSDOF 0
ENDMDL
MODEL 7
REMARK VINA RESULT:    20.745      1.832      4.353
REMARK INTER + INTRA:          30.547
REMARK INTER:                  27.821
REMARK INTRA:                   2.725
REMARK UNBOUND:                 1.312
REMARK SMILES CC1=CCC(=C(C)C)C(=O)CC(C)=CCC1
REMARK SMILES IDX 12 1 14 2 13 3 15 4 16 5 2 6 1 7 3 8 11 10 9 11 10 12 5 13
REMARK SMILES IDX 6 14 7 15 8 16 4 17
REMARK H PARENT
REMARK Flexibility Score: 60.00
ROOT
ATOM      1  C   UNL     1      35.375  13.432  42.404  1.00  0.00    -0.070 C 
ATOM      2  C   UNL     1      34.367  12.720  42.956  1.00  0.00    -0.027 C 
ATOM      3  C   UNL     1      35.689  14.784  42.993  1.00  0.00     0.039 C 
ENDROOT
BRANCH   2   4
ATOM      4  C   UNL     1      33.841  11.394  42.449  1.00  0.00     0.032 C 
BRANCH   4   5
ATOM      5  C   UNL     1      32.307  11.321  42.300  1.00  0.00     0.034 C 
BRANCH   5   6
ATOM      6  C   UNL     1      31.859  10.411  41.168  1.00  0.00    -0.077 C 
ATOM      7  C   UNL     1      30.985   9.235  41.520  1.00  0.00     0.039 C 
ATOM      8  C   UNL     1      32.251  10.548  39.878  1.00  0.00    -0.023 CG0
ATOM      9  G   UNL     1      33.106  11.655  39.294  1.00  0.00     0.000 G0
ENDBRANCH   5   6
ENDBRANCH   4   5
ENDBRANCH   2   4
BRANCH   1  10
ATOM     10  C   UNL     1      36.137  12.978  41.175  1.00  0.00     0.111 C 
BRANCH  10  11
ATOM     11  C   UNL     1      35.229  12.837  39.981  1.00  0.00     0.163 C 
ATOM     12  O   UNL     1      35.017  13.859  39.273  1.00  0.00    -0.294 OA
BRANCH  11  13
ATOM     13  C   UNL     1      34.532  11.559  39.651  1.00  0.00    -0.002 C 
ATOM     14  C   UNL     1      35.220  10.378  39.608  1.00  0.00    -0.069 C 
ATOM     15  C   UNL     1      34.580   9.095  39.126  1.00  0.00     0.039 C 
ATOM     16  C   UNL     1      36.667  10.297  40.044  1.00  0.00     0.039 C 
BRANCH  13  17
ATOM     17  C   UNL     1      33.061  11.645  39.276  1.00  0.00     0.066 CG0
ATOM     18  G   UNL     1      32.244  10.527  39.891  1.00  0.00     0.000 G0
ENDBRANCH  13  17
ENDBRANCH  11  13
ENDBRANCH  10  11
ENDBRANCH   1  10
TORSDOF 0
ENDMDL
MODEL 8
REMARK VINA RESULT:    20.773      1.602      3.785
REMARK INTER + INTRA:          30.585
REMARK INTER:                  27.303
REMARK INTRA:                   3.283
REMARK UNBOUND:                 1.312
REMARK SMILES CC1=CCC(=C(C)C)C(=O)CC(C)=CCC1
REMARK SMILES IDX 12 1 14 2 13 3 15 4 16 5 2 6 1 7 3 8 11 10 9 11 10 12 5 13
REMARK SMILES IDX 6 14 7 15 8 16 4 17
REMARK H PARENT
REMARK Flexibility Score: 60.00
ROOT
ATOM      1  C   UNL     1      35.914  13.189  41.700  1.00  0.00    -0.070 C 
ATOM      2  C   UNL     1      36.746  12.494  40.892  1.00  0.00    -0.027 C 
ATOM      3  C   UNL     1      36.527  14.147  42.689  1.00  0.00     0.039 C 
ENDROOT
BRANCH   2   4
ATOM      4  C   UNL     1      36.331  11.422  39.908  1.00  0.00     0.032 C 
BRANCH   4   5
ATOM      5  C   UNL     1      36.912  10.021  40.194  1.00  0.00     0.034 C 
BRANCH   5   6
ATOM      6  C   UNL     1      35.844   8.965  40.418  1.00  0.00    -0.077 C 
ATOM      7  C   UNL     1      36.246   7.704  41.140  1.00  0.00     0.039 C 
ATOM      8  C   UNL     1      34.574   9.052  39.951  1.00  0.00    -0.023 CG0
ATOM      9  G   UNL     1      33.946  10.223  39.221  1.00  0.00     0.000 G0
ENDBRANCH   5   6
ENDBRANCH   4   5
ENDBRANCH   2   4
BRANCH   1  10
ATOM     10  C   UNL     1      34.413  12.982  41.721  1.00  0.00     0.111 C 
BRANCH  10  11
ATOM     11  C   UNL     1      33.902  12.492  40.391  1.00  0.00     0.163 C 
ATOM     12  O   UNL     1      33.975  13.272  39.403  1.00  0.00    -0.294 OA
BRANCH  11  13
ATOM     13  C   UNL     1      33.261  11.154  40.223  1.00  0.00    -0.002 C 
ATOM     14  C   UNL     1      32.191  10.790  40.993  1.00  0.00    -0.069 C 
ATOM     15  C   UNL     1      31.620   9.389  40.958  1.00  0.00     0.039 C 
ATOM     16  C   UNL     1      31.521  11.778  41.923  1.00  0.00     0.039 C 
BRANCH  13  17
ATOM     17  C   UNL     1      33.906  10.193  39.238  1.00  0.00     0.066 CG0
ATOM     18  G   UNL     1      34.601   9.037  39.932  1.00  0.00     0.000 G0
ENDBRANCH  13  17
ENDBRANCH  11  13
ENDBRANCH  10  11
ENDBRANCH   1  10
TORSDOF 0
ENDMDL
