MODEL 1
REMARK VINA RESULT:     5.156      0.000      0.000
REMARK INTER + INTRA:           6.149
REMARK INTER:                   6.211
REMARK INTRA:                  -0.062
REMARK UNBOUND:                -0.062
REMARK SMILES CC[C@H](C)[C@@H]([NH3+])C(=O)[O-]
REMARK SMILES IDX 3 1 4 2 5 3 6 4 7 8 8 9 9 10 2 11 1 12
REMARK H PARENT 6 5 6 6 6 7
REMARK Flexibility Score: inf
ROOT
ATOM      1  C   UNL     1       1.922   0.499  -7.990  1.00  0.00     0.050 C 
ATOM      2  C   UNL     1       3.267   0.576  -8.736  1.00  0.00     0.014 C 
ENDROOT
BRANCH   1   3
ATOM      3  C   UNL     1       2.127   0.052  -6.505  1.00  0.00     0.230 C 
BRANCH   3   4
ATOM      4  N   UNL     1       3.544  -0.194  -6.192  1.00  0.00    -0.350 N 
ATOM      5  H   UNL     1       3.762   0.092  -5.209  1.00  0.00     0.345 HD
ATOM      6  H   UNL     1       4.157   0.330  -6.856  1.00  0.00     0.345 HD
ATOM      7  H   UNL     1       3.768  -1.210  -6.308  1.00  0.00     0.345 HD
ENDBRANCH   3   4
BRANCH   3   8
ATOM      8  C   UNL     1       1.573   1.076  -5.549  1.00  0.00     0.099 C 
ATOM      9  O   UNL     1       2.259   1.470  -4.568  1.00  0.00    -0.544 OA
ATOM     10  O   UNL     1       0.305   1.606  -5.754  1.00  0.00    -0.544 OA
ENDBRANCH   3   8
ENDBRANCH   1   3
BRANCH   1  11
ATOM     11  C   UNL     1       0.960  -0.459  -8.756  1.00  0.00     0.006 C 
ATOM     12  C   UNL     1       1.493  -0.860 -10.134  1.00  0.00     0.004 C 
ENDBRANCH   1  11
TORSDOF 4
ENDMDL
MODEL 2
REMARK VINA RESULT:     5.450      2.153      3.676
REMARK INTER + INTRA:           6.503
REMARK INTER:                   5.990
REMARK INTRA:                   0.513
REMARK UNBOUND:                -0.062
REMARK SMILES CC[C@H](C)[C@@H]([NH3+])C(=O)[O-]
REMARK SMILES IDX 3 1 4 2 5 3 6 4 7 8 8 9 9 10 2 11 1 12
REMARK H PARENT 6 5 6 6 6 7
REMARK Flexibility Score: inf
ROOT
ATOM      1  C   UNL     1       1.356   0.726  -5.779  1.00  0.00     0.050 C 
ATOM      2  C   UNL     1       1.880   1.495  -4.553  1.00  0.00     0.014 C 
ENDROOT
BRANCH   1   3
ATOM      3  C   UNL     1       2.443   0.645  -6.901  1.00  0.00     0.230 C 
BRANCH   3   4
ATOM      4  N   UNL     1       3.566  -0.227  -6.521  1.00  0.00    -0.350 N 
ATOM      5  H   UNL     1       3.407  -0.644  -5.574  1.00  0.00     0.345 HD
ATOM      6  H   UNL     1       4.460   0.312  -6.524  1.00  0.00     0.345 HD
ATOM      7  H   UNL     1       3.674  -1.001  -7.218  1.00  0.00     0.345 HD
ENDBRANCH   3   4
BRANCH   3   8
ATOM      8  C   UNL     1       1.849   0.161  -8.199  1.00  0.00     0.099 C 
ATOM      9  O   UNL     1       0.769  -0.487  -8.204  1.00  0.00    -0.544 OA
ATOM     10  O   UNL     1       2.485   0.441  -9.402  1.00  0.00    -0.544 OA
ENDBRANCH   3   8
ENDBRANCH   1   3
BRANCH   1  11
ATOM     11  C   UNL     1       0.045   1.398  -6.289  1.00  0.00     0.006 C 
ATOM     12  C   UNL     1      -0.600   2.311  -5.244  1.00  0.00     0.004 C 
ENDBRANCH   1  11
TORSDOF 4
ENDMDL
MODEL 3
REMARK VINA RESULT:     5.654      5.653      7.485
REMARK INTER + INTRA:           6.749
REMARK INTER:                   6.807
REMARK INTRA:                  -0.058
REMARK UNBOUND:                -0.062
REMARK SMILES CC[C@H](C)[C@@H]([NH3+])C(=O)[O-]
REMARK SMILES IDX 3 1 4 2 5 3 6 4 7 8 8 9 9 10 2 11 1 12
REMARK H PARENT 6 5 6 6 6 7
REMARK Flexibility Score: inf
ROOT
ATOM      1  C   UNL     1      -1.675   5.155  -3.336  1.00  0.00     0.050 C 
ATOM      2  C   UNL     1      -2.245   6.581  -3.438  1.00  0.00     0.014 C 
ENDROOT
BRANCH   1   3
ATOM      3  C   UNL     1      -2.486   4.158  -4.229  1.00  0.00     0.230 C 
BRANCH   3   4
ATOM      4  N   UNL     1      -3.261   4.854  -5.269  1.00  0.00    -0.350 N 
ATOM      5  H   UNL     1      -3.070   4.441  -6.212  1.00  0.00     0.345 HD
ATOM      6  H   UNL     1      -3.025   5.872  -5.276  1.00  0.00     0.345 HD
ATOM      7  H   UNL     1      -4.285   4.779  -5.067  1.00  0.00     0.345 HD
ENDBRANCH   3   4
BRANCH   3   8
ATOM      8  C   UNL     1      -1.577   3.145  -4.875  1.00  0.00     0.099 C 
ATOM      9  O   UNL     1      -1.977   2.462  -5.855  1.00  0.00    -0.544 OA
ATOM     10  O   UNL     1      -0.283   2.969  -4.400  1.00  0.00    -0.544 OA
ENDBRANCH   3   8
ENDBRANCH   1   3
BRANCH   1  11
ATOM     11  C   UNL     1      -1.657   4.711  -1.842  1.00  0.00     0.006 C 
ATOM     12  C   UNL     1      -0.294   4.917  -1.177  1.00  0.00     0.004 C 
ENDBRANCH   1  11
TORSDOF 4
ENDMDL
MODEL 4
REMARK VINA RESULT:     5.719      2.585      3.713
REMARK INTER + INTRA:           6.827
REMARK INTER:                   5.844
REMARK INTRA:                   0.982
REMARK UNBOUND:                -0.062
REMARK SMILES CC[C@H](C)[C@@H]([NH3+])C(=O)[O-]
REMARK SMILES IDX 3 1 4 2 5 3 6 4 7 8 8 9 9 10 2 11 1 12
REMARK H PARENT 6 5 6 6 6 7
REMARK Flexibility Score: inf
ROOT
ATOM      1  C   UNL     1       0.793   1.132  -5.255  1.00  0.00     0.050 C 
ATOM      2  C   UNL     1       1.760   2.170  -4.655  1.00  0.00     0.014 C 
ENDROOT
BRANCH   1   3
ATOM      3  C   UNL     1       1.556   0.112  -6.164  1.00  0.00     0.230 C 
BRANCH   3   4
ATOM      4  N   UNL     1       1.347   0.385  -7.596  1.00  0.00    -0.350 N 
ATOM      5  H   UNL     1       1.298  -0.508  -8.140  1.00  0.00     0.345 HD
ATOM      6  H   UNL     1       2.119   0.983  -7.967  1.00  0.00     0.345 HD
ATOM      7  H   UNL     1       0.456   0.916  -7.735  1.00  0.00     0.345 HD
ENDBRANCH   3   4
BRANCH   3   8
ATOM      8  C   UNL     1       3.032   0.115  -5.865  1.00  0.00     0.099 C 
ATOM      9  O   UNL     1       3.870  -0.109  -6.778  1.00  0.00    -0.544 OA
ATOM     10  O   UNL     1       3.480   0.383  -4.576  1.00  0.00    -0.544 OA
ENDBRANCH   3   8
ENDBRANCH   1   3
BRANCH   1  11
ATOM     11  C   UNL     1      -0.339   1.868  -6.032  1.00  0.00     0.006 C 
ATOM     12  C   UNL     1      -1.260   2.677  -5.116  1.00  0.00     0.004 C 
ENDBRANCH   1  11
TORSDOF 4
ENDMDL
MODEL 5
REMARK VINA RESULT:     5.790      2.542      3.917
REMARK INTER + INTRA:           6.913
REMARK INTER:                   6.962
REMARK INTRA:                  -0.049
REMARK UNBOUND:                -0.062
REMARK SMILES CC[C@H](C)[C@@H]([NH3+])C(=O)[O-]
REMARK SMILES IDX 3 1 4 2 5 3 6 4 7 8 8 9 9 10 2 11 1 12
REMARK H PARENT 6 5 6 6 6 7
REMARK Flexibility Score: inf
ROOT
ATOM      1  C   UNL     1       2.055  -0.015  -6.838  1.00  0.00     0.050 C 
ATOM      2  C   UNL     1       3.417  -0.041  -6.119  1.00  0.00     0.014 C 
ENDROOT
BRANCH   1   3
ATOM      3  C   UNL     1       2.204   0.495  -8.309  1.00  0.00     0.230 C 
BRANCH   3   4
ATOM      4  N   UNL     1       3.614   0.585  -8.723  1.00  0.00    -0.350 N 
ATOM      5  H   UNL     1       4.243   0.631  -7.887  1.00  0.00     0.345 HD
ATOM      6  H   UNL     1       3.762   1.427  -9.322  1.00  0.00     0.345 HD
ATOM      7  H   UNL     1       3.876  -0.249  -9.298  1.00  0.00     0.345 HD
ENDBRANCH   3   4
BRANCH   3   8
ATOM      8  C   UNL     1       1.457  -0.393  -9.270  1.00  0.00     0.099 C 
ATOM      9  O   UNL     1       0.307  -0.820  -8.982  1.00  0.00    -0.544 OA
ATOM     10  O   UNL     1       2.028  -0.734 -10.490  1.00  0.00    -0.544 OA
ENDBRANCH   3   8
ENDBRANCH   1   3
BRANCH   1  11
ATOM     11  C   UNL     1       1.055   0.858  -6.020  1.00  0.00     0.006 C 
ATOM     12  C   UNL     1       1.708   1.536  -4.814  1.00  0.00     0.004 C 
ENDBRANCH   1  11
TORSDOF 4
ENDMDL
MODEL 6
REMARK VINA RESULT:     7.237      7.727      8.904
REMARK INTER + INTRA:           8.656
REMARK INTER:                   8.664
REMARK INTRA:                  -0.009
REMARK UNBOUND:                -0.062
REMARK SMILES CC[C@H](C)[C@@H]([NH3+])C(=O)[O-]
REMARK SMILES IDX 3 1 4 2 5 3 6 4 7 8 8 9 9 10 2 11 1 12
REMARK H PARENT 6 5 6 6 6 7
REMARK Flexibility Score: inf
ROOT
ATOM      1  C   UNL     1      -1.653  -5.116 -11.591  1.00  0.00     0.050 C 
ATOM      2  C   UNL     1      -1.383  -4.723 -13.055  1.00  0.00     0.014 C 
ENDROOT
BRANCH   1   3
ATOM      3  C   UNL     1      -2.172  -6.589 -11.489  1.00  0.00     0.230 C 
BRANCH   3   4
ATOM      4  N   UNL     1      -1.786  -7.393 -12.661  1.00  0.00    -0.350 N 
ATOM      5  H   UNL     1      -1.226  -6.820 -13.335  1.00  0.00     0.345 HD
ATOM      6  H   UNL     1      -2.636  -7.768 -13.138  1.00  0.00     0.345 HD
ATOM      7  H   UNL     1      -1.215  -8.216 -12.360  1.00  0.00     0.345 HD
ENDBRANCH   3   4
BRANCH   3   8
ATOM      8  C   UNL     1      -1.670  -7.257 -10.236  1.00  0.00     0.099 C 
ATOM      9  O   UNL     1      -1.845  -6.717  -9.111  1.00  0.00    -0.544 OA
ATOM     10  O   UNL     1      -1.021  -8.483 -10.314  1.00  0.00    -0.544 OA
ENDBRANCH   3   8
ENDBRANCH   1   3
BRANCH   1  11
ATOM     11  C   UNL     1      -2.656  -4.104 -10.960  1.00  0.00     0.006 C 
ATOM     12  C   UNL     1      -1.960  -2.984 -10.182  1.00  0.00     0.004 C 
ENDBRANCH   1  11
TORSDOF 4
ENDMDL
