MODEL 1
REMARK VINA RESULT:    -4.599      0.000      0.000
REMARK INTER + INTRA:         -10.335
REMARK INTER:                  -8.633
REMARK INTRA:                  -1.703
REMARK UNBOUND:                -1.703
REMARK SMILES O=C([O-])CCCCCCCCCCCCCCC(=O)[O-]
REMARK SMILES IDX 10 1 9 2 8 3 7 4 6 5 5 6 4 7 2 8 1 9 3 10 11 11 12 12 13 13
REMARK SMILES IDX 14 14 15 15 16 16 17 17 18 18 19 19 20 20
REMARK H PARENT
REMARK Flexibility Score: inf
ROOT
ATOM      1  C   UNL     1      37.704  -9.256  25.345  1.00  0.00     0.000 C 
ENDROOT
BRANCH   1   2
ATOM      2  C   UNL     1      38.999  -9.249  26.167  1.00  0.00     0.000 C 
BRANCH   2   3
ATOM      3  C   UNL     1      40.226  -9.448  25.264  1.00  0.00     0.000 C 
BRANCH   3   4
ATOM      4  C   UNL     1      41.214 -10.492  25.815  1.00  0.00     0.000 C 
BRANCH   4   5
ATOM      5  C   UNL     1      40.662 -11.380  26.945  1.00  0.00     0.000 C 
BRANCH   5   6
ATOM      6  C   UNL     1      41.206 -12.819  26.898  1.00  0.00     0.006 C 
BRANCH   6   7
ATOM      7  C   UNL     1      42.491 -12.979  27.719  1.00  0.00     0.053 C 
BRANCH   7   8
ATOM      8  C   UNL     1      43.671 -13.303  26.855  1.00  0.00     0.041 C 
ATOM      9  O   UNL     1      43.583 -13.213  25.602  1.00  0.00    -0.550 OA
ATOM     10  O   UNL     1      44.862 -13.728  27.432  1.00  0.00    -0.550 OA
ENDBRANCH   7   8
ENDBRANCH   6   7
ENDBRANCH   5   6
ENDBRANCH   4   5
ENDBRANCH   3   4
ENDBRANCH   2   3
ENDBRANCH   1   2
BRANCH   1  11
ATOM     11  C   UNL     1      36.571  -9.956  26.110  1.00  0.00     0.000 C 
BRANCH  11  12
ATOM     12  C   UNL     1      37.024 -11.265  26.778  1.00  0.00     0.000 C 
BRANCH  12  13
ATOM     13  C   UNL     1      36.819 -11.253  28.303  1.00  0.00     0.000 C 
BRANCH  13  14
ATOM     14  C   UNL     1      37.723 -12.265  29.026  1.00  0.00     0.000 C 
BRANCH  14  15
ATOM     15  C   UNL     1      37.473 -12.302  30.544  1.00  0.00     0.000 C 
BRANCH  15  16
ATOM     16  C   UNL     1      38.779 -12.308  31.356  1.00  0.00     0.006 C 
BRANCH  16  17
ATOM     17  C   UNL     1      39.970 -12.843  30.551  1.00  0.00     0.053 C 
BRANCH  17  18
ATOM     18  C   UNL     1      41.249 -12.252  31.056  1.00  0.00     0.041 C 
ATOM     19  O   UNL     1      41.304 -11.033  31.368  1.00  0.00    -0.550 OA
ATOM     20  O   UNL     1      42.368 -13.058  31.226  1.00  0.00    -0.550 OA
ENDBRANCH  17  18
ENDBRANCH  16  17
ENDBRANCH  15  16
ENDBRANCH  14  15
ENDBRANCH  13  14
ENDBRANCH  12  13
ENDBRANCH  11  12
ENDBRANCH   1  11
TORSDOF 15
ENDMDL
MODEL 2
REMARK VINA RESULT:    -4.458     13.610     16.145
REMARK INTER + INTRA:         -10.070
REMARK INTER:                  -8.126
REMARK INTRA:                  -1.943
REMARK UNBOUND:                -1.703
REMARK SMILES O=C([O-])CCCCCCCCCCCCCCC(=O)[O-]
REMARK SMILES IDX 10 1 9 2 8 3 7 4 6 5 5 6 4 7 2 8 1 9 3 10 11 11 12 12 13 13
REMARK SMILES IDX 14 14 15 15 16 16 17 17 18 18 19 19 20 20
REMARK H PARENT
REMARK Flexibility Score: inf
ROOT
ATOM      1  C   UNL     1      44.544   2.332  24.157  1.00  0.00     0.000 C 
ENDROOT
BRANCH   1   2
ATOM      2  C   UNL     1      45.146   1.119  24.878  1.00  0.00     0.000 C 
BRANCH   2   3
ATOM      3  C   UNL     1      44.895  -0.173  24.086  1.00  0.00     0.000 C 
BRANCH   3   4
ATOM      4  C   UNL     1      43.488  -0.236  23.466  1.00  0.00     0.000 C 
BRANCH   4   5
ATOM      5  C   UNL     1      43.456  -0.353  21.931  1.00  0.00     0.000 C 
BRANCH   5   6
ATOM      6  C   UNL     1      42.190   0.264  21.309  1.00  0.00     0.006 C 
BRANCH   6   7
ATOM      7  C   UNL     1      42.453   0.843  19.914  1.00  0.00     0.053 C 
BRANCH   7   8
ATOM      8  C   UNL     1      41.735   0.077  18.845  1.00  0.00     0.041 C 
ATOM      9  O   UNL     1      41.577   0.581  17.702  1.00  0.00    -0.550 OA
ATOM     10  O   UNL     1      41.218  -1.184  19.119  1.00  0.00    -0.550 OA
ENDBRANCH   7   8
ENDBRANCH   6   7
ENDBRANCH   5   6
ENDBRANCH   4   5
ENDBRANCH   3   4
ENDBRANCH   2   3
ENDBRANCH   1   2
BRANCH   1  11
ATOM     11  C   UNL     1      45.573   2.980  23.220  1.00  0.00     0.000 C 
BRANCH  11  12
ATOM     12  C   UNL     1      45.117   2.993  21.752  1.00  0.00     0.000 C 
BRANCH  12  13
ATOM     13  C   UNL     1      46.017   2.137  20.844  1.00  0.00     0.000 C 
BRANCH  13  14
ATOM     14  C   UNL     1      47.351   1.771  21.514  1.00  0.00     0.000 C 
BRANCH  14  15
ATOM     15  C   UNL     1      47.575   0.251  21.598  1.00  0.00     0.000 C 
BRANCH  15  16
ATOM     16  C   UNL     1      48.688  -0.234  20.656  1.00  0.00     0.006 C 
BRANCH  16  17
ATOM     17  C   UNL     1      50.090  -0.006  21.235  1.00  0.00     0.053 C 
BRANCH  17  18
ATOM     18  C   UNL     1      51.121  -0.687  20.390  1.00  0.00     0.041 C 
ATOM     19  O   UNL     1      52.334  -0.664  20.728  1.00  0.00    -0.550 OA
ATOM     20  O   UNL     1      50.737  -1.388  19.253  1.00  0.00    -0.550 OA
ENDBRANCH  17  18
ENDBRANCH  16  17
ENDBRANCH  15  16
ENDBRANCH  14  15
ENDBRANCH  13  14
ENDBRANCH  12  13
ENDBRANCH  11  12
ENDBRANCH   1  11
TORSDOF 15
ENDMDL
MODEL 3
REMARK VINA RESULT:    -4.428     13.242     15.759
REMARK INTER + INTRA:         -10.014
REMARK INTER:                  -8.050
REMARK INTRA:                  -1.964
REMARK UNBOUND:                -1.703
REMARK SMILES O=C([O-])CCCCCCCCCCCCCCC(=O)[O-]
REMARK SMILES IDX 10 1 9 2 8 3 7 4 6 5 5 6 4 7 2 8 1 9 3 10 11 11 12 12 13 13
REMARK SMILES IDX 14 14 15 15 16 16 17 17 18 18 19 19 20 20
REMARK H PARENT
REMARK Flexibility Score: inf
ROOT
ATOM      1  C   UNL     1      42.671   0.307  24.157  1.00  0.00     0.000 C 
ENDROOT
BRANCH   1   2
ATOM      2  C   UNL     1      43.246  -0.927  23.450  1.00  0.00     0.000 C 
BRANCH   2   3
ATOM      3  C   UNL     1      43.569  -0.619  21.980  1.00  0.00     0.000 C 
BRANCH   3   4
ATOM      4  C   UNL     1      42.467   0.198  21.281  1.00  0.00     0.000 C 
BRANCH   4   5
ATOM      5  C   UNL     1      41.444  -0.634  20.487  1.00  0.00     0.000 C 
BRANCH   5   6
ATOM      6  C   UNL     1      41.720  -0.640  18.973  1.00  0.00     0.006 C 
BRANCH   6   7
ATOM      7  C   UNL     1      41.418   0.717  18.324  1.00  0.00     0.053 C 
BRANCH   7   8
ATOM      8  C   UNL     1      42.636   1.319  17.691  1.00  0.00     0.041 C 
ATOM      9  O   UNL     1      42.925   1.052  16.495  1.00  0.00    -0.550 OA
ATOM     10  O   UNL     1      43.464   2.155  18.430  1.00  0.00    -0.550 OA
ENDBRANCH   7   8
ENDBRANCH   6   7
ENDBRANCH   5   6
ENDBRANCH   4   5
ENDBRANCH   3   4
ENDBRANCH   2   3
ENDBRANCH   1   2
BRANCH   1  11
ATOM     11  C   UNL     1      43.412   0.582  25.473  1.00  0.00     0.000 C 
BRANCH  11  12
ATOM     12  C   UNL     1      44.344   1.802  25.388  1.00  0.00     0.000 C 
BRANCH  12  13
ATOM     13  C   UNL     1      44.049   2.689  24.167  1.00  0.00     0.000 C 
BRANCH  13  14
ATOM     14  C   UNL     1      45.298   2.940  23.306  1.00  0.00     0.000 C 
BRANCH  14  15
ATOM     15  C   UNL     1      45.000   2.879  21.797  1.00  0.00     0.000 C 
BRANCH  15  16
ATOM     16  C   UNL     1      45.998   1.992  21.034  1.00  0.00     0.006 C 
BRANCH  16  17
ATOM     17  C   UNL     1      46.770   1.044  21.961  1.00  0.00     0.053 C 
BRANCH  17  18
ATOM     18  C   UNL     1      48.119   0.740  21.389  1.00  0.00     0.041 C 
ATOM     19  O   UNL     1      48.293  -0.296  20.694  1.00  0.00    -0.550 OA
ATOM     20  O   UNL     1      49.173   1.624  21.585  1.00  0.00    -0.550 OA
ENDBRANCH  17  18
ENDBRANCH  16  17
ENDBRANCH  15  16
ENDBRANCH  14  15
ENDBRANCH  13  14
ENDBRANCH  12  13
ENDBRANCH  11  12
ENDBRANCH   1  11
TORSDOF 15
ENDMDL
MODEL 4
REMARK VINA RESULT:    -4.399     14.438     16.595
REMARK INTER + INTRA:          -9.958
REMARK INTER:                  -9.126
REMARK INTRA:                  -0.833
REMARK UNBOUND:                -1.703
REMARK SMILES O=C([O-])CCCCCCCCCCCCCCC(=O)[O-]
REMARK SMILES IDX 10 1 9 2 8 3 7 4 6 5 5 6 4 7 2 8 1 9 3 10 11 11 12 12 13 13
REMARK SMILES IDX 14 14 15 15 16 16 17 17 18 18 19 19 20 20
REMARK H PARENT
REMARK Flexibility Score: inf
ROOT
ATOM      1  C   UNL     1      45.265   1.412  21.757  1.00  0.00     0.000 C 
ENDROOT
BRANCH   1   2
ATOM      2  C   UNL     1      46.780   1.557  21.944  1.00  0.00     0.000 C 
BRANCH   2   3
ATOM      3  C   UNL     1      47.534   0.426  21.229  1.00  0.00     0.000 C 
BRANCH   3   4
ATOM      4  C   UNL     1      49.035   0.720  21.053  1.00  0.00     0.000 C 
BRANCH   4   5
ATOM      5  C   UNL     1      49.981  -0.303  21.708  1.00  0.00     0.000 C 
BRANCH   5   6
ATOM      6  C   UNL     1      51.215  -0.618  20.844  1.00  0.00     0.006 C 
BRANCH   6   7
ATOM      7  C   UNL     1      50.838  -1.305  19.525  1.00  0.00     0.053 C 
BRANCH   7   8
ATOM      8  C   UNL     1      51.493  -0.651  18.346  1.00  0.00     0.041 C 
ATOM      9  O   UNL     1      52.029  -1.354  17.449  1.00  0.00    -0.550 OA
ATOM     10  O   UNL     1      51.534   0.735  18.251  1.00  0.00    -0.550 OA
ENDBRANCH   7   8
ENDBRANCH   6   7
ENDBRANCH   5   6
ENDBRANCH   4   5
ENDBRANCH   3   4
ENDBRANCH   2   3
ENDBRANCH   1   2
BRANCH   1  11
ATOM     11  C   UNL     1      44.679   0.411  22.763  1.00  0.00     0.000 C 
BRANCH  11  12
ATOM     12  C   UNL     1      43.746  -0.618  22.105  1.00  0.00     0.000 C 
BRANCH  12  13
ATOM     13  C   UNL     1      42.622   0.040  21.286  1.00  0.00     0.000 C 
BRANCH  13  14
ATOM     14  C   UNL     1      41.765  -0.988  20.530  1.00  0.00     0.000 C 
BRANCH  14  15
ATOM     15  C   UNL     1      41.483  -0.570  19.076  1.00  0.00     0.000 C 
BRANCH  15  16
ATOM     16  C   UNL     1      42.019   0.835  18.752  1.00  0.00     0.006 C 
BRANCH  16  17
ATOM     17  C   UNL     1      41.609   1.313  17.354  1.00  0.00     0.053 C 
BRANCH  17  18
ATOM     18  C   UNL     1      42.821   1.576  16.516  1.00  0.00     0.041 C 
ATOM     19  O   UNL     1      42.746   1.528  15.260  1.00  0.00    -0.550 OA
ATOM     20  O   UNL     1      44.023   1.922  17.121  1.00  0.00    -0.550 OA
ENDBRANCH  17  18
ENDBRANCH  16  17
ENDBRANCH  15  16
ENDBRANCH  14  15
ENDBRANCH  13  14
ENDBRANCH  12  13
ENDBRANCH  11  12
ENDBRANCH   1  11
TORSDOF 15
ENDMDL
MODEL 5
REMARK VINA RESULT:    -4.374     13.663     15.864
REMARK INTER + INTRA:          -9.912
REMARK INTER:                  -7.802
REMARK INTRA:                  -2.110
REMARK UNBOUND:                -1.703
REMARK SMILES O=C([O-])CCCCCCCCCCCCCCC(=O)[O-]
REMARK SMILES IDX 10 1 9 2 8 3 7 4 6 5 5 6 4 7 2 8 1 9 3 10 11 11 12 12 13 13
REMARK SMILES IDX 14 14 15 15 16 16 17 17 18 18 19 19 20 20
REMARK H PARENT
REMARK Flexibility Score: inf
ROOT
ATOM      1  C   UNL     1      42.630  -0.167  22.673  1.00  0.00     0.000 C 
ENDROOT
BRANCH   1   2
ATOM      2  C   UNL     1      44.120  -0.393  22.387  1.00  0.00     0.000 C 
BRANCH   2   3
ATOM      3  C   UNL     1      44.990   0.145  23.532  1.00  0.00     0.000 C 
BRANCH   3   4
ATOM      4  C   UNL     1      45.990   1.221  23.074  1.00  0.00     0.000 C 
BRANCH   4   5
ATOM      5  C   UNL     1      46.360   1.173  21.580  1.00  0.00     0.000 C 
BRANCH   5   6
ATOM      6  C   UNL     1      47.873   1.307  21.333  1.00  0.00     0.006 C 
BRANCH   6   7
ATOM      7  C   UNL     1      48.485   0.017  20.773  1.00  0.00     0.053 C 
BRANCH   7   8
ATOM      8  C   UNL     1      49.767  -0.339  21.462  1.00  0.00     0.041 C 
ATOM      9  O   UNL     1      49.758  -0.705  22.667  1.00  0.00    -0.550 OA
ATOM     10  O   UNL     1      50.975  -0.243  20.781  1.00  0.00    -0.550 OA
ENDBRANCH   7   8
ENDBRANCH   6   7
ENDBRANCH   5   6
ENDBRANCH   4   5
ENDBRANCH   3   4
ENDBRANCH   2   3
ENDBRANCH   1   2
BRANCH   1  11
ATOM     11  C   UNL     1      42.437   0.846  23.811  1.00  0.00     0.000 C 
BRANCH  11  12
ATOM     12  C   UNL     1      41.803   2.163  23.335  1.00  0.00     0.000 C 
BRANCH  12  13
ATOM     13  C   UNL     1      42.849   3.194  22.881  1.00  0.00     0.000 C 
BRANCH  13  14
ATOM     14  C   UNL     1      42.533   3.783  21.496  1.00  0.00     0.000 C 
BRANCH  14  15
ATOM     15  C   UNL     1      43.591   3.415  20.440  1.00  0.00     0.000 C 
BRANCH  15  16
ATOM     16  C   UNL     1      43.316   2.053  19.781  1.00  0.00     0.006 C 
BRANCH  16  17
ATOM     17  C   UNL     1      41.865   1.914  19.303  1.00  0.00     0.053 C 
BRANCH  17  18
ATOM     18  C   UNL     1      41.735   0.763  18.356  1.00  0.00     0.041 C 
ATOM     19  O   UNL     1      41.896   0.939  17.119  1.00  0.00    -0.550 OA
ATOM     20  O   UNL     1      41.484  -0.514  18.843  1.00  0.00    -0.550 OA
ENDBRANCH  17  18
ENDBRANCH  16  17
ENDBRANCH  15  16
ENDBRANCH  14  15
ENDBRANCH  13  14
ENDBRANCH  12  13
ENDBRANCH  11  12
ENDBRANCH   1  11
TORSDOF 15
ENDMDL
MODEL 6
REMARK VINA RESULT:    -4.357     13.594     15.788
REMARK INTER + INTRA:          -9.881
REMARK INTER:                  -8.038
REMARK INTRA:                  -1.843
REMARK UNBOUND:                -1.703
REMARK SMILES O=C([O-])CCCCCCCCCCCCCCC(=O)[O-]
REMARK SMILES IDX 10 1 9 2 8 3 7 4 6 5 5 6 4 7 2 8 1 9 3 10 11 11 12 12 13 13
REMARK SMILES IDX 14 14 15 15 16 16 17 17 18 18 19 19 20 20
REMARK H PARENT
REMARK Flexibility Score: inf
ROOT
ATOM      1  C   UNL     1      45.686   2.555  23.276  1.00  0.00     0.000 C 
ENDROOT
BRANCH   1   2
ATOM      2  C   UNL     1      45.260   2.692  21.809  1.00  0.00     0.000 C 
BRANCH   2   3
ATOM      3  C   UNL     1      46.164   1.854  20.893  1.00  0.00     0.000 C 
BRANCH   3   4
ATOM      4  C   UNL     1      47.030   0.841  21.664  1.00  0.00     0.000 C 
BRANCH   4   5
ATOM      5  C   UNL     1      48.224   0.272  20.876  1.00  0.00     0.000 C 
BRANCH   5   6
ATOM      6  C   UNL     1      49.540   1.018  21.161  1.00  0.00     0.006 C 
BRANCH   6   7
ATOM      7  C   UNL     1      50.561   0.844  20.030  1.00  0.00     0.053 C 
BRANCH   7   8
ATOM      8  C   UNL     1      51.236  -0.493  20.086  1.00  0.00     0.041 C 
ATOM      9  O   UNL     1      50.734  -1.481  19.488  1.00  0.00    -0.550 OA
ATOM     10  O   UNL     1      52.405  -0.654  20.820  1.00  0.00    -0.550 OA
ENDBRANCH   7   8
ENDBRANCH   6   7
ENDBRANCH   5   6
ENDBRANCH   4   5
ENDBRANCH   3   4
ENDBRANCH   2   3
ENDBRANCH   1   2
BRANCH   1  11
ATOM     11  C   UNL     1      44.472   2.294  24.179  1.00  0.00     0.000 C 
BRANCH  11  12
ATOM     12  C   UNL     1      44.677   1.095  25.120  1.00  0.00     0.000 C 
BRANCH  12  13
ATOM     13  C   UNL     1      44.785  -0.240  24.363  1.00  0.00     0.000 C 
BRANCH  13  14
ATOM     14  C   UNL     1      43.488  -0.604  23.622  1.00  0.00     0.000 C 
BRANCH  14  15
ATOM     15  C   UNL     1      43.673  -0.653  22.095  1.00  0.00     0.000 C 
BRANCH  15  16
ATOM     16  C   UNL     1      42.356  -0.423  21.334  1.00  0.00     0.006 C 
BRANCH  16  17
ATOM     17  C   UNL     1      42.179   1.036  20.893  1.00  0.00     0.053 C 
BRANCH  17  18
ATOM     18  C   UNL     1      42.276   1.146  19.403  1.00  0.00     0.041 C 
ATOM     19  O   UNL     1      41.498   0.484  18.667  1.00  0.00    -0.550 OA
ATOM     20  O   UNL     1      43.195   2.015  18.829  1.00  0.00    -0.550 OA
ENDBRANCH  17  18
ENDBRANCH  16  17
ENDBRANCH  15  16
ENDBRANCH  14  15
ENDBRANCH  13  14
ENDBRANCH  12  13
ENDBRANCH  11  12
ENDBRANCH   1  11
TORSDOF 15
ENDMDL
MODEL 7
REMARK VINA RESULT:    -4.330     13.035     15.874
REMARK INTER + INTRA:          -9.830
REMARK INTER:                  -8.133
REMARK INTRA:                  -1.697
REMARK UNBOUND:                -1.703
REMARK SMILES O=C([O-])CCCCCCCCCCCCCCC(=O)[O-]
REMARK SMILES IDX 10 1 9 2 8 3 7 4 6 5 5 6 4 7 2 8 1 9 3 10 11 11 12 12 13 13
REMARK SMILES IDX 14 14 15 15 16 16 17 17 18 18 19 19 20 20
REMARK H PARENT
REMARK Flexibility Score: inf
ROOT
ATOM      1  C   UNL     1      43.290   2.312  18.518  1.00  0.00     0.000 C 
ENDROOT
BRANCH   1   2
ATOM      2  C   UNL     1      42.239   1.794  19.509  1.00  0.00     0.000 C 
BRANCH   2   3
ATOM      3  C   UNL     1      41.896   0.323  19.229  1.00  0.00     0.000 C 
BRANCH   3   4
ATOM      4  C   UNL     1      41.857  -0.539  20.504  1.00  0.00     0.000 C 
BRANCH   4   5
ATOM      5  C   UNL     1      42.423   0.138  21.766  1.00  0.00     0.000 C 
BRANCH   5   6
ATOM      6  C   UNL     1      43.642  -0.600  22.346  1.00  0.00     0.006 C 
BRANCH   6   7
ATOM      7  C   UNL     1      43.552  -0.758  23.869  1.00  0.00     0.053 C 
BRANCH   7   8
ATOM      8  C   UNL     1      44.604   0.039  24.578  1.00  0.00     0.041 C 
ATOM      9  O   UNL     1      45.653  -0.522  24.992  1.00  0.00    -0.550 OA
ATOM     10  O   UNL     1      44.416   1.397  24.804  1.00  0.00    -0.550 OA
ENDBRANCH   7   8
ENDBRANCH   6   7
ENDBRANCH   5   6
ENDBRANCH   4   5
ENDBRANCH   3   4
ENDBRANCH   2   3
ENDBRANCH   1   2
BRANCH   1  11
ATOM     11  C   UNL     1      44.503   2.893  19.258  1.00  0.00     0.000 C 
BRANCH  11  12
ATOM     12  C   UNL     1      44.241   3.107  20.757  1.00  0.00     0.000 C 
BRANCH  12  13
ATOM     13  C   UNL     1      45.349   2.514  21.643  1.00  0.00     0.000 C 
BRANCH  13  14
ATOM     14  C   UNL     1      46.413   1.760  20.829  1.00  0.00     0.000 C 
BRANCH  14  15
ATOM     15  C   UNL     1      47.300   0.857  21.704  1.00  0.00     0.000 C 
BRANCH  15  16
ATOM     16  C   UNL     1      48.317   0.051  20.880  1.00  0.00     0.006 C 
BRANCH  16  17
ATOM     17  C   UNL     1      49.714   0.044  21.513  1.00  0.00     0.053 C 
BRANCH  17  18
ATOM     18  C   UNL     1      50.743  -0.361  20.504  1.00  0.00     0.041 C 
ATOM     19  O   UNL     1      50.460  -0.364  19.277  1.00  0.00    -0.550 OA
ATOM     20  O   UNL     1      52.028  -0.691  20.915  1.00  0.00    -0.550 OA
ENDBRANCH  17  18
ENDBRANCH  16  17
ENDBRANCH  15  16
ENDBRANCH  14  15
ENDBRANCH  13  14
ENDBRANCH  12  13
ENDBRANCH  11  12
ENDBRANCH   1  11
TORSDOF 15
ENDMDL
MODEL 8
REMARK VINA RESULT:    -4.287     13.561     16.689
REMARK INTER + INTRA:          -9.749
REMARK INTER:                  -8.649
REMARK INTRA:                  -1.100
REMARK UNBOUND:                -1.703
REMARK SMILES O=C([O-])CCCCCCCCCCCCCCC(=O)[O-]
REMARK SMILES IDX 10 1 9 2 8 3 7 4 6 5 5 6 4 7 2 8 1 9 3 10 11 11 12 12 13 13
REMARK SMILES IDX 14 14 15 15 16 16 17 17 18 18 19 19 20 20
REMARK H PARENT
REMARK Flexibility Score: inf
ROOT
ATOM      1  C   UNL     1      46.338   0.933  22.647  1.00  0.00     0.000 C 
ENDROOT
BRANCH   1   2
ATOM      2  C   UNL     1      45.314   1.635  23.548  1.00  0.00     0.000 C 
BRANCH   2   3
ATOM      3  C   UNL     1      44.885   0.725  24.709  1.00  0.00     0.000 C 
BRANCH   3   4
ATOM      4  C   UNL     1      44.002  -0.452  24.255  1.00  0.00     0.000 C 
BRANCH   4   5
ATOM      5  C   UNL     1      42.809  -0.065  23.361  1.00  0.00     0.000 C 
BRANCH   5   6
ATOM      6  C   UNL     1      42.940  -0.598  21.923  1.00  0.00     0.006 C 
BRANCH   6   7
ATOM      7  C   UNL     1      42.069   0.186  20.934  1.00  0.00     0.053 C 
BRANCH   7   8
ATOM      8  C   UNL     1      41.504  -0.698  19.864  1.00  0.00     0.041 C 
ATOM      9  O   UNL     1      41.789  -0.491  18.655  1.00  0.00    -0.550 OA
ATOM     10  O   UNL     1      40.642  -1.736  20.200  1.00  0.00    -0.550 OA
ENDBRANCH   7   8
ENDBRANCH   6   7
ENDBRANCH   5   6
ENDBRANCH   4   5
ENDBRANCH   3   4
ENDBRANCH   2   3
ENDBRANCH   1   2
BRANCH   1  11
ATOM     11  C   UNL     1      46.897   1.900  21.594  1.00  0.00     0.000 C 
BRANCH  11  12
ATOM     12  C   UNL     1      47.451   1.176  20.356  1.00  0.00     0.000 C 
BRANCH  12  13
ATOM     13  C   UNL     1      48.898   1.583  20.030  1.00  0.00     0.000 C 
BRANCH  13  14
ATOM     14  C   UNL     1      49.879   1.223  21.157  1.00  0.00     0.000 C 
BRANCH  14  15
ATOM     15  C   UNL     1      49.892  -0.284  21.473  1.00  0.00     0.000 C 
BRANCH  15  16
ATOM     16  C   UNL     1      50.797  -1.078  20.516  1.00  0.00     0.006 C 
BRANCH  16  17
ATOM     17  C   UNL     1      52.106  -0.345  20.199  1.00  0.00     0.053 C 
BRANCH  17  18
ATOM     18  C   UNL     1      52.356  -0.338  18.723  1.00  0.00     0.041 C 
ATOM     19  O   UNL     1      51.887  -1.255  17.997  1.00  0.00    -0.550 OA
ATOM     20  O   UNL     1      53.067   0.704  18.143  1.00  0.00    -0.550 OA
ENDBRANCH  17  18
ENDBRANCH  16  17
ENDBRANCH  15  16
ENDBRANCH  14  15
ENDBRANCH  13  14
ENDBRANCH  12  13
ENDBRANCH  11  12
ENDBRANCH   1  11
TORSDOF 15
ENDMDL
MODEL 9
REMARK VINA RESULT:    -4.268     13.120     15.705
REMARK INTER + INTRA:          -9.714
REMARK INTER:                  -7.834
REMARK INTRA:                  -1.880
REMARK UNBOUND:                -1.703
REMARK SMILES O=C([O-])CCCCCCCCCCCCCCC(=O)[O-]
REMARK SMILES IDX 10 1 9 2 8 3 7 4 6 5 5 6 4 7 2 8 1 9 3 10 11 11 12 12 13 13
REMARK SMILES IDX 14 14 15 15 16 16 17 17 18 18 19 19 20 20
REMARK H PARENT
REMARK Flexibility Score: inf
ROOT
ATOM      1  C   UNL     1      41.481   1.138  18.652  1.00  0.00     0.000 C 
ENDROOT
BRANCH   1   2
ATOM      2  C   UNL     1      41.553  -0.393  18.723  1.00  0.00     0.000 C 
BRANCH   2   3
ATOM      3  C   UNL     1      41.561  -0.877  20.181  1.00  0.00     0.000 C 
BRANCH   3   4
ATOM      4  C   UNL     1      42.308   0.079  21.128  1.00  0.00     0.000 C 
BRANCH   4   5
ATOM      5  C   UNL     1      43.471  -0.557  21.912  1.00  0.00     0.000 C 
BRANCH   5   6
ATOM      6  C   UNL     1      43.185  -0.672  23.420  1.00  0.00     0.006 C 
BRANCH   6   7
ATOM      7  C   UNL     1      44.326  -0.098  24.271  1.00  0.00     0.053 C 
BRANCH   7   8
ATOM      8  C   UNL     1      43.967   1.230  24.866  1.00  0.00     0.041 C 
ATOM      9  O   UNL     1      44.583   1.659  25.877  1.00  0.00    -0.550 OA
ATOM     10  O   UNL     1      42.934   1.983  24.319  1.00  0.00    -0.550 OA
ENDBRANCH   7   8
ENDBRANCH   6   7
ENDBRANCH   5   6
ENDBRANCH   4   5
ENDBRANCH   3   4
ENDBRANCH   2   3
ENDBRANCH   1   2
BRANCH   1  11
ATOM     11  C   UNL     1      42.357   1.677  17.512  1.00  0.00     0.000 C 
BRANCH  11  12
ATOM     12  C   UNL     1      43.768   2.070  17.979  1.00  0.00     0.000 C 
BRANCH  12  13
ATOM     13  C   UNL     1      43.771   2.714  19.375  1.00  0.00     0.000 C 
BRANCH  13  14
ATOM     14  C   UNL     1      45.169   2.728  20.015  1.00  0.00     0.000 C 
BRANCH  14  15
ATOM     15  C   UNL     1      45.128   2.489  21.534  1.00  0.00     0.000 C 
BRANCH  15  16
ATOM     16  C   UNL     1      46.504   2.117  22.110  1.00  0.00     0.006 C 
BRANCH  16  17
ATOM     17  C   UNL     1      47.125   0.900  21.412  1.00  0.00     0.053 C 
BRANCH  17  18
ATOM     18  C   UNL     1      48.599   0.850  21.664  1.00  0.00     0.041 C 
ATOM     19  O   UNL     1      49.284   1.906  21.631  1.00  0.00    -0.550 OA
ATOM     20  O   UNL     1      49.210  -0.357  21.982  1.00  0.00    -0.550 OA
ENDBRANCH  17  18
ENDBRANCH  16  17
ENDBRANCH  15  16
ENDBRANCH  14  15
ENDBRANCH  13  14
ENDBRANCH  12  13
ENDBRANCH  11  12
ENDBRANCH   1  11
TORSDOF 15
ENDMDL
