MODEL 1
REMARK VINA RESULT:    -4.096      0.000      0.000
REMARK INTER + INTRA:          -8.630
REMARK INTER:                  -7.449
REMARK INTRA:                  -1.181
REMARK UNBOUND:                -1.181
REMARK SMILES CCCCCCCCCCCCCC[C@@H](C)C(=O)[O-]
REMARK SMILES IDX 9 1 10 2 11 3 12 4 13 5 14 6 15 7 16 8 17 9 18 10 19 11 8 12
REMARK SMILES IDX 7 13 6 14 5 15 4 16 3 17 2 18 1 19
REMARK H PARENT
REMARK Flexibility Score: inf
ROOT
ATOM      1  C   UNL     1      -1.552  11.562  -4.322  1.00  0.00     0.000 C 
ENDROOT
BRANCH   1   2
ATOM      2  C   UNL     1      -0.192  12.214  -4.047  1.00  0.00     0.000 C 
BRANCH   2   3
ATOM      3  C   UNL     1       0.623  11.389  -3.044  1.00  0.00     0.000 C 
BRANCH   3   4
ATOM      4  C   UNL     1       1.951  10.931  -3.657  1.00  0.00     0.000 C 
BRANCH   4   5
ATOM      5  C   UNL     1       2.569   9.787  -2.844  1.00  0.00     0.001 C 
BRANCH   5   6
ATOM      6  C   UNL     1       1.920   9.686  -1.455  1.00  0.00     0.009 C 
BRANCH   6   7
ATOM      7  C   UNL     1       2.071   8.277  -0.844  1.00  0.00     0.032 C 
ATOM      8  C   UNL     1       3.546   7.965  -0.563  1.00  0.00     0.014 C 
BRANCH   7   9
ATOM      9  C   UNL     1       1.266   8.135   0.420  1.00  0.00     0.044 C 
ATOM     10  O   UNL     1       1.582   7.279   1.289  1.00  0.00    -0.550 OA
ATOM     11  O   UNL     1       0.163   8.952   0.633  1.00  0.00    -0.550 OA
ENDBRANCH   7   9
ENDBRANCH   6   7
ENDBRANCH   5   6
ENDBRANCH   4   5
ENDBRANCH   3   4
ENDBRANCH   2   3
ENDBRANCH   1   2
BRANCH   1  12
ATOM     12  C   UNL     1      -2.517  12.558  -4.981  1.00  0.00     0.000 C 
BRANCH  12  13
ATOM     13  C   UNL     1      -1.838  13.884  -5.368  1.00  0.00    -0.000 C 
BRANCH  13  14
ATOM     14  C   UNL     1      -2.770  15.111  -5.388  1.00  0.00    -0.000 C 
BRANCH  14  15
ATOM     15  C   UNL     1      -2.111  16.437  -4.958  1.00  0.00    -0.000 C 
BRANCH  15  16
ATOM     16  C   UNL     1      -0.576  16.390  -4.826  1.00  0.00    -0.000 C 
BRANCH  16  17
ATOM     17  C   UNL     1      -0.038  16.637  -3.405  1.00  0.00    -0.000 C 
BRANCH  17  18
ATOM     18  C   UNL     1      -0.813  15.860  -2.332  1.00  0.00    -0.003 C 
ATOM     19  C   UNL     1      -0.051  15.842  -1.009  1.00  0.00     0.004 C 
ENDBRANCH  17  18
ENDBRANCH  16  17
ENDBRANCH  15  16
ENDBRANCH  14  15
ENDBRANCH  13  14
ENDBRANCH  12  13
ENDBRANCH   1  12
TORSDOF 14
ENDMDL
MODEL 2
REMARK VINA RESULT:    -4.044      2.865      7.314
REMARK INTER + INTRA:          -8.535
REMARK INTER:                  -7.428
REMARK INTRA:                  -1.106
REMARK UNBOUND:                -1.181
REMARK SMILES CCCCCCCCCCCCCC[C@@H](C)C(=O)[O-]
REMARK SMILES IDX 9 1 10 2 11 3 12 4 13 5 14 6 15 7 16 8 17 9 18 10 19 11 8 12
REMARK SMILES IDX 7 13 6 14 5 15 4 16 3 17 2 18 1 19
REMARK H PARENT
REMARK Flexibility Score: inf
ROOT
ATOM      1  C   UNL     1      -1.710  11.604  -4.562  1.00  0.00     0.000 C 
ENDROOT
BRANCH   1   2
ATOM      2  C   UNL     1      -2.995  12.193  -5.156  1.00  0.00     0.000 C 
BRANCH   2   3
ATOM      3  C   UNL     1      -3.134  13.679  -4.803  1.00  0.00     0.000 C 
BRANCH   3   4
ATOM      4  C   UNL     1      -3.137  14.548  -6.067  1.00  0.00     0.000 C 
BRANCH   4   5
ATOM      5  C   UNL     1      -1.925  15.488  -6.091  1.00  0.00     0.001 C 
BRANCH   5   6
ATOM      6  C   UNL     1      -1.896  16.382  -4.843  1.00  0.00     0.009 C 
BRANCH   6   7
ATOM      7  C   UNL     1      -0.624  16.160  -3.998  1.00  0.00     0.032 C 
ATOM      8  C   UNL     1       0.359  17.322  -4.185  1.00  0.00     0.014 C 
BRANCH   7   9
ATOM      9  C   UNL     1      -0.953  15.995  -2.538  1.00  0.00     0.044 C 
ATOM     10  O   UNL     1      -2.151  15.912  -2.156  1.00  0.00    -0.550 OA
ATOM     11  O   UNL     1       0.070  15.934  -1.600  1.00  0.00    -0.550 OA
ENDBRANCH   7   9
ENDBRANCH   6   7
ENDBRANCH   5   6
ENDBRANCH   4   5
ENDBRANCH   3   4
ENDBRANCH   2   3
ENDBRANCH   1   2
BRANCH   1  12
ATOM     12  C   UNL     1      -0.775  12.715  -4.061  1.00  0.00     0.000 C 
BRANCH  12  13
ATOM     13  C   UNL     1       0.679  12.240  -3.887  1.00  0.00    -0.000 C 
BRANCH  13  14
ATOM     14  C   UNL     1       0.858  11.015  -2.968  1.00  0.00    -0.000 C 
BRANCH  14  15
ATOM     15  C   UNL     1       2.188  10.257  -3.146  1.00  0.00    -0.000 C 
BRANCH  15  16
ATOM     16  C   UNL     1       2.685   9.507  -1.894  1.00  0.00    -0.000 C 
BRANCH  16  17
ATOM     17  C   UNL     1       1.646   9.365  -0.767  1.00  0.00    -0.000 C 
BRANCH  17  18
ATOM     18  C   UNL     1       2.217   8.689   0.488  1.00  0.00    -0.003 C 
ATOM     19  C   UNL     1       1.520   7.359   0.761  1.00  0.00     0.004 C 
ENDBRANCH  17  18
ENDBRANCH  16  17
ENDBRANCH  15  16
ENDBRANCH  14  15
ENDBRANCH  13  14
ENDBRANCH  12  13
ENDBRANCH   1  12
TORSDOF 14
ENDMDL
MODEL 3
REMARK VINA RESULT:    -3.877      1.071      1.622
REMARK INTER + INTRA:          -8.231
REMARK INTER:                  -7.023
REMARK INTRA:                  -1.209
REMARK UNBOUND:                -1.181
REMARK SMILES CCCCCCCCCCCCCC[C@@H](C)C(=O)[O-]
REMARK SMILES IDX 9 1 10 2 11 3 12 4 13 5 14 6 15 7 16 8 17 9 18 10 19 11 8 12
REMARK SMILES IDX 7 13 6 14 5 15 4 16 3 17 2 18 1 19
REMARK H PARENT
REMARK Flexibility Score: inf
ROOT
ATOM      1  C   UNL     1      -2.528  12.171  -4.244  1.00  0.00     0.000 C 
ENDROOT
BRANCH   1   2
ATOM      2  C   UNL     1      -1.210  11.390  -4.298  1.00  0.00     0.000 C 
BRANCH   2   3
ATOM      3  C   UNL     1      -0.042  12.243  -3.788  1.00  0.00     0.000 C 
BRANCH   3   4
ATOM      4  C   UNL     1       1.114  11.361  -3.303  1.00  0.00     0.000 C 
BRANCH   4   5
ATOM      5  C   UNL     1       0.739  10.622  -2.013  1.00  0.00     0.001 C 
BRANCH   5   6
ATOM      6  C   UNL     1       1.914   9.772  -1.503  1.00  0.00     0.009 C 
BRANCH   6   7
ATOM      7  C   UNL     1       1.660   9.219  -0.085  1.00  0.00     0.032 C 
ATOM      8  C   UNL     1       0.162   9.242   0.243  1.00  0.00     0.014 C 
BRANCH   7   9
ATOM      9  C   UNL     1       2.198   7.822   0.066  1.00  0.00     0.044 C 
ATOM     10  O   UNL     1       1.558   6.955   0.718  1.00  0.00    -0.550 OA
ATOM     11  O   UNL     1       3.413   7.481  -0.516  1.00  0.00    -0.550 OA
ENDBRANCH   7   9
ENDBRANCH   6   7
ENDBRANCH   5   6
ENDBRANCH   4   5
ENDBRANCH   3   4
ENDBRANCH   2   3
ENDBRANCH   1   2
BRANCH   1  12
ATOM     12  C   UNL     1      -2.659  13.115  -5.448  1.00  0.00     0.000 C 
BRANCH  12  13
ATOM     13  C   UNL     1      -3.197  14.505  -5.064  1.00  0.00    -0.000 C 
BRANCH  13  14
ATOM     14  C   UNL     1      -2.968  15.606  -6.118  1.00  0.00    -0.000 C 
BRANCH  14  15
ATOM     15  C   UNL     1      -1.718  16.478  -5.888  1.00  0.00    -0.000 C 
BRANCH  15  16
ATOM     16  C   UNL     1      -0.417  15.696  -5.620  1.00  0.00    -0.000 C 
BRANCH  16  17
ATOM     17  C   UNL     1       0.189  15.904  -4.220  1.00  0.00    -0.000 C 
BRANCH  17  18
ATOM     18  C   UNL     1      -0.876  16.148  -3.141  1.00  0.00    -0.003 C 
ATOM     19  C   UNL     1      -0.330  15.837  -1.750  1.00  0.00     0.004 C 
ENDBRANCH  17  18
ENDBRANCH  16  17
ENDBRANCH  15  16
ENDBRANCH  14  15
ENDBRANCH  13  14
ENDBRANCH  12  13
ENDBRANCH   1  12
TORSDOF 14
ENDMDL
MODEL 4
REMARK VINA RESULT:    -3.823      3.750      8.019
REMARK INTER + INTRA:          -8.132
REMARK INTER:                  -6.783
REMARK INTRA:                  -1.349
REMARK UNBOUND:                -1.181
REMARK SMILES CCCCCCCCCCCCCC[C@@H](C)C(=O)[O-]
REMARK SMILES IDX 9 1 10 2 11 3 12 4 13 5 14 6 15 7 16 8 17 9 18 10 19 11 8 12
REMARK SMILES IDX 7 13 6 14 5 15 4 16 3 17 2 18 1 19
REMARK H PARENT
REMARK Flexibility Score: inf
ROOT
ATOM      1  C   UNL     1      -1.348  11.589  -4.016  1.00  0.00     0.000 C 
ENDROOT
BRANCH   1   2
ATOM      2  C   UNL     1      -2.167  12.308  -5.094  1.00  0.00     0.000 C 
BRANCH   2   3
ATOM      3  C   UNL     1      -2.938  13.494  -4.502  1.00  0.00     0.000 C 
BRANCH   3   4
ATOM      4  C   UNL     1      -3.362  14.478  -5.598  1.00  0.00     0.000 C 
BRANCH   4   5
ATOM      5  C   UNL     1      -2.342  15.615  -5.742  1.00  0.00     0.001 C 
BRANCH   5   6
ATOM      6  C   UNL     1      -1.622  15.881  -4.411  1.00  0.00     0.009 C 
BRANCH   6   7
ATOM      7  C   UNL     1      -0.088  15.913  -4.576  1.00  0.00     0.032 C 
ATOM      8  C   UNL     1       0.325  15.278  -5.909  1.00  0.00     0.014 C 
BRANCH   7   9
ATOM      9  C   UNL     1       0.446  17.317  -4.489  1.00  0.00     0.044 C 
ATOM     10  O   UNL     1      -0.324  18.306  -4.617  1.00  0.00    -0.550 OA
ATOM     11  O   UNL     1       1.801  17.530  -4.266  1.00  0.00    -0.550 OA
ENDBRANCH   7   9
ENDBRANCH   6   7
ENDBRANCH   5   6
ENDBRANCH   4   5
ENDBRANCH   3   4
ENDBRANCH   2   3
ENDBRANCH   1   2
BRANCH   1  12
ATOM     12  C   UNL     1       0.049  12.212  -3.878  1.00  0.00     0.000 C 
BRANCH  12  13
ATOM     13  C   UNL     1       1.003  11.360  -3.022  1.00  0.00    -0.000 C 
BRANCH  13  14
ATOM     14  C   UNL     1       0.314  10.477  -1.962  1.00  0.00    -0.000 C 
BRANCH  14  15
ATOM     15  C   UNL     1       1.247   9.932  -0.863  1.00  0.00    -0.000 C 
BRANCH  15  16
ATOM     16  C   UNL     1       2.501   9.196  -1.376  1.00  0.00    -0.000 C 
BRANCH  16  17
ATOM     17  C   UNL     1       2.771   7.832  -0.713  1.00  0.00    -0.000 C 
BRANCH  17  18
ATOM     18  C   UNL     1       1.928   7.607   0.551  1.00  0.00    -0.003 C 
ATOM     19  C   UNL     1       2.662   6.715   1.549  1.00  0.00     0.004 C 
ENDBRANCH  17  18
ENDBRANCH  16  17
ENDBRANCH  15  16
ENDBRANCH  14  15
ENDBRANCH  13  14
ENDBRANCH  12  13
ENDBRANCH   1  12
TORSDOF 14
ENDMDL
MODEL 5
REMARK VINA RESULT:    -3.811      1.248      2.682
REMARK INTER + INTRA:          -8.110
REMARK INTER:                  -6.754
REMARK INTRA:                  -1.357
REMARK UNBOUND:                -1.181
REMARK SMILES CCCCCCCCCCCCCC[C@@H](C)C(=O)[O-]
REMARK SMILES IDX 9 1 10 2 11 3 12 4 13 5 14 6 15 7 16 8 17 9 18 10 19 11 8 12
REMARK SMILES IDX 7 13 6 14 5 15 4 16 3 17 2 18 1 19
REMARK H PARENT
REMARK Flexibility Score: inf
ROOT
ATOM      1  C   UNL     1       0.300  13.399  -3.763  1.00  0.00     0.000 C 
ENDROOT
BRANCH   1   2
ATOM      2  C   UNL     1       0.219  11.873  -3.885  1.00  0.00     0.000 C 
BRANCH   2   3
ATOM      3  C   UNL     1       1.123  11.189  -2.853  1.00  0.00     0.000 C 
BRANCH   3   4
ATOM      4  C   UNL     1       2.396  10.644  -3.511  1.00  0.00     0.000 C 
BRANCH   4   5
ATOM      5  C   UNL     1       3.010   9.515  -2.674  1.00  0.00     0.001 C 
BRANCH   5   6
ATOM      6  C   UNL     1       2.329   9.416  -1.300  1.00  0.00     0.009 C 
BRANCH   6   7
ATOM      7  C   UNL     1       2.429   7.996  -0.703  1.00  0.00     0.032 C 
ATOM      8  C   UNL     1       3.884   7.652  -0.366  1.00  0.00     0.014 C 
BRANCH   7   9
ATOM      9  C   UNL     1       1.569   7.853   0.524  1.00  0.00     0.044 C 
ATOM     10  O   UNL     1       0.528   8.548   0.663  1.00  0.00    -0.550 OA
ATOM     11  O   UNL     1       1.925   6.947   1.516  1.00  0.00    -0.550 OA
ENDBRANCH   7   9
ENDBRANCH   6   7
ENDBRANCH   5   6
ENDBRANCH   4   5
ENDBRANCH   3   4
ENDBRANCH   2   3
ENDBRANCH   1   2
BRANCH   1  12
ATOM     12  C   UNL     1       0.951  14.018  -5.009  1.00  0.00     0.000 C 
BRANCH  12  13
ATOM     13  C   UNL     1       0.105  15.142  -5.632  1.00  0.00    -0.000 C 
BRANCH  13  14
ATOM     14  C   UNL     1      -0.360  16.231  -4.645  1.00  0.00    -0.000 C 
BRANCH  14  15
ATOM     15  C   UNL     1      -1.875  16.247  -4.358  1.00  0.00    -0.000 C 
BRANCH  15  16
ATOM     16  C   UNL     1      -2.724  15.349  -5.281  1.00  0.00    -0.000 C 
BRANCH  16  17
ATOM     17  C   UNL     1      -3.276  14.075  -4.617  1.00  0.00    -0.000 C 
BRANCH  17  18
ATOM     18  C   UNL     1      -2.955  12.802  -5.413  1.00  0.00    -0.003 C 
ATOM     19  C   UNL     1      -3.184  11.552  -4.567  1.00  0.00     0.004 C 
ENDBRANCH  17  18
ENDBRANCH  16  17
ENDBRANCH  15  16
ENDBRANCH  14  15
ENDBRANCH  13  14
ENDBRANCH  12  13
ENDBRANCH   1  12
TORSDOF 14
ENDMDL
MODEL 6
REMARK VINA RESULT:    -3.804      1.127      1.832
REMARK INTER + INTRA:          -8.098
REMARK INTER:                  -6.914
REMARK INTRA:                  -1.185
REMARK UNBOUND:                -1.181
REMARK SMILES CCCCCCCCCCCCCC[C@@H](C)C(=O)[O-]
REMARK SMILES IDX 9 1 10 2 11 3 12 4 13 5 14 6 15 7 16 8 17 9 18 10 19 11 8 12
REMARK SMILES IDX 7 13 6 14 5 15 4 16 3 17 2 18 1 19
REMARK H PARENT
REMARK Flexibility Score: inf
ROOT
ATOM      1  C   UNL     1      -0.395  12.521  -3.805  1.00  0.00     0.000 C 
ENDROOT
BRANCH   1   2
ATOM      2  C   UNL     1       0.990  11.894  -4.003  1.00  0.00     0.000 C 
BRANCH   2   3
ATOM      3  C   UNL     1       1.314  10.906  -2.877  1.00  0.00     0.000 C 
BRANCH   3   4
ATOM      4  C   UNL     1       2.593  10.119  -3.185  1.00  0.00     0.000 C 
BRANCH   4   5
ATOM      5  C   UNL     1       3.300   9.688  -1.895  1.00  0.00     0.001 C 
BRANCH   5   6
ATOM      6  C   UNL     1       2.638   8.438  -1.294  1.00  0.00     0.009 C 
BRANCH   6   7
ATOM      7  C   UNL     1       2.200   8.659   0.169  1.00  0.00     0.032 C 
ATOM      8  C   UNL     1       0.738   9.118   0.233  1.00  0.00     0.014 C 
BRANCH   7   9
ATOM      9  C   UNL     1       2.383   7.413   0.993  1.00  0.00     0.044 C 
ATOM     10  O   UNL     1       1.492   6.523   1.018  1.00  0.00    -0.550 OA
ATOM     11  O   UNL     1       3.545   7.239   1.737  1.00  0.00    -0.550 OA
ENDBRANCH   7   9
ENDBRANCH   6   7
ENDBRANCH   5   6
ENDBRANCH   4   5
ENDBRANCH   3   4
ENDBRANCH   2   3
ENDBRANCH   1   2
BRANCH   1  12
ATOM     12  C   UNL     1      -1.470  11.736  -4.571  1.00  0.00     0.000 C 
BRANCH  12  13
ATOM     13  C   UNL     1      -2.801  12.500  -4.687  1.00  0.00    -0.000 C 
BRANCH  13  14
ATOM     14  C   UNL     1      -3.003  13.257  -6.014  1.00  0.00    -0.000 C 
BRANCH  14  15
ATOM     15  C   UNL     1      -2.993  14.794  -5.896  1.00  0.00    -0.000 C 
BRANCH  15  16
ATOM     16  C   UNL     1      -1.604  15.450  -6.028  1.00  0.00    -0.000 C 
BRANCH  16  17
ATOM     17  C   UNL     1      -1.220  16.395  -4.876  1.00  0.00    -0.000 C 
BRANCH  17  18
ATOM     18  C   UNL     1      -1.501  15.792  -3.492  1.00  0.00    -0.003 C 
ATOM     19  C   UNL     1      -0.468  16.260  -2.469  1.00  0.00     0.004 C 
ENDBRANCH  17  18
ENDBRANCH  16  17
ENDBRANCH  15  16
ENDBRANCH  14  15
ENDBRANCH  13  14
ENDBRANCH  12  13
ENDBRANCH   1  12
TORSDOF 14
ENDMDL
MODEL 7
REMARK VINA RESULT:    -3.687      4.052      8.209
REMARK INTER + INTRA:          -7.886
REMARK INTER:                  -6.730
REMARK INTRA:                  -1.156
REMARK UNBOUND:                -1.181
REMARK SMILES CCCCCCCCCCCCCC[C@@H](C)C(=O)[O-]
REMARK SMILES IDX 9 1 10 2 11 3 12 4 13 5 14 6 15 7 16 8 17 9 18 10 19 11 8 12
REMARK SMILES IDX 7 13 6 14 5 15 4 16 3 17 2 18 1 19
REMARK H PARENT
REMARK Flexibility Score: inf
ROOT
ATOM      1  C   UNL     1      -0.669  12.203  -3.683  1.00  0.00     0.000 C 
ENDROOT
BRANCH   1   2
ATOM      2  C   UNL     1      -1.581  11.311  -4.532  1.00  0.00     0.000 C 
BRANCH   2   3
ATOM      3  C   UNL     1      -3.005  11.878  -4.593  1.00  0.00     0.000 C 
BRANCH   3   4
ATOM      4  C   UNL     1      -3.161  12.852  -5.766  1.00  0.00     0.000 C 
BRANCH   4   5
ATOM      5  C   UNL     1      -3.332  14.292  -5.268  1.00  0.00     0.001 C 
BRANCH   5   6
ATOM      6  C   UNL     1      -2.108  15.149  -5.627  1.00  0.00     0.009 C 
BRANCH   6   7
ATOM      7  C   UNL     1      -1.830  16.238  -4.570  1.00  0.00     0.032 C 
ATOM      8  C   UNL     1      -0.551  15.917  -3.788  1.00  0.00     0.014 C 
BRANCH   7   9
ATOM      9  C   UNL     1      -1.720  17.601  -5.198  1.00  0.00     0.044 C 
ATOM     10  O   UNL     1      -2.688  18.092  -5.838  1.00  0.00    -0.550 OA
ATOM     11  O   UNL     1      -0.542  18.327  -5.075  1.00  0.00    -0.550 OA
ENDBRANCH   7   9
ENDBRANCH   6   7
ENDBRANCH   5   6
ENDBRANCH   4   5
ENDBRANCH   3   4
ENDBRANCH   2   3
ENDBRANCH   1   2
BRANCH   1  12
ATOM     12  C   UNL     1       0.806  11.820  -3.871  1.00  0.00     0.000 C 
BRANCH  12  13
ATOM     13  C   UNL     1       1.316  10.848  -2.793  1.00  0.00    -0.000 C 
BRANCH  13  14
ATOM     14  C   UNL     1       2.637  10.130  -3.134  1.00  0.00    -0.000 C 
BRANCH  14  15
ATOM     15  C   UNL     1       2.996   8.951  -2.208  1.00  0.00    -0.000 C 
BRANCH  15  16
ATOM     16  C   UNL     1       3.249   9.331  -0.735  1.00  0.00    -0.000 C 
BRANCH  16  17
ATOM     17  C   UNL     1       2.818   8.270   0.293  1.00  0.00    -0.000 C 
BRANCH  17  18
ATOM     18  C   UNL     1       1.331   7.904   0.183  1.00  0.00    -0.003 C 
ATOM     19  C   UNL     1       0.452   9.149   0.263  1.00  0.00     0.004 C 
ENDBRANCH  17  18
ENDBRANCH  16  17
ENDBRANCH  15  16
ENDBRANCH  14  15
ENDBRANCH  13  14
ENDBRANCH  12  13
ENDBRANCH   1  12
TORSDOF 14
ENDMDL
MODEL 8
REMARK VINA RESULT:    -3.671      1.605      2.034
REMARK INTER + INTRA:          -7.857
REMARK INTER:                  -6.838
REMARK INTRA:                  -1.019
REMARK UNBOUND:                -1.181
REMARK SMILES CCCCCCCCCCCCCC[C@@H](C)C(=O)[O-]
REMARK SMILES IDX 9 1 10 2 11 3 12 4 13 5 14 6 15 7 16 8 17 9 18 10 19 11 8 12
REMARK SMILES IDX 7 13 6 14 5 15 4 16 3 17 2 18 1 19
REMARK H PARENT
REMARK Flexibility Score: inf
ROOT
ATOM      1  C   UNL     1      -1.519  11.839  -4.612  1.00  0.00     0.000 C 
ENDROOT
BRANCH   1   2
ATOM      2  C   UNL     1      -0.599  13.035  -4.340  1.00  0.00     0.000 C 
BRANCH   2   3
ATOM      3  C   UNL     1       0.777  12.571  -3.846  1.00  0.00     0.000 C 
BRANCH   3   4
ATOM      4  C   UNL     1       0.747  11.093  -3.441  1.00  0.00     0.000 C 
BRANCH   4   5
ATOM      5  C   UNL     1       0.892  10.935  -1.923  1.00  0.00     0.001 C 
BRANCH   5   6
ATOM      6  C   UNL     1       1.747   9.707  -1.575  1.00  0.00     0.009 C 
BRANCH   6   7
ATOM      7  C   UNL     1       1.590   9.288  -0.098  1.00  0.00     0.032 C 
ATOM      8  C   UNL     1       0.108   9.134   0.265  1.00  0.00     0.014 C 
BRANCH   7   9
ATOM      9  C   UNL     1       2.326   8.007   0.193  1.00  0.00     0.044 C 
ATOM     10  O   UNL     1       3.386   7.722  -0.425  1.00  0.00    -0.550 OA
ATOM     11  O   UNL     1       1.834   7.128   1.150  1.00  0.00    -0.550 OA
ENDBRANCH   7   9
ENDBRANCH   6   7
ENDBRANCH   5   6
ENDBRANCH   4   5
ENDBRANCH   3   4
ENDBRANCH   2   3
ENDBRANCH   1   2
BRANCH   1  12
ATOM     12  C   UNL     1      -2.928  12.306  -5.006  1.00  0.00     0.000 C 
BRANCH  12  13
ATOM     13  C   UNL     1      -3.132  13.820  -4.817  1.00  0.00    -0.000 C 
BRANCH  13  14
ATOM     14  C   UNL     1      -3.375  14.612  -6.117  1.00  0.00    -0.000 C 
BRANCH  14  15
ATOM     15  C   UNL     1      -2.951  16.093  -6.066  1.00  0.00    -0.000 C 
BRANCH  15  16
ATOM     16  C   UNL     1      -1.668  16.378  -5.260  1.00  0.00    -0.000 C 
BRANCH  16  17
ATOM     17  C   UNL     1      -1.190  17.841  -5.294  1.00  0.00    -0.000 C 
BRANCH  17  18
ATOM     18  C   UNL     1       0.145  18.048  -4.565  1.00  0.00    -0.003 C 
ATOM     19  C   UNL     1       1.025  16.805  -4.664  1.00  0.00     0.004 C 
ENDBRANCH  17  18
ENDBRANCH  16  17
ENDBRANCH  15  16
ENDBRANCH  14  15
ENDBRANCH  13  14
ENDBRANCH  12  13
ENDBRANCH   1  12
TORSDOF 14
ENDMDL
MODEL 9
REMARK VINA RESULT:    -3.285      3.420      8.522
REMARK INTER + INTRA:          -7.154
REMARK INTER:                  -6.168
REMARK INTRA:                  -0.986
REMARK UNBOUND:                -1.181
REMARK SMILES CCCCCCCCCCCCCC[C@@H](C)C(=O)[O-]
REMARK SMILES IDX 9 1 10 2 11 3 12 4 13 5 14 6 15 7 16 8 17 9 18 10 19 11 8 12
REMARK SMILES IDX 7 13 6 14 5 15 4 16 3 17 2 18 1 19
REMARK H PARENT
REMARK Flexibility Score: inf
ROOT
ATOM      1  C   UNL     1       0.336  11.251  -2.529  1.00  0.00     0.000 C 
ENDROOT
BRANCH   1   2
ATOM      2  C   UNL     1       0.759  11.850  -3.875  1.00  0.00     0.000 C 
BRANCH   2   3
ATOM      3  C   UNL     1       0.074  13.200  -4.117  1.00  0.00     0.000 C 
BRANCH   3   4
ATOM      4  C   UNL     1      -1.356  13.007  -4.635  1.00  0.00     0.000 C 
BRANCH   4   5
ATOM      5  C   UNL     1      -1.933  14.325  -5.167  1.00  0.00     0.001 C 
BRANCH   5   6
ATOM      6  C   UNL     1      -0.888  15.090  -5.994  1.00  0.00     0.009 C 
BRANCH   6   7
ATOM      7  C   UNL     1      -0.825  16.584  -5.614  1.00  0.00     0.032 C 
ATOM      8  C   UNL     1      -2.223  17.114  -5.274  1.00  0.00     0.014 C 
BRANCH   7   9
ATOM      9  C   UNL     1       0.109  16.820  -4.458  1.00  0.00     0.044 C 
ATOM     10  O   UNL     1       1.299  17.184  -4.658  1.00  0.00    -0.550 OA
ATOM     11  O   UNL     1      -0.339  16.635  -3.156  1.00  0.00    -0.550 OA
ENDBRANCH   7   9
ENDBRANCH   6   7
ENDBRANCH   5   6
ENDBRANCH   4   5
ENDBRANCH   3   4
ENDBRANCH   2   3
ENDBRANCH   1   2
BRANCH   1  12
ATOM     12  C   UNL     1       1.453  10.375  -1.941  1.00  0.00     0.000 C 
BRANCH  12  13
ATOM     13  C   UNL     1       2.539  10.017  -2.971  1.00  0.00    -0.000 C 
BRANCH  13  14
ATOM     14  C   UNL     1       3.835   9.434  -2.375  1.00  0.00    -0.000 C 
BRANCH  14  15
ATOM     15  C   UNL     1       3.748   7.955  -1.946  1.00  0.00    -0.000 C 
BRANCH  15  16
ATOM     16  C   UNL     1       4.091   7.683  -0.468  1.00  0.00    -0.000 C 
BRANCH  16  17
ATOM     17  C   UNL     1       3.041   8.178   0.544  1.00  0.00    -0.000 C 
BRANCH  17  18
ATOM     18  C   UNL     1       2.346   7.030   1.290  1.00  0.00    -0.003 C 
ATOM     19  C   UNL     1       3.366   6.059   1.878  1.00  0.00     0.004 C 
ENDBRANCH  17  18
ENDBRANCH  16  17
ENDBRANCH  15  16
ENDBRANCH  14  15
ENDBRANCH  13  14
ENDBRANCH  12  13
ENDBRANCH   1  12
TORSDOF 14
ENDMDL
