MODEL 1
REMARK VINA RESULT:    -4.676      0.000      0.000
REMARK INTER + INTRA:          -9.346
REMARK INTER:                  -8.502
REMARK INTRA:                  -0.844
REMARK UNBOUND:                -0.844
REMARK SMILES CCCCCCCCCCCCCC[C@H](C)C(=O)[O-]
REMARK SMILES IDX 9 1 10 2 11 3 12 4 13 5 14 6 15 7 16 8 17 9 18 10 19 11 8 12
REMARK SMILES IDX 7 13 6 14 5 15 4 16 3 17 2 18 1 19
REMARK H PARENT
REMARK Flexibility Score: inf
ROOT
ATOM      1  C   UNL     1      36.828  30.827  28.303  1.00  0.00     0.000 C 
ENDROOT
BRANCH   1   2
ATOM      2  C   UNL     1      37.666  31.834  29.121  1.00  0.00     0.000 C 
BRANCH   2   3
ATOM      3  C   UNL     1      39.155  31.852  28.735  1.00  0.00     0.000 C 
BRANCH   3   4
ATOM      4  C   UNL     1      39.925  33.008  29.388  1.00  0.00     0.000 C 
BRANCH   4   5
ATOM      5  C   UNL     1      41.347  32.577  29.768  1.00  0.00     0.001 C 
BRANCH   5   6
ATOM      6  C   UNL     1      41.397  31.074  30.093  1.00  0.00     0.009 C 
BRANCH   6   7
ATOM      7  C   UNL     1      42.820  30.472  30.109  1.00  0.00     0.032 C 
ATOM      8  C   UNL     1      43.721  31.046  29.004  1.00  0.00     0.014 C 
BRANCH   7   9
ATOM      9  C   UNL     1      42.786  28.966  30.082  1.00  0.00     0.044 C 
ATOM     10  O   UNL     1      43.851  28.293  30.033  1.00  0.00    -0.550 OA
ATOM     11  O   UNL     1      41.562  28.308  30.052  1.00  0.00    -0.550 OA
ENDBRANCH   7   9
ENDBRANCH   6   7
ENDBRANCH   5   6
ENDBRANCH   4   5
ENDBRANCH   3   4
ENDBRANCH   2   3
ENDBRANCH   1   2
BRANCH   1  12
ATOM     12  C   UNL     1      36.296  29.674  29.173  1.00  0.00     0.000 C 
BRANCH  12  13
ATOM     13  C   UNL     1      34.930  29.152  28.697  1.00  0.00    -0.000 C 
BRANCH  13  14
ATOM     14  C   UNL     1      34.569  27.790  29.318  1.00  0.00    -0.000 C 
BRANCH  14  15
ATOM     15  C   UNL     1      33.099  27.719  29.763  1.00  0.00    -0.000 C 
BRANCH  15  16
ATOM     16  C   UNL     1      32.120  27.848  28.584  1.00  0.00    -0.000 C 
BRANCH  16  17
ATOM     17  C   UNL     1      31.532  26.495  28.152  1.00  0.00    -0.000 C 
BRANCH  17  18
ATOM     18  C   UNL     1      32.001  26.062  26.756  1.00  0.00    -0.003 C 
ATOM     19  C   UNL     1      32.664  27.221  26.015  1.00  0.00     0.004 C 
ENDBRANCH  17  18
ENDBRANCH  16  17
ENDBRANCH  15  16
ENDBRANCH  14  15
ENDBRANCH  13  14
ENDBRANCH  12  13
ENDBRANCH   1  12
TORSDOF 14
ENDMDL
MODEL 2
REMARK VINA RESULT:    -4.491      3.352      4.085
REMARK INTER + INTRA:          -9.011
REMARK INTER:                  -8.455
REMARK INTRA:                  -0.556
REMARK UNBOUND:                -0.844
REMARK SMILES CCCCCCCCCCCCCC[C@H](C)C(=O)[O-]
REMARK SMILES IDX 9 1 10 2 11 3 12 4 13 5 14 6 15 7 16 8 17 9 18 10 19 11 8 12
REMARK SMILES IDX 7 13 6 14 5 15 4 16 3 17 2 18 1 19
REMARK H PARENT
REMARK Flexibility Score: inf
ROOT
ATOM      1  C   UNL     1      38.591  31.739  29.054  1.00  0.00     0.000 C 
ENDROOT
BRANCH   1   2
ATOM      2  C   UNL     1      39.886  31.318  29.782  1.00  0.00     0.000 C 
BRANCH   2   3
ATOM      3  C   UNL     1      41.090  32.222  29.465  1.00  0.00     0.000 C 
BRANCH   3   4
ATOM      4  C   UNL     1      42.436  31.518  29.684  1.00  0.00     0.000 C 
BRANCH   4   5
ATOM      5  C   UNL     1      43.607  32.476  29.429  1.00  0.00     0.001 C 
BRANCH   5   6
ATOM      6  C   UNL     1      43.110  33.802  28.829  1.00  0.00     0.009 C 
BRANCH   6   7
ATOM      7  C   UNL     1      44.155  34.941  28.846  1.00  0.00     0.032 C 
ATOM      8  C   UNL     1      43.958  35.911  30.022  1.00  0.00     0.014 C 
BRANCH   7   9
ATOM      9  C   UNL     1      44.212  35.662  27.525  1.00  0.00     0.044 C 
ATOM     10  O   UNL     1      43.815  35.105  26.465  1.00  0.00    -0.550 OA
ATOM     11  O   UNL     1      44.763  36.936  27.461  1.00  0.00    -0.550 OA
ENDBRANCH   7   9
ENDBRANCH   6   7
ENDBRANCH   5   6
ENDBRANCH   4   5
ENDBRANCH   3   4
ENDBRANCH   2   3
ENDBRANCH   1   2
BRANCH   1  12
ATOM     12  C   UNL     1      37.360  30.972  29.571  1.00  0.00     0.000 C 
BRANCH  12  13
ATOM     13  C   UNL     1      36.748  30.045  28.508  1.00  0.00    -0.000 C 
BRANCH  13  14
ATOM     14  C   UNL     1      36.044  28.822  29.125  1.00  0.00    -0.000 C 
BRANCH  14  15
ATOM     15  C   UNL     1      34.513  28.912  29.023  1.00  0.00    -0.000 C 
BRANCH  15  16
ATOM     16  C   UNL     1      33.818  27.600  29.425  1.00  0.00    -0.000 C 
BRANCH  16  17
ATOM     17  C   UNL     1      32.445  27.428  28.756  1.00  0.00    -0.000 C 
BRANCH  17  18
ATOM     18  C   UNL     1      32.539  27.329  27.227  1.00  0.00    -0.003 C 
ATOM     19  C   UNL     1      32.251  25.908  26.749  1.00  0.00     0.004 C 
ENDBRANCH  17  18
ENDBRANCH  16  17
ENDBRANCH  15  16
ENDBRANCH  14  15
ENDBRANCH  13  14
ENDBRANCH  12  13
ENDBRANCH   1  12
TORSDOF 14
ENDMDL
MODEL 3
REMARK VINA RESULT:    -3.334     13.266     14.530
REMARK INTER + INTRA:          -6.907
REMARK INTER:                  -6.107
REMARK INTRA:                  -0.800
REMARK UNBOUND:                -0.844
REMARK SMILES CCCCCCCCCCCCCC[C@H](C)C(=O)[O-]
REMARK SMILES IDX 9 1 10 2 11 3 12 4 13 5 14 6 15 7 16 8 17 9 18 10 19 11 8 12
REMARK SMILES IDX 7 13 6 14 5 15 4 16 3 17 2 18 1 19
REMARK H PARENT
REMARK Flexibility Score: inf
ROOT
ATOM      1  C   UNL     1      41.917  25.847  18.567  1.00  0.00     0.000 C 
ENDROOT
BRANCH   1   2
ATOM      2  C   UNL     1      42.544  25.072  17.389  1.00  0.00     0.000 C 
BRANCH   2   3
ATOM      3  C   UNL     1      43.705  24.153  17.806  1.00  0.00     0.000 C 
BRANCH   3   4
ATOM      4  C   UNL     1      44.200  23.260  16.660  1.00  0.00     0.000 C 
BRANCH   4   5
ATOM      5  C   UNL     1      44.833  21.971  17.199  1.00  0.00     0.001 C 
BRANCH   5   6
ATOM      6  C   UNL     1      44.067  20.733  16.703  1.00  0.00     0.009 C 
BRANCH   6   7
ATOM      7  C   UNL     1      42.744  20.459  17.453  1.00  0.00     0.032 C 
ATOM      8  C   UNL     1      42.967  19.904  18.869  1.00  0.00     0.014 C 
BRANCH   7   9
ATOM      9  C   UNL     1      41.819  19.585  16.646  1.00  0.00     0.044 C 
ATOM     10  O   UNL     1      41.896  19.548  15.387  1.00  0.00    -0.550 OA
ATOM     11  O   UNL     1      40.829  18.853  17.290  1.00  0.00    -0.550 OA
ENDBRANCH   7   9
ENDBRANCH   6   7
ENDBRANCH   5   6
ENDBRANCH   4   5
ENDBRANCH   3   4
ENDBRANCH   2   3
ENDBRANCH   1   2
BRANCH   1  12
ATOM     12  C   UNL     1      41.047  27.024  18.089  1.00  0.00     0.000 C 
BRANCH  12  13
ATOM     13  C   UNL     1      40.176  26.665  16.874  1.00  0.00    -0.000 C 
BRANCH  13  14
ATOM     14  C   UNL     1      38.746  26.256  17.273  1.00  0.00    -0.000 C 
BRANCH  14  15
ATOM     15  C   UNL     1      37.791  26.208  16.069  1.00  0.00    -0.000 C 
BRANCH  15  16
ATOM     16  C   UNL     1      36.493  25.443  16.378  1.00  0.00    -0.000 C 
BRANCH  16  17
ATOM     17  C   UNL     1      35.271  26.034  15.656  1.00  0.00    -0.000 C 
BRANCH  17  18
ATOM     18  C   UNL     1      34.980  27.482  16.072  1.00  0.00    -0.003 C 
ATOM     19  C   UNL     1      34.979  28.413  14.862  1.00  0.00     0.004 C 
ENDBRANCH  17  18
ENDBRANCH  16  17
ENDBRANCH  15  16
ENDBRANCH  14  15
ENDBRANCH  13  14
ENDBRANCH  12  13
ENDBRANCH   1  12
TORSDOF 14
ENDMDL
MODEL 4
REMARK VINA RESULT:    -3.322     12.443     13.553
REMARK INTER + INTRA:          -6.885
REMARK INTER:                  -6.229
REMARK INTRA:                  -0.656
REMARK UNBOUND:                -0.844
REMARK SMILES CCCCCCCCCCCCCC[C@H](C)C(=O)[O-]
REMARK SMILES IDX 9 1 10 2 11 3 12 4 13 5 14 6 15 7 16 8 17 9 18 10 19 11 8 12
REMARK SMILES IDX 7 13 6 14 5 15 4 16 3 17 2 18 1 19
REMARK H PARENT
REMARK Flexibility Score: inf
ROOT
ATOM      1  C   UNL     1      39.354  26.658  17.596  1.00  0.00     0.000 C 
ENDROOT
BRANCH   1   2
ATOM      2  C   UNL     1      40.505  26.606  16.568  1.00  0.00     0.000 C 
BRANCH   2   3
ATOM      3  C   UNL     1      41.834  27.167  17.104  1.00  0.00     0.000 C 
BRANCH   3   4
ATOM      4  C   UNL     1      41.677  28.545  17.759  1.00  0.00     0.000 C 
BRANCH   4   5
ATOM      5  C   UNL     1      41.741  29.664  16.713  1.00  0.00     0.001 C 
BRANCH   5   6
ATOM      6  C   UNL     1      43.180  29.859  16.204  1.00  0.00     0.009 C 
BRANCH   6   7
ATOM      7  C   UNL     1      43.729  31.293  16.378  1.00  0.00     0.032 C 
ATOM      8  C   UNL     1      43.070  32.302  15.424  1.00  0.00     0.014 C 
BRANCH   7   9
ATOM      9  C   UNL     1      45.232  31.327  16.283  1.00  0.00     0.044 C 
ATOM     10  O   UNL     1      45.935  31.721  17.253  1.00  0.00    -0.550 OA
ATOM     11  O   UNL     1      45.853  30.975  15.090  1.00  0.00    -0.550 OA
ENDBRANCH   7   9
ENDBRANCH   6   7
ENDBRANCH   5   6
ENDBRANCH   4   5
ENDBRANCH   3   4
ENDBRANCH   2   3
ENDBRANCH   1   2
BRANCH   1  12
ATOM     12  C   UNL     1      38.236  25.652  17.266  1.00  0.00     0.000 C 
BRANCH  12  13
ATOM     13  C   UNL     1      37.332  26.124  16.114  1.00  0.00    -0.000 C 
BRANCH  13  14
ATOM     14  C   UNL     1      35.865  25.699  16.303  1.00  0.00    -0.000 C 
BRANCH  14  15
ATOM     15  C   UNL     1      34.901  26.507  15.419  1.00  0.00    -0.000 C 
BRANCH  15  16
ATOM     16  C   UNL     1      35.003  28.022  15.667  1.00  0.00    -0.000 C 
BRANCH  16  17
ATOM     17  C   UNL     1      35.007  28.836  14.363  1.00  0.00    -0.000 C 
BRANCH  17  18
ATOM     18  C   UNL     1      34.897  30.348  14.608  1.00  0.00    -0.003 C 
ATOM     19  C   UNL     1      34.146  31.036  13.470  1.00  0.00     0.004 C 
ENDBRANCH  17  18
ENDBRANCH  16  17
ENDBRANCH  15  16
ENDBRANCH  14  15
ENDBRANCH  13  14
ENDBRANCH  12  13
ENDBRANCH   1  12
TORSDOF 14
ENDMDL
MODEL 5
REMARK VINA RESULT:    -3.297     13.864     15.822
REMARK INTER + INTRA:          -6.839
REMARK INTER:                  -6.107
REMARK INTRA:                  -0.732
REMARK UNBOUND:                -0.844
REMARK SMILES CCCCCCCCCCCCCC[C@H](C)C(=O)[O-]
REMARK SMILES IDX 9 1 10 2 11 3 12 4 13 5 14 6 15 7 16 8 17 9 18 10 19 11 8 12
REMARK SMILES IDX 7 13 6 14 5 15 4 16 3 17 2 18 1 19
REMARK H PARENT
REMARK Flexibility Score: inf
ROOT
ATOM      1  C   UNL     1      41.573  25.900  18.563  1.00  0.00     0.000 C 
ENDROOT
BRANCH   1   2
ATOM      2  C   UNL     1      42.264  25.213  17.366  1.00  0.00     0.000 C 
BRANCH   2   3
ATOM      3  C   UNL     1      43.480  24.359  17.765  1.00  0.00     0.000 C 
BRANCH   3   4
ATOM      4  C   UNL     1      43.895  23.365  16.672  1.00  0.00     0.000 C 
BRANCH   4   5
ATOM      5  C   UNL     1      44.737  22.223  17.255  1.00  0.00     0.001 C 
BRANCH   5   6
ATOM      6  C   UNL     1      44.135  20.855  16.888  1.00  0.00     0.009 C 
BRANCH   6   7
ATOM      7  C   UNL     1      42.818  20.520  17.624  1.00  0.00     0.032 C 
ATOM      8  C   UNL     1      43.052  19.843  18.984  1.00  0.00     0.014 C 
BRANCH   7   9
ATOM      9  C   UNL     1      41.884  19.722  16.752  1.00  0.00     0.044 C 
ATOM     10  O   UNL     1      40.904  19.101  17.248  1.00  0.00    -0.550 OA
ATOM     11  O   UNL     1      42.136  19.619  15.389  1.00  0.00    -0.550 OA
ENDBRANCH   7   9
ENDBRANCH   6   7
ENDBRANCH   5   6
ENDBRANCH   4   5
ENDBRANCH   3   4
ENDBRANCH   2   3
ENDBRANCH   1   2
BRANCH   1  12
ATOM     12  C   UNL     1      40.908  27.230  18.164  1.00  0.00     0.000 C 
BRANCH  12  13
ATOM     13  C   UNL     1      41.585  27.893  16.952  1.00  0.00    -0.000 C 
BRANCH  13  14
ATOM     14  C   UNL     1      41.788  29.406  17.144  1.00  0.00    -0.000 C 
BRANCH  14  15
ATOM     15  C   UNL     1      42.383  30.082  15.898  1.00  0.00    -0.000 C 
BRANCH  15  16
ATOM     16  C   UNL     1      43.001  31.456  16.211  1.00  0.00    -0.000 C 
BRANCH  16  17
ATOM     17  C   UNL     1      44.323  31.695  15.465  1.00  0.00    -0.000 C 
BRANCH  17  18
ATOM     18  C   UNL     1      45.555  31.345  16.312  1.00  0.00    -0.003 C 
ATOM     19  C   UNL     1      46.581  30.565  15.495  1.00  0.00     0.004 C 
ENDBRANCH  17  18
ENDBRANCH  16  17
ENDBRANCH  15  16
ENDBRANCH  14  15
ENDBRANCH  13  14
ENDBRANCH  12  13
ENDBRANCH   1  12
TORSDOF 14
ENDMDL
MODEL 6
REMARK VINA RESULT:    -3.283     12.325     13.421
REMARK INTER + INTRA:          -6.814
REMARK INTER:                  -6.057
REMARK INTRA:                  -0.757
REMARK UNBOUND:                -0.844
REMARK SMILES CCCCCCCCCCCCCC[C@H](C)C(=O)[O-]
REMARK SMILES IDX 9 1 10 2 11 3 12 4 13 5 14 6 15 7 16 8 17 9 18 10 19 11 8 12
REMARK SMILES IDX 7 13 6 14 5 15 4 16 3 17 2 18 1 19
REMARK H PARENT
REMARK Flexibility Score: inf
ROOT
ATOM      1  C   UNL     1      41.327  27.957  18.508  1.00  0.00     0.000 C 
ENDROOT
BRANCH   1   2
ATOM      2  C   UNL     1      41.855  28.435  17.139  1.00  0.00     0.000 C 
BRANCH   2   3
ATOM      3  C   UNL     1      41.840  29.964  16.973  1.00  0.00     0.000 C 
BRANCH   3   4
ATOM      4  C   UNL     1      42.531  30.431  15.685  1.00  0.00     0.000 C 
BRANCH   4   5
ATOM      5  C   UNL     1      43.137  31.829  15.859  1.00  0.00     0.001 C 
BRANCH   5   6
ATOM      6  C   UNL     1      44.610  31.847  15.415  1.00  0.00     0.009 C 
BRANCH   6   7
ATOM      7  C   UNL     1      45.572  31.097  16.364  1.00  0.00     0.032 C 
ATOM      8  C   UNL     1      46.015  31.953  17.561  1.00  0.00     0.014 C 
BRANCH   7   9
ATOM      9  C   UNL     1      46.748  30.520  15.619  1.00  0.00     0.044 C 
ATOM     10  O   UNL     1      47.809  30.206  16.224  1.00  0.00    -0.550 OA
ATOM     11  O   UNL     1      46.686  30.386  14.237  1.00  0.00    -0.550 OA
ENDBRANCH   7   9
ENDBRANCH   6   7
ENDBRANCH   5   6
ENDBRANCH   4   5
ENDBRANCH   3   4
ENDBRANCH   2   3
ENDBRANCH   1   2
BRANCH   1  12
ATOM     12  C   UNL     1      40.512  26.656  18.394  1.00  0.00     0.000 C 
BRANCH  12  13
ATOM     13  C   UNL     1      39.769  26.535  17.053  1.00  0.00    -0.000 C 
BRANCH  13  14
ATOM     14  C   UNL     1      38.396  25.854  17.199  1.00  0.00    -0.000 C 
BRANCH  14  15
ATOM     15  C   UNL     1      37.471  26.136  16.003  1.00  0.00    -0.000 C 
BRANCH  15  16
ATOM     16  C   UNL     1      36.005  25.770  16.294  1.00  0.00    -0.000 C 
BRANCH  16  17
ATOM     17  C   UNL     1      35.013  26.572  15.437  1.00  0.00    -0.000 C 
BRANCH  17  18
ATOM     18  C   UNL     1      34.942  28.052  15.840  1.00  0.00    -0.003 C 
ATOM     19  C   UNL     1      34.968  28.959  14.613  1.00  0.00     0.004 C 
ENDBRANCH  17  18
ENDBRANCH  16  17
ENDBRANCH  15  16
ENDBRANCH  14  15
ENDBRANCH  13  14
ENDBRANCH  12  13
ENDBRANCH   1  12
TORSDOF 14
ENDMDL
MODEL 7
REMARK VINA RESULT:    -3.198     12.420     15.842
REMARK INTER + INTRA:          -6.659
REMARK INTER:                  -5.856
REMARK INTRA:                  -0.803
REMARK UNBOUND:                -0.844
REMARK SMILES CCCCCCCCCCCCCC[C@H](C)C(=O)[O-]
REMARK SMILES IDX 9 1 10 2 11 3 12 4 13 5 14 6 15 7 16 8 17 9 18 10 19 11 8 12
REMARK SMILES IDX 7 13 6 14 5 15 4 16 3 17 2 18 1 19
REMARK H PARENT
REMARK Flexibility Score: inf
ROOT
ATOM      1  C   UNL     1      40.194  26.497  18.502  1.00  0.00     0.000 C 
ENDROOT
BRANCH   1   2
ATOM      2  C   UNL     1      39.383  26.630  17.195  1.00  0.00     0.000 C 
BRANCH   2   3
ATOM      3  C   UNL     1      38.106  25.771  17.174  1.00  0.00     0.000 C 
BRANCH   3   4
ATOM      4  C   UNL     1      37.311  25.919  15.870  1.00  0.00     0.000 C 
BRANCH   4   5
ATOM      5  C   UNL     1      35.813  25.694  16.109  1.00  0.00     0.001 C 
BRANCH   5   6
ATOM      6  C   UNL     1      34.973  26.730  15.342  1.00  0.00     0.009 C 
BRANCH   6   7
ATOM      7  C   UNL     1      35.141  28.183  15.840  1.00  0.00     0.032 C 
ATOM      8  C   UNL     1      34.207  28.521  17.013  1.00  0.00     0.014 C 
BRANCH   7   9
ATOM      9  C   UNL     1      35.011  29.175  14.714  1.00  0.00     0.044 C 
ATOM     10  O   UNL     1      35.290  28.849  13.527  1.00  0.00    -0.550 OA
ATOM     11  O   UNL     1      34.635  30.484  14.991  1.00  0.00    -0.550 OA
ENDBRANCH   7   9
ENDBRANCH   6   7
ENDBRANCH   5   6
ENDBRANCH   4   5
ENDBRANCH   3   4
ENDBRANCH   2   3
ENDBRANCH   1   2
BRANCH   1  12
ATOM     12  C   UNL     1      41.333  27.529  18.585  1.00  0.00     0.000 C 
BRANCH  12  13
ATOM     13  C   UNL     1      41.753  28.064  17.206  1.00  0.00    -0.000 C 
BRANCH  13  14
ATOM     14  C   UNL     1      41.744  29.602  17.141  1.00  0.00    -0.000 C 
BRANCH  14  15
ATOM     15  C   UNL     1      42.478  30.143  15.903  1.00  0.00    -0.000 C 
BRANCH  15  16
ATOM     16  C   UNL     1      42.964  31.590  16.092  1.00  0.00    -0.000 C 
BRANCH  16  17
ATOM     17  C   UNL     1      44.342  31.840  15.458  1.00  0.00    -0.000 C 
BRANCH  17  18
ATOM     18  C   UNL     1      45.499  31.363  16.347  1.00  0.00    -0.003 C 
ATOM     19  C   UNL     1      46.553  30.623  15.528  1.00  0.00     0.004 C 
ENDBRANCH  17  18
ENDBRANCH  16  17
ENDBRANCH  15  16
ENDBRANCH  14  15
ENDBRANCH  13  14
ENDBRANCH  12  13
ENDBRANCH   1  12
TORSDOF 14
ENDMDL
MODEL 8
REMARK VINA RESULT:    -3.149      1.629      3.458
REMARK INTER + INTRA:          -6.570
REMARK INTER:                  -6.011
REMARK INTRA:                  -0.559
REMARK UNBOUND:                -0.844
REMARK SMILES CCCCCCCCCCCCCC[C@H](C)C(=O)[O-]
REMARK SMILES IDX 9 1 10 2 11 3 12 4 13 5 14 6 15 7 16 8 17 9 18 10 19 11 8 12
REMARK SMILES IDX 7 13 6 14 5 15 4 16 3 17 2 18 1 19
REMARK H PARENT
REMARK Flexibility Score: inf
ROOT
ATOM      1  C   UNL     1      39.867  31.455  29.848  1.00  0.00     0.000 C 
ENDROOT
BRANCH   1   2
ATOM      2  C   UNL     1      40.923  32.547  30.124  1.00  0.00     0.000 C 
BRANCH   2   3
ATOM      3  C   UNL     1      41.667  33.017  28.862  1.00  0.00     0.000 C 
BRANCH   3   4
ATOM      4  C   UNL     1      42.834  32.096  28.481  1.00  0.00     0.000 C 
BRANCH   4   5
ATOM      5  C   UNL     1      43.937  32.135  29.547  1.00  0.00     0.001 C 
BRANCH   5   6
ATOM      6  C   UNL     1      44.192  30.732  30.125  1.00  0.00     0.009 C 
BRANCH   6   7
ATOM      7  C   UNL     1      43.597  29.579  29.286  1.00  0.00     0.032 C 
ATOM      8  C   UNL     1      42.306  29.006  29.892  1.00  0.00     0.014 C 
BRANCH   7   9
ATOM      9  C   UNL     1      44.618  28.504  29.017  1.00  0.00     0.044 C 
ATOM     10  O   UNL     1      44.277  27.392  28.530  1.00  0.00    -0.550 OA
ATOM     11  O   UNL     1      45.947  28.718  29.365  1.00  0.00    -0.550 OA
ENDBRANCH   7   9
ENDBRANCH   6   7
ENDBRANCH   5   6
ENDBRANCH   4   5
ENDBRANCH   3   4
ENDBRANCH   2   3
ENDBRANCH   1   2
BRANCH   1  12
ATOM     12  C   UNL     1      39.000  31.784  28.619  1.00  0.00     0.000 C 
BRANCH  12  13
ATOM     13  C   UNL     1      37.560  32.173  28.993  1.00  0.00    -0.000 C 
BRANCH  13  14
ATOM     14  C   UNL     1      36.794  31.021  29.668  1.00  0.00    -0.000 C 
BRANCH  14  15
ATOM     15  C   UNL     1      37.554  29.686  29.593  1.00  0.00    -0.000 C 
BRANCH  15  16
ATOM     16  C   UNL     1      36.610  28.471  29.580  1.00  0.00    -0.000 C 
BRANCH  16  17
ATOM     17  C   UNL     1      35.143  28.859  29.823  1.00  0.00    -0.000 C 
BRANCH  17  18
ATOM     18  C   UNL     1      34.284  28.757  28.555  1.00  0.00    -0.003 C 
ATOM     19  C   UNL     1      33.319  27.577  28.638  1.00  0.00     0.004 C 
ENDBRANCH  17  18
ENDBRANCH  16  17
ENDBRANCH  15  16
ENDBRANCH  14  15
ENDBRANCH  13  14
ENDBRANCH  12  13
ENDBRANCH   1  12
TORSDOF 14
ENDMDL
MODEL 9
REMARK VINA RESULT:    -3.140     13.577     14.669
REMARK INTER + INTRA:          -6.553
REMARK INTER:                  -5.746
REMARK INTRA:                  -0.807
REMARK UNBOUND:                -0.844
REMARK SMILES CCCCCCCCCCCCCC[C@H](C)C(=O)[O-]
REMARK SMILES IDX 9 1 10 2 11 3 12 4 13 5 14 6 15 7 16 8 17 9 18 10 19 11 8 12
REMARK SMILES IDX 7 13 6 14 5 15 4 16 3 17 2 18 1 19
REMARK H PARENT
REMARK Flexibility Score: inf
ROOT
ATOM      1  C   UNL     1      41.322  27.962  18.318  1.00  0.00     0.000 C 
ENDROOT
BRANCH   1   2
ATOM      2  C   UNL     1      41.769  28.482  16.935  1.00  0.00     0.000 C 
BRANCH   2   3
ATOM      3  C   UNL     1      42.156  29.971  16.934  1.00  0.00     0.000 C 
BRANCH   3   4
ATOM      4  C   UNL     1      42.625  30.464  15.558  1.00  0.00     0.000 C 
BRANCH   4   5
ATOM      5  C   UNL     1      43.188  31.888  15.645  1.00  0.00     0.001 C 
BRANCH   5   6
ATOM      6  C   UNL     1      44.690  31.906  15.310  1.00  0.00     0.009 C 
BRANCH   6   7
ATOM      7  C   UNL     1      45.569  31.089  16.284  1.00  0.00     0.032 C 
ATOM      8  C   UNL     1      46.001  31.899  17.517  1.00  0.00     0.014 C 
BRANCH   7   9
ATOM      9  C   UNL     1      46.746  30.467  15.579  1.00  0.00     0.044 C 
ATOM     10  O   UNL     1      47.776  30.119  16.219  1.00  0.00    -0.550 OA
ATOM     11  O   UNL     1      46.723  30.326  14.197  1.00  0.00    -0.550 OA
ENDBRANCH   7   9
ENDBRANCH   6   7
ENDBRANCH   5   6
ENDBRANCH   4   5
ENDBRANCH   3   4
ENDBRANCH   2   3
ENDBRANCH   1   2
BRANCH   1  12
ATOM     12  C   UNL     1      41.097  26.439  18.320  1.00  0.00     0.000 C 
BRANCH  12  13
ATOM     13  C   UNL     1      41.912  25.716  17.234  1.00  0.00    -0.000 C 
BRANCH  13  14
ATOM     14  C   UNL     1      42.972  24.769  17.824  1.00  0.00    -0.000 C 
BRANCH  14  15
ATOM     15  C   UNL     1      43.403  23.677  16.831  1.00  0.00    -0.000 C 
BRANCH  15  16
ATOM     16  C   UNL     1      44.539  22.797  17.380  1.00  0.00    -0.000 C 
BRANCH  16  17
ATOM     17  C   UNL     1      44.391  21.321  16.979  1.00  0.00    -0.000 C 
BRANCH  17  18
ATOM     18  C   UNL     1      43.272  20.606  17.750  1.00  0.00    -0.003 C 
ATOM     19  C   UNL     1      42.317  19.893  16.797  1.00  0.00     0.004 C 
ENDBRANCH  17  18
ENDBRANCH  16  17
ENDBRANCH  15  16
ENDBRANCH  14  15
ENDBRANCH  13  14
ENDBRANCH  12  13
ENDBRANCH   1  12
TORSDOF 14
ENDMDL
