MODEL 1
REMARK VINA RESULT:    -3.889      0.000      0.000
REMARK INTER + INTRA:          -5.414
REMARK INTER:                  -5.708
REMARK INTRA:                   0.295
REMARK UNBOUND:                 0.295
REMARK SMILES CCCOC(=O)c1ccccc1C(=O)OCCC
REMARK SMILES IDX 7 1 8 2 9 3 10 4 11 5 12 6 5 7 6 8 4 9 3 10 2 11 1 12 13 13
REMARK SMILES IDX 14 14 15 15 16 16 17 17 18 18
REMARK H PARENT
REMARK Flexibility Score: inf
ROOT
ATOM      1  C   UNL     1      79.627  15.838   2.647  1.00  0.00     0.074 A 
ATOM      2  C   UNL     1      80.006  14.494   2.469  1.00  0.00     0.016 A 
ATOM      3  C   UNL     1      79.875  13.875   1.226  1.00  0.00     0.001 A 
ATOM      4  C   UNL     1      79.363  14.585   0.142  1.00  0.00     0.001 A 
ATOM      5  C   UNL     1      79.002  15.924   0.291  1.00  0.00     0.016 A 
ATOM      6  C   UNL     1      79.146  16.575   1.530  1.00  0.00     0.074 A 
ENDROOT
BRANCH   1   7
ATOM      7  C   UNL     1      79.676  16.405   4.014  1.00  0.00     0.339 C 
ATOM      8  O   UNL     1      80.234  17.520   4.210  1.00  0.00    -0.246 OA
BRANCH   7   9
ATOM      9  O   UNL     1      79.147  15.682   5.090  1.00  0.00    -0.462 OA
BRANCH   9  10
ATOM     10  C   UNL     1      79.843  14.625   5.748  1.00  0.00     0.233 C 
BRANCH  10  11
ATOM     11  C   UNL     1      79.370  14.491   7.197  1.00  0.00     0.038 C 
ATOM     12  C   UNL     1      80.089  15.482   8.106  1.00  0.00     0.007 C 
ENDBRANCH  10  11
ENDBRANCH   9  10
ENDBRANCH   7   9
ENDBRANCH   1   7
BRANCH   6  13
ATOM     13  C   UNL     1      78.850  18.024   1.589  1.00  0.00     0.339 C 
ATOM     14  O   UNL     1      79.785  18.862   1.713  1.00  0.00    -0.246 OA
BRANCH  13  15
ATOM     15  O   UNL     1      77.529  18.461   1.447  1.00  0.00    -0.462 OA
BRANCH  15  16
ATOM     16  C   UNL     1      77.099  19.275   0.359  1.00  0.00     0.233 C 
BRANCH  16  17
ATOM     17  C   UNL     1      75.989  20.219   0.819  1.00  0.00     0.038 C 
ATOM     18  C   UNL     1      76.523  21.621   1.109  1.00  0.00     0.007 C 
ENDBRANCH  16  17
ENDBRANCH  15  16
ENDBRANCH  13  15
ENDBRANCH   6  13
TORSDOF 8
ENDMDL
MODEL 2
REMARK VINA RESULT:    -3.762      2.187      2.889
REMARK INTER + INTRA:          -5.227
REMARK INTER:                  -4.728
REMARK INTRA:                  -0.499
REMARK UNBOUND:                 0.295
REMARK SMILES CCCOC(=O)c1ccccc1C(=O)OCCC
REMARK SMILES IDX 7 1 8 2 9 3 10 4 11 5 12 6 5 7 6 8 4 9 3 10 2 11 1 12 13 13
REMARK SMILES IDX 14 14 15 15 16 16 17 17 18 18
REMARK H PARENT
REMARK Flexibility Score: inf
ROOT
ATOM      1  C   UNL     1      79.672  14.638   2.327  1.00  0.00     0.074 A 
ATOM      2  C   UNL     1      79.747  13.943   1.106  1.00  0.00     0.016 A 
ATOM      3  C   UNL     1      78.946  14.312   0.024  1.00  0.00     0.001 A 
ATOM      4  C   UNL     1      78.057  15.377   0.144  1.00  0.00     0.001 A 
ATOM      5  C   UNL     1      77.983  16.094   1.339  1.00  0.00     0.016 A 
ATOM      6  C   UNL     1      78.797  15.754   2.435  1.00  0.00     0.074 A 
ENDROOT
BRANCH   1   7
ATOM      7  C   UNL     1      80.456  14.127   3.474  1.00  0.00     0.339 C 
ATOM      8  O   UNL     1      81.686  13.880   3.331  1.00  0.00    -0.246 OA
BRANCH   7   9
ATOM      9  O   UNL     1      79.824  13.875   4.697  1.00  0.00    -0.462 OA
BRANCH   9  10
ATOM     10  C   UNL     1      80.452  14.071   5.963  1.00  0.00     0.233 C 
BRANCH  10  11
ATOM     11  C   UNL     1      79.491  14.757   6.938  1.00  0.00     0.038 C 
ATOM     12  C   UNL     1      80.104  14.866   8.331  1.00  0.00     0.007 C 
ENDBRANCH  10  11
ENDBRANCH   9  10
ENDBRANCH   7   9
ENDBRANCH   1   7
BRANCH   6  13
ATOM     13  C   UNL     1      78.747  16.625   3.630  1.00  0.00     0.339 C 
ATOM     14  O   UNL     1      77.883  16.427   4.528  1.00  0.00    -0.246 OA
BRANCH  13  15
ATOM     15  O   UNL     1      79.704  17.634   3.786  1.00  0.00    -0.462 OA
BRANCH  15  16
ATOM     16  C   UNL     1      80.757  17.847   2.851  1.00  0.00     0.233 C 
BRANCH  16  17
ATOM     17  C   UNL     1      80.486  19.114   2.039  1.00  0.00     0.038 C 
ATOM     18  C   UNL     1      81.759  19.651   1.387  1.00  0.00     0.007 C 
ENDBRANCH  16  17
ENDBRANCH  15  16
ENDBRANCH  13  15
ENDBRANCH   6  13
TORSDOF 8
ENDMDL
MODEL 3
REMARK VINA RESULT:    -3.734      3.112      4.335
REMARK INTER + INTRA:          -5.185
REMARK INTER:                  -4.237
REMARK INTRA:                  -0.948
REMARK UNBOUND:                 0.295
REMARK SMILES CCCOC(=O)c1ccccc1C(=O)OCCC
REMARK SMILES IDX 7 1 8 2 9 3 10 4 11 5 12 6 5 7 6 8 4 9 3 10 2 11 1 12 13 13
REMARK SMILES IDX 14 14 15 15 16 16 17 17 18 18
REMARK H PARENT
REMARK Flexibility Score: inf
ROOT
ATOM      1  C   UNL     1      79.622  15.748   5.270  1.00  0.00     0.074 A 
ATOM      2  C   UNL     1      79.622  16.997   5.918  1.00  0.00     0.016 A 
ATOM      3  C   UNL     1      79.877  18.170   5.206  1.00  0.00     0.001 A 
ATOM      4  C   UNL     1      80.138  18.115   3.839  1.00  0.00     0.001 A 
ATOM      5  C   UNL     1      80.121  16.889   3.173  1.00  0.00     0.016 A 
ATOM      6  C   UNL     1      79.844  15.697   3.866  1.00  0.00     0.074 A 
ENDROOT
BRANCH   1   7
ATOM      7  C   UNL     1      79.465  14.530   6.097  1.00  0.00     0.339 C 
ATOM      8  O   UNL     1      78.356  13.927   6.118  1.00  0.00    -0.246 OA
BRANCH   7   9
ATOM      9  O   UNL     1      80.528  14.079   6.888  1.00  0.00    -0.462 OA
BRANCH   9  10
ATOM     10  C   UNL     1      80.481  14.020   8.312  1.00  0.00     0.233 C 
BRANCH  10  11
ATOM     11  C   UNL     1      80.882  15.367   8.919  1.00  0.00     0.038 C 
ATOM     12  C   UNL     1      79.660  16.132   9.417  1.00  0.00     0.007 C 
ENDBRANCH  10  11
ENDBRANCH   9  10
ENDBRANCH   7   9
ENDBRANCH   1   7
BRANCH   6  13
ATOM     13  C   UNL     1      79.731  14.448   3.079  1.00  0.00     0.339 C 
ATOM     14  O   UNL     1      80.766  13.876   2.639  1.00  0.00    -0.246 OA
BRANCH  13  15
ATOM     15  O   UNL     1      78.472  13.875   2.876  1.00  0.00    -0.462 OA
BRANCH  15  16
ATOM     16  C   UNL     1      77.402  14.571   2.242  1.00  0.00     0.233 C 
BRANCH  16  17
ATOM     17  C   UNL     1      77.865  15.129   0.896  1.00  0.00     0.038 C 
ATOM     18  C   UNL     1      78.102  14.017  -0.125  1.00  0.00     0.007 C 
ENDBRANCH  16  17
ENDBRANCH  15  16
ENDBRANCH  13  15
ENDBRANCH   6  13
TORSDOF 8
ENDMDL
MODEL 4
REMARK VINA RESULT:    -2.353      1.841      4.101
REMARK INTER + INTRA:          -3.158
REMARK INTER:                  -3.187
REMARK INTRA:                   0.029
REMARK UNBOUND:                 0.295
REMARK SMILES CCCOC(=O)c1ccccc1C(=O)OCCC
REMARK SMILES IDX 7 1 8 2 9 3 10 4 11 5 12 6 5 7 6 8 4 9 3 10 2 11 1 12 13 13
REMARK SMILES IDX 14 14 15 15 16 16 17 17 18 18
REMARK H PARENT
REMARK Flexibility Score: inf
ROOT
ATOM      1  C   UNL     1      79.349  15.758   4.267  1.00  0.00     0.074 A 
ATOM      2  C   UNL     1      79.206  15.711   5.666  1.00  0.00     0.016 A 
ATOM      3  C   UNL     1      79.414  16.850   6.444  1.00  0.00     0.001 A 
ATOM      4  C   UNL     1      79.771  18.053   5.839  1.00  0.00     0.001 A 
ATOM      5  C   UNL     1      79.897  18.127   4.451  1.00  0.00     0.016 A 
ATOM      6  C   UNL     1      79.669  16.996   3.646  1.00  0.00     0.074 A 
ENDROOT
BRANCH   1   7
ATOM      7  C   UNL     1      79.233  14.492   3.508  1.00  0.00     0.339 C 
ATOM      8  O   UNL     1      80.277  13.875   3.156  1.00  0.00    -0.246 OA
BRANCH   7   9
ATOM      9  O   UNL     1      77.971  14.009   3.142  1.00  0.00    -0.462 OA
BRANCH   9  10
ATOM     10  C   UNL     1      77.138  14.639   2.170  1.00  0.00     0.233 C 
BRANCH  10  11
ATOM     11  C   UNL     1      77.193  13.880   0.842  1.00  0.00     0.038 C 
ATOM     12  C   UNL     1      78.562  14.018   0.184  1.00  0.00     0.007 C 
ENDBRANCH  10  11
ENDBRANCH   9  10
ENDBRANCH   7   9
ENDBRANCH   1   7
BRANCH   6  13
ATOM     13  C   UNL     1      79.710  17.173   2.177  1.00  0.00     0.339 C 
ATOM     14  O   UNL     1      80.243  16.297   1.444  1.00  0.00    -0.246 OA
BRANCH  13  15
ATOM     15  O   UNL     1      79.099  18.293   1.603  1.00  0.00    -0.462 OA
BRANCH  15  16
ATOM     16  C   UNL     1      77.684  18.441   1.520  1.00  0.00     0.233 C 
BRANCH  16  17
ATOM     17  C   UNL     1      77.333  19.855   1.058  1.00  0.00     0.038 C 
ATOM     18  C   UNL     1      76.005  19.890   0.304  1.00  0.00     0.007 C 
ENDBRANCH  16  17
ENDBRANCH  15  16
ENDBRANCH  13  15
ENDBRANCH   6  13
TORSDOF 8
ENDMDL
MODEL 5
REMARK VINA RESULT:    -2.234      2.330      4.671
REMARK INTER + INTRA:          -2.984
REMARK INTER:                  -2.546
REMARK INTRA:                  -0.438
REMARK UNBOUND:                 0.295
REMARK SMILES CCCOC(=O)c1ccccc1C(=O)OCCC
REMARK SMILES IDX 7 1 8 2 9 3 10 4 11 5 12 6 5 7 6 8 4 9 3 10 2 11 1 12 13 13
REMARK SMILES IDX 14 14 15 15 16 16 17 17 18 18
REMARK H PARENT
REMARK Flexibility Score: inf
ROOT
ATOM      1  C   UNL     1      79.503  15.609   4.186  1.00  0.00     0.074 A 
ATOM      2  C   UNL     1      79.567  15.246   5.544  1.00  0.00     0.016 A 
ATOM      3  C   UNL     1      79.689  16.218   6.537  1.00  0.00     0.001 A 
ATOM      4  C   UNL     1      79.750  17.566   6.192  1.00  0.00     0.001 A 
ATOM      5  C   UNL     1      79.666  17.949   4.853  1.00  0.00     0.016 A 
ATOM      6  C   UNL     1      79.521  16.987   3.837  1.00  0.00     0.074 A 
ENDROOT
BRANCH   1   7
ATOM      7  C   UNL     1      79.496  14.529   3.172  1.00  0.00     0.339 C 
ATOM      8  O   UNL     1      80.563  14.232   2.567  1.00  0.00    -0.246 OA
BRANCH   7   9
ATOM      9  O   UNL     1      78.300  13.876   2.854  1.00  0.00    -0.462 OA
BRANCH   9  10
ATOM     10  C   UNL     1      77.243  14.484   2.113  1.00  0.00     0.233 C 
BRANCH  10  11
ATOM     11  C   UNL     1      77.237  13.973   0.670  1.00  0.00     0.038 C 
ATOM     12  C   UNL     1      78.402  14.553  -0.125  1.00  0.00     0.007 C 
ENDBRANCH  10  11
ENDBRANCH   9  10
ENDBRANCH   7   9
ENDBRANCH   1   7
BRANCH   6  13
ATOM     13  C   UNL     1      79.325  17.468   2.451  1.00  0.00     0.339 C 
ATOM     14  O   UNL     1      78.176  17.463   1.930  1.00  0.00    -0.246 OA
BRANCH  13  15
ATOM     15  O   UNL     1      80.415  17.984   1.742  1.00  0.00    -0.462 OA
BRANCH  15  16
ATOM     16  C   UNL     1      80.867  19.326   1.893  1.00  0.00     0.233 C 
BRANCH  16  17
ATOM     17  C   UNL     1      82.176  19.527   1.131  1.00  0.00     0.038 C 
ATOM     18  C   UNL     1      82.290  20.942   0.565  1.00  0.00     0.007 C 
ENDBRANCH  16  17
ENDBRANCH  15  16
ENDBRANCH  13  15
ENDBRANCH   6  13
TORSDOF 8
ENDMDL
MODEL 6
REMARK VINA RESULT:    -1.721      2.124      4.842
REMARK INTER + INTRA:          -2.231
REMARK INTER:                  -1.896
REMARK INTRA:                  -0.335
REMARK UNBOUND:                 0.295
REMARK SMILES CCCOC(=O)c1ccccc1C(=O)OCCC
REMARK SMILES IDX 7 1 8 2 9 3 10 4 11 5 12 6 5 7 6 8 4 9 3 10 2 11 1 12 13 13
REMARK SMILES IDX 14 14 15 15 16 16 17 17 18 18
REMARK H PARENT
REMARK Flexibility Score: inf
ROOT
ATOM      1  C   UNL     1      78.871  14.888   4.616  1.00  0.00     0.074 A 
ATOM      2  C   UNL     1      78.560  14.756   5.982  1.00  0.00     0.016 A 
ATOM      3  C   UNL     1      79.509  14.277   6.887  1.00  0.00     0.001 A 
ATOM      4  C   UNL     1      80.780  13.921   6.443  1.00  0.00     0.001 A 
ATOM      5  C   UNL     1      81.116  14.064   5.096  1.00  0.00     0.016 A 
ATOM      6  C   UNL     1      80.183  14.567   4.171  1.00  0.00     0.074 A 
ENDROOT
BRANCH   1   7
ATOM      7  C   UNL     1      77.789  15.286   3.687  1.00  0.00     0.339 C 
ATOM      8  O   UNL     1      77.429  16.495   3.627  1.00  0.00    -0.246 OA
BRANCH   7   9
ATOM      9  O   UNL     1      77.139  14.317   2.914  1.00  0.00    -0.462 OA
BRANCH   9  10
ATOM     10  C   UNL     1      76.730  14.531   1.564  1.00  0.00     0.233 C 
BRANCH  10  11
ATOM     11  C   UNL     1      77.723  13.886   0.594  1.00  0.00     0.038 C 
ATOM     12  C   UNL     1      78.557  14.942  -0.124  1.00  0.00     0.007 C 
ENDBRANCH  10  11
ENDBRANCH   9  10
ENDBRANCH   7   9
ENDBRANCH   1   7
BRANCH   6  13
ATOM     13  C   UNL     1      80.641  14.798   2.783  1.00  0.00     0.339 C 
ATOM     14  O   UNL     1      81.263  13.897   2.157  1.00  0.00    -0.246 OA
BRANCH  13  15
ATOM     15  O   UNL     1      80.327  16.004   2.148  1.00  0.00    -0.462 OA
BRANCH  15  16
ATOM     16  C   UNL     1      80.511  17.273   2.770  1.00  0.00     0.233 C 
BRANCH  16  17
ATOM     17  C   UNL     1      80.225  18.393   1.769  1.00  0.00     0.038 C 
ATOM     18  C   UNL     1      78.760  18.405   1.336  1.00  0.00     0.007 C 
ENDBRANCH  16  17
ENDBRANCH  15  16
ENDBRANCH  13  15
ENDBRANCH   6  13
TORSDOF 8
ENDMDL
