MODEL 1
REMARK VINA RESULT:    -4.679      0.000      0.000
REMARK INTER + INTRA:          -5.047
REMARK INTER:                  -4.953
REMARK INTRA:                  -0.094
REMARK UNBOUND:                -0.094
REMARK SMILES C=C(C)[C@H]1CC=C(C)C(=O)C1
REMARK SMILES IDX 8 1 7 2 6 3 5 4 4 5 11 6 9 7 10 8 2 9 1 10 3 11
REMARK H PARENT
REMARK Flexibility Score: inf
ROOT
ATOM      1  C   UNL     1     -13.090  -4.440 -14.748  1.00  0.00     0.048 C 
ATOM      2  C   UNL     1     -11.618  -4.607 -15.002  1.00  0.00    -0.012 C 
ATOM      3  C   UNL     1     -10.963  -3.707 -15.756  1.00  0.00    -0.019 C 
ATOM      4  C   UNL     1      -9.493  -3.837 -16.056  1.00  0.00     0.036 C 
ATOM      5  C   UNL     1      -8.743  -4.498 -14.885  1.00  0.00     0.025 C 
ATOM      6  C   UNL     1      -9.388  -5.852 -14.533  1.00  0.00     0.089 C 
ATOM      7  C   UNL     1     -10.868  -5.693 -14.322  1.00  0.00     0.158 C 
ATOM      8  O   UNL     1     -11.475  -6.517 -13.585  1.00  0.00    -0.295 OA
ENDROOT
BRANCH   5   9
ATOM      9  C   UNL     1      -7.256  -4.645 -15.180  1.00  0.00    -0.077 C 
ATOM     10  C   UNL     1      -6.759  -5.766 -15.730  1.00  0.00     0.008 C 
ATOM     11  C   UNL     1      -6.307  -3.519 -14.856  1.00  0.00     0.039 C 
ENDBRANCH   5   9
TORSDOF 1
ENDMDL
MODEL 2
REMARK VINA RESULT:    -4.667      5.834      8.617
REMARK INTER + INTRA:          -5.035
REMARK INTER:                  -4.940
REMARK INTRA:                  -0.094
REMARK UNBOUND:                -0.094
REMARK SMILES C=C(C)[C@H]1CC=C(C)C(=O)C1
REMARK SMILES IDX 8 1 7 2 6 3 5 4 4 5 11 6 9 7 10 8 2 9 1 10 3 11
REMARK H PARENT
REMARK Flexibility Score: inf
ROOT
ATOM      1  C   UNL     1      -0.598  -2.239 -19.908  1.00  0.00     0.048 C 
ATOM      2  C   UNL     1      -1.511  -2.346 -18.718  1.00  0.00    -0.012 C 
ATOM      3  C   UNL     1      -2.629  -1.601 -18.664  1.00  0.00    -0.019 C 
ATOM      4  C   UNL     1      -3.567  -1.656 -17.488  1.00  0.00     0.036 C 
ATOM      5  C   UNL     1      -3.592  -3.063 -16.862  1.00  0.00     0.025 C 
ATOM      6  C   UNL     1      -2.166  -3.507 -16.490  1.00  0.00     0.089 C 
ATOM      7  C   UNL     1      -1.242  -3.359 -17.668  1.00  0.00     0.158 C 
ATOM      8  O   UNL     1      -0.212  -4.084 -17.735  1.00  0.00    -0.295 OA
ENDROOT
BRANCH   5   9
ATOM      9  C   UNL     1      -4.531  -3.130 -15.665  1.00  0.00    -0.077 C 
ATOM     10  C   UNL     1      -4.636  -2.106 -14.800  1.00  0.00     0.008 C 
ATOM     11  C   UNL     1      -5.369  -4.361 -15.429  1.00  0.00     0.039 C 
ENDBRANCH   5   9
TORSDOF 1
ENDMDL
MODEL 3
REMARK VINA RESULT:    -4.467      7.031      8.567
REMARK INTER + INTRA:          -4.823
REMARK INTER:                  -4.735
REMARK INTRA:                  -0.088
REMARK UNBOUND:                -0.094
REMARK SMILES C=C(C)[C@H]1CC=C(C)C(=O)C1
REMARK SMILES IDX 8 1 7 2 6 3 5 4 4 5 11 6 9 7 10 8 2 9 1 10 3 11
REMARK H PARENT
REMARK Flexibility Score: inf
ROOT
ATOM      1  C   UNL     1      -7.038   3.332 -10.446  1.00  0.00     0.048 C 
ATOM      2  C   UNL     1      -6.529   1.951 -10.142  1.00  0.00    -0.012 C 
ATOM      3  C   UNL     1      -7.257   1.123  -9.374  1.00  0.00    -0.019 C 
ATOM      4  C   UNL     1      -6.785  -0.263  -9.024  1.00  0.00     0.036 C 
ATOM      5  C   UNL     1      -5.946  -0.869 -10.165  1.00  0.00     0.025 C 
ATOM      6  C   UNL     1      -4.781   0.069 -10.528  1.00  0.00     0.089 C 
ATOM      7  C   UNL     1      -5.285   1.462 -10.789  1.00  0.00     0.158 C 
ATOM      8  O   UNL     1      -4.618   2.226 -11.539  1.00  0.00    -0.295 OA
ENDROOT
BRANCH   5   9
ATOM      9  C   UNL     1      -5.454  -2.268  -9.820  1.00  0.00    -0.077 C 
ATOM     10  C   UNL     1      -6.063  -3.363 -10.306  1.00  0.00     0.008 C 
ATOM     11  C   UNL     1      -4.260  -2.448  -8.919  1.00  0.00     0.039 C 
ENDBRANCH   5   9
TORSDOF 1
ENDMDL
MODEL 4
REMARK VINA RESULT:    -4.466      6.734      8.550
REMARK INTER + INTRA:          -4.821
REMARK INTER:                  -4.724
REMARK INTRA:                  -0.097
REMARK UNBOUND:                -0.094
REMARK SMILES C=C(C)[C@H]1CC=C(C)C(=O)C1
REMARK SMILES IDX 8 1 7 2 6 3 5 4 4 5 11 6 9 7 10 8 2 9 1 10 3 11
REMARK H PARENT
REMARK Flexibility Score: inf
ROOT
ATOM      1  C   UNL     1      -4.837   1.743  -7.533  1.00  0.00     0.048 C 
ATOM      2  C   UNL     1      -5.324   0.800  -8.596  1.00  0.00    -0.012 C 
ATOM      3  C   UNL     1      -4.916  -0.481  -8.593  1.00  0.00    -0.019 C 
ATOM      4  C   UNL     1      -5.360  -1.463  -9.644  1.00  0.00     0.036 C 
ATOM      5  C   UNL     1      -6.787  -1.149 -10.132  1.00  0.00     0.025 C 
ATOM      6  C   UNL     1      -6.875   0.309 -10.620  1.00  0.00     0.089 C 
ATOM      7  C   UNL     1      -6.347   1.251  -9.573  1.00  0.00     0.158 C 
ATOM      8  O   UNL     1      -6.757   2.443  -9.557  1.00  0.00    -0.295 OA
ENDROOT
BRANCH   5   9
ATOM      9  C   UNL     1      -7.244  -2.129 -11.203  1.00  0.00    -0.077 C 
ATOM     10  C   UNL     1      -7.976  -1.724 -12.255  1.00  0.00     0.008 C 
ATOM     11  C   UNL     1      -6.877  -3.587 -11.100  1.00  0.00     0.039 C 
ENDBRANCH   5   9
TORSDOF 1
ENDMDL
MODEL 5
REMARK VINA RESULT:    -4.440      6.727      8.307
REMARK INTER + INTRA:          -4.795
REMARK INTER:                  -4.696
REMARK INTRA:                  -0.098
REMARK UNBOUND:                -0.094
REMARK SMILES C=C(C)[C@H]1CC=C(C)C(=O)C1
REMARK SMILES IDX 8 1 7 2 6 3 5 4 4 5 11 6 9 7 10 8 2 9 1 10 3 11
REMARK H PARENT
REMARK Flexibility Score: inf
ROOT
ATOM      1  C   UNL     1      -6.436  -4.040 -10.834  1.00  0.00     0.048 C 
ATOM      2  C   UNL     1      -6.248  -2.607 -10.421  1.00  0.00    -0.012 C 
ATOM      3  C   UNL     1      -7.071  -1.658 -10.899  1.00  0.00    -0.019 C 
ATOM      4  C   UNL     1      -6.916  -0.207 -10.532  1.00  0.00     0.036 C 
ATOM      5  C   UNL     1      -6.373  -0.052  -9.098  1.00  0.00     0.025 C 
ATOM      6  C   UNL     1      -5.059  -0.837  -8.938  1.00  0.00     0.089 C 
ATOM      7  C   UNL     1      -5.234  -2.260  -9.392  1.00  0.00     0.158 C 
ATOM      8  O   UNL     1      -4.484  -3.155  -8.915  1.00  0.00    -0.295 OA
ENDROOT
BRANCH   5   9
ATOM      9  C   UNL     1      -6.202   1.413  -8.717  1.00  0.00    -0.077 C 
ATOM     10  C   UNL     1      -5.295   1.796  -7.801  1.00  0.00     0.008 C 
ATOM     11  C   UNL     1      -7.056   2.469  -9.370  1.00  0.00     0.039 C 
ENDBRANCH   5   9
TORSDOF 1
ENDMDL
MODEL 6
REMARK VINA RESULT:    -4.369      6.146      8.188
REMARK INTER + INTRA:          -4.719
REMARK INTER:                  -4.630
REMARK INTRA:                  -0.089
REMARK UNBOUND:                -0.094
REMARK SMILES C=C(C)[C@H]1CC=C(C)C(=O)C1
REMARK SMILES IDX 8 1 7 2 6 3 5 4 4 5 11 6 9 7 10 8 2 9 1 10 3 11
REMARK H PARENT
REMARK Flexibility Score: inf
ROOT
ATOM      1  C   UNL     1      -4.991  -2.666 -12.644  1.00  0.00     0.048 C 
ATOM      2  C   UNL     1      -5.303  -1.511 -11.734  1.00  0.00    -0.012 C 
ATOM      3  C   UNL     1      -4.444  -0.480 -11.642  1.00  0.00    -0.019 C 
ATOM      4  C   UNL     1      -4.699   0.692 -10.733  1.00  0.00     0.036 C 
ATOM      5  C   UNL     1      -6.207   0.980 -10.608  1.00  0.00     0.025 C 
ATOM      6  C   UNL     1      -6.957  -0.285 -10.151  1.00  0.00     0.089 C 
ATOM      7  C   UNL     1      -6.611  -1.452 -11.035  1.00  0.00     0.158 C 
ATOM      8  O   UNL     1      -7.433  -2.401 -11.148  1.00  0.00    -0.295 OA
ENDROOT
BRANCH   5   9
ATOM      9  C   UNL     1      -6.480   2.159  -9.682  1.00  0.00    -0.077 C 
ATOM     10  C   UNL     1      -7.156   3.240 -10.107  1.00  0.00     0.008 C 
ATOM     11  C   UNL     1      -5.991   2.130  -8.257  1.00  0.00     0.039 C 
ENDBRANCH   5   9
TORSDOF 1
ENDMDL
MODEL 7
REMARK VINA RESULT:    -4.364      2.155      4.693
REMARK INTER + INTRA:          -4.713
REMARK INTER:                  -4.625
REMARK INTRA:                  -0.089
REMARK UNBOUND:                -0.094
REMARK SMILES C=C(C)[C@H]1CC=C(C)C(=O)C1
REMARK SMILES IDX 8 1 7 2 6 3 5 4 4 5 11 6 9 7 10 8 2 9 1 10 3 11
REMARK H PARENT
REMARK Flexibility Score: inf
ROOT
ATOM      1  C   UNL     1      -5.096  -2.685 -14.721  1.00  0.00     0.048 C 
ATOM      2  C   UNL     1      -6.445  -3.344 -14.646  1.00  0.00    -0.012 C 
ATOM      3  C   UNL     1      -7.469  -2.706 -14.054  1.00  0.00    -0.019 C 
ATOM      4  C   UNL     1      -8.835  -3.328 -13.936  1.00  0.00     0.036 C 
ATOM      5  C   UNL     1      -9.137  -4.239 -15.141  1.00  0.00     0.025 C 
ATOM      6  C   UNL     1      -8.028  -5.295 -15.302  1.00  0.00     0.089 C 
ATOM      7  C   UNL     1      -6.675  -4.640 -15.333  1.00  0.00     0.158 C 
ATOM      8  O   UNL     1      -5.724  -5.223 -15.921  1.00  0.00    -0.295 OA
ENDROOT
BRANCH   5   9
ATOM      9  C   UNL     1     -10.513  -4.882 -15.029  1.00  0.00    -0.077 C 
ATOM     10  C   UNL     1     -11.587  -4.344 -15.630  1.00  0.00     0.008 C 
ATOM     11  C   UNL     1     -10.692  -6.150 -14.233  1.00  0.00     0.039 C 
ENDBRANCH   5   9
TORSDOF 1
ENDMDL
MODEL 8
REMARK VINA RESULT:    -4.323      2.050      4.549
REMARK INTER + INTRA:          -4.670
REMARK INTER:                  -4.579
REMARK INTRA:                  -0.091
REMARK UNBOUND:                -0.094
REMARK SMILES C=C(C)[C@H]1CC=C(C)C(=O)C1
REMARK SMILES IDX 8 1 7 2 6 3 5 4 4 5 11 6 9 7 10 8 2 9 1 10 3 11
REMARK H PARENT
REMARK Flexibility Score: inf
ROOT
ATOM      1  C   UNL     1      -5.374  -3.315 -14.947  1.00  0.00     0.048 C 
ATOM      2  C   UNL     1      -6.765  -3.884 -14.976  1.00  0.00    -0.012 C 
ATOM      3  C   UNL     1      -6.998  -5.049 -15.607  1.00  0.00    -0.019 C 
ATOM      4  C   UNL     1      -8.374  -5.654 -15.682  1.00  0.00     0.036 C 
ATOM      5  C   UNL     1      -9.195  -5.325 -14.420  1.00  0.00     0.025 C 
ATOM      6  C   UNL     1      -9.240  -3.803 -14.194  1.00  0.00     0.089 C 
ATOM      7  C   UNL     1      -7.851  -3.226 -14.208  1.00  0.00     0.158 C 
ATOM      8  O   UNL     1      -7.626  -2.152 -13.586  1.00  0.00    -0.295 OA
ENDROOT
BRANCH   5   9
ATOM      9  C   UNL     1     -10.594  -5.924 -14.488  1.00  0.00    -0.077 C 
ATOM     10  C   UNL     1     -10.796  -7.246 -14.360  1.00  0.00     0.008 C 
ATOM     11  C   UNL     1     -11.789  -5.030 -14.699  1.00  0.00     0.039 C 
ENDBRANCH   5   9
TORSDOF 1
ENDMDL
MODEL 9
REMARK VINA RESULT:    -4.283      1.874      2.651
REMARK INTER + INTRA:          -4.628
REMARK INTER:                  -4.532
REMARK INTRA:                  -0.096
REMARK UNBOUND:                -0.094
REMARK SMILES C=C(C)[C@H]1CC=C(C)C(=O)C1
REMARK SMILES IDX 8 1 7 2 6 3 5 4 4 5 11 6 9 7 10 8 2 9 1 10 3 11
REMARK H PARENT
REMARK Flexibility Score: inf
ROOT
ATOM      1  C   UNL     1     -12.953  -4.071 -15.430  1.00  0.00     0.048 C 
ATOM      2  C   UNL     1     -11.621  -4.679 -15.091  1.00  0.00    -0.012 C 
ATOM      3  C   UNL     1     -11.562  -5.773 -14.313  1.00  0.00    -0.019 C 
ATOM      4  C   UNL     1     -10.254  -6.411 -13.930  1.00  0.00     0.036 C 
ATOM      5  C   UNL     1      -9.207  -6.249 -15.049  1.00  0.00     0.025 C 
ATOM      6  C   UNL     1      -9.046  -4.763 -15.418  1.00  0.00     0.089 C 
ATOM      7  C   UNL     1     -10.384  -4.144 -15.715  1.00  0.00     0.158 C 
ATOM      8  O   UNL     1     -10.441  -3.138 -16.473  1.00  0.00    -0.295 OA
ENDROOT
BRANCH   5   9
ATOM      9  C   UNL     1      -7.875  -6.881 -14.669  1.00  0.00    -0.077 C 
ATOM     10  C   UNL     1      -7.639  -7.320 -13.421  1.00  0.00     0.008 C 
ATOM     11  C   UNL     1      -6.786  -7.027 -15.701  1.00  0.00     0.039 C 
ENDBRANCH   5   9
TORSDOF 1
ENDMDL
