MODEL 1
REMARK VINA RESULT:    -3.707      0.000      0.000
REMARK INTER + INTRA:          -4.669
REMARK INTER:                  -4.466
REMARK INTRA:                  -0.203
REMARK UNBOUND:                -0.203
REMARK SMILES OCC(O)CO
REMARK SMILES IDX 3 1 5 2 6 3 2 5 1 6 4 8
REMARK H PARENT 6 4 1 7 4 9
REMARK Flexibility Score: inf
ROOT
ATOM      1  C   UNL     1      18.119  13.261  12.654  1.00  0.00     0.165 C 
ENDROOT
BRANCH   1   2
ATOM      2  C   UNL     1      18.688  11.948  13.221  1.00  0.00     0.190 C 
BRANCH   2   3
ATOM      3  O   UNL     1      18.106  11.632  14.459  1.00  0.00    -0.394 OA
ATOM      4  H   UNL     1      18.694  10.958  14.889  1.00  0.00     0.210 HD
ENDBRANCH   2   3
ENDBRANCH   1   2
BRANCH   1   5
ATOM      5  C   UNL     1      16.633  13.453  13.008  1.00  0.00     0.190 C 
BRANCH   5   6
ATOM      6  O   UNL     1      16.500  13.888  14.335  1.00  0.00    -0.394 OA
ATOM      7  H   UNL     1      15.576  14.240  14.427  1.00  0.00     0.210 HD
ENDBRANCH   5   6
ENDBRANCH   1   5
BRANCH   1   8
ATOM      8  O   UNL     1      18.322  13.335  11.265  1.00  0.00    -0.388 OA
ATOM      9  H   UNL     1      18.691  12.463  10.965  1.00  0.00     0.211 HD
ENDBRANCH   1   8
TORSDOF 5
ENDMDL
MODEL 2
REMARK VINA RESULT:    -3.657     18.531     19.444
REMARK INTER + INTRA:          -4.608
REMARK INTER:                  -4.388
REMARK INTRA:                  -0.219
REMARK UNBOUND:                -0.203
REMARK SMILES OCC(O)CO
REMARK SMILES IDX 3 1 5 2 6 3 2 5 1 6 4 8
REMARK H PARENT 6 4 1 7 4 9
REMARK Flexibility Score: inf
ROOT
ATOM      1  C   UNL     1      11.480  -3.982  21.136  1.00  0.00     0.165 C 
ENDROOT
BRANCH   1   2
ATOM      2  C   UNL     1      11.883  -3.333  19.801  1.00  0.00     0.190 C 
BRANCH   2   3
ATOM      3  O   UNL     1      12.945  -4.025  19.197  1.00  0.00    -0.394 OA
ATOM      4  H   UNL     1      13.782  -3.575  19.484  1.00  0.00     0.210 HD
ENDBRANCH   2   3
ENDBRANCH   1   2
BRANCH   1   5
ATOM      5  C   UNL     1      12.572  -3.830  22.211  1.00  0.00     0.190 C 
BRANCH   5   6
ATOM      6  O   UNL     1      13.430  -2.768  21.889  1.00  0.00    -0.394 OA
ATOM      7  H   UNL     1      12.966  -1.934  22.161  1.00  0.00     0.210 HD
ENDBRANCH   5   6
ENDBRANCH   1   5
BRANCH   1   8
ATOM      8  O   UNL     1      11.136  -5.332  20.952  1.00  0.00    -0.388 OA
ATOM      9  H   UNL     1      10.345  -5.365  20.353  1.00  0.00     0.211 HD
ENDBRANCH   1   8
TORSDOF 5
ENDMDL
MODEL 3
REMARK VINA RESULT:    -3.640      0.698      2.215
REMARK INTER + INTRA:          -4.588
REMARK INTER:                  -4.578
REMARK INTRA:                  -0.009
REMARK UNBOUND:                -0.203
REMARK SMILES OCC(O)CO
REMARK SMILES IDX 3 1 5 2 6 3 2 5 1 6 4 8
REMARK H PARENT 6 4 1 7 4 9
REMARK Flexibility Score: inf
ROOT
ATOM      1  C   UNL     1      17.869  12.410  13.016  1.00  0.00     0.165 C 
ENDROOT
BRANCH   1   2
ATOM      2  C   UNL     1      19.188  12.954  12.441  1.00  0.00     0.190 C 
BRANCH   2   3
ATOM      3  O   UNL     1      18.964  13.730  11.293  1.00  0.00    -0.394 OA
ATOM      4  H   UNL     1      18.413  14.507  11.573  1.00  0.00     0.210 HD
ENDBRANCH   2   3
ENDBRANCH   1   2
BRANCH   1   5
ATOM      5  C   UNL     1      16.798  13.508  13.154  1.00  0.00     0.190 C 
BRANCH   5   6
ATOM      6  O   UNL     1      16.564  13.795  14.507  1.00  0.00    -0.394 OA
ATOM      7  H   UNL     1      16.282  14.746  14.551  1.00  0.00     0.210 HD
ENDBRANCH   5   6
ENDBRANCH   1   5
BRANCH   1   8
ATOM      8  O   UNL     1      18.088  11.760  14.243  1.00  0.00    -0.388 OA
ATOM      9  H   UNL     1      17.325  11.145  14.401  1.00  0.00     0.211 HD
ENDBRANCH   1   8
TORSDOF 5
ENDMDL
MODEL 4
REMARK VINA RESULT:    -3.640     18.913     19.902
REMARK INTER + INTRA:          -4.588
REMARK INTER:                  -4.581
REMARK INTRA:                  -0.007
REMARK UNBOUND:                -0.203
REMARK SMILES OCC(O)CO
REMARK SMILES IDX 3 1 5 2 6 3 2 5 1 6 4 8
REMARK H PARENT 6 4 1 7 4 9
REMARK Flexibility Score: inf
ROOT
ATOM      1  C   UNL     1      12.597  -3.675  21.688  1.00  0.00     0.165 C 
ENDROOT
BRANCH   1   2
ATOM      2  C   UNL     1      13.126  -4.571  22.822  1.00  0.00     0.190 C 
BRANCH   2   3
ATOM      3  O   UNL     1      12.076  -5.084  23.600  1.00  0.00    -0.394 OA
ATOM      4  H   UNL     1      11.284  -5.151  23.005  1.00  0.00     0.210 HD
ENDBRANCH   2   3
ENDBRANCH   1   2
BRANCH   1   5
ATOM      5  C   UNL     1      11.576  -4.406  20.797  1.00  0.00     0.190 C 
BRANCH   5   6
ATOM      6  O   UNL     1      12.123  -4.655  19.531  1.00  0.00    -0.394 OA
ATOM      7  H   UNL     1      11.371  -4.613  18.883  1.00  0.00     0.210 HD
ENDBRANCH   5   6
ENDBRANCH   1   5
BRANCH   1   8
ATOM      8  O   UNL     1      13.658  -3.158  20.924  1.00  0.00    -0.388 OA
ATOM      9  H   UNL     1      13.266  -2.657  20.161  1.00  0.00     0.211 HD
ENDBRANCH   1   8
TORSDOF 5
ENDMDL
MODEL 5
REMARK VINA RESULT:    -3.638     18.673     19.834
REMARK INTER + INTRA:          -4.585
REMARK INTER:                  -4.379
REMARK INTRA:                  -0.207
REMARK UNBOUND:                -0.203
REMARK SMILES OCC(O)CO
REMARK SMILES IDX 3 1 5 2 6 3 2 5 1 6 4 8
REMARK H PARENT 6 4 1 7 4 9
REMARK Flexibility Score: inf
ROOT
ATOM      1  C   UNL     1      12.423  -4.539  22.067  1.00  0.00     0.165 C 
ENDROOT
BRANCH   1   2
ATOM      2  C   UNL     1      13.521  -3.461  22.097  1.00  0.00     0.190 C 
BRANCH   2   3
ATOM      3  O   UNL     1      13.577  -2.756  20.884  1.00  0.00    -0.394 OA
ATOM      4  H   UNL     1      14.532  -2.725  20.614  1.00  0.00     0.210 HD
ENDBRANCH   2   3
ENDBRANCH   1   2
BRANCH   1   5
ATOM      5  C   UNL     1      11.417  -4.314  20.922  1.00  0.00     0.190 C 
BRANCH   5   6
ATOM      6  O   UNL     1      11.977  -4.705  19.697  1.00  0.00    -0.394 OA
ATOM      7  H   UNL     1      12.882  -5.060  19.898  1.00  0.00     0.210 HD
ENDBRANCH   5   6
ENDBRANCH   1   5
BRANCH   1   8
ATOM      8  O   UNL     1      11.768  -4.620  23.308  1.00  0.00    -0.388 OA
ATOM      9  H   UNL     1      10.945  -4.067  23.254  1.00  0.00     0.211 HD
ENDBRANCH   1   8
TORSDOF 5
ENDMDL
MODEL 6
REMARK VINA RESULT:    -3.631     18.897     19.902
REMARK INTER + INTRA:          -4.577
REMARK INTER:                  -4.405
REMARK INTRA:                  -0.172
REMARK UNBOUND:                -0.203
REMARK SMILES OCC(O)CO
REMARK SMILES IDX 3 1 5 2 6 3 2 5 1 6 4 8
REMARK H PARENT 6 4 1 7 4 9
REMARK Flexibility Score: inf
ROOT
ATOM      1  C   UNL     1      13.388  -3.480  22.272  1.00  0.00     0.165 C 
ENDROOT
BRANCH   1   2
ATOM      2  C   UNL     1      14.594  -4.134  22.969  1.00  0.00     0.190 C 
BRANCH   2   3
ATOM      3  O   UNL     1      14.878  -3.508  24.193  1.00  0.00    -0.394 OA
ATOM      4  H   UNL     1      15.084  -4.229  24.844  1.00  0.00     0.210 HD
ENDBRANCH   2   3
ENDBRANCH   1   2
BRANCH   1   5
ATOM      5  C   UNL     1      12.101  -4.312  22.432  1.00  0.00     0.190 C 
BRANCH   5   6
ATOM      6  O   UNL     1      12.098  -4.973  23.668  1.00  0.00    -0.394 OA
ATOM      7  H   UNL     1      13.048  -5.132  23.908  1.00  0.00     0.210 HD
ENDBRANCH   5   6
ENDBRANCH   1   5
BRANCH   1   8
ATOM      8  O   UNL     1      13.666  -3.233  20.917  1.00  0.00    -0.388 OA
ATOM      9  H   UNL     1      12.909  -3.588  20.381  1.00  0.00     0.211 HD
ENDBRANCH   1   8
TORSDOF 5
ENDMDL
MODEL 7
REMARK VINA RESULT:    -3.627     18.957     19.887
REMARK INTER + INTRA:          -4.571
REMARK INTER:                  -4.568
REMARK INTRA:                  -0.004
REMARK UNBOUND:                -0.203
REMARK SMILES OCC(O)CO
REMARK SMILES IDX 3 1 5 2 6 3 2 5 1 6 4 8
REMARK H PARENT 6 4 1 7 4 9
REMARK Flexibility Score: inf
ROOT
ATOM      1  C   UNL     1      12.767  -3.844  21.861  1.00  0.00     0.165 C 
ENDROOT
BRANCH   1   2
ATOM      2  C   UNL     1      11.703  -4.037  20.766  1.00  0.00     0.190 C 
BRANCH   2   3
ATOM      3  O   UNL     1      12.295  -4.325  19.525  1.00  0.00    -0.394 OA
ATOM      4  H   UNL     1      13.115  -3.769  19.462  1.00  0.00     0.210 HD
ENDBRANCH   2   3
ENDBRANCH   1   2
BRANCH   1   5
ATOM      5  C   UNL     1      12.174  -3.975  23.277  1.00  0.00     0.190 C 
BRANCH   5   6
ATOM      6  O   UNL     1      12.109  -5.324  23.656  1.00  0.00    -0.394 OA
ATOM      7  H   UNL     1      11.387  -5.394  24.335  1.00  0.00     0.210 HD
ENDBRANCH   5   6
ENDBRANCH   1   5
BRANCH   1   8
ATOM      8  O   UNL     1      13.432  -2.616  21.703  1.00  0.00    -0.388 OA
ATOM      9  H   UNL     1      13.708  -2.302  22.603  1.00  0.00     0.211 HD
ENDBRANCH   1   8
TORSDOF 5
ENDMDL
MODEL 8
REMARK VINA RESULT:    -3.557      1.642      2.451
REMARK INTER + INTRA:          -4.487
REMARK INTER:                  -4.267
REMARK INTRA:                  -0.219
REMARK UNBOUND:                -0.203
REMARK SMILES OCC(O)CO
REMARK SMILES IDX 3 1 5 2 6 3 2 5 1 6 4 8
REMARK H PARENT 6 4 1 7 4 9
REMARK Flexibility Score: inf
ROOT
ATOM      1  C   UNL     1      18.922  12.540  11.987  1.00  0.00     0.165 C 
ENDROOT
BRANCH   1   2
ATOM      2  C   UNL     1      17.760  12.523  12.995  1.00  0.00     0.190 C 
BRANCH   2   3
ATOM      3  O   UNL     1      18.106  11.820  14.161  1.00  0.00    -0.394 OA
ATOM      4  H   UNL     1      17.270  11.418  14.513  1.00  0.00     0.210 HD
ENDBRANCH   2   3
ENDBRANCH   1   2
BRANCH   1   5
ATOM      5  C   UNL     1      20.284  12.301  12.664  1.00  0.00     0.190 C 
BRANCH   5   6
ATOM      6  O   UNL     1      20.601  13.370  13.514  1.00  0.00    -0.394 OA
ATOM      7  H   UNL     1      20.519  14.198  12.973  1.00  0.00     0.210 HD
ENDBRANCH   5   6
ENDBRANCH   1   5
BRANCH   1   8
ATOM      8  O   UNL     1      18.926  13.737  11.250  1.00  0.00    -0.388 OA
ATOM      9  H   UNL     1      18.182  13.693  10.594  1.00  0.00     0.211 HD
ENDBRANCH   1   8
TORSDOF 5
ENDMDL
MODEL 9
REMARK VINA RESULT:    -1.710      0.716      2.263
REMARK INTER + INTRA:          -2.262
REMARK INTER:                  -2.076
REMARK INTRA:                  -0.185
REMARK UNBOUND:                -0.203
REMARK SMILES OCC(O)CO
REMARK SMILES IDX 3 1 5 2 6 3 2 5 1 6 4 8
REMARK H PARENT 6 4 1 7 4 9
REMARK Flexibility Score: inf
ROOT
ATOM      1  C   UNL     1      17.561  12.894  12.643  1.00  0.00     0.165 C 
ENDROOT
BRANCH   1   2
ATOM      2  C   UNL     1      16.311  13.089  13.519  1.00  0.00     0.190 C 
BRANCH   2   3
ATOM      3  O   UNL     1      16.624  13.756  14.714  1.00  0.00    -0.394 OA
ATOM      4  H   UNL     1      16.331  13.166  15.458  1.00  0.00     0.210 HD
ENDBRANCH   2   3
ENDBRANCH   1   2
BRANCH   1   5
ATOM      5  C   UNL     1      18.548  11.882  13.254  1.00  0.00     0.190 C 
BRANCH   5   6
ATOM      6  O   UNL     1      18.125  11.500  14.535  1.00  0.00    -0.394 OA
ATOM      7  H   UNL     1      18.604  12.084  15.179  1.00  0.00     0.210 HD
ENDBRANCH   5   6
ENDBRANCH   1   5
BRANCH   1   8
ATOM      8  O   UNL     1      18.191  14.125  12.389  1.00  0.00    -0.388 OA
ATOM      9  H   UNL     1      17.654  14.605  11.705  1.00  0.00     0.211 HD
ENDBRANCH   1   8
TORSDOF 5
ENDMDL
