MODEL 1
REMARK VINA RESULT:    -4.886      0.000      0.000
REMARK INTER + INTRA:          -5.646
REMARK INTER:                  -5.600
REMARK INTRA:                  -0.046
REMARK UNBOUND:                -0.046
REMARK SMILES O=C([O-])c1cc(O)c(O)c(O)c1
REMARK SMILES IDX 4 1 5 2 12 3 6 4 10 5 8 6 2 7 1 8 3 9 7 10 11 12 9 14
REMARK H PARENT 7 11 11 13 9 15
REMARK Flexibility Score: inf
ROOT
ATOM      1  C   UNL     1      21.151   0.650 -20.687  1.00  0.00     0.005 A 
ATOM      2  C   UNL     1      19.958  -0.093 -20.681  1.00  0.00     0.060 A 
ATOM      3  C   UNL     1      21.748   0.992 -19.462  1.00  0.00     0.060 A 
ATOM      4  C   UNL     1      19.370  -0.488 -19.474  1.00  0.00     0.162 A 
ATOM      5  C   UNL     1      21.165   0.601 -18.249  1.00  0.00     0.162 A 
ATOM      6  C   UNL     1      19.971  -0.143 -18.252  1.00  0.00     0.200 A 
ENDROOT
BRANCH   1   7
ATOM      7  C   UNL     1      21.765   1.063 -21.968  1.00  0.00     0.072 C 
ATOM      8  O   UNL     1      21.821   2.280 -22.289  1.00  0.00    -0.545 OA
ATOM      9  O   UNL     1      22.291   0.113 -22.836  1.00  0.00    -0.545 OA
ENDBRANCH   1   7
BRANCH   4  10
ATOM     10  O   UNL     1      18.185  -1.224 -19.511  1.00  0.00    -0.504 OA
ATOM     11  H   UNL     1      17.282  -0.785 -19.640  1.00  0.00     0.293 HD
ENDBRANCH   4  10
BRANCH   5  12
ATOM     12  O   UNL     1      21.766   0.947 -17.040  1.00  0.00    -0.504 OA
ATOM     13  H   UNL     1      21.826   1.911 -16.734  1.00  0.00     0.293 HD
ENDBRANCH   5  12
BRANCH   6  14
ATOM     14  O   UNL     1      19.377  -0.541 -17.054  1.00  0.00    -0.502 OA
ATOM     15  H   UNL     1      19.823  -1.195 -16.422  1.00  0.00     0.293 HD
ENDBRANCH   6  14
TORSDOF 4
ENDMDL
MODEL 2
REMARK VINA RESULT:    -4.871      0.041      2.430
REMARK INTER + INTRA:          -5.629
REMARK INTER:                  -5.583
REMARK INTRA:                  -0.046
REMARK UNBOUND:                -0.046
REMARK SMILES O=C([O-])c1cc(O)c(O)c(O)c1
REMARK SMILES IDX 4 1 5 2 12 3 6 4 10 5 8 6 2 7 1 8 3 9 7 10 11 12 9 14
REMARK H PARENT 7 11 11 13 9 15
REMARK Flexibility Score: inf
ROOT
ATOM      1  C   UNL     1      21.139   0.671 -20.704  1.00  0.00     0.005 A 
ATOM      2  C   UNL     1      21.750   0.994 -19.481  1.00  0.00     0.060 A 
ATOM      3  C   UNL     1      19.943  -0.066 -20.696  1.00  0.00     0.060 A 
ATOM      4  C   UNL     1      21.179   0.588 -18.270  1.00  0.00     0.162 A 
ATOM      5  C   UNL     1      19.365  -0.476 -19.487  1.00  0.00     0.162 A 
ATOM      6  C   UNL     1      19.983  -0.149 -18.268  1.00  0.00     0.200 A 
ENDROOT
BRANCH   1   7
ATOM      7  C   UNL     1      21.751   1.104 -21.981  1.00  0.00     0.072 C 
ATOM      8  O   UNL     1      21.809   2.326 -22.281  1.00  0.00    -0.545 OA
ATOM      9  O   UNL     1      22.271   0.167 -22.866  1.00  0.00    -0.545 OA
ENDBRANCH   1   7
BRANCH   4  10
ATOM     10  O   UNL     1      21.818   0.928 -17.076  1.00  0.00    -0.504 OA
ATOM     11  H   UNL     1      21.504   0.579 -16.179  1.00  0.00     0.293 HD
ENDBRANCH   4  10
BRANCH   5  12
ATOM     12  O   UNL     1      18.178  -1.208 -19.492  1.00  0.00    -0.504 OA
ATOM     13  H   UNL     1      17.521  -1.147 -20.261  1.00  0.00     0.293 HD
ENDBRANCH   5  12
BRANCH   6  14
ATOM     14  O   UNL     1      19.422  -0.549 -17.054  1.00  0.00    -0.502 OA
ATOM     15  H   UNL     1      18.567  -1.091 -17.007  1.00  0.00     0.293 HD
ENDBRANCH   6  14
TORSDOF 4
ENDMDL
MODEL 3
REMARK VINA RESULT:    -4.826     16.420     17.913
REMARK INTER + INTRA:          -5.577
REMARK INTER:                  -5.531
REMARK INTRA:                  -0.046
REMARK UNBOUND:                -0.046
REMARK SMILES O=C([O-])c1cc(O)c(O)c(O)c1
REMARK SMILES IDX 4 1 5 2 12 3 6 4 10 5 8 6 2 7 1 8 3 9 7 10 11 12 9 14
REMARK H PARENT 7 11 11 13 9 15
REMARK Flexibility Score: inf
ROOT
ATOM      1  C   UNL     1       8.345  -7.110  -9.540  1.00  0.00     0.005 A 
ATOM      2  C   UNL     1       9.737  -6.922  -9.565  1.00  0.00     0.060 A 
ATOM      3  C   UNL     1       7.606  -6.591  -8.463  1.00  0.00     0.060 A 
ATOM      4  C   UNL     1      10.383  -6.229  -8.535  1.00  0.00     0.162 A 
ATOM      5  C   UNL     1       8.246  -5.896  -7.427  1.00  0.00     0.162 A 
ATOM      6  C   UNL     1       9.639  -5.713  -7.461  1.00  0.00     0.200 A 
ENDROOT
BRANCH   1   7
ATOM      7  C   UNL     1       7.671  -7.844 -10.634  1.00  0.00     0.072 C 
ATOM      8  O   UNL     1       7.022  -8.897 -10.394  1.00  0.00    -0.545 OA
ATOM      9  O   UNL     1       7.744  -7.381 -11.943  1.00  0.00    -0.545 OA
ENDBRANCH   1   7
BRANCH   4  10
ATOM     10  O   UNL     1      11.767  -6.065  -8.598  1.00  0.00    -0.504 OA
ATOM     11  H   UNL     1      12.402  -6.853  -8.625  1.00  0.00     0.293 HD
ENDBRANCH   4  10
BRANCH   5  12
ATOM     12  O   UNL     1       7.502  -5.386  -6.364  1.00  0.00    -0.504 OA
ATOM     13  H   UNL     1       7.059  -5.995  -5.685  1.00  0.00     0.293 HD
ENDBRANCH   5  12
BRANCH   6  14
ATOM     14  O   UNL     1      10.292  -5.024  -6.439  1.00  0.00    -0.502 OA
ATOM     15  H   UNL     1      10.096  -4.051  -6.232  1.00  0.00     0.293 HD
ENDBRANCH   6  14
TORSDOF 4
ENDMDL
MODEL 4
REMARK VINA RESULT:    -4.818     16.462     17.853
REMARK INTER + INTRA:          -5.568
REMARK INTER:                  -5.522
REMARK INTRA:                  -0.046
REMARK UNBOUND:                -0.046
REMARK SMILES O=C([O-])c1cc(O)c(O)c(O)c1
REMARK SMILES IDX 4 1 5 2 12 3 6 4 10 5 8 6 2 7 1 8 3 9 7 10 11 12 9 14
REMARK H PARENT 7 11 11 13 9 15
REMARK Flexibility Score: inf
ROOT
ATOM      1  C   UNL     1       8.392  -7.104  -9.502  1.00  0.00     0.005 A 
ATOM      2  C   UNL     1       7.649  -6.551  -8.446  1.00  0.00     0.060 A 
ATOM      3  C   UNL     1       9.790  -6.955  -9.505  1.00  0.00     0.060 A 
ATOM      4  C   UNL     1       8.286  -5.860  -7.410  1.00  0.00     0.162 A 
ATOM      5  C   UNL     1      10.436  -6.264  -8.470  1.00  0.00     0.162 A 
ATOM      6  C   UNL     1       9.684  -5.714  -7.418  1.00  0.00     0.200 A 
ENDROOT
BRANCH   1   7
ATOM      7  C   UNL     1       7.708  -7.833 -10.594  1.00  0.00     0.072 C 
ATOM      8  O   UNL     1       7.079  -8.898 -10.357  1.00  0.00    -0.545 OA
ATOM      9  O   UNL     1       7.751  -7.351 -11.897  1.00  0.00    -0.545 OA
ENDBRANCH   1   7
BRANCH   4  10
ATOM     10  O   UNL     1       7.512  -5.325  -6.380  1.00  0.00    -0.504 OA
ATOM     11  H   UNL     1       6.709  -4.735  -6.560  1.00  0.00     0.293 HD
ENDBRANCH   4  10
BRANCH   5  12
ATOM     12  O   UNL     1      11.822  -6.122  -8.484  1.00  0.00    -0.504 OA
ATOM     13  H   UNL     1      12.416  -6.761  -9.001  1.00  0.00     0.293 HD
ENDBRANCH   5  12
BRANCH   6  14
ATOM     14  O   UNL     1      10.310  -5.023  -6.379  1.00  0.00    -0.502 OA
ATOM     15  H   UNL     1      10.448  -5.434  -5.464  1.00  0.00     0.293 HD
ENDBRANCH   6  14
TORSDOF 4
ENDMDL
MODEL 5
REMARK VINA RESULT:    -4.649      1.405      4.790
REMARK INTER + INTRA:          -5.375
REMARK INTER:                  -5.322
REMARK INTRA:                  -0.053
REMARK UNBOUND:                -0.046
REMARK SMILES O=C([O-])c1cc(O)c(O)c(O)c1
REMARK SMILES IDX 4 1 5 2 12 3 6 4 10 5 8 6 2 7 1 8 3 9 7 10 11 12 9 14
REMARK H PARENT 7 11 11 13 9 15
REMARK Flexibility Score: inf
ROOT
ATOM      1  C   UNL     1      20.147  -0.695 -19.596  1.00  0.00     0.005 A 
ATOM      2  C   UNL     1      20.716   0.565 -19.344  1.00  0.00     0.060 A 
ATOM      3  C   UNL     1      20.312  -1.276 -20.865  1.00  0.00     0.060 A 
ATOM      4  C   UNL     1      21.436   1.235 -20.339  1.00  0.00     0.162 A 
ATOM      5  C   UNL     1      21.031  -0.611 -21.868  1.00  0.00     0.162 A 
ATOM      6  C   UNL     1      21.596   0.649 -21.606  1.00  0.00     0.200 A 
ENDROOT
BRANCH   1   7
ATOM      7  C   UNL     1      19.387  -1.396 -18.537  1.00  0.00     0.072 C 
ATOM      8  O   UNL     1      18.998  -2.582 -18.706  1.00  0.00    -0.545 OA
ATOM      9  O   UNL     1      19.093  -0.755 -17.339  1.00  0.00    -0.545 OA
ENDBRANCH   1   7
BRANCH   4  10
ATOM     10  O   UNL     1      21.984   2.485 -20.049  1.00  0.00    -0.504 OA
ATOM     11  H   UNL     1      21.424   3.250 -19.695  1.00  0.00     0.293 HD
ENDBRANCH   4  10
BRANCH   5  12
ATOM     12  O   UNL     1      21.187  -1.198 -23.123  1.00  0.00    -0.504 OA
ATOM     13  H   UNL     1      21.879  -1.919 -23.289  1.00  0.00     0.293 HD
ENDBRANCH   5  12
BRANCH   6  14
ATOM     14  O   UNL     1      22.316   1.326 -22.592  1.00  0.00    -0.502 OA
ATOM     15  H   UNL     1      22.035   2.236 -22.938  1.00  0.00     0.293 HD
ENDBRANCH   6  14
TORSDOF 4
ENDMDL
MODEL 6
REMARK VINA RESULT:    -4.565     15.609     17.380
REMARK INTER + INTRA:          -5.278
REMARK INTER:                  -5.233
REMARK INTRA:                  -0.045
REMARK UNBOUND:                -0.046
REMARK SMILES O=C([O-])c1cc(O)c(O)c(O)c1
REMARK SMILES IDX 4 1 5 2 12 3 6 4 10 5 8 6 2 7 1 8 3 9 7 10 11 12 9 14
REMARK H PARENT 7 11 11 13 9 15
REMARK Flexibility Score: inf
ROOT
ATOM      1  C   UNL     1       9.830  -5.969  -8.970  1.00  0.00     0.005 A 
ATOM      2  C   UNL     1       9.084  -5.392 -10.011  1.00  0.00     0.060 A 
ATOM      3  C   UNL     1       9.306  -5.955  -7.666  1.00  0.00     0.060 A 
ATOM      4  C   UNL     1       7.837  -4.811  -9.759  1.00  0.00     0.162 A 
ATOM      5  C   UNL     1       8.057  -5.374  -7.405  1.00  0.00     0.162 A 
ATOM      6  C   UNL     1       7.318  -4.800  -8.453  1.00  0.00     0.200 A 
ENDROOT
BRANCH   1   7
ATOM      7  C   UNL     1      11.149  -6.581  -9.247  1.00  0.00     0.072 C 
ATOM      8  O   UNL     1      12.172  -5.861  -9.392  1.00  0.00    -0.545 OA
ATOM      9  O   UNL     1      11.277  -7.962  -9.349  1.00  0.00    -0.545 OA
ENDBRANCH   1   7
BRANCH   4  10
ATOM     10  O   UNL     1       7.128  -4.248 -10.821  1.00  0.00    -0.504 OA
ATOM     11  H   UNL     1       6.202  -3.857 -10.703  1.00  0.00     0.293 HD
ENDBRANCH   4  10
BRANCH   5  12
ATOM     12  O   UNL     1       7.548  -5.367  -6.107  1.00  0.00    -0.504 OA
ATOM     13  H   UNL     1       8.148  -5.227  -5.302  1.00  0.00     0.293 HD
ENDBRANCH   5  12
BRANCH   6  14
ATOM     14  O   UNL     1       6.073  -4.218  -8.211  1.00  0.00    -0.502 OA
ATOM     15  H   UNL     1       5.400  -4.055  -8.951  1.00  0.00     0.293 HD
ENDBRANCH   6  14
TORSDOF 4
ENDMDL
MODEL 7
REMARK VINA RESULT:    -4.552     15.916     17.598
REMARK INTER + INTRA:          -5.263
REMARK INTER:                  -5.217
REMARK INTRA:                  -0.046
REMARK UNBOUND:                -0.046
REMARK SMILES O=C([O-])c1cc(O)c(O)c(O)c1
REMARK SMILES IDX 4 1 5 2 12 3 6 4 10 5 8 6 2 7 1 8 3 9 7 10 11 12 9 14
REMARK H PARENT 7 11 11 13 9 15
REMARK Flexibility Score: inf
ROOT
ATOM      1  C   UNL     1       9.832  -6.119  -8.744  1.00  0.00     0.005 A 
ATOM      2  C   UNL     1       9.246  -5.972  -7.476  1.00  0.00     0.060 A 
ATOM      3  C   UNL     1       9.167  -5.598  -9.867  1.00  0.00     0.060 A 
ATOM      4  C   UNL     1       8.019  -5.317  -7.328  1.00  0.00     0.162 A 
ATOM      5  C   UNL     1       7.936  -4.941  -9.727  1.00  0.00     0.162 A 
ATOM      6  C   UNL     1       7.358  -4.798  -8.454  1.00  0.00     0.200 A 
ENDROOT
BRANCH   1   7
ATOM      7  C   UNL     1      11.130  -6.814  -8.891  1.00  0.00     0.072 C 
ATOM      8  O   UNL     1      12.160  -6.179  -9.241  1.00  0.00    -0.545 OA
ATOM      9  O   UNL     1      11.231  -8.178  -8.642  1.00  0.00    -0.545 OA
ENDBRANCH   1   7
BRANCH   4  10
ATOM     10  O   UNL     1       7.471  -5.192  -6.050  1.00  0.00    -0.504 OA
ATOM     11  H   UNL     1       6.537  -5.516  -5.831  1.00  0.00     0.293 HD
ENDBRANCH   4  10
BRANCH   5  12
ATOM     12  O   UNL     1       7.286  -4.428 -10.849  1.00  0.00    -0.504 OA
ATOM     13  H   UNL     1       7.716  -3.722 -11.436  1.00  0.00     0.293 HD
ENDBRANCH   5  12
BRANCH   6  14
ATOM     14  O   UNL     1       6.134  -4.146  -8.296  1.00  0.00    -0.502 OA
ATOM     15  H   UNL     1       6.057  -3.248  -7.834  1.00  0.00     0.293 HD
ENDBRANCH   6  14
TORSDOF 4
ENDMDL
MODEL 8
REMARK VINA RESULT:    -4.512     16.455     18.443
REMARK INTER + INTRA:          -5.217
REMARK INTER:                  -5.172
REMARK INTRA:                  -0.045
REMARK UNBOUND:                -0.046
REMARK SMILES O=C([O-])c1cc(O)c(O)c(O)c1
REMARK SMILES IDX 4 1 5 2 12 3 6 4 10 5 8 6 2 7 1 8 3 9 7 10 11 12 9 14
REMARK H PARENT 7 11 11 13 9 15
REMARK Flexibility Score: inf
ROOT
ATOM      1  C   UNL     1       9.608  -7.127  -8.524  1.00  0.00     0.005 A 
ATOM      2  C   UNL     1      10.161  -6.080  -7.768  1.00  0.00     0.060 A 
ATOM      3  C   UNL     1       8.445  -7.764  -8.058  1.00  0.00     0.060 A 
ATOM      4  C   UNL     1       9.566  -5.674  -6.569  1.00  0.00     0.162 A 
ATOM      5  C   UNL     1       7.843  -7.363  -6.857  1.00  0.00     0.162 A 
ATOM      6  C   UNL     1       8.404  -6.314  -6.108  1.00  0.00     0.200 A 
ENDROOT
BRANCH   1   7
ATOM      7  C   UNL     1      10.244  -7.550  -9.791  1.00  0.00     0.072 C 
ATOM      8  O   UNL     1      11.290  -8.251  -9.780  1.00  0.00    -0.545 OA
ATOM      9  O   UNL     1       9.694  -7.179 -11.013  1.00  0.00    -0.545 OA
ENDBRANCH   1   7
BRANCH   4  10
ATOM     10  O   UNL     1      10.148  -4.630  -5.848  1.00  0.00    -0.504 OA
ATOM     11  H   UNL     1      11.003  -4.750  -5.320  1.00  0.00     0.293 HD
ENDBRANCH   4  10
BRANCH   5  12
ATOM     12  O   UNL     1       6.690  -8.003  -6.405  1.00  0.00    -0.504 OA
ATOM     13  H   UNL     1       5.985  -7.510  -5.869  1.00  0.00     0.293 HD
ENDBRANCH   5  12
BRANCH   6  14
ATOM     14  O   UNL     1       7.818  -5.902  -4.910  1.00  0.00    -0.502 OA
ATOM     15  H   UNL     1       7.942  -6.413  -4.044  1.00  0.00     0.293 HD
ENDBRANCH   6  14
TORSDOF 4
ENDMDL
MODEL 9
REMARK VINA RESULT:    -4.507     16.447     18.301
REMARK INTER + INTRA:          -5.212
REMARK INTER:                  -5.165
REMARK INTRA:                  -0.046
REMARK UNBOUND:                -0.046
REMARK SMILES O=C([O-])c1cc(O)c(O)c(O)c1
REMARK SMILES IDX 4 1 5 2 12 3 6 4 10 5 8 6 2 7 1 8 3 9 7 10 11 12 9 14
REMARK H PARENT 7 11 11 13 9 15
REMARK Flexibility Score: inf
ROOT
ATOM      1  C   UNL     1       9.594  -7.141  -8.551  1.00  0.00     0.005 A 
ATOM      2  C   UNL     1       8.454  -7.798  -8.061  1.00  0.00     0.060 A 
ATOM      3  C   UNL     1      10.142  -6.080  -7.810  1.00  0.00     0.060 A 
ATOM      4  C   UNL     1       7.868  -7.406  -6.853  1.00  0.00     0.162 A 
ATOM      5  C   UNL     1       9.561  -5.681  -6.598  1.00  0.00     0.162 A 
ATOM      6  C   UNL     1       8.420  -6.345  -6.116  1.00  0.00     0.200 A 
ENDROOT
BRANCH   1   7
ATOM      7  C   UNL     1      10.207  -7.563  -9.831  1.00  0.00     0.072 C 
ATOM      8  O   UNL     1      11.402  -7.959  -9.869  1.00  0.00    -0.545 OA
ATOM      9  O   UNL     1       9.470  -7.530 -11.009  1.00  0.00    -0.545 OA
ENDBRANCH   1   7
BRANCH   4  10
ATOM     10  O   UNL     1       6.735  -8.085  -6.401  1.00  0.00    -0.504 OA
ATOM     11  H   UNL     1       6.589  -8.296  -5.422  1.00  0.00     0.293 HD
ENDBRANCH   4  10
BRANCH   5  12
ATOM     12  O   UNL     1      10.113  -4.627  -5.872  1.00  0.00    -0.504 OA
ATOM     13  H   UNL     1      11.073  -4.652  -5.546  1.00  0.00     0.293 HD
ENDBRANCH   5  12
BRANCH   6  14
ATOM     14  O   UNL     1       7.828  -5.961  -4.911  1.00  0.00    -0.502 OA
ATOM     15  H   UNL     1       7.079  -5.280  -4.871  1.00  0.00     0.293 HD
ENDBRANCH   6  14
TORSDOF 4
ENDMDL
