MODEL 1
REMARK VINA RESULT:    -6.669      0.000      0.000
REMARK INTER + INTRA:          -8.955
REMARK INTER:                  -8.424
REMARK INTRA:                  -0.531
REMARK UNBOUND:                -0.531
REMARK SMILES Oc1ccc(CCc2cc(O)cc(O)c2)cc1
REMARK SMILES IDX 6 1 5 2 4 3 3 4 2 5 16 6 17 7 1 8 7 10 8 11 15 12 9 13 13 14
REMARK SMILES IDX 10 15 12 16 14 17 11 19
REMARK H PARENT 1 9 14 18 11 20
REMARK Flexibility Score: inf
ROOT
ATOM      1  C   UNL     1       0.471  -4.367  24.413  1.00  0.00     0.040 C 
ENDROOT
BRANCH   1   2
ATOM      2  C   UNL     1       1.530  -5.366  24.792  1.00  0.00    -0.047 A 
ATOM      3  C   UNL     1       1.323  -6.245  25.867  1.00  0.00     0.007 A 
ATOM      4  C   UNL     1       2.322  -7.151  26.240  1.00  0.00     0.046 A 
ATOM      5  C   UNL     1       3.540  -7.179  25.547  1.00  0.00     0.115 A 
ATOM      6  C   UNL     1       2.759  -5.389  24.110  1.00  0.00     0.007 A 
ATOM      7  C   UNL     1       3.755  -6.296  24.484  1.00  0.00     0.046 A 
BRANCH   5   8
ATOM      8  O   UNL     1       4.542  -8.077  25.909  1.00  0.00    -0.508 OA
ATOM      9  H   UNL     1       5.365  -8.211  25.332  1.00  0.00     0.293 HD
ENDBRANCH   5   8
ENDBRANCH   1   2
BRANCH   1  10
ATOM     10  C   UNL     1       0.068  -4.538  22.946  1.00  0.00     0.040 C 
BRANCH  10  11
ATOM     11  C   UNL     1       0.574  -3.386  22.121  1.00  0.00    -0.040 A 
ATOM     12  C   UNL     1       0.458  -3.412  20.722  1.00  0.00     0.050 A 
ATOM     13  C   UNL     1       1.216  -2.300  22.739  1.00  0.00     0.050 A 
ATOM     14  C   UNL     1       0.959  -2.353  19.951  1.00  0.00     0.119 A 
ATOM     15  C   UNL     1       1.716  -1.244  21.972  1.00  0.00     0.119 A 
ATOM     16  C   UNL     1       1.583  -1.270  20.577  1.00  0.00     0.092 A 
BRANCH  14  17
ATOM     17  O   UNL     1       0.841  -2.369  18.563  1.00  0.00    -0.508 OA
ATOM     18  H   UNL     1       0.621  -1.530  18.039  1.00  0.00     0.293 HD
ENDBRANCH  14  17
BRANCH  15  19
ATOM     19  O   UNL     1       2.344  -0.172  22.604  1.00  0.00    -0.508 OA
ATOM     20  H   UNL     1       2.266  -0.027  23.603  1.00  0.00     0.293 HD
ENDBRANCH  15  19
ENDBRANCH  10  11
ENDBRANCH   1  10
TORSDOF 6
ENDMDL
MODEL 2
REMARK VINA RESULT:    -6.668      0.091      2.036
REMARK INTER + INTRA:          -8.953
REMARK INTER:                  -8.462
REMARK INTRA:                  -0.491
REMARK UNBOUND:                -0.531
REMARK SMILES Oc1ccc(CCc2cc(O)cc(O)c2)cc1
REMARK SMILES IDX 6 1 5 2 4 3 3 4 2 5 16 6 17 7 1 8 7 10 8 11 15 12 9 13 13 14
REMARK SMILES IDX 10 15 12 16 14 17 11 19
REMARK H PARENT 1 9 14 18 11 20
REMARK Flexibility Score: inf
ROOT
ATOM      1  C   UNL     1       0.432  -4.347  24.382  1.00  0.00     0.040 C 
ENDROOT
BRANCH   1   2
ATOM      2  C   UNL     1       1.486  -5.359  24.738  1.00  0.00    -0.047 A 
ATOM      3  C   UNL     1       1.323  -6.190  25.859  1.00  0.00     0.007 A 
ATOM      4  C   UNL     1       2.318  -7.107  26.208  1.00  0.00     0.046 A 
ATOM      5  C   UNL     1       3.491  -7.197  25.446  1.00  0.00     0.115 A 
ATOM      6  C   UNL     1       2.670  -5.444  23.986  1.00  0.00     0.007 A 
ATOM      7  C   UNL     1       3.664  -6.363  24.337  1.00  0.00     0.046 A 
BRANCH   5   8
ATOM      8  O   UNL     1       4.490  -8.108  25.784  1.00  0.00    -0.508 OA
ATOM      9  H   UNL     1       5.284  -8.272  25.175  1.00  0.00     0.293 HD
ENDBRANCH   5   8
ENDBRANCH   1   2
BRANCH   1  10
ATOM     10  C   UNL     1       0.016  -4.494  22.915  1.00  0.00     0.040 C 
BRANCH  10  11
ATOM     11  C   UNL     1       0.588  -3.375  22.089  1.00  0.00    -0.040 A 
ATOM     12  C   UNL     1       1.244  -2.300  22.709  1.00  0.00     0.050 A 
ATOM     13  C   UNL     1       0.423  -3.369  20.694  1.00  0.00     0.050 A 
ATOM     14  C   UNL     1       1.748  -1.240  21.942  1.00  0.00     0.119 A 
ATOM     15  C   UNL     1       0.925  -2.313  19.926  1.00  0.00     0.119 A 
ATOM     16  C   UNL     1       1.591  -1.250  20.553  1.00  0.00     0.092 A 
BRANCH  14  17
ATOM     17  O   UNL     1       2.405  -0.173  22.551  1.00  0.00    -0.508 OA
ATOM     18  H   UNL     1       1.904   0.652  22.857  1.00  0.00     0.293 HD
ENDBRANCH  14  17
BRANCH  15  19
ATOM     19  O   UNL     1       0.756  -2.328  18.543  1.00  0.00    -0.508 OA
ATOM     20  H   UNL     1       0.417  -3.151  18.060  1.00  0.00     0.293 HD
ENDBRANCH  15  19
ENDBRANCH  10  11
ENDBRANCH   1  10
TORSDOF 6
ENDMDL
MODEL 3
REMARK VINA RESULT:    -6.333     15.370     16.619
REMARK INTER + INTRA:          -8.530
REMARK INTER:                  -7.998
REMARK INTRA:                  -0.532
REMARK UNBOUND:                -0.531
REMARK SMILES Oc1ccc(CCc2cc(O)cc(O)c2)cc1
REMARK SMILES IDX 6 1 5 2 4 3 3 4 2 5 16 6 17 7 1 8 7 10 8 11 15 12 9 13 13 14
REMARK SMILES IDX 10 15 12 16 14 17 11 19
REMARK H PARENT 1 9 14 18 11 20
REMARK Flexibility Score: inf
ROOT
ATOM      1  C   UNL     1      15.326  -4.941  29.376  1.00  0.00     0.040 C 
ENDROOT
BRANCH   1   2
ATOM      2  C   UNL     1      15.749  -3.923  30.399  1.00  0.00    -0.047 A 
ATOM      3  C   UNL     1      16.022  -2.600  30.012  1.00  0.00     0.007 A 
ATOM      4  C   UNL     1      16.447  -1.662  30.957  1.00  0.00     0.046 A 
ATOM      5  C   UNL     1      16.612  -2.038  32.297  1.00  0.00     0.115 A 
ATOM      6  C   UNL     1      15.930  -4.297  31.741  1.00  0.00     0.007 A 
ATOM      7  C   UNL     1      16.354  -3.358  32.684  1.00  0.00     0.046 A 
BRANCH   5   8
ATOM      8  O   UNL     1      17.035  -1.113  33.249  1.00  0.00    -0.508 OA
ATOM      9  H   UNL     1      17.384  -1.406  34.154  1.00  0.00     0.293 HD
ENDBRANCH   5   8
ENDBRANCH   1   2
BRANCH   1  10
ATOM     10  C   UNL     1      16.446  -5.957  29.132  1.00  0.00     0.040 C 
BRANCH  10  11
ATOM     11  C   UNL     1      16.873  -5.937  27.690  1.00  0.00    -0.040 A 
ATOM     12  C   UNL     1      16.878  -4.732  26.970  1.00  0.00     0.050 A 
ATOM     13  C   UNL     1      17.218  -7.131  27.036  1.00  0.00     0.050 A 
ATOM     14  C   UNL     1      17.245  -4.717  25.617  1.00  0.00     0.119 A 
ATOM     15  C   UNL     1      17.584  -7.119  25.687  1.00  0.00     0.119 A 
ATOM     16  C   UNL     1      17.600  -5.909  24.979  1.00  0.00     0.092 A 
BRANCH  14  17
ATOM     17  O   UNL     1      17.258  -3.523  24.898  1.00  0.00    -0.508 OA
ATOM     18  H   UNL     1      17.700  -3.457  23.989  1.00  0.00     0.293 HD
ENDBRANCH  14  17
BRANCH  15  19
ATOM     19  O   UNL     1      17.929  -8.314  25.057  1.00  0.00    -0.508 OA
ATOM     20  H   UNL     1      17.224  -8.936  24.680  1.00  0.00     0.293 HD
ENDBRANCH  15  19
ENDBRANCH  10  11
ENDBRANCH   1  10
TORSDOF 6
ENDMDL
MODEL 4
REMARK VINA RESULT:    -6.303      1.699      2.427
REMARK INTER + INTRA:          -8.492
REMARK INTER:                  -7.955
REMARK INTRA:                  -0.537
REMARK UNBOUND:                -0.531
REMARK SMILES Oc1ccc(CCc2cc(O)cc(O)c2)cc1
REMARK SMILES IDX 6 1 5 2 4 3 3 4 2 5 16 6 17 7 1 8 7 10 8 11 15 12 9 13 13 14
REMARK SMILES IDX 10 15 12 16 14 17 11 19
REMARK H PARENT 1 9 14 18 11 20
REMARK Flexibility Score: inf
ROOT
ATOM      1  C   UNL     1       4.345  -4.869  24.001  1.00  0.00     0.040 C 
ENDROOT
BRANCH   1   2
ATOM      2  C   UNL     1       4.188  -6.054  24.915  1.00  0.00    -0.047 A 
ATOM      3  C   UNL     1       2.924  -6.632  25.116  1.00  0.00     0.007 A 
ATOM      4  C   UNL     1       2.774  -7.712  25.991  1.00  0.00     0.046 A 
ATOM      5  C   UNL     1       3.883  -8.218  26.682  1.00  0.00     0.115 A 
ATOM      6  C   UNL     1       5.294  -6.556  25.622  1.00  0.00     0.007 A 
ATOM      7  C   UNL     1       5.141  -7.636  26.496  1.00  0.00     0.046 A 
BRANCH   5   8
ATOM      8  O   UNL     1       3.746  -9.293  27.557  1.00  0.00    -0.508 OA
ATOM      9  H   UNL     1       4.012 -10.233  27.286  1.00  0.00     0.293 HD
ENDBRANCH   5   8
ENDBRANCH   1   2
BRANCH   1  10
ATOM     10  C   UNL     1       3.992  -5.250  22.560  1.00  0.00     0.040 C 
BRANCH  10  11
ATOM     11  C   UNL     1       2.876  -4.386  22.042  1.00  0.00    -0.040 A 
ATOM     12  C   UNL     1       2.662  -4.258  20.661  1.00  0.00     0.050 A 
ATOM     13  C   UNL     1       2.074  -3.654  22.935  1.00  0.00     0.050 A 
ATOM     14  C   UNL     1       1.642  -3.426  20.177  1.00  0.00     0.119 A 
ATOM     15  C   UNL     1       1.057  -2.824  22.454  1.00  0.00     0.119 A 
ATOM     16  C   UNL     1       0.840  -2.714  21.073  1.00  0.00     0.092 A 
BRANCH  14  17
ATOM     17  O   UNL     1       1.420  -3.299  18.807  1.00  0.00    -0.508 OA
ATOM     18  H   UNL     1       0.661  -2.735  18.443  1.00  0.00     0.293 HD
ENDBRANCH  14  17
BRANCH  15  19
ATOM     19  O   UNL     1       0.267  -2.112  23.355  1.00  0.00    -0.508 OA
ATOM     20  H   UNL     1      -0.070  -2.534  24.212  1.00  0.00     0.293 HD
ENDBRANCH  15  19
ENDBRANCH  10  11
ENDBRANCH   1  10
TORSDOF 6
ENDMDL
MODEL 5
REMARK VINA RESULT:    -6.275     12.755     15.649
REMARK INTER + INTRA:          -8.456
REMARK INTER:                  -7.907
REMARK INTRA:                  -0.549
REMARK UNBOUND:                -0.531
REMARK SMILES Oc1ccc(CCc2cc(O)cc(O)c2)cc1
REMARK SMILES IDX 6 1 5 2 4 3 3 4 2 5 16 6 17 7 1 8 7 10 8 11 15 12 9 13 13 14
REMARK SMILES IDX 10 15 12 16 14 17 11 19
REMARK H PARENT 1 9 14 18 11 20
REMARK Flexibility Score: inf
ROOT
ATOM      1  C   UNL     1      17.036  -6.182  22.723  1.00  0.00     0.040 C 
ENDROOT
BRANCH   1   2
ATOM      2  C   UNL     1      15.884  -6.759  21.947  1.00  0.00    -0.047 A 
ATOM      3  C   UNL     1      16.010  -7.007  20.570  1.00  0.00     0.007 A 
ATOM      4  C   UNL     1      14.928  -7.512  19.843  1.00  0.00     0.046 A 
ATOM      5  C   UNL     1      13.707  -7.764  20.482  1.00  0.00     0.115 A 
ATOM      6  C   UNL     1      14.653  -7.001  22.579  1.00  0.00     0.007 A 
ATOM      7  C   UNL     1      13.573  -7.506  21.850  1.00  0.00     0.046 A 
BRANCH   5   8
ATOM      8  O   UNL     1      12.621  -8.267  19.768  1.00  0.00    -0.508 OA
ATOM      9  H   UNL     1      11.874  -8.775  20.228  1.00  0.00     0.293 HD
ENDBRANCH   5   8
ENDBRANCH   1   2
BRANCH   1  10
ATOM     10  C   UNL     1      17.479  -7.146  23.828  1.00  0.00     0.040 C 
BRANCH  10  11
ATOM     11  C   UNL     1      17.310  -6.512  25.182  1.00  0.00    -0.040 A 
ATOM     12  C   UNL     1      17.357  -7.299  26.343  1.00  0.00     0.050 A 
ATOM     13  C   UNL     1      17.049  -5.136  25.292  1.00  0.00     0.050 A 
ATOM     14  C   UNL     1      17.168  -6.714  27.603  1.00  0.00     0.119 A 
ATOM     15  C   UNL     1      16.859  -4.550  26.547  1.00  0.00     0.119 A 
ATOM     16  C   UNL     1      16.922  -5.341  27.703  1.00  0.00     0.092 A 
BRANCH  14  17
ATOM     17  O   UNL     1      17.219  -7.488  28.760  1.00  0.00    -0.508 OA
ATOM     18  H   UNL     1      16.965  -8.469  28.753  1.00  0.00     0.293 HD
ENDBRANCH  14  17
BRANCH  15  19
ATOM     19  O   UNL     1      16.608  -3.182  26.637  1.00  0.00    -0.508 OA
ATOM     20  H   UNL     1      15.715  -2.828  26.957  1.00  0.00     0.293 HD
ENDBRANCH  15  19
ENDBRANCH  10  11
ENDBRANCH   1  10
TORSDOF 6
ENDMDL
MODEL 6
REMARK VINA RESULT:    -6.269      1.833      6.697
REMARK INTER + INTRA:          -8.448
REMARK INTER:                  -7.949
REMARK INTRA:                  -0.500
REMARK UNBOUND:                -0.531
REMARK SMILES Oc1ccc(CCc2cc(O)cc(O)c2)cc1
REMARK SMILES IDX 6 1 5 2 4 3 3 4 2 5 16 6 17 7 1 8 7 10 8 11 15 12 9 13 13 14
REMARK SMILES IDX 10 15 12 16 14 17 11 19
REMARK H PARENT 1 9 14 18 11 20
REMARK Flexibility Score: inf
ROOT
ATOM      1  C   UNL     1       1.868  -4.180  24.315  1.00  0.00     0.040 C 
ENDROOT
BRANCH   1   2
ATOM      2  C   UNL     1       1.720  -3.978  22.832  1.00  0.00    -0.047 A 
ATOM      3  C   UNL     1       2.822  -4.156  21.979  1.00  0.00     0.007 A 
ATOM      4  C   UNL     1       2.693  -3.935  20.604  1.00  0.00     0.046 A 
ATOM      5  C   UNL     1       1.463  -3.526  20.070  1.00  0.00     0.115 A 
ATOM      6  C   UNL     1       0.494  -3.555  22.292  1.00  0.00     0.007 A 
ATOM      7  C   UNL     1       0.367  -3.336  20.918  1.00  0.00     0.046 A 
BRANCH   5   8
ATOM      8  O   UNL     1       1.321  -3.304  18.702  1.00  0.00    -0.508 OA
ATOM      9  H   UNL     1       1.822  -2.557  18.232  1.00  0.00     0.293 HD
ENDBRANCH   5   8
ENDBRANCH   1   2
BRANCH   1  10
ATOM     10  C   UNL     1       1.536  -5.625  24.698  1.00  0.00     0.040 C 
BRANCH  10  11
ATOM     11  C   UNL     1       2.756  -6.325  25.231  1.00  0.00    -0.040 A 
ATOM     12  C   UNL     1       2.622  -7.469  26.034  1.00  0.00     0.050 A 
ATOM     13  C   UNL     1       4.037  -5.809  24.975  1.00  0.00     0.050 A 
ATOM     14  C   UNL     1       3.758  -8.102  26.558  1.00  0.00     0.119 A 
ATOM     15  C   UNL     1       5.171  -6.439  25.497  1.00  0.00     0.119 A 
ATOM     16  C   UNL     1       5.029  -7.589  26.287  1.00  0.00     0.092 A 
BRANCH  14  17
ATOM     17  O   UNL     1       3.632  -9.241  27.351  1.00  0.00    -0.508 OA
ATOM     18  H   UNL     1       4.443  -9.772  27.648  1.00  0.00     0.293 HD
ENDBRANCH  14  17
BRANCH  15  19
ATOM     19  O   UNL     1       6.434  -5.915  25.227  1.00  0.00    -0.508 OA
ATOM     20  H   UNL     1       6.646  -4.937  25.381  1.00  0.00     0.293 HD
ENDBRANCH  15  19
ENDBRANCH  10  11
ENDBRANCH   1  10
TORSDOF 6
ENDMDL
MODEL 7
REMARK VINA RESULT:    -6.250     12.755     15.640
REMARK INTER + INTRA:          -8.424
REMARK INTER:                  -7.881
REMARK INTRA:                  -0.544
REMARK UNBOUND:                -0.531
REMARK SMILES Oc1ccc(CCc2cc(O)cc(O)c2)cc1
REMARK SMILES IDX 6 1 5 2 4 3 3 4 2 5 16 6 17 7 1 8 7 10 8 11 15 12 9 13 13 14
REMARK SMILES IDX 10 15 12 16 14 17 11 19
REMARK H PARENT 1 9 14 18 11 20
REMARK Flexibility Score: inf
ROOT
ATOM      1  C   UNL     1      17.021  -6.169  22.713  1.00  0.00     0.040 C 
ENDROOT
BRANCH   1   2
ATOM      2  C   UNL     1      15.877  -6.757  21.933  1.00  0.00    -0.047 A 
ATOM      3  C   UNL     1      16.021  -7.034  20.563  1.00  0.00     0.007 A 
ATOM      4  C   UNL     1      14.947  -7.550  19.832  1.00  0.00     0.046 A 
ATOM      5  C   UNL     1      13.716  -7.785  20.460  1.00  0.00     0.115 A 
ATOM      6  C   UNL     1      14.637  -6.982  22.553  1.00  0.00     0.007 A 
ATOM      7  C   UNL     1      13.565  -7.498  21.820  1.00  0.00     0.046 A 
BRANCH   5   8
ATOM      8  O   UNL     1      12.639  -8.299  19.741  1.00  0.00    -0.508 OA
ATOM      9  H   UNL     1      11.702  -7.928  19.854  1.00  0.00     0.293 HD
ENDBRANCH   5   8
ENDBRANCH   1   2
BRANCH   1  10
ATOM     10  C   UNL     1      17.463  -7.124  23.825  1.00  0.00     0.040 C 
BRANCH  10  11
ATOM     11  C   UNL     1      17.242  -6.501  25.176  1.00  0.00    -0.040 A 
ATOM     12  C   UNL     1      17.094  -5.110  25.299  1.00  0.00     0.050 A 
ATOM     13  C   UNL     1      17.237  -7.299  26.332  1.00  0.00     0.050 A 
ATOM     14  C   UNL     1      16.920  -4.526  26.562  1.00  0.00     0.119 A 
ATOM     15  C   UNL     1      17.064  -6.719  27.592  1.00  0.00     0.119 A 
ATOM     16  C   UNL     1      16.902  -5.330  27.705  1.00  0.00     0.092 A 
BRANCH  14  17
ATOM     17  O   UNL     1      16.766  -3.147  26.691  1.00  0.00    -0.508 OA
ATOM     18  H   UNL     1      17.540  -2.511  26.538  1.00  0.00     0.293 HD
ENDBRANCH  14  17
BRANCH  15  19
ATOM     19  O   UNL     1      17.055  -7.528  28.727  1.00  0.00    -0.508 OA
ATOM     20  H   UNL     1      16.190  -7.872  29.125  1.00  0.00     0.293 HD
ENDBRANCH  15  19
ENDBRANCH  10  11
ENDBRANCH   1  10
TORSDOF 6
ENDMDL
