MODEL 1
REMARK VINA RESULT:    -3.677      0.000      0.000
REMARK INTER + INTRA:          -4.534
REMARK INTER:                  -4.430
REMARK INTRA:                  -0.104
REMARK UNBOUND:                -0.104
REMARK SMILES CC[C@@H](C)[C@@H]([NH3+])C(=O)[O-]
REMARK SMILES IDX 3 1 4 2 5 3 6 4 7 8 8 9 9 10 2 11 1 12
REMARK H PARENT 6 5 6 6 6 7
REMARK Flexibility Score: inf
ROOT
ATOM      1  C   UNL     1    -116.061 -98.824  33.718  1.00  0.00     0.050 C 
ATOM      2  C   UNL     1    -115.530 -99.943  32.804  1.00  0.00     0.014 C 
ENDROOT
BRANCH   1   3
ATOM      3  C   UNL     1    -115.530 -99.007  35.180  1.00  0.00     0.230 C 
BRANCH   3   4
ATOM      4  N   UNL     1    -114.695 -97.881  35.629  1.00  0.00    -0.350 N 
ATOM      5  H   UNL     1    -113.837 -97.824  35.034  1.00  0.00     0.345 HD
ATOM      6  H   UNL     1    -114.401 -97.999  36.625  1.00  0.00     0.345 HD
ATOM      7  H   UNL     1    -115.211 -96.978  35.526  1.00  0.00     0.345 HD
ENDBRANCH   3   4
BRANCH   3   8
ATOM      8  C   UNL     1    -116.649 -99.283  36.158  1.00  0.00     0.099 C 
ATOM      9  O   UNL     1    -117.758 -99.709  35.738  1.00  0.00    -0.544 OA
ATOM     10  O   UNL     1    -116.465 -99.106  37.524  1.00  0.00    -0.544 OA
ENDBRANCH   3   8
ENDBRANCH   1   3
BRANCH   1  11
ATOM     11  C   UNL     1    -115.759 -97.447  33.071  1.00  0.00     0.006 C 
ATOM     12  C   UNL     1    -117.009 -96.684  32.637  1.00  0.00     0.004 C 
ENDBRANCH   1  11
TORSDOF 4
ENDMDL
MODEL 2
REMARK VINA RESULT:    -3.641      1.785      2.102
REMARK INTER + INTRA:          -4.490
REMARK INTER:                  -4.448
REMARK INTRA:                  -0.042
REMARK UNBOUND:                -0.104
REMARK SMILES CC[C@@H](C)[C@@H]([NH3+])C(=O)[O-]
REMARK SMILES IDX 3 1 4 2 5 3 6 4 7 8 8 9 9 10 2 11 1 12
REMARK H PARENT 6 5 6 6 6 7
REMARK Flexibility Score: inf
ROOT
ATOM      1  C   UNL     1    -117.303 -97.934  32.939  1.00  0.00     0.050 C 
ATOM      2  C   UNL     1    -117.275 -99.306  32.245  1.00  0.00     0.014 C 
ENDROOT
BRANCH   1   3
ATOM      3  C   UNL     1    -115.968 -97.681  33.718  1.00  0.00     0.230 C 
BRANCH   3   4
ATOM      4  N   UNL     1    -115.649 -96.251  33.855  1.00  0.00    -0.350 N 
ATOM      5  H   UNL     1    -114.613 -96.131  33.928  1.00  0.00     0.345 HD
ATOM      6  H   UNL     1    -116.092 -95.843  34.709  1.00  0.00     0.345 HD
ATOM      7  H   UNL     1    -115.971 -95.721  33.013  1.00  0.00     0.345 HD
ENDBRANCH   3   4
BRANCH   3   8
ATOM      8  C   UNL     1    -115.956 -98.376  35.060  1.00  0.00     0.099 C 
ATOM      9  O   UNL     1    -117.042 -98.708  35.605  1.00  0.00    -0.544 OA
ATOM     10  O   UNL     1    -114.758 -98.687  35.693  1.00  0.00    -0.544 OA
ENDBRANCH   3   8
ENDBRANCH   1   3
BRANCH   1  11
ATOM     11  C   UNL     1    -117.682 -96.843  31.903  1.00  0.00     0.006 C 
ATOM     12  C   UNL     1    -118.530 -97.364  30.744  1.00  0.00     0.004 C 
ENDBRANCH   1  11
TORSDOF 4
ENDMDL
MODEL 3
REMARK VINA RESULT:    -3.616      1.779      2.230
REMARK INTER + INTRA:          -4.459
REMARK INTER:                  -4.399
REMARK INTRA:                  -0.061
REMARK UNBOUND:                -0.104
REMARK SMILES CC[C@@H](C)[C@@H]([NH3+])C(=O)[O-]
REMARK SMILES IDX 3 1 4 2 5 3 6 4 7 8 8 9 9 10 2 11 1 12
REMARK H PARENT 6 5 6 6 6 7
REMARK Flexibility Score: inf
ROOT
ATOM      1  C   UNL     1    -116.148 -98.540  33.742  1.00  0.00     0.050 C 
ATOM      2  C   UNL     1    -115.800 -97.088  33.372  1.00  0.00     0.014 C 
ENDROOT
BRANCH   1   3
ATOM      3  C   UNL     1    -116.907 -98.594  35.112  1.00  0.00     0.230 C 
BRANCH   3   4
ATOM      4  N   UNL     1    -118.086 -99.472  35.077  1.00  0.00    -0.350 N 
ATOM      5  H   UNL     1    -118.553 -99.465  36.013  1.00  0.00     0.345 HD
ATOM      6  H   UNL     1    -117.821-100.456  34.846  1.00  0.00     0.345 HD
ATOM      7  H   UNL     1    -118.780 -99.128  34.375  1.00  0.00     0.345 HD
ENDBRANCH   3   4
BRANCH   3   8
ATOM      8  C   UNL     1    -115.986 -98.958  36.255  1.00  0.00     0.099 C 
ATOM      9  O   UNL     1    -116.437 -99.020  37.429  1.00  0.00    -0.544 OA
ATOM     10  O   UNL     1    -114.648 -99.258  36.026  1.00  0.00    -0.544 OA
ENDBRANCH   3   8
ENDBRANCH   1   3
BRANCH   1  11
ATOM     11  C   UNL     1    -116.883 -99.211  32.552  1.00  0.00     0.006 C 
ATOM     12  C   UNL     1    -117.827 -98.272  31.804  1.00  0.00     0.004 C 
ENDBRANCH   1  11
TORSDOF 4
ENDMDL
MODEL 4
REMARK VINA RESULT:    -3.584      6.946      8.877
REMARK INTER + INTRA:          -4.421
REMARK INTER:                  -4.361
REMARK INTRA:                  -0.060
REMARK UNBOUND:                -0.104
REMARK SMILES CC[C@@H](C)[C@@H]([NH3+])C(=O)[O-]
REMARK SMILES IDX 3 1 4 2 5 3 6 4 7 8 8 9 9 10 2 11 1 12
REMARK H PARENT 6 5 6 6 6 7
REMARK Flexibility Score: inf
ROOT
ATOM      1  C   UNL     1    -117.870 -98.291  43.526  1.00  0.00     0.050 C 
ATOM      2  C   UNL     1    -118.111 -99.714  44.059  1.00  0.00     0.014 C 
ENDROOT
BRANCH   1   3
ATOM      3  C   UNL     1    -117.941 -98.268  41.961  1.00  0.00     0.230 C 
BRANCH   3   4
ATOM      4  N   UNL     1    -118.336 -96.956  41.427  1.00  0.00    -0.350 N 
ATOM      5  H   UNL     1    -118.849 -97.086  40.525  1.00  0.00     0.345 HD
ATOM      6  H   UNL     1    -117.502 -96.351  41.249  1.00  0.00     0.345 HD
ATOM      7  H   UNL     1    -118.980 -96.468  42.090  1.00  0.00     0.345 HD
ENDBRANCH   3   4
BRANCH   3   8
ATOM      8  C   UNL     1    -116.655 -98.753  41.329  1.00  0.00     0.099 C 
ATOM      9  O   UNL     1    -116.655 -99.150  40.134  1.00  0.00    -0.544 OA
ATOM     10  O   UNL     1    -115.460 -98.739  42.039  1.00  0.00    -0.544 OA
ENDBRANCH   3   8
ENDBRANCH   1   3
BRANCH   1  11
ATOM     11  C   UNL     1    -118.825 -97.305  44.246  1.00  0.00     0.006 C 
ATOM     12  C   UNL     1    -118.417 -96.993  45.685  1.00  0.00     0.004 C 
ENDBRANCH   1  11
TORSDOF 4
ENDMDL
MODEL 5
REMARK VINA RESULT:    -3.417      3.923      4.591
REMARK INTER + INTRA:          -4.220
REMARK INTER:                  -4.100
REMARK INTRA:                  -0.121
REMARK UNBOUND:                -0.104
REMARK SMILES CC[C@@H](C)[C@@H]([NH3+])C(=O)[O-]
REMARK SMILES IDX 3 1 4 2 5 3 6 4 7 8 8 9 9 10 2 11 1 12
REMARK H PARENT 6 5 6 6 6 7
REMARK Flexibility Score: inf
ROOT
ATOM      1  C   UNL     1    -116.866 -98.627  32.546  1.00  0.00     0.050 C 
ATOM      2  C   UNL     1    -116.566-100.111  32.817  1.00  0.00     0.014 C 
ENDROOT
BRANCH   1   3
ATOM      3  C   UNL     1    -118.363 -98.433  32.130  1.00  0.00     0.230 C 
BRANCH   3   4
ATOM      4  N   UNL     1    -119.125 -97.625  33.095  1.00  0.00    -0.350 N 
ATOM      5  H   UNL     1    -119.073 -98.071  34.040  1.00  0.00     0.345 HD
ATOM      6  H   UNL     1    -120.130 -97.549  32.819  1.00  0.00     0.345 HD
ATOM      7  H   UNL     1    -118.716 -96.666  33.174  1.00  0.00     0.345 HD
ENDBRANCH   3   4
BRANCH   3   8
ATOM      8  C   UNL     1    -118.494 -97.879  30.728  1.00  0.00     0.099 C 
ATOM      9  O   UNL     1    -118.003 -96.753  30.451  1.00  0.00    -0.544 OA
ATOM     10  O   UNL     1    -119.121 -98.611  29.727  1.00  0.00    -0.544 OA
ENDBRANCH   3   8
ENDBRANCH   1   3
BRANCH   1  11
ATOM     11  C   UNL     1    -116.402 -97.780  33.760  1.00  0.00     0.006 C 
ATOM     12  C   UNL     1    -115.820 -96.421  33.376  1.00  0.00     0.004 C 
ENDBRANCH   1  11
TORSDOF 4
ENDMDL
MODEL 6
REMARK VINA RESULT:    -3.301      1.833      2.130
REMARK INTER + INTRA:          -4.080
REMARK INTER:                  -3.963
REMARK INTRA:                  -0.116
REMARK UNBOUND:                -0.104
REMARK SMILES CC[C@@H](C)[C@@H]([NH3+])C(=O)[O-]
REMARK SMILES IDX 3 1 4 2 5 3 6 4 7 8 8 9 9 10 2 11 1 12
REMARK H PARENT 6 5 6 6 6 7
REMARK Flexibility Score: inf
ROOT
ATOM      1  C   UNL     1    -117.479 -98.412  34.127  1.00  0.00     0.050 C 
ATOM      2  C   UNL     1    -118.896 -98.934  33.833  1.00  0.00     0.014 C 
ENDROOT
BRANCH   1   3
ATOM      3  C   UNL     1    -116.565 -99.566  34.661  1.00  0.00     0.230 C 
BRANCH   3   4
ATOM      4  N   UNL     1    -115.603-100.044  33.655  1.00  0.00    -0.350 N 
ATOM      5  H   UNL     1    -115.581-101.090  33.663  1.00  0.00     0.345 HD
ATOM      6  H   UNL     1    -114.639 -99.691  33.853  1.00  0.00     0.345 HD
ATOM      7  H   UNL     1    -115.892 -99.740  32.698  1.00  0.00     0.345 HD
ENDBRANCH   3   4
BRANCH   3   8
ATOM      8  C   UNL     1    -115.869 -99.186  35.948  1.00  0.00     0.099 C 
ATOM      9  O   UNL     1    -114.615 -99.267  36.031  1.00  0.00    -0.544 OA
ATOM     10  O   UNL     1    -116.591 -98.716  37.039  1.00  0.00    -0.544 OA
ENDBRANCH   3   8
ENDBRANCH   1   3
BRANCH   1  11
ATOM     11  C   UNL     1    -116.940 -97.663  32.880  1.00  0.00     0.006 C 
ATOM     12  C   UNL     1    -116.026 -96.486  33.217  1.00  0.00     0.004 C 
ENDBRANCH   1  11
TORSDOF 4
ENDMDL
MODEL 7
REMARK VINA RESULT:    -3.277      6.156      7.985
REMARK INTER + INTRA:          -4.052
REMARK INTER:                  -4.157
REMARK INTRA:                   0.106
REMARK UNBOUND:                -0.104
REMARK SMILES CC[C@@H](C)[C@@H]([NH3+])C(=O)[O-]
REMARK SMILES IDX 3 1 4 2 5 3 6 4 7 8 8 9 9 10 2 11 1 12
REMARK H PARENT 6 5 6 6 6 7
REMARK Flexibility Score: inf
ROOT
ATOM      1  C   UNL     1    -117.333 -98.397  42.544  1.00  0.00     0.050 C 
ATOM      2  C   UNL     1    -115.916 -98.627  41.991  1.00  0.00     0.014 C 
ENDROOT
BRANCH   1   3
ATOM      3  C   UNL     1    -118.342 -98.121  41.379  1.00  0.00     0.230 C 
BRANCH   3   4
ATOM      4  N   UNL     1    -118.370 -96.708  40.969  1.00  0.00    -0.350 N 
ATOM      5  H   UNL     1    -117.739 -96.153  41.592  1.00  0.00     0.345 HD
ATOM      6  H   UNL     1    -119.335 -96.312  41.036  1.00  0.00     0.345 HD
ATOM      7  H   UNL     1    -118.021 -96.603  39.990  1.00  0.00     0.345 HD
ENDBRANCH   3   4
BRANCH   3   8
ATOM      8  C   UNL     1    -118.101 -99.030  40.195  1.00  0.00     0.099 C 
ATOM      9  O   UNL     1    -118.718-100.125  40.109  1.00  0.00    -0.544 OA
ATOM     10  O   UNL     1    -117.229 -98.662  39.177  1.00  0.00    -0.544 OA
ENDBRANCH   3   8
ENDBRANCH   1   3
BRANCH   1  11
ATOM     11  C   UNL     1    -117.713 -99.569  43.486  1.00  0.00     0.006 C 
ATOM     12  C   UNL     1    -117.870 -99.157  44.948  1.00  0.00     0.004 C 
ENDBRANCH   1  11
TORSDOF 4
ENDMDL
MODEL 8
REMARK VINA RESULT:    -3.277      3.885      4.787
REMARK INTER + INTRA:          -4.051
REMARK INTER:                  -3.979
REMARK INTRA:                  -0.072
REMARK UNBOUND:                -0.104
REMARK SMILES CC[C@@H](C)[C@@H]([NH3+])C(=O)[O-]
REMARK SMILES IDX 3 1 4 2 5 3 6 4 7 8 8 9 9 10 2 11 1 12
REMARK H PARENT 6 5 6 6 6 7
REMARK Flexibility Score: inf
ROOT
ATOM      1  C   UNL     1    -117.429 -98.880  32.448  1.00  0.00     0.050 C 
ATOM      2  C   UNL     1    -118.318 -99.718  33.382  1.00  0.00     0.014 C 
ENDROOT
BRANCH   1   3
ATOM      3  C   UNL     1    -118.099 -97.498  32.141  1.00  0.00     0.230 C 
BRANCH   3   4
ATOM      4  N   UNL     1    -117.281 -96.357  32.582  1.00  0.00    -0.350 N 
ATOM      5  H   UNL     1    -116.300 -96.676  32.752  1.00  0.00     0.345 HD
ATOM      6  H   UNL     1    -117.653 -95.942  33.467  1.00  0.00     0.345 HD
ATOM      7  H   UNL     1    -117.251 -95.619  31.842  1.00  0.00     0.345 HD
ENDBRANCH   3   4
BRANCH   3   8
ATOM      8  C   UNL     1    -118.483 -97.366  30.684  1.00  0.00     0.099 C 
ATOM      9  O   UNL     1    -118.817 -98.388  30.029  1.00  0.00    -0.544 OA
ATOM     10  O   UNL     1    -118.506 -96.124  30.061  1.00  0.00    -0.544 OA
ENDBRANCH   3   8
ENDBRANCH   1   3
BRANCH   1  11
ATOM     11  C   UNL     1    -115.995 -98.805  33.034  1.00  0.00     0.006 C 
ATOM     12  C   UNL     1    -115.230-100.125  32.958  1.00  0.00     0.004 C 
ENDBRANCH   1  11
TORSDOF 4
ENDMDL
MODEL 9
REMARK VINA RESULT:    -3.241      2.336      3.482
REMARK INTER + INTRA:          -4.008
REMARK INTER:                  -4.133
REMARK INTRA:                   0.124
REMARK UNBOUND:                -0.104
REMARK SMILES CC[C@@H](C)[C@@H]([NH3+])C(=O)[O-]
REMARK SMILES IDX 3 1 4 2 5 3 6 4 7 8 8 9 9 10 2 11 1 12
REMARK H PARENT 6 5 6 6 6 7
REMARK Flexibility Score: inf
ROOT
ATOM      1  C   UNL     1    -115.686 -98.772  33.605  1.00  0.00     0.050 C 
ATOM      2  C   UNL     1    -116.386 -99.786  32.684  1.00  0.00     0.014 C 
ENDROOT
BRANCH   1   3
ATOM      3  C   UNL     1    -116.551 -97.476  33.758  1.00  0.00     0.230 C 
BRANCH   3   4
ATOM      4  N   UNL     1    -115.755 -96.243  33.656  1.00  0.00    -0.350 N 
ATOM      5  H   UNL     1    -116.376 -95.414  33.804  1.00  0.00     0.345 HD
ATOM      6  H   UNL     1    -115.305 -96.157  32.716  1.00  0.00     0.345 HD
ATOM      7  H   UNL     1    -115.016 -96.221  34.394  1.00  0.00     0.345 HD
ENDBRANCH   3   4
BRANCH   3   8
ATOM      8  C   UNL     1    -117.717 -97.457  32.795  1.00  0.00     0.099 C 
ATOM      9  O   UNL     1    -118.847 -97.867  33.170  1.00  0.00    -0.544 OA
ATOM     10  O   UNL     1    -117.570 -96.962  31.504  1.00  0.00    -0.544 OA
ENDBRANCH   3   8
ENDBRANCH   1   3
BRANCH   1  11
ATOM     11  C   UNL     1    -115.299 -99.470  34.935  1.00  0.00     0.006 C 
ATOM     12  C   UNL     1    -115.996 -98.886  36.162  1.00  0.00     0.004 C 
ENDBRANCH   1  11
TORSDOF 4
ENDMDL
