MODEL 1
REMARK VINA RESULT:    -7.705      0.000      0.000
REMARK INTER + INTRA:          -7.931
REMARK INTER:                  -7.931
REMARK INTRA:                   0.000
REMARK UNBOUND:                 0.000
REMARK SMILES C[C@@H]1CC[C@@]2(OC1)O[C@H]1C[C@H]3[C@H]4CC=C5C[C@H](O)CC[C@]5(C)[C@@H]4CC[C@@]3(C)[C@H]1[C@@H]2C
REMARK SMILES IDX 1 1 2 2 3 3 4 4 5 5 29 6 28 7 9 8 8 9 10 10 11 11 26 12
REMARK SMILES IDX 25 13 24 14 23 15 12 16 13 17 14 18 15 19 21 20 20 21 19 22
REMARK SMILES IDX 17 23 16 24 22 25 27 26 30 27 6 28 7 29 18 30
REMARK H PARENT 18 31
REMARK Flexibility Score: inf
ROOT
ATOM      1  C   UNL     1     178.877 172.857 173.484  1.00  0.00     0.010 C 
ATOM      2  C   UNL     1     177.691 172.553 172.560  1.00  0.00     0.012 C 
ATOM      3  C   UNL     1     176.371 172.410 173.356  1.00  0.00     0.011 C 
ATOM      4  C   UNL     1     176.024 170.939 173.582  1.00  0.00     0.066 C 
ATOM      5  C   UNL     1     175.953 170.170 172.221  1.00  0.00     0.171 C 
ATOM      6  C   UNL     1     174.479 170.062 171.723  1.00  0.00     0.052 C 
ATOM      7  C   UNL     1     174.330 168.585 171.359  1.00  0.00     0.033 C 
ATOM      8  C   UNL     1     175.724 168.021 171.540  1.00  0.00     0.126 C 
ATOM      9  O   UNL     1     176.425 168.854 172.430  1.00  0.00    -0.346 OA
ATOM     10  C   UNL     1     175.564 166.611 172.114  1.00  0.00     0.037 C 
ATOM     11  C   UNL     1     174.058 166.308 172.075  1.00  0.00     0.002 C 
ATOM     12  C   UNL     1     173.387 167.691 172.225  1.00  0.00    -0.024 C 
ATOM     13  C   UNL     1     173.353 168.107 173.731  1.00  0.00     0.008 C 
ATOM     14  C   UNL     1     172.756 167.032 174.642  1.00  0.00     0.005 C 
ATOM     15  C   UNL     1     173.526 165.693 174.543  1.00  0.00     0.003 C 
ATOM     16  C   UNL     1     173.564 165.216 173.074  1.00  0.00     0.000 C 
ATOM     17  C   UNL     1     174.436 163.957 172.977  1.00  0.00     0.031 C 
ATOM     18  C   UNL     1     173.941 162.885 173.893  1.00  0.00    -0.027 C 
ATOM     19  C   UNL     1     173.358 163.149 175.080  1.00  0.00    -0.065 C 
ATOM     20  C   UNL     1     172.981 164.572 175.532  1.00  0.00    -0.008 C 
ATOM     21  C   UNL     1     171.421 164.608 175.647  1.00  0.00     0.014 C 
ATOM     22  C   UNL     1     170.814 163.433 176.443  1.00  0.00     0.033 C 
ATOM     23  C   UNL     1     171.278 162.063 175.918  1.00  0.00     0.118 C 
ATOM     24  C   UNL     1     172.807 161.985 175.881  1.00  0.00     0.063 C 
ATOM     25  C   UNL     1     173.613 164.834 176.925  1.00  0.00     0.016 C 
ATOM     26  C   UNL     1     171.963 167.702 171.624  1.00  0.00     0.012 C 
ATOM     27  C   UNL     1     174.153 170.976 170.527  1.00  0.00     0.014 C 
ATOM     28  O   UNL     1     176.755 170.778 171.203  1.00  0.00    -0.349 OA
ATOM     29  C   UNL     1     177.967 171.289 171.719  1.00  0.00     0.167 C 
ENDROOT
BRANCH  23  30
ATOM     30  O   UNL     1     170.765 161.833 174.630  1.00  0.00    -0.393 OA
ATOM     31  H   UNL     1     169.887 162.295 174.585  1.00  0.00     0.210 HD
ENDBRANCH  23  30
TORSDOF 1
ENDMDL
MODEL 2
REMARK VINA RESULT:    -7.649      4.400      7.866
REMARK INTER + INTRA:          -7.873
REMARK INTER:                  -7.873
REMARK INTRA:                   0.000
REMARK UNBOUND:                 0.000
REMARK SMILES C[C@@H]1CC[C@@]2(OC1)O[C@H]1C[C@H]3[C@H]4CC=C5C[C@H](O)CC[C@]5(C)[C@@H]4CC[C@@]3(C)[C@H]1[C@@H]2C
REMARK SMILES IDX 1 1 2 2 3 3 4 4 5 5 29 6 28 7 9 8 8 9 10 10 11 11 26 12
REMARK SMILES IDX 25 13 24 14 23 15 12 16 13 17 14 18 15 19 21 20 20 21 19 22
REMARK SMILES IDX 17 23 16 24 22 25 27 26 30 27 6 28 7 29 18 30
REMARK H PARENT 18 31
REMARK Flexibility Score: inf
ROOT
ATOM      1  C   UNL     1     178.128 173.624 173.444  1.00  0.00     0.010 C 
ATOM      2  C   UNL     1     177.679 172.159 173.521  1.00  0.00     0.012 C 
ATOM      3  C   UNL     1     178.140 171.357 172.280  1.00  0.00     0.011 C 
ATOM      4  C   UNL     1     177.002 171.208 171.270  1.00  0.00     0.066 C 
ATOM      5  C   UNL     1     175.749 170.552 171.939  1.00  0.00     0.171 C 
ATOM      6  C   UNL     1     175.710 169.019 171.655  1.00  0.00     0.052 C 
ATOM      7  C   UNL     1     174.276 168.776 171.185  1.00  0.00     0.033 C 
ATOM      8  C   UNL     1     173.599 170.119 171.367  1.00  0.00     0.126 C 
ATOM      9  O   UNL     1     174.590 171.117 171.359  1.00  0.00    -0.346 OA
ATOM     10  C   UNL     1     172.631 170.294 170.194  1.00  0.00     0.037 C 
ATOM     11  C   UNL     1     172.625 168.949 169.448  1.00  0.00     0.002 C 
ATOM     12  C   UNL     1     174.035 168.369 169.697  1.00  0.00    -0.024 C 
ATOM     13  C   UNL     1     175.058 169.012 168.706  1.00  0.00     0.008 C 
ATOM     14  C   UNL     1     174.611 168.940 167.244  1.00  0.00     0.005 C 
ATOM     15  C   UNL     1     173.244 169.630 167.019  1.00  0.00     0.003 C 
ATOM     16  C   UNL     1     172.183 169.010 167.954  1.00  0.00     0.000 C 
ATOM     17  C   UNL     1     170.868 169.788 167.807  1.00  0.00     0.031 C 
ATOM     18  C   UNL     1     170.408 169.809 166.386  1.00  0.00    -0.027 C 
ATOM     19  C   UNL     1     171.261 169.824 165.340  1.00  0.00    -0.065 C 
ATOM     20  C   UNL     1     172.782 169.641 165.497  1.00  0.00    -0.008 C 
ATOM     21  C   UNL     1     173.151 168.307 164.767  1.00  0.00     0.014 C 
ATOM     22  C   UNL     1     172.569 168.178 163.344  1.00  0.00     0.033 C 
ATOM     23  C   UNL     1     171.047 168.401 163.307  1.00  0.00     0.118 C 
ATOM     24  C   UNL     1     170.680 169.746 163.943  1.00  0.00     0.063 C 
ATOM     25  C   UNL     1     173.498 170.831 164.802  1.00  0.00     0.016 C 
ATOM     26  C   UNL     1     174.047 166.829 169.569  1.00  0.00     0.012 C 
ATOM     27  C   UNL     1     176.062 168.146 172.875  1.00  0.00     0.014 C 
ATOM     28  O   UNL     1     175.698 170.775 173.352  1.00  0.00    -0.349 OA
ATOM     29  C   UNL     1     176.149 172.067 173.700  1.00  0.00     0.167 C 
ENDROOT
BRANCH  23  30
ATOM     30  O   UNL     1     170.383 167.365 163.985  1.00  0.00    -0.393 OA
ATOM     31  H   UNL     1     171.057 166.927 164.567  1.00  0.00     0.210 HD
ENDBRANCH  23  30
TORSDOF 1
ENDMDL
MODEL 3
REMARK VINA RESULT:    -7.567      3.634      5.496
REMARK INTER + INTRA:          -7.788
REMARK INTER:                  -7.788
REMARK INTRA:                   0.000
REMARK UNBOUND:                 0.000
REMARK SMILES C[C@@H]1CC[C@@]2(OC1)O[C@H]1C[C@H]3[C@H]4CC=C5C[C@H](O)CC[C@]5(C)[C@@H]4CC[C@@]3(C)[C@H]1[C@@H]2C
REMARK SMILES IDX 1 1 2 2 3 3 4 4 5 5 29 6 28 7 9 8 8 9 10 10 11 11 26 12
REMARK SMILES IDX 25 13 24 14 23 15 12 16 13 17 14 18 15 19 21 20 20 21 19 22
REMARK SMILES IDX 17 23 16 24 22 25 27 26 30 27 6 28 7 29 18 30
REMARK H PARENT 18 31
REMARK Flexibility Score: inf
ROOT
ATOM      1  C   UNL     1     178.681 173.427 172.851  1.00  0.00     0.010 C 
ATOM      2  C   UNL     1     177.322 172.747 173.065  1.00  0.00     0.012 C 
ATOM      3  C   UNL     1     177.482 171.344 173.699  1.00  0.00     0.011 C 
ATOM      4  C   UNL     1     177.385 170.248 172.638  1.00  0.00     0.066 C 
ATOM      5  C   UNL     1     176.043 170.363 171.842  1.00  0.00     0.171 C 
ATOM      6  C   UNL     1     174.972 169.388 172.421  1.00  0.00     0.052 C 
ATOM      7  C   UNL     1     174.422 168.681 171.182  1.00  0.00     0.033 C 
ATOM      8  C   UNL     1     175.101 169.387 170.027  1.00  0.00     0.126 C 
ATOM      9  O   UNL     1     176.285 169.977 170.504  1.00  0.00    -0.346 OA
ATOM     10  C   UNL     1     175.403 168.323 168.968  1.00  0.00     0.037 C 
ATOM     11  C   UNL     1     174.713 167.038 169.454  1.00  0.00     0.002 C 
ATOM     12  C   UNL     1     174.721 167.160 170.993  1.00  0.00    -0.024 C 
ATOM     13  C   UNL     1     176.113 166.729 171.556  1.00  0.00     0.008 C 
ATOM     14  C   UNL     1     176.575 165.362 171.044  1.00  0.00     0.005 C 
ATOM     15  C   UNL     1     176.659 165.317 169.499  1.00  0.00     0.003 C 
ATOM     16  C   UNL     1     175.296 165.706 168.887  1.00  0.00     0.000 C 
ATOM     17  C   UNL     1     175.432 165.778 167.360  1.00  0.00     0.031 C 
ATOM     18  C   UNL     1     175.941 164.490 166.802  1.00  0.00    -0.027 C 
ATOM     19  C   UNL     1     176.803 163.693 167.467  1.00  0.00    -0.065 C 
ATOM     20  C   UNL     1     177.209 163.936 168.933  1.00  0.00    -0.008 C 
ATOM     21  C   UNL     1     176.673 162.717 169.754  1.00  0.00     0.014 C 
ATOM     22  C   UNL     1     177.017 161.340 169.148  1.00  0.00     0.033 C 
ATOM     23  C   UNL     1     176.585 161.220 167.675  1.00  0.00     0.118 C 
ATOM     24  C   UNL     1     177.175 162.363 166.842  1.00  0.00     0.063 C 
ATOM     25  C   UNL     1     178.758 163.982 169.017  1.00  0.00     0.016 C 
ATOM     26  C   UNL     1     173.591 166.324 171.636  1.00  0.00     0.012 C 
ATOM     27  C   UNL     1     173.854 170.085 173.218  1.00  0.00     0.014 C 
ATOM     28  O   UNL     1     175.518 171.695 171.837  1.00  0.00    -0.349 OA
ATOM     29  C   UNL     1     176.539 172.666 171.738  1.00  0.00     0.167 C 
ENDROOT
BRANCH  23  30
ATOM     30  O   UNL     1     175.184 161.239 167.572  1.00  0.00    -0.393 OA
ATOM     31  H   UNL     1     174.955 161.948 166.916  1.00  0.00     0.210 HD
ENDBRANCH  23  30
TORSDOF 1
ENDMDL
MODEL 4
REMARK VINA RESULT:    -7.536      3.585      5.378
REMARK INTER + INTRA:          -7.756
REMARK INTER:                  -7.756
REMARK INTRA:                   0.000
REMARK UNBOUND:                 0.000
REMARK SMILES C[C@@H]1CC[C@@]2(OC1)O[C@H]1C[C@H]3[C@H]4CC=C5C[C@H](O)CC[C@]5(C)[C@@H]4CC[C@@]3(C)[C@H]1[C@@H]2C
REMARK SMILES IDX 1 1 2 2 3 3 4 4 5 5 29 6 28 7 9 8 8 9 10 10 11 11 26 12
REMARK SMILES IDX 25 13 24 14 23 15 12 16 13 17 14 18 15 19 21 20 20 21 19 22
REMARK SMILES IDX 17 23 16 24 22 25 27 26 30 27 6 28 7 29 18 30
REMARK H PARENT 18 31
REMARK Flexibility Score: inf
ROOT
ATOM      1  C   UNL     1     178.394 173.241 173.892  1.00  0.00     0.010 C 
ATOM      2  C   UNL     1     178.161 172.130 172.860  1.00  0.00     0.012 C 
ATOM      3  C   UNL     1     177.119 172.550 171.796  1.00  0.00     0.011 C 
ATOM      4  C   UNL     1     175.744 171.960 172.111  1.00  0.00     0.066 C 
ATOM      5  C   UNL     1     175.826 170.403 172.243  1.00  0.00     0.171 C 
ATOM      6  C   UNL     1     175.410 169.712 170.908  1.00  0.00     0.052 C 
ATOM      7  C   UNL     1     174.411 168.643 171.352  1.00  0.00     0.033 C 
ATOM      8  C   UNL     1     174.446 168.716 172.865  1.00  0.00     0.126 C 
ATOM      9  O   UNL     1     174.905 169.993 173.235  1.00  0.00    -0.346 OA
ATOM     10  C   UNL     1     173.015 168.482 173.356  1.00  0.00     0.037 C 
ATOM     11  C   UNL     1     172.203 168.082 172.113  1.00  0.00     0.002 C 
ATOM     12  C   UNL     1     172.912 168.803 170.947  1.00  0.00    -0.024 C 
ATOM     13  C   UNL     1     172.446 170.294 170.879  1.00  0.00     0.008 C 
ATOM     14  C   UNL     1     170.924 170.451 170.866  1.00  0.00     0.005 C 
ATOM     15  C   UNL     1     170.262 169.808 172.109  1.00  0.00     0.003 C 
ATOM     16  C   UNL     1     170.665 168.321 172.209  1.00  0.00     0.000 C 
ATOM     17  C   UNL     1     170.103 167.734 173.511  1.00  0.00     0.031 C 
ATOM     18  C   UNL     1     168.622 167.913 173.590  1.00  0.00    -0.027 C 
ATOM     19  C   UNL     1     167.983 168.976 173.060  1.00  0.00    -0.065 C 
ATOM     20  C   UNL     1     168.686 170.017 172.169  1.00  0.00    -0.008 C 
ATOM     21  C   UNL     1     168.032 169.911 170.752  1.00  0.00     0.014 C 
ATOM     22  C   UNL     1     166.488 169.919 170.761  1.00  0.00     0.033 C 
ATOM     23  C   UNL     1     165.899 168.853 171.701  1.00  0.00     0.118 C 
ATOM     24  C   UNL     1     166.469 169.001 173.115  1.00  0.00     0.063 C 
ATOM     25  C   UNL     1     168.426 171.430 172.759  1.00  0.00     0.016 C 
ATOM     26  C   UNL     1     172.659 168.092 169.598  1.00  0.00     0.012 C 
ATOM     27  C   UNL     1     176.586 169.099 170.126  1.00  0.00     0.014 C 
ATOM     28  O   UNL     1     177.129 169.950 172.626  1.00  0.00    -0.349 OA
ATOM     29  C   UNL     1     177.739 170.819 173.558  1.00  0.00     0.167 C 
ENDROOT
BRANCH  23  30
ATOM     30  O   UNL     1     166.177 167.564 171.216  1.00  0.00    -0.393 OA
ATOM     31  H   UNL     1     166.794 167.675 170.447  1.00  0.00     0.210 HD
ENDBRANCH  23  30
TORSDOF 1
ENDMDL
MODEL 5
REMARK VINA RESULT:    -6.657      3.882      8.366
REMARK INTER + INTRA:          -6.852
REMARK INTER:                  -6.852
REMARK INTRA:                   0.000
REMARK UNBOUND:                 0.000
REMARK SMILES C[C@@H]1CC[C@@]2(OC1)O[C@H]1C[C@H]3[C@H]4CC=C5C[C@H](O)CC[C@]5(C)[C@@H]4CC[C@@]3(C)[C@H]1[C@@H]2C
REMARK SMILES IDX 1 1 2 2 3 3 4 4 5 5 29 6 28 7 9 8 8 9 10 10 11 11 26 12
REMARK SMILES IDX 25 13 24 14 23 15 12 16 13 17 14 18 15 19 21 20 20 21 19 22
REMARK SMILES IDX 17 23 16 24 22 25 27 26 30 27 6 28 7 29 18 30
REMARK H PARENT 18 31
REMARK Flexibility Score: inf
ROOT
ATOM      1  C   UNL     1     166.121 168.870 172.866  1.00  0.00     0.010 C 
ATOM      2  C   UNL     1     167.167 168.011 172.144  1.00  0.00     0.012 C 
ATOM      3  C   UNL     1     168.315 167.593 173.095  1.00  0.00     0.011 C 
ATOM      4  C   UNL     1     169.540 168.487 172.904  1.00  0.00     0.066 C 
ATOM      5  C   UNL     1     170.007 168.477 171.410  1.00  0.00     0.171 C 
ATOM      6  C   UNL     1     171.172 167.461 171.202  1.00  0.00     0.052 C 
ATOM      7  C   UNL     1     172.214 168.263 170.423  1.00  0.00     0.033 C 
ATOM      8  C   UNL     1     171.522 169.581 170.138  1.00  0.00     0.126 C 
ATOM      9  O   UNL     1     170.505 169.761 171.092  1.00  0.00    -0.346 OA
ATOM     10  C   UNL     1     172.585 170.677 170.253  1.00  0.00     0.037 C 
ATOM     11  C   UNL     1     173.928 169.946 170.415  1.00  0.00     0.002 C 
ATOM     12  C   UNL     1     173.560 168.626 171.126  1.00  0.00    -0.024 C 
ATOM     13  C   UNL     1     173.408 168.871 172.662  1.00  0.00     0.008 C 
ATOM     14  C   UNL     1     174.610 169.589 173.281  1.00  0.00     0.005 C 
ATOM     15  C   UNL     1     174.877 170.959 172.611  1.00  0.00     0.003 C 
ATOM     16  C   UNL     1     175.066 170.772 171.090  1.00  0.00     0.000 C 
ATOM     17  C   UNL     1     175.205 172.150 170.428  1.00  0.00     0.031 C 
ATOM     18  C   UNL     1     176.326 172.930 171.033  1.00  0.00    -0.027 C 
ATOM     19  C   UNL     1     176.673 172.826 172.332  1.00  0.00    -0.065 C 
ATOM     20  C   UNL     1     176.073 171.769 173.278  1.00  0.00    -0.008 C 
ATOM     21  C   UNL     1     177.248 170.827 173.702  1.00  0.00     0.014 C 
ATOM     22  C   UNL     1     178.514 171.566 174.185  1.00  0.00     0.033 C 
ATOM     23  C   UNL     1     179.009 172.612 173.170  1.00  0.00     0.118 C 
ATOM     24  C   UNL     1     177.889 173.593 172.811  1.00  0.00     0.063 C 
ATOM     25  C   UNL     1     175.505 172.491 174.530  1.00  0.00     0.016 C 
ATOM     26  C   UNL     1     174.605 167.520 170.851  1.00  0.00     0.012 C 
ATOM     27  C   UNL     1     170.762 166.182 170.449  1.00  0.00     0.014 C 
ATOM     28  O   UNL     1     168.943 168.171 170.503  1.00  0.00    -0.349 OA
ATOM     29  C   UNL     1     167.719 168.750 170.907  1.00  0.00     0.167 C 
ENDROOT
BRANCH  23  30
ATOM     30  O   UNL     1     179.471 171.981 172.002  1.00  0.00    -0.393 OA
ATOM     31  H   UNL     1     180.452 171.869 172.107  1.00  0.00     0.210 HD
ENDBRANCH  23  30
TORSDOF 1
ENDMDL
MODEL 6
REMARK VINA RESULT:    -6.597      1.715      8.284
REMARK INTER + INTRA:          -6.789
REMARK INTER:                  -6.789
REMARK INTRA:                   0.000
REMARK UNBOUND:                 0.000
REMARK SMILES C[C@@H]1CC[C@@]2(OC1)O[C@H]1C[C@H]3[C@H]4CC=C5C[C@H](O)CC[C@]5(C)[C@@H]4CC[C@@]3(C)[C@H]1[C@@H]2C
REMARK SMILES IDX 1 1 2 2 3 3 4 4 5 5 29 6 28 7 9 8 8 9 10 10 11 11 26 12
REMARK SMILES IDX 25 13 24 14 23 15 12 16 13 17 14 18 15 19 21 20 20 21 19 22
REMARK SMILES IDX 17 23 16 24 22 25 27 26 30 27 6 28 7 29 18 30
REMARK H PARENT 18 31
REMARK Flexibility Score: inf
ROOT
ATOM      1  C   UNL     1     172.539 161.907 176.092  1.00  0.00     0.010 C 
ATOM      2  C   UNL     1     172.162 162.549 174.750  1.00  0.00     0.012 C 
ATOM      3  C   UNL     1     173.411 162.808 173.872  1.00  0.00     0.011 C 
ATOM      4  C   UNL     1     173.851 164.268 173.963  1.00  0.00     0.066 C 
ATOM      5  C   UNL     1     172.676 165.228 173.578  1.00  0.00     0.171 C 
ATOM      6  C   UNL     1     172.789 165.669 172.086  1.00  0.00     0.052 C 
ATOM      7  C   UNL     1     172.610 167.186 172.144  1.00  0.00     0.033 C 
ATOM      8  C   UNL     1     172.282 167.459 173.598  1.00  0.00     0.126 C 
ATOM      9  O   UNL     1     172.778 166.394 174.370  1.00  0.00    -0.346 OA
ATOM     10  C   UNL     1     172.968 168.776 173.971  1.00  0.00     0.037 C 
ATOM     11  C   UNL     1     173.529 169.345 172.657  1.00  0.00     0.002 C 
ATOM     12  C   UNL     1     173.830 168.097 171.799  1.00  0.00    -0.024 C 
ATOM     13  C   UNL     1     175.202 167.479 172.219  1.00  0.00     0.008 C 
ATOM     14  C   UNL     1     176.343 168.500 172.243  1.00  0.00     0.005 C 
ATOM     15  C   UNL     1     176.047 169.680 173.200  1.00  0.00     0.003 C 
ATOM     16  C   UNL     1     174.712 170.350 172.810  1.00  0.00     0.000 C 
ATOM     17  C   UNL     1     174.374 171.435 173.843  1.00  0.00     0.031 C 
ATOM     18  C   UNL     1     175.480 172.432 173.960  1.00  0.00    -0.027 C 
ATOM     19  C   UNL     1     176.779 172.107 173.801  1.00  0.00    -0.065 C 
ATOM     20  C   UNL     1     177.243 170.723 173.309  1.00  0.00    -0.008 C 
ATOM     21  C   UNL     1     177.944 170.950 171.929  1.00  0.00     0.014 C 
ATOM     22  C   UNL     1     178.989 172.086 171.924  1.00  0.00     0.033 C 
ATOM     23  C   UNL     1     178.420 173.413 172.457  1.00  0.00     0.118 C 
ATOM     24  C   UNL     1     177.806 173.221 173.847  1.00  0.00     0.063 C 
ATOM     25  C   UNL     1     178.267 170.153 174.327  1.00  0.00     0.016 C 
ATOM     26  C   UNL     1     173.821 168.429 170.289  1.00  0.00     0.012 C 
ATOM     27  C   UNL     1     171.750 165.011 171.158  1.00  0.00     0.014 C 
ATOM     28  O   UNL     1     171.390 164.641 173.804  1.00  0.00    -0.349 OA
ATOM     29  C   UNL     1     171.367 163.852 174.975  1.00  0.00     0.167 C 
ENDROOT
BRANCH  23  30
ATOM     30  O   UNL     1     177.445 173.915 171.579  1.00  0.00    -0.393 OA
ATOM     31  H   UNL     1     177.914 174.521 170.947  1.00  0.00     0.210 HD
ENDBRANCH  23  30
TORSDOF 1
ENDMDL
MODEL 7
REMARK VINA RESULT:    -6.320      4.689      7.109
REMARK INTER + INTRA:          -6.504
REMARK INTER:                  -6.504
REMARK INTRA:                   0.000
REMARK UNBOUND:                 0.000
REMARK SMILES C[C@@H]1CC[C@@]2(OC1)O[C@H]1C[C@H]3[C@H]4CC=C5C[C@H](O)CC[C@]5(C)[C@@H]4CC[C@@]3(C)[C@H]1[C@@H]2C
REMARK SMILES IDX 1 1 2 2 3 3 4 4 5 5 29 6 28 7 9 8 8 9 10 10 11 11 26 12
REMARK SMILES IDX 25 13 24 14 23 15 12 16 13 17 14 18 15 19 21 20 20 21 19 22
REMARK SMILES IDX 17 23 16 24 22 25 27 26 30 27 6 28 7 29 18 30
REMARK H PARENT 18 31
REMARK Flexibility Score: inf
ROOT
ATOM      1  C   UNL     1     179.064 172.096 172.511  1.00  0.00     0.010 C 
ATOM      2  C   UNL     1     177.640 171.741 172.956  1.00  0.00     0.012 C 
ATOM      3  C   UNL     1     177.362 170.224 172.818  1.00  0.00     0.011 C 
ATOM      4  C   UNL     1     176.581 169.924 171.539  1.00  0.00     0.066 C 
ATOM      5  C   UNL     1     175.254 170.752 171.492  1.00  0.00     0.171 C 
ATOM      6  C   UNL     1     174.050 169.896 171.992  1.00  0.00     0.052 C 
ATOM      7  C   UNL     1     172.984 170.110 170.917  1.00  0.00     0.033 C 
ATOM      8  C   UNL     1     173.597 171.147 169.997  1.00  0.00     0.126 C 
ATOM      9  O   UNL     1     174.994 171.098 170.146  1.00  0.00    -0.346 OA
ATOM     10  C   UNL     1     173.182 170.780 168.570  1.00  0.00     0.037 C 
ATOM     11  C   UNL     1     172.166 169.633 168.709  1.00  0.00     0.002 C 
ATOM     12  C   UNL     1     172.586 168.907 170.005  1.00  0.00    -0.024 C 
ATOM     13  C   UNL     1     173.774 167.935 169.711  1.00  0.00     0.008 C 
ATOM     14  C   UNL     1     173.507 166.992 168.535  1.00  0.00     0.005 C 
ATOM     15  C   UNL     1     173.197 167.763 167.230  1.00  0.00     0.003 C 
ATOM     16  C   UNL     1     172.006 168.720 167.455  1.00  0.00     0.000 C 
ATOM     17  C   UNL     1     171.795 169.565 166.191  1.00  0.00     0.031 C 
ATOM     18  C   UNL     1     171.589 168.699 164.991  1.00  0.00    -0.027 C 
ATOM     19  C   UNL     1     172.184 167.498 164.844  1.00  0.00    -0.065 C 
ATOM     20  C   UNL     1     172.988 166.817 165.968  1.00  0.00    -0.008 C 
ATOM     21  C   UNL     1     172.215 165.510 166.344  1.00  0.00     0.014 C 
ATOM     22  C   UNL     1     171.816 164.636 165.136  1.00  0.00     0.033 C 
ATOM     23  C   UNL     1     171.038 165.426 164.068  1.00  0.00     0.118 C 
ATOM     24  C   UNL     1     171.825 166.665 163.629  1.00  0.00     0.063 C 
ATOM     25  C   UNL     1     174.394 166.453 165.421  1.00  0.00     0.016 C 
ATOM     26  C   UNL     1     171.402 168.143 170.640  1.00  0.00     0.012 C 
ATOM     27  C   UNL     1     173.535 170.292 173.388  1.00  0.00     0.014 C 
ATOM     28  O   UNL     1     175.330 171.958 172.259  1.00  0.00    -0.349 OA
ATOM     29  C   UNL     1     176.602 172.565 172.167  1.00  0.00     0.167 C 
ENDROOT
BRANCH  23  30
ATOM     30  O   UNL     1     169.785 165.819 164.566  1.00  0.00    -0.393 OA
ATOM     31  H   UNL     1     169.129 165.141 164.256  1.00  0.00     0.210 HD
ENDBRANCH  23  30
TORSDOF 1
ENDMDL
MODEL 8
REMARK VINA RESULT:    -6.246      5.962      9.153
REMARK INTER + INTRA:          -6.428
REMARK INTER:                  -6.428
REMARK INTRA:                   0.000
REMARK UNBOUND:                 0.000
REMARK SMILES C[C@@H]1CC[C@@]2(OC1)O[C@H]1C[C@H]3[C@H]4CC=C5C[C@H](O)CC[C@]5(C)[C@@H]4CC[C@@]3(C)[C@H]1[C@@H]2C
REMARK SMILES IDX 1 1 2 2 3 3 4 4 5 5 29 6 28 7 9 8 8 9 10 10 11 11 26 12
REMARK SMILES IDX 25 13 24 14 23 15 12 16 13 17 14 18 15 19 21 20 20 21 19 22
REMARK SMILES IDX 17 23 16 24 22 25 27 26 30 27 6 28 7 29 18 30
REMARK H PARENT 18 31
REMARK Flexibility Score: inf
ROOT
ATOM      1  C   UNL     1     171.188 165.124 161.064  1.00  0.00     0.010 C 
ATOM      2  C   UNL     1     171.337 166.637 161.266  1.00  0.00     0.012 C 
ATOM      3  C   UNL     1     172.765 167.010 161.734  1.00  0.00     0.011 C 
ATOM      4  C   UNL     1     172.805 167.235 163.246  1.00  0.00     0.066 C 
ATOM      5  C   UNL     1     171.764 168.321 163.674  1.00  0.00     0.171 C 
ATOM      6  C   UNL     1     172.447 169.716 163.818  1.00  0.00     0.052 C 
ATOM      7  C   UNL     1     171.954 170.220 165.174  1.00  0.00     0.033 C 
ATOM      8  C   UNL     1     170.953 169.170 165.612  1.00  0.00     0.126 C 
ATOM      9  O   UNL     1     171.252 167.970 164.943  1.00  0.00    -0.346 OA
ATOM     10  C   UNL     1     171.107 169.010 167.127  1.00  0.00     0.037 C 
ATOM     11  C   UNL     1     172.073 170.121 167.572  1.00  0.00     0.002 C 
ATOM     12  C   UNL     1     172.980 170.352 166.344  1.00  0.00    -0.024 C 
ATOM     13  C   UNL     1     174.107 169.269 166.302  1.00  0.00     0.008 C 
ATOM     14  C   UNL     1     174.874 169.145 167.620  1.00  0.00     0.005 C 
ATOM     15  C   UNL     1     173.941 168.805 168.807  1.00  0.00     0.003 C 
ATOM     16  C   UNL     1     172.822 169.864 168.915  1.00  0.00     0.000 C 
ATOM     17  C   UNL     1     171.837 169.443 170.015  1.00  0.00     0.031 C 
ATOM     18  C   UNL     1     172.537 169.244 171.320  1.00  0.00    -0.027 C 
ATOM     19  C   UNL     1     173.802 168.786 171.409  1.00  0.00    -0.065 C 
ATOM     20  C   UNL     1     174.713 168.593 170.182  1.00  0.00    -0.008 C 
ATOM     21  C   UNL     1     175.900 169.599 170.342  1.00  0.00     0.014 C 
ATOM     22  C   UNL     1     176.575 169.573 171.730  1.00  0.00     0.033 C 
ATOM     23  C   UNL     1     175.567 169.752 172.879  1.00  0.00     0.118 C 
ATOM     24  C   UNL     1     174.443 168.716 172.781  1.00  0.00     0.063 C 
ATOM     25  C   UNL     1     175.256 167.139 170.191  1.00  0.00     0.016 C 
ATOM     26  C   UNL     1     173.589 171.772 166.344  1.00  0.00     0.012 C 
ATOM     27  C   UNL     1     172.104 170.703 162.687  1.00  0.00     0.014 C 
ATOM     28  O   UNL     1     170.667 168.423 162.760  1.00  0.00    -0.349 OA
ATOM     29  C   UNL     1     170.278 167.161 162.257  1.00  0.00     0.167 C 
ENDROOT
BRANCH  23  30
ATOM     30  O   UNL     1     175.016 171.044 172.851  1.00  0.00    -0.393 OA
ATOM     31  H   UNL     1     174.624 171.169 171.947  1.00  0.00     0.210 HD
ENDBRANCH  23  30
TORSDOF 1
ENDMDL
MODEL 9
REMARK VINA RESULT:    -6.227      2.129      4.174
REMARK INTER + INTRA:          -6.409
REMARK INTER:                  -6.409
REMARK INTRA:                   0.000
REMARK UNBOUND:                 0.000
REMARK SMILES C[C@@H]1CC[C@@]2(OC1)O[C@H]1C[C@H]3[C@H]4CC=C5C[C@H](O)CC[C@]5(C)[C@@H]4CC[C@@]3(C)[C@H]1[C@@H]2C
REMARK SMILES IDX 1 1 2 2 3 3 4 4 5 5 29 6 28 7 9 8 8 9 10 10 11 11 26 12
REMARK SMILES IDX 25 13 24 14 23 15 12 16 13 17 14 18 15 19 21 20 20 21 19 22
REMARK SMILES IDX 17 23 16 24 22 25 27 26 30 27 6 28 7 29 18 30
REMARK H PARENT 18 31
REMARK Flexibility Score: inf
ROOT
ATOM      1  C   UNL     1     174.359 168.531 167.314  1.00  0.00     0.010 C 
ATOM      2  C   UNL     1     174.956 168.822 168.697  1.00  0.00     0.012 C 
ATOM      3  C   UNL     1     175.638 167.568 169.298  1.00  0.00     0.011 C 
ATOM      4  C   UNL     1     174.724 166.878 170.309  1.00  0.00     0.066 C 
ATOM      5  C   UNL     1     174.280 167.876 171.430  1.00  0.00     0.171 C 
ATOM      6  C   UNL     1     175.182 167.724 172.693  1.00  0.00     0.052 C 
ATOM      7  C   UNL     1     174.178 167.634 173.842  1.00  0.00     0.033 C 
ATOM      8  C   UNL     1     172.838 167.875 173.177  1.00  0.00     0.126 C 
ATOM      9  O   UNL     1     172.959 167.554 171.813  1.00  0.00    -0.346 OA
ATOM     10  C   UNL     1     171.824 166.962 173.871  1.00  0.00     0.037 C 
ATOM     11  C   UNL     1     172.565 166.341 175.067  1.00  0.00     0.002 C 
ATOM     12  C   UNL     1     174.040 166.283 174.613  1.00  0.00    -0.024 C 
ATOM     13  C   UNL     1     174.271 165.029 173.708  1.00  0.00     0.008 C 
ATOM     14  C   UNL     1     173.769 163.728 174.339  1.00  0.00     0.005 C 
ATOM     15  C   UNL     1     172.260 163.791 174.678  1.00  0.00     0.003 C 
ATOM     16  C   UNL     1     171.978 164.997 175.599  1.00  0.00     0.000 C 
ATOM     17  C   UNL     1     170.464 165.117 175.822  1.00  0.00     0.031 C 
ATOM     18  C   UNL     1     169.899 163.851 176.380  1.00  0.00    -0.027 C 
ATOM     19  C   UNL     1     170.389 162.633 176.074  1.00  0.00    -0.065 C 
ATOM     20  C   UNL     1     171.684 162.429 175.266  1.00  0.00    -0.008 C 
ATOM     21  C   UNL     1     172.706 161.732 176.224  1.00  0.00     0.014 C 
ATOM     22  C   UNL     1     172.143 160.505 176.972  1.00  0.00     0.033 C 
ATOM     23  C   UNL     1     170.838 160.821 177.724  1.00  0.00     0.118 C 
ATOM     24  C   UNL     1     169.798 161.427 176.776  1.00  0.00     0.063 C 
ATOM     25  C   UNL     1     171.377 161.496 174.063  1.00  0.00     0.016 C 
ATOM     26  C   UNL     1     175.007 166.270 175.818  1.00  0.00     0.012 C 
ATOM     27  C   UNL     1     176.175 168.883 172.898  1.00  0.00     0.014 C 
ATOM     28  O   UNL     1     174.302 169.239 170.992  1.00  0.00    -0.349 OA
ATOM     29  C   UNL     1     173.876 169.372 169.652  1.00  0.00     0.167 C 
ENDROOT
BRANCH  23  30
ATOM     30  O   UNL     1     171.085 161.714 178.780  1.00  0.00    -0.393 OA
ATOM     31  H   UNL     1     171.167 162.618 178.378  1.00  0.00     0.210 HD
ENDBRANCH  23  30
TORSDOF 1
ENDMDL
