MODEL 1
REMARK VINA RESULT:    -5.212      0.000      0.000
REMARK INTER + INTRA:          -5.891
REMARK INTER:                  -5.822
REMARK INTRA:                  -0.070
REMARK UNBOUND:                -0.070
REMARK SMILES COc1cc2ccc(=O)oc2c(O)c1O
REMARK SMILES IDX 3 1 14 2 12 3 11 4 5 5 4 6 6 7 7 8 8 9 9 10 10 11 2 12 1 13
REMARK SMILES IDX 15 14 13 16
REMARK H PARENT 15 15 13 17
REMARK Flexibility Score: inf
ROOT
ATOM      1  C   UNL     1      -5.427   3.732  16.387  1.00  0.00     0.165 A 
ATOM      2  C   UNL     1      -4.937   5.040  16.233  1.00  0.00     0.204 A 
ATOM      3  C   UNL     1      -3.772   5.275  15.460  1.00  0.00     0.205 A 
ATOM      4  C   UNL     1      -3.114   4.197  14.854  1.00  0.00     0.184 A 
ATOM      5  C   UNL     1      -3.609   2.886  15.011  1.00  0.00     0.025 A 
ATOM      6  C   UNL     1      -4.759   2.656  15.773  1.00  0.00     0.062 A 
ATOM      7  C   UNL     1      -2.926   1.834  14.390  1.00  0.00     0.020 A 
ATOM      8  C   UNL     1      -1.784   2.108  13.639  1.00  0.00     0.094 A 
ATOM      9  C   UNL     1      -1.351   3.432  13.526  1.00  0.00     0.336 A 
ATOM     10  O   UNL     1      -0.322   3.701  12.852  1.00  0.00    -0.246 OA
ATOM     11  O   UNL     1      -2.020   4.412  14.127  1.00  0.00    -0.419 OA
ENDROOT
BRANCH   1  12
ATOM     12  O   UNL     1      -6.584   3.543  17.160  1.00  0.00    -0.493 OA
ATOM     13  C   UNL     1      -6.594   3.014  18.483  1.00  0.00     0.278 C 
ENDBRANCH   1  12
BRANCH   2  14
ATOM     14  O   UNL     1      -5.636   6.073  16.862  1.00  0.00    -0.502 OA
ATOM     15  H   UNL     1      -5.264   6.998  17.020  1.00  0.00     0.293 HD
ENDBRANCH   2  14
BRANCH   3  16
ATOM     16  O   UNL     1      -3.241   6.554  15.274  1.00  0.00    -0.502 OA
ATOM     17  H   UNL     1      -2.427   6.908  15.755  1.00  0.00     0.293 HD
ENDBRANCH   3  16
TORSDOF 3
ENDMDL
MODEL 2
REMARK VINA RESULT:    -5.089      4.651      6.851
REMARK INTER + INTRA:          -5.753
REMARK INTER:                  -5.699
REMARK INTRA:                  -0.054
REMARK UNBOUND:                -0.070
REMARK SMILES COc1cc2ccc(=O)oc2c(O)c1O
REMARK SMILES IDX 3 1 14 2 12 3 11 4 5 5 4 6 6 7 7 8 8 9 9 10 10 11 2 12 1 13
REMARK SMILES IDX 15 14 13 16
REMARK H PARENT 15 15 13 17
REMARK Flexibility Score: inf
ROOT
ATOM      1  C   UNL     1      -2.103   7.489  10.011  1.00  0.00     0.165 A 
ATOM      2  C   UNL     1      -1.762   8.792  10.412  1.00  0.00     0.204 A 
ATOM      3  C   UNL     1      -1.733   9.127  11.788  1.00  0.00     0.205 A 
ATOM      4  C   UNL     1      -2.046   8.152  12.744  1.00  0.00     0.184 A 
ATOM      5  C   UNL     1      -2.388   6.845  12.339  1.00  0.00     0.025 A 
ATOM      6  C   UNL     1      -2.416   6.517  10.980  1.00  0.00     0.062 A 
ATOM      7  C   UNL     1      -2.695   5.898  13.322  1.00  0.00     0.020 A 
ATOM      8  C   UNL     1      -2.655   6.268  14.666  1.00  0.00     0.094 A 
ATOM      9  C   UNL     1      -2.308   7.581  14.995  1.00  0.00     0.336 A 
ATOM     10  O   UNL     1      -2.265   7.936  16.203  1.00  0.00    -0.246 OA
ATOM     11  O   UNL     1      -2.020   8.461  14.040  1.00  0.00    -0.419 OA
ENDROOT
BRANCH   1  12
ATOM     12  O   UNL     1      -2.120   7.199   8.637  1.00  0.00    -0.493 OA
ATOM     13  C   UNL     1      -2.882   6.154   8.041  1.00  0.00     0.278 C 
ENDBRANCH   1  12
BRANCH   2  14
ATOM     14  O   UNL     1      -1.460   9.720   9.411  1.00  0.00    -0.502 OA
ATOM     15  H   UNL     1      -0.938  10.571   9.563  1.00  0.00     0.293 HD
ENDBRANCH   2  14
BRANCH   3  16
ATOM     16  O   UNL     1      -1.401  10.406  12.243  1.00  0.00    -0.502 OA
ATOM     17  H   UNL     1      -1.913  11.244  12.008  1.00  0.00     0.293 HD
ENDBRANCH   3  16
TORSDOF 3
ENDMDL
MODEL 3
REMARK VINA RESULT:    -5.065      4.847      6.617
REMARK INTER + INTRA:          -5.726
REMARK INTER:                  -5.657
REMARK INTRA:                  -0.069
REMARK UNBOUND:                -0.070
REMARK SMILES COc1cc2ccc(=O)oc2c(O)c1O
REMARK SMILES IDX 3 1 14 2 12 3 11 4 5 5 4 6 6 7 7 8 8 9 9 10 10 11 2 12 1 13
REMARK SMILES IDX 15 14 13 16
REMARK H PARENT 15 15 13 17
REMARK Flexibility Score: inf
ROOT
ATOM      1  C   UNL     1      -1.860   8.470  11.446  1.00  0.00     0.165 A 
ATOM      2  C   UNL     1      -2.072   7.485  12.426  1.00  0.00     0.204 A 
ATOM      3  C   UNL     1      -2.427   6.168  12.043  1.00  0.00     0.205 A 
ATOM      4  C   UNL     1      -2.567   5.856  10.684  1.00  0.00     0.184 A 
ATOM      5  C   UNL     1      -2.355   6.847   9.704  1.00  0.00     0.025 A 
ATOM      6  C   UNL     1      -2.003   8.146  10.084  1.00  0.00     0.062 A 
ATOM      7  C   UNL     1      -2.503   6.498   8.357  1.00  0.00     0.020 A 
ATOM      8  C   UNL     1      -2.855   5.192   8.022  1.00  0.00     0.094 A 
ATOM      9  C   UNL     1      -3.050   4.261   9.046  1.00  0.00     0.336 A 
ATOM     10  O   UNL     1      -3.367   3.075   8.766  1.00  0.00    -0.246 OA
ATOM     11  O   UNL     1      -2.902   4.619  10.319  1.00  0.00    -0.419 OA
ENDROOT
BRANCH   1  12
ATOM     12  O   UNL     1      -1.509   9.762  11.869  1.00  0.00    -0.493 OA
ATOM     13  C   UNL     1      -2.348  10.908  11.750  1.00  0.00     0.278 C 
ENDBRANCH   1  12
BRANCH   2  14
ATOM     14  O   UNL     1      -1.917   7.857  13.764  1.00  0.00    -0.502 OA
ATOM     15  H   UNL     1      -2.634   8.303  14.317  1.00  0.00     0.293 HD
ENDBRANCH   2  14
BRANCH   3  16
ATOM     16  O   UNL     1      -2.650   5.150  12.974  1.00  0.00    -0.502 OA
ATOM     17  H   UNL     1      -2.236   4.230  12.922  1.00  0.00     0.293 HD
ENDBRANCH   3  16
TORSDOF 3
ENDMDL
MODEL 4
REMARK VINA RESULT:    -5.005      3.874      5.402
REMARK INTER + INTRA:          -5.660
REMARK INTER:                  -5.603
REMARK INTRA:                  -0.056
REMARK UNBOUND:                -0.070
REMARK SMILES COc1cc2ccc(=O)oc2c(O)c1O
REMARK SMILES IDX 3 1 14 2 12 3 11 4 5 5 4 6 6 7 7 8 8 9 9 10 10 11 2 12 1 13
REMARK SMILES IDX 15 14 13 16
REMARK H PARENT 15 15 13 17
REMARK Flexibility Score: inf
ROOT
ATOM      1  C   UNL     1      -2.554   4.502  13.482  1.00  0.00     0.165 A 
ATOM      2  C   UNL     1      -3.072   3.508  12.635  1.00  0.00     0.204 A 
ATOM      3  C   UNL     1      -3.233   3.767  11.251  1.00  0.00     0.205 A 
ATOM      4  C   UNL     1      -2.875   5.020  10.736  1.00  0.00     0.184 A 
ATOM      5  C   UNL     1      -2.357   6.016  11.589  1.00  0.00     0.025 A 
ATOM      6  C   UNL     1      -2.197   5.757  12.953  1.00  0.00     0.062 A 
ATOM      7  C   UNL     1      -2.009   7.254  11.038  1.00  0.00     0.020 A 
ATOM      8  C   UNL     1      -2.185   7.469   9.672  1.00  0.00     0.094 A 
ATOM      9  C   UNL     1      -2.704   6.437   8.886  1.00  0.00     0.336 A 
ATOM     10  O   UNL     1      -2.870   6.610   7.650  1.00  0.00    -0.246 OA
ATOM     11  O   UNL     1      -3.025   5.269   9.436  1.00  0.00    -0.419 OA
ENDROOT
BRANCH   1  12
ATOM     12  O   UNL     1      -2.410   4.203  14.846  1.00  0.00    -0.493 OA
ATOM     13  C   UNL     1      -1.371   4.710  15.680  1.00  0.00     0.278 C 
ENDBRANCH   1  12
BRANCH   2  14
ATOM     14  O   UNL     1      -3.411   2.279  13.208  1.00  0.00    -0.502 OA
ATOM     15  H   UNL     1      -3.867   1.527  12.713  1.00  0.00     0.293 HD
ENDBRANCH   2  14
BRANCH   3  16
ATOM     16  O   UNL     1      -3.743   2.816  10.364  1.00  0.00    -0.502 OA
ATOM     17  H   UNL     1      -3.379   1.879  10.262  1.00  0.00     0.293 HD
ENDBRANCH   3  16
TORSDOF 3
ENDMDL
MODEL 5
REMARK VINA RESULT:    -4.905      2.994      4.453
REMARK INTER + INTRA:          -5.548
REMARK INTER:                  -5.490
REMARK INTRA:                  -0.058
REMARK UNBOUND:                -0.070
REMARK SMILES COc1cc2ccc(=O)oc2c(O)c1O
REMARK SMILES IDX 3 1 14 2 12 3 11 4 5 5 4 6 6 7 7 8 8 9 9 10 10 11 2 12 1 13
REMARK SMILES IDX 15 14 13 16
REMARK H PARENT 15 15 13 17
REMARK Flexibility Score: inf
ROOT
ATOM      1  C   UNL     1      -2.586   5.794  14.478  1.00  0.00     0.165 A 
ATOM      2  C   UNL     1      -2.951   4.444  14.608  1.00  0.00     0.204 A 
ATOM      3  C   UNL     1      -3.145   3.646  13.453  1.00  0.00     0.205 A 
ATOM      4  C   UNL     1      -2.971   4.212  12.184  1.00  0.00     0.184 A 
ATOM      5  C   UNL     1      -2.605   5.568  12.057  1.00  0.00     0.025 A 
ATOM      6  C   UNL     1      -2.413   6.353  13.198  1.00  0.00     0.062 A 
ATOM      7  C   UNL     1      -2.439   6.099  10.772  1.00  0.00     0.020 A 
ATOM      8  C   UNL     1      -2.640   5.281   9.662  1.00  0.00     0.094 A 
ATOM      9  C   UNL     1      -3.002   3.946   9.863  1.00  0.00     0.336 A 
ATOM     10  O   UNL     1      -3.187   3.189   8.873  1.00  0.00    -0.246 OA
ATOM     11  O   UNL     1      -3.151   3.467  11.095  1.00  0.00    -0.419 OA
ENDROOT
BRANCH   1  12
ATOM     12  O   UNL     1      -2.404   6.549  15.648  1.00  0.00    -0.493 OA
ATOM     13  C   UNL     1      -2.807   7.907  15.805  1.00  0.00     0.278 C 
ENDBRANCH   1  12
BRANCH   2  14
ATOM     14  O   UNL     1      -3.109   3.937  15.901  1.00  0.00    -0.502 OA
ATOM     15  H   UNL     1      -4.002   3.740  16.329  1.00  0.00     0.293 HD
ENDBRANCH   2  14
BRANCH   3  16
ATOM     16  O   UNL     1      -3.508   2.298  13.524  1.00  0.00    -0.502 OA
ATOM     17  H   UNL     1      -3.881   1.852  14.350  1.00  0.00     0.293 HD
ENDBRANCH   3  16
TORSDOF 3
ENDMDL
MODEL 6
REMARK VINA RESULT:    -4.893      1.600      4.633
REMARK INTER + INTRA:          -5.535
REMARK INTER:                  -5.469
REMARK INTRA:                  -0.066
REMARK UNBOUND:                -0.070
REMARK SMILES COc1cc2ccc(=O)oc2c(O)c1O
REMARK SMILES IDX 3 1 14 2 12 3 11 4 5 5 4 6 6 7 7 8 8 9 9 10 10 11 2 12 1 13
REMARK SMILES IDX 15 14 13 16
REMARK H PARENT 15 15 13 17
REMARK Flexibility Score: inf
ROOT
ATOM      1  C   UNL     1      -1.043   4.845  14.664  1.00  0.00     0.165 A 
ATOM      2  C   UNL     1      -1.697   6.014  15.088  1.00  0.00     0.204 A 
ATOM      3  C   UNL     1      -3.046   5.958  15.519  1.00  0.00     0.205 A 
ATOM      4  C   UNL     1      -3.722   4.731  15.518  1.00  0.00     0.184 A 
ATOM      5  C   UNL     1      -3.063   3.559  15.091  1.00  0.00     0.025 A 
ATOM      6  C   UNL     1      -1.732   3.617  14.668  1.00  0.00     0.062 A 
ATOM      7  C   UNL     1      -3.771   2.352  15.105  1.00  0.00     0.020 A 
ATOM      8  C   UNL     1      -5.096   2.339  15.535  1.00  0.00     0.094 A 
ATOM      9  C   UNL     1      -5.686   3.539  15.944  1.00  0.00     0.336 A 
ATOM     10  O   UNL     1      -6.882   3.550  16.337  1.00  0.00    -0.246 OA
ATOM     11  O   UNL     1      -4.990   4.673  15.922  1.00  0.00    -0.419 OA
ENDROOT
BRANCH   1  12
ATOM     12  O   UNL     1       0.293   4.944  14.245  1.00  0.00    -0.493 OA
ATOM     13  C   UNL     1       1.419   4.597  15.046  1.00  0.00     0.278 C 
ENDBRANCH   1  12
BRANCH   2  14
ATOM     14  O   UNL     1      -0.969   7.208  15.066  1.00  0.00    -0.502 OA
ATOM     15  H   UNL     1      -1.383   8.124  14.978  1.00  0.00     0.293 HD
ENDBRANCH   2  14
BRANCH   3  16
ATOM     16  O   UNL     1      -3.743   7.090  15.950  1.00  0.00    -0.502 OA
ATOM     17  H   UNL     1      -4.726   7.250  15.784  1.00  0.00     0.293 HD
ENDBRANCH   3  16
TORSDOF 3
ENDMDL
MODEL 7
REMARK VINA RESULT:    -4.855      4.433      6.781
REMARK INTER + INTRA:          -5.492
REMARK INTER:                  -5.440
REMARK INTRA:                  -0.052
REMARK UNBOUND:                -0.070
REMARK SMILES COc1cc2ccc(=O)oc2c(O)c1O
REMARK SMILES IDX 3 1 14 2 12 3 11 4 5 5 4 6 6 7 7 8 8 9 9 10 10 11 2 12 1 13
REMARK SMILES IDX 15 14 13 16
REMARK H PARENT 15 15 13 17
REMARK Flexibility Score: inf
ROOT
ATOM      1  C   UNL     1      -1.594   9.026  11.435  1.00  0.00     0.165 A 
ATOM      2  C   UNL     1      -1.891   7.882  10.677  1.00  0.00     0.204 A 
ATOM      3  C   UNL     1      -2.333   6.698  11.319  1.00  0.00     0.205 A 
ATOM      4  C   UNL     1      -2.471   6.678  12.713  1.00  0.00     0.184 A 
ATOM      5  C   UNL     1      -2.172   7.829  13.472  1.00  0.00     0.025 A 
ATOM      6  C   UNL     1      -1.736   8.995  12.835  1.00  0.00     0.062 A 
ATOM      7  C   UNL     1      -2.322   7.771  14.862  1.00  0.00     0.020 A 
ATOM      8  C   UNL     1      -2.759   6.588  15.455  1.00  0.00     0.094 A 
ATOM      9  C   UNL     1      -3.037   5.486  14.641  1.00  0.00     0.336 A 
ATOM     10  O   UNL     1      -3.434   4.408  15.157  1.00  0.00    -0.246 OA
ATOM     11  O   UNL     1      -2.886   5.569  13.322  1.00  0.00    -0.419 OA
ENDROOT
BRANCH   1  12
ATOM     12  O   UNL     1      -1.159  10.177  10.759  1.00  0.00    -0.493 OA
ATOM     13  C   UNL     1      -0.715  11.371  11.398  1.00  0.00     0.278 C 
ENDBRANCH   1  12
BRANCH   2  14
ATOM     14  O   UNL     1      -1.733   7.964   9.290  1.00  0.00    -0.502 OA
ATOM     15  H   UNL     1      -2.144   8.683   8.712  1.00  0.00     0.293 HD
ENDBRANCH   2  14
BRANCH   3  16
ATOM     16  O   UNL     1      -2.642   5.532  10.614  1.00  0.00    -0.502 OA
ATOM     17  H   UNL     1      -1.969   4.983  10.099  1.00  0.00     0.293 HD
ENDBRANCH   3  16
TORSDOF 3
ENDMDL
MODEL 8
REMARK VINA RESULT:    -4.801      3.703      6.651
REMARK INTER + INTRA:          -5.432
REMARK INTER:                  -5.363
REMARK INTRA:                  -0.070
REMARK UNBOUND:                -0.070
REMARK SMILES COc1cc2ccc(=O)oc2c(O)c1O
REMARK SMILES IDX 3 1 14 2 12 3 11 4 5 5 4 6 6 7 7 8 8 9 9 10 10 11 2 12 1 13
REMARK SMILES IDX 15 14 13 16
REMARK H PARENT 15 15 13 17
REMARK Flexibility Score: inf
ROOT
ATOM      1  C   UNL     1      -2.172   4.841   9.407  1.00  0.00     0.165 A 
ATOM      2  C   UNL     1      -2.873   3.778  10.000  1.00  0.00     0.204 A 
ATOM      3  C   UNL     1      -3.198   3.823  11.379  1.00  0.00     0.205 A 
ATOM      4  C   UNL     1      -2.815   4.933  12.144  1.00  0.00     0.184 A 
ATOM      5  C   UNL     1      -2.111   5.998  11.545  1.00  0.00     0.025 A 
ATOM      6  C   UNL     1      -1.793   5.951  10.184  1.00  0.00     0.062 A 
ATOM      7  C   UNL     1      -1.746   7.090  12.341  1.00  0.00     0.020 A 
ATOM      8  C   UNL     1      -2.083   7.095  13.693  1.00  0.00     0.094 A 
ATOM      9  C   UNL     1      -2.782   6.006  14.220  1.00  0.00     0.336 A 
ATOM     10  O   UNL     1      -3.098   5.991  15.439  1.00  0.00    -0.246 OA
ATOM     11  O   UNL     1      -3.117   4.981  13.440  1.00  0.00    -0.419 OA
ENDROOT
BRANCH   1  12
ATOM     12  O   UNL     1      -1.871   4.756   8.038  1.00  0.00    -0.493 OA
ATOM     13  C   UNL     1      -0.563   4.553   7.509  1.00  0.00     0.278 C 
ENDBRANCH   1  12
BRANCH   2  14
ATOM     14  O   UNL     1      -3.227   2.699   9.186  1.00  0.00    -0.502 OA
ATOM     15  H   UNL     1      -4.130   2.247   9.200  1.00  0.00     0.293 HD
ENDBRANCH   2  14
BRANCH   3  16
ATOM     16  O   UNL     1      -3.893   2.795  12.021  1.00  0.00    -0.502 OA
ATOM     17  H   UNL     1      -4.561   2.190  11.567  1.00  0.00     0.293 HD
ENDBRANCH   3  16
TORSDOF 3
ENDMDL
MODEL 9
REMARK VINA RESULT:    -4.735      2.078      3.560
REMARK INTER + INTRA:          -5.359
REMARK INTER:                  -5.306
REMARK INTRA:                  -0.052
REMARK UNBOUND:                -0.070
REMARK SMILES COc1cc2ccc(=O)oc2c(O)c1O
REMARK SMILES IDX 3 1 14 2 12 3 11 4 5 5 4 6 6 7 7 8 8 9 9 10 10 11 2 12 1 13
REMARK SMILES IDX 15 14 13 16
REMARK H PARENT 15 15 13 17
REMARK Flexibility Score: inf
ROOT
ATOM      1  C   UNL     1      -4.000   2.977  15.098  1.00  0.00     0.165 A 
ATOM      2  C   UNL     1      -3.109   2.145  14.399  1.00  0.00     0.204 A 
ATOM      3  C   UNL     1      -1.807   2.607  14.081  1.00  0.00     0.205 A 
ATOM      4  C   UNL     1      -1.417   3.896  14.466  1.00  0.00     0.184 A 
ATOM      5  C   UNL     1      -2.314   4.728  15.167  1.00  0.00     0.025 A 
ATOM      6  C   UNL     1      -3.598   4.270  15.481  1.00  0.00     0.062 A 
ATOM      7  C   UNL     1      -1.889   6.010  15.536  1.00  0.00     0.020 A 
ATOM      8  C   UNL     1      -0.601   6.426  15.203  1.00  0.00     0.094 A 
ATOM      9  C   UNL     1       0.235   5.548  14.508  1.00  0.00     0.336 A 
ATOM     10  O   UNL     1       1.402   5.904  14.197  1.00  0.00    -0.246 OA
ATOM     11  O   UNL     1      -0.195   4.335  14.170  1.00  0.00    -0.419 OA
ENDROOT
BRANCH   1  12
ATOM     12  O   UNL     1      -5.280   2.480  15.393  1.00  0.00    -0.493 OA
ATOM     13  C   UNL     1      -6.261   3.177  16.155  1.00  0.00     0.278 C 
ENDBRANCH   1  12
BRANCH   2  14
ATOM     14  O   UNL     1      -3.556   0.870  14.042  1.00  0.00    -0.502 OA
ATOM     15  H   UNL     1      -2.955   0.067  13.930  1.00  0.00     0.293 HD
ENDBRANCH   2  14
BRANCH   3  16
ATOM     16  O   UNL     1      -0.881   1.822  13.388  1.00  0.00    -0.502 OA
ATOM     17  H   UNL     1       0.120   1.936  13.450  1.00  0.00     0.293 HD
ENDBRANCH   3  16
TORSDOF 3
ENDMDL
