MODEL 1
REMARK VINA RESULT:    -6.057      0.000      0.000
REMARK INTER + INTRA:          -6.588
REMARK INTER:                  -6.588
REMARK INTRA:                   0.000
REMARK UNBOUND:                 0.000
REMARK SMILES Cc1cc(O)c2c(c1)C(=O)c1cc(O)cc(O)c1C2=O
REMARK SMILES IDX 1 1 2 2 8 3 7 4 6 5 4 6 3 7 19 8 20 9 18 10 11 11 9 12 10 13
REMARK SMILES IDX 12 14 13 15 15 16 16 17 5 18 17 20 14 22
REMARK H PARENT 5 19 17 21 14 23
REMARK Flexibility Score: inf
ROOT
ATOM      1  C   UNL     1       9.020  -0.175  43.645  1.00  0.00     0.044 C 
ATOM      2  C   UNL     1       9.308  -1.469  42.940  1.00  0.00    -0.047 A 
ATOM      3  C   UNL     1       8.482  -2.579  43.143  1.00  0.00     0.016 A 
ATOM      4  C   UNL     1       8.760  -3.803  42.510  1.00  0.00     0.038 A 
ATOM      5  C   UNL     1       9.883  -3.917  41.661  1.00  0.00     0.076 A 
ATOM      6  C   UNL     1      10.763  -2.813  41.527  1.00  0.00     0.127 A 
ATOM      7  C   UNL     1      10.455  -1.599  42.150  1.00  0.00     0.050 A 
ATOM      8  C   UNL     1      10.060  -5.178  40.895  1.00  0.00     0.201 C 
ATOM      9  O   UNL     1      10.631  -5.154  39.773  1.00  0.00    -0.288 OA
ATOM     10  C   UNL     1       9.402  -6.425  41.364  1.00  0.00     0.076 A 
ATOM     11  C   UNL     1       8.280  -6.308  42.215  1.00  0.00     0.041 A 
ATOM     12  C   UNL     1       7.884  -4.977  42.736  1.00  0.00     0.194 C 
ATOM     13  O   UNL     1       6.812  -4.850  43.391  1.00  0.00    -0.289 OA
ATOM     14  C   UNL     1       7.548  -7.454  42.568  1.00  0.00     0.059 A 
ATOM     15  C   UNL     1       7.930  -8.712  42.097  1.00  0.00     0.120 A 
ATOM     16  C   UNL     1       9.059  -8.837  41.290  1.00  0.00     0.093 A 
ATOM     17  C   UNL     1       9.816  -7.714  40.940  1.00  0.00     0.131 A 
ENDROOT
BRANCH   6  18
ATOM     18  O   UNL     1      11.965  -2.887  40.820  1.00  0.00    -0.507 OA
ATOM     19  H   UNL     1      12.107  -3.491  40.022  1.00  0.00     0.293 HD
ENDBRANCH   6  18
BRANCH  17  20
ATOM     20  O   UNL     1      10.986  -7.928  40.206  1.00  0.00    -0.507 OA
ATOM     21  H   UNL     1      11.037  -7.850  39.200  1.00  0.00     0.293 HD
ENDBRANCH  17  20
BRANCH  15  22
ATOM     22  O   UNL     1       7.199  -9.850  42.435  1.00  0.00    -0.508 OA
ATOM     23  H   UNL     1       6.611  -9.876  43.261  1.00  0.00     0.293 HD
ENDBRANCH  15  22
TORSDOF 3
ENDMDL
MODEL 2
REMARK VINA RESULT:    -5.999      3.623      6.235
REMARK INTER + INTRA:          -6.525
REMARK INTER:                  -6.525
REMARK INTRA:                   0.000
REMARK UNBOUND:                 0.000
REMARK SMILES Cc1cc(O)c2c(c1)C(=O)c1cc(O)cc(O)c1C2=O
REMARK SMILES IDX 1 1 2 2 8 3 7 4 6 5 4 6 3 7 19 8 20 9 18 10 11 11 9 12 10 13
REMARK SMILES IDX 12 14 13 15 15 16 16 17 5 18 17 20 14 22
REMARK H PARENT 5 19 17 21 14 23
REMARK Flexibility Score: inf
ROOT
ATOM      1  C   UNL     1      10.165  -5.989  41.082  1.00  0.00     0.044 C 
ATOM      2  C   UNL     1       9.357  -6.999  41.843  1.00  0.00    -0.047 A 
ATOM      3  C   UNL     1       8.982  -8.202  41.235  1.00  0.00     0.016 A 
ATOM      4  C   UNL     1       8.202  -9.142  41.929  1.00  0.00     0.038 A 
ATOM      5  C   UNL     1       7.789  -8.875  43.253  1.00  0.00     0.076 A 
ATOM      6  C   UNL     1       8.101  -7.618  43.833  1.00  0.00     0.127 A 
ATOM      7  C   UNL     1       8.896  -6.707  43.131  1.00  0.00     0.050 A 
ATOM      8  C   UNL     1       7.094  -9.951  44.004  1.00  0.00     0.201 C 
ATOM      9  O   UNL     1       7.213 -10.018  45.257  1.00  0.00    -0.288 OA
ATOM     10  C   UNL     1       6.420 -11.049  43.266  1.00  0.00     0.076 A 
ATOM     11  C   UNL     1       6.833 -11.314  41.940  1.00  0.00     0.041 A 
ATOM     12  C   UNL     1       7.802 -10.411  41.275  1.00  0.00     0.194 C 
ATOM     13  O   UNL     1       8.269 -10.712  40.141  1.00  0.00    -0.289 OA
ATOM     14  C   UNL     1       6.318 -12.429  41.257  1.00  0.00     0.059 A 
ATOM     15  C   UNL     1       5.388 -13.270  41.872  1.00  0.00     0.120 A 
ATOM     16  C   UNL     1       4.948 -12.990  43.166  1.00  0.00     0.093 A 
ATOM     17  C   UNL     1       5.430 -11.876  43.859  1.00  0.00     0.131 A 
ENDROOT
BRANCH   6  18
ATOM     18  O   UNL     1       7.616  -7.221  45.081  1.00  0.00    -0.507 OA
ATOM     19  H   UNL     1       6.979  -7.777  45.635  1.00  0.00     0.293 HD
ENDBRANCH   6  18
BRANCH  17  20
ATOM     20  O   UNL     1       4.875 -11.607  45.114  1.00  0.00    -0.507 OA
ATOM     21  H   UNL     1       4.042 -11.053  45.249  1.00  0.00     0.293 HD
ENDBRANCH  17  20
BRANCH  15  22
ATOM     22  O   UNL     1       4.885 -14.384  41.203  1.00  0.00    -0.508 OA
ATOM     23  H   UNL     1       5.348 -14.765  40.386  1.00  0.00     0.293 HD
ENDBRANCH  15  22
TORSDOF 3
ENDMDL
MODEL 3
REMARK VINA RESULT:    -5.946      4.349      9.322
REMARK INTER + INTRA:          -6.467
REMARK INTER:                  -6.467
REMARK INTRA:                   0.000
REMARK UNBOUND:                 0.000
REMARK SMILES Cc1cc(O)c2c(c1)C(=O)c1cc(O)cc(O)c1C2=O
REMARK SMILES IDX 1 1 2 2 8 3 7 4 6 5 4 6 3 7 19 8 20 9 18 10 11 11 9 12 10 13
REMARK SMILES IDX 12 14 13 15 15 16 16 17 5 18 17 20 14 22
REMARK H PARENT 5 19 17 21 14 23
REMARK Flexibility Score: inf
ROOT
ATOM      1  C   UNL     1       4.885 -15.796  39.369  1.00  0.00     0.044 C 
ATOM      2  C   UNL     1       5.172 -14.742  40.399  1.00  0.00    -0.047 A 
ATOM      3  C   UNL     1       5.674 -13.496  40.008  1.00  0.00     0.016 A 
ATOM      4  C   UNL     1       5.974 -12.513  40.967  1.00  0.00     0.038 A 
ATOM      5  C   UNL     1       5.768 -12.781  42.338  1.00  0.00     0.076 A 
ATOM      6  C   UNL     1       5.340 -14.075  42.733  1.00  0.00     0.127 A 
ATOM      7  C   UNL     1       5.028 -15.030  41.760  1.00  0.00     0.050 A 
ATOM      8  C   UNL     1       5.954 -11.670  43.307  1.00  0.00     0.201 C 
ATOM      9  O   UNL     1       5.280 -11.648  44.371  1.00  0.00    -0.288 OA
ATOM     10  C   UNL     1       6.790 -10.500  42.937  1.00  0.00     0.076 A 
ATOM     11  C   UNL     1       6.996 -10.235  41.564  1.00  0.00     0.041 A 
ATOM     12  C   UNL     1       6.512 -11.197  40.545  1.00  0.00     0.194 C 
ATOM     13  O   UNL     1       6.581 -10.906  39.319  1.00  0.00    -0.289 OA
ATOM     14  C   UNL     1       7.663  -9.062  41.171  1.00  0.00     0.059 A 
ATOM     15  C   UNL     1       8.139  -8.163  42.127  1.00  0.00     0.120 A 
ATOM     16  C   UNL     1       7.973  -8.440  43.484  1.00  0.00     0.093 A 
ATOM     17  C   UNL     1       7.330  -9.610  43.901  1.00  0.00     0.131 A 
ENDROOT
BRANCH   6  18
ATOM     18  O   UNL     1       5.245 -14.463  44.071  1.00  0.00    -0.507 OA
ATOM     19  H   UNL     1       4.367 -14.595  44.553  1.00  0.00     0.293 HD
ENDBRANCH   6  18
BRANCH  17  20
ATOM     20  O   UNL     1       7.282  -9.865  45.274  1.00  0.00    -0.507 OA
ATOM     21  H   UNL     1       7.585 -10.733  45.692  1.00  0.00     0.293 HD
ENDBRANCH  17  20
BRANCH  15  22
ATOM     22  O   UNL     1       8.791  -6.993  41.741  1.00  0.00    -0.508 OA
ATOM     23  H   UNL     1       9.165  -6.879  40.806  1.00  0.00     0.293 HD
ENDBRANCH  15  22
TORSDOF 3
ENDMDL
MODEL 4
REMARK VINA RESULT:    -5.751      4.488      5.620
REMARK INTER + INTRA:          -6.256
REMARK INTER:                  -6.256
REMARK INTRA:                   0.000
REMARK UNBOUND:                 0.000
REMARK SMILES Cc1cc(O)c2c(c1)C(=O)c1cc(O)cc(O)c1C2=O
REMARK SMILES IDX 1 1 2 2 8 3 7 4 6 5 4 6 3 7 19 8 20 9 18 10 11 11 9 12 10 13
REMARK SMILES IDX 12 14 13 15 15 16 16 17 5 18 17 20 14 22
REMARK H PARENT 5 19 17 21 14 23
REMARK Flexibility Score: inf
ROOT
ATOM      1  C   UNL     1       8.913  -1.857  43.568  1.00  0.00     0.044 C 
ATOM      2  C   UNL     1       9.019  -2.354  42.156  1.00  0.00    -0.047 A 
ATOM      3  C   UNL     1       8.243  -1.774  41.147  1.00  0.00     0.016 A 
ATOM      4  C   UNL     1       8.313  -2.251  39.827  1.00  0.00     0.038 A 
ATOM      5  C   UNL     1       9.174  -3.325  39.512  1.00  0.00     0.076 A 
ATOM      6  C   UNL     1       9.893  -3.964  40.555  1.00  0.00     0.127 A 
ATOM      7  C   UNL     1       9.823  -3.458  41.857  1.00  0.00     0.050 A 
ATOM      8  C   UNL     1       9.333  -3.703  38.084  1.00  0.00     0.201 C 
ATOM      9  O   UNL     1      10.421  -4.196  37.683  1.00  0.00    -0.288 OA
ATOM     10  C   UNL     1       8.284  -3.330  37.100  1.00  0.00     0.076 A 
ATOM     11  C   UNL     1       7.423  -2.255  37.419  1.00  0.00     0.041 A 
ATOM     12  C   UNL     1       7.483  -1.635  38.764  1.00  0.00     0.194 C 
ATOM     13  O   UNL     1       6.807  -0.597  39.011  1.00  0.00    -0.289 OA
ATOM     14  C   UNL     1       6.511  -1.783  36.460  1.00  0.00     0.059 A 
ATOM     15  C   UNL     1       6.437  -2.377  35.199  1.00  0.00     0.120 A 
ATOM     16  C   UNL     1       7.257  -3.463  34.894  1.00  0.00     0.093 A 
ATOM     17  C   UNL     1       8.159  -3.965  35.837  1.00  0.00     0.131 A 
ENDROOT
BRANCH   6  18
ATOM     18  O   UNL     1      10.656  -5.115  40.351  1.00  0.00    -0.507 OA
ATOM     19  H   UNL     1      10.257  -6.037  40.235  1.00  0.00     0.293 HD
ENDBRANCH   6  18
BRANCH  17  20
ATOM     20  O   UNL     1       8.881  -5.111  35.493  1.00  0.00    -0.507 OA
ATOM     21  H   UNL     1       9.571  -5.136  34.757  1.00  0.00     0.293 HD
ENDBRANCH  17  20
BRANCH  15  22
ATOM     22  O   UNL     1       5.542  -1.904  34.241  1.00  0.00    -0.508 OA
ATOM     23  H   UNL     1       4.579  -2.219  34.214  1.00  0.00     0.293 HD
ENDBRANCH  15  22
TORSDOF 3
ENDMDL
MODEL 5
REMARK VINA RESULT:    -5.717      3.562      5.474
REMARK INTER + INTRA:          -6.219
REMARK INTER:                  -6.219
REMARK INTRA:                   0.000
REMARK UNBOUND:                 0.000
REMARK SMILES Cc1cc(O)c2c(c1)C(=O)c1cc(O)cc(O)c1C2=O
REMARK SMILES IDX 1 1 2 2 8 3 7 4 6 5 4 6 3 7 19 8 20 9 18 10 11 11 9 12 10 13
REMARK SMILES IDX 12 14 13 15 15 16 16 17 5 18 17 20 14 22
REMARK H PARENT 5 19 17 21 14 23
REMARK Flexibility Score: inf
ROOT
ATOM      1  C   UNL     1      10.491   0.983  48.841  1.00  0.00     0.044 C 
ATOM      2  C   UNL     1      10.783   0.627  47.413  1.00  0.00    -0.047 A 
ATOM      3  C   UNL     1       9.815  -0.019  46.636  1.00  0.00     0.016 A 
ATOM      4  C   UNL     1      10.088  -0.382  45.307  1.00  0.00     0.038 A 
ATOM      5  C   UNL     1      11.352  -0.094  44.744  1.00  0.00     0.076 A 
ATOM      6  C   UNL     1      12.357   0.483  45.562  1.00  0.00     0.127 A 
ATOM      7  C   UNL     1      12.055   0.855  46.876  1.00  0.00     0.050 A 
ATOM      8  C   UNL     1      11.553  -0.357  43.296  1.00  0.00     0.201 C 
ATOM      9  O   UNL     1      12.358   0.353  42.636  1.00  0.00    -0.288 OA
ATOM     10  C   UNL     1      10.674  -1.327  42.593  1.00  0.00     0.076 A 
ATOM     11  C   UNL     1       9.411  -1.614  43.159  1.00  0.00     0.041 A 
ATOM     12  C   UNL     1       9.059  -1.073  44.493  1.00  0.00     0.194 C 
ATOM     13  O   UNL     1       7.890  -1.221  44.946  1.00  0.00    -0.289 OA
ATOM     14  C   UNL     1       8.496  -2.417  42.456  1.00  0.00     0.059 A 
ATOM     15  C   UNL     1       8.831  -2.947  41.208  1.00  0.00     0.120 A 
ATOM     16  C   UNL     1      10.091  -2.698  40.664  1.00  0.00     0.093 A 
ATOM     17  C   UNL     1      11.026  -1.919  41.352  1.00  0.00     0.131 A 
ENDROOT
BRANCH   6  18
ATOM     18  O   UNL     1      13.670   0.672  45.125  1.00  0.00    -0.507 OA
ATOM     19  H   UNL     1      13.945   1.403  44.483  1.00  0.00     0.293 HD
ENDBRANCH   6  18
BRANCH  17  20
ATOM     20  O   UNL     1      12.298  -1.790  40.788  1.00  0.00    -0.507 OA
ATOM     21  H   UNL     1      12.491  -1.237  39.966  1.00  0.00     0.293 HD
ENDBRANCH  17  20
BRANCH  15  22
ATOM     22  O   UNL     1       7.922  -3.733  40.502  1.00  0.00    -0.508 OA
ATOM     23  H   UNL     1       8.195  -4.618  40.091  1.00  0.00     0.293 HD
ENDBRANCH  15  22
TORSDOF 3
ENDMDL
MODEL 6
REMARK VINA RESULT:    -5.671      1.648      5.552
REMARK INTER + INTRA:          -6.169
REMARK INTER:                  -6.169
REMARK INTRA:                   0.000
REMARK UNBOUND:                 0.000
REMARK SMILES Cc1cc(O)c2c(c1)C(=O)c1cc(O)cc(O)c1C2=O
REMARK SMILES IDX 1 1 2 2 8 3 7 4 6 5 4 6 3 7 19 8 20 9 18 10 11 11 9 12 10 13
REMARK SMILES IDX 12 14 13 15 15 16 16 17 5 18 17 20 14 22
REMARK H PARENT 5 19 17 21 14 23
REMARK Flexibility Score: inf
ROOT
ATOM      1  C   UNL     1       7.543  -9.026  42.575  1.00  0.00     0.044 C 
ATOM      2  C   UNL     1       8.351  -7.836  42.150  1.00  0.00    -0.047 A 
ATOM      3  C   UNL     1       7.967  -6.549  42.543  1.00  0.00     0.016 A 
ATOM      4  C   UNL     1       8.701  -5.425  42.126  1.00  0.00     0.038 A 
ATOM      5  C   UNL     1       9.837  -5.591  41.304  1.00  0.00     0.076 A 
ATOM      6  C   UNL     1      10.170  -6.890  40.841  1.00  0.00     0.127 A 
ATOM      7  C   UNL     1       9.438  -7.995  41.285  1.00  0.00     0.050 A 
ATOM      8  C   UNL     1      10.671  -4.398  41.008  1.00  0.00     0.201 C 
ATOM      9  O   UNL     1      11.908  -4.532  40.808  1.00  0.00    -0.288 OA
ATOM     10  C   UNL     1      10.085  -3.038  41.132  1.00  0.00     0.076 A 
ATOM     11  C   UNL     1       8.948  -2.875  41.955  1.00  0.00     0.041 A 
ATOM     12  C   UNL     1       8.283  -4.064  42.541  1.00  0.00     0.194 C 
ATOM     13  O   UNL     1       7.346  -3.917  43.375  1.00  0.00    -0.289 OA
ATOM     14  C   UNL     1       8.447  -1.587  42.208  1.00  0.00     0.059 A 
ATOM     15  C   UNL     1       9.057  -0.465  41.641  1.00  0.00     0.120 A 
ATOM     16  C   UNL     1      10.156  -0.625  40.798  1.00  0.00     0.093 A 
ATOM     17  C   UNL     1      10.660  -1.898  40.513  1.00  0.00     0.131 A 
ENDROOT
BRANCH   6  18
ATOM     18  O   UNL     1      11.192  -7.123  39.917  1.00  0.00    -0.507 OA
ATOM     19  H   UNL     1      11.262  -6.645  39.029  1.00  0.00     0.293 HD
ENDBRANCH   6  18
BRANCH  17  20
ATOM     20  O   UNL     1      11.704  -1.987  39.588  1.00  0.00    -0.507 OA
ATOM     21  H   UNL     1      12.678  -1.884  39.833  1.00  0.00     0.293 HD
ENDBRANCH  17  20
BRANCH  15  22
ATOM     22  O   UNL     1       8.571   0.815  41.900  1.00  0.00    -0.508 OA
ATOM     23  H   UNL     1       7.860   0.980  42.603  1.00  0.00     0.293 HD
ENDBRANCH  15  22
TORSDOF 3
ENDMDL
MODEL 7
REMARK VINA RESULT:    -5.597      4.532      6.817
REMARK INTER + INTRA:          -6.088
REMARK INTER:                  -6.088
REMARK INTRA:                   0.000
REMARK UNBOUND:                 0.000
REMARK SMILES Cc1cc(O)c2c(c1)C(=O)c1cc(O)cc(O)c1C2=O
REMARK SMILES IDX 1 1 2 2 8 3 7 4 6 5 4 6 3 7 19 8 20 9 18 10 11 11 9 12 10 13
REMARK SMILES IDX 12 14 13 15 15 16 16 17 5 18 17 20 14 22
REMARK H PARENT 5 19 17 21 14 23
REMARK Flexibility Score: inf
ROOT
ATOM      1  C   UNL     1      11.188  -4.636  32.571  1.00  0.00     0.044 C 
ATOM      2  C   UNL     1      10.530  -4.422  33.902  1.00  0.00    -0.047 A 
ATOM      3  C   UNL     1      11.306  -4.302  35.059  1.00  0.00     0.016 A 
ATOM      4  C   UNL     1      10.698  -4.130  36.315  1.00  0.00     0.038 A 
ATOM      5  C   UNL     1       9.291  -4.078  36.414  1.00  0.00     0.076 A 
ATOM      6  C   UNL     1       8.508  -4.285  35.249  1.00  0.00     0.127 A 
ATOM      7  C   UNL     1       9.135  -4.434  34.008  1.00  0.00     0.050 A 
ATOM      8  C   UNL     1       8.690  -3.747  37.732  1.00  0.00     0.201 C 
ATOM      9  O   UNL     1       7.585  -3.143  37.783  1.00  0.00    -0.288 OA
ATOM     10  C   UNL     1       9.475  -3.959  38.975  1.00  0.00     0.076 A 
ATOM     11  C   UNL     1      10.884  -4.013  38.873  1.00  0.00     0.041 A 
ATOM     12  C   UNL     1      11.528  -4.011  37.538  1.00  0.00     0.194 C 
ATOM     13  O   UNL     1      12.785  -3.932  37.443  1.00  0.00    -0.289 OA
ATOM     14  C   UNL     1      11.667  -4.074  40.038  1.00  0.00     0.059 A 
ATOM     15  C   UNL     1      11.064  -4.097  41.297  1.00  0.00     0.120 A 
ATOM     16  C   UNL     1       9.674  -4.084  41.401  1.00  0.00     0.093 A 
ATOM     17  C   UNL     1       8.872  -4.044  40.256  1.00  0.00     0.131 A 
ENDROOT
BRANCH   6  18
ATOM     18  O   UNL     1       7.115  -4.386  35.283  1.00  0.00    -0.507 OA
ATOM     19  H   UNL     1       6.501  -3.593  35.407  1.00  0.00     0.293 HD
ENDBRANCH   6  18
BRANCH  17  20
ATOM     20  O   UNL     1       7.488  -4.127  40.435  1.00  0.00    -0.507 OA
ATOM     21  H   UNL     1       6.838  -4.310  39.684  1.00  0.00     0.293 HD
ENDBRANCH  17  20
BRANCH  15  22
ATOM     22  O   UNL     1      11.838  -4.145  42.455  1.00  0.00    -0.508 OA
ATOM     23  H   UNL     1      11.847  -4.963  43.053  1.00  0.00     0.293 HD
ENDBRANCH  15  22
TORSDOF 3
ENDMDL
MODEL 8
REMARK VINA RESULT:    -5.540     14.705     16.422
REMARK INTER + INTRA:          -6.026
REMARK INTER:                  -6.026
REMARK INTRA:                   0.000
REMARK UNBOUND:                 0.000
REMARK SMILES Cc1cc(O)c2c(c1)C(=O)c1cc(O)cc(O)c1C2=O
REMARK SMILES IDX 1 1 2 2 8 3 7 4 6 5 4 6 3 7 19 8 20 9 18 10 11 11 9 12 10 13
REMARK SMILES IDX 12 14 13 15 15 16 16 17 5 18 17 20 14 22
REMARK H PARENT 5 19 17 21 14 23
REMARK Flexibility Score: inf
ROOT
ATOM      1  C   UNL     1      18.460 -10.711  43.908  1.00  0.00     0.044 C 
ATOM      2  C   UNL     1      19.673 -11.435  44.415  1.00  0.00    -0.047 A 
ATOM      3  C   UNL     1      19.919 -12.755  44.020  1.00  0.00     0.016 A 
ATOM      4  C   UNL     1      21.037 -13.452  44.511  1.00  0.00     0.038 A 
ATOM      5  C   UNL     1      21.921 -12.818  45.411  1.00  0.00     0.076 A 
ATOM      6  C   UNL     1      21.619 -11.511  45.873  1.00  0.00     0.127 A 
ATOM      7  C   UNL     1      20.513 -10.830  45.355  1.00  0.00     0.050 A 
ATOM      8  C   UNL     1      23.168 -13.532  45.791  1.00  0.00     0.201 C 
ATOM      9  O   UNL     1      24.203 -12.874  46.079  1.00  0.00    -0.288 OA
ATOM     10  C   UNL     1      23.245 -15.009  45.650  1.00  0.00     0.076 A 
ATOM     11  C   UNL     1      22.358 -15.640  44.749  1.00  0.00     0.041 A 
ATOM     12  C   UNL     1      21.287 -14.852  44.093  1.00  0.00     0.194 C 
ATOM     13  O   UNL     1      20.574 -15.381  43.195  1.00  0.00    -0.289 OA
ATOM     14  C   UNL     1      22.490 -17.014  44.484  1.00  0.00     0.059 A 
ATOM     15  C   UNL     1      23.484 -17.765  45.117  1.00  0.00     0.120 A 
ATOM     16  C   UNL     1      24.336 -17.154  46.035  1.00  0.00     0.093 A 
ATOM     17  C   UNL     1      24.212 -15.793  46.331  1.00  0.00     0.131 A 
ENDROOT
BRANCH   6  18
ATOM     18  O   UNL     1      22.364 -10.870  46.864  1.00  0.00    -0.507 OA
ATOM     19  H   UNL     1      23.283 -10.479  46.708  1.00  0.00     0.293 HD
ENDBRANCH   6  18
BRANCH  17  20
ATOM     20  O   UNL     1      25.040 -15.271  47.329  1.00  0.00    -0.507 OA
ATOM     21  H   UNL     1      25.684 -14.509  47.179  1.00  0.00     0.293 HD
ENDBRANCH  17  20
BRANCH  15  22
ATOM     22  O   UNL     1      23.626 -19.125  44.847  1.00  0.00    -0.508 OA
ATOM     23  H   UNL     1      23.644 -19.813  45.591  1.00  0.00     0.293 HD
ENDBRANCH  15  22
TORSDOF 3
ENDMDL
MODEL 9
REMARK VINA RESULT:    -5.537     14.542     16.865
REMARK INTER + INTRA:          -6.022
REMARK INTER:                  -6.022
REMARK INTRA:                   0.000
REMARK UNBOUND:                 0.000
REMARK SMILES Cc1cc(O)c2c(c1)C(=O)c1cc(O)cc(O)c1C2=O
REMARK SMILES IDX 1 1 2 2 8 3 7 4 6 5 4 6 3 7 19 8 20 9 18 10 11 11 9 12 10 13
REMARK SMILES IDX 12 14 13 15 15 16 16 17 5 18 17 20 14 22
REMARK H PARENT 5 19 17 21 14 23
REMARK Flexibility Score: inf
ROOT
ATOM      1  C   UNL     1      24.009 -18.921  44.821  1.00  0.00     0.044 C 
ATOM      2  C   UNL     1      23.636 -17.524  45.221  1.00  0.00    -0.047 A 
ATOM      3  C   UNL     1      22.501 -16.915  44.674  1.00  0.00     0.016 A 
ATOM      4  C   UNL     1      22.159 -15.597  45.021  1.00  0.00     0.038 A 
ATOM      5  C   UNL     1      22.965 -14.876  45.929  1.00  0.00     0.076 A 
ATOM      6  C   UNL     1      24.160 -15.468  46.413  1.00  0.00     0.127 A 
ATOM      7  C   UNL     1      24.469 -16.788  46.071  1.00  0.00     0.050 A 
ATOM      8  C   UNL     1      22.492 -13.543  46.384  1.00  0.00     0.201 C 
ATOM      9  O   UNL     1      22.801 -13.127  47.532  1.00  0.00    -0.288 OA
ATOM     10  C   UNL     1      21.508 -12.790  45.565  1.00  0.00     0.076 A 
ATOM     11  C   UNL     1      20.703 -13.514  44.656  1.00  0.00     0.041 A 
ATOM     12  C   UNL     1      20.958 -14.957  44.431  1.00  0.00     0.194 C 
ATOM     13  O   UNL     1      20.166 -15.634  43.719  1.00  0.00    -0.289 OA
ATOM     14  C   UNL     1      19.668 -12.861  43.965  1.00  0.00     0.059 A 
ATOM     15  C   UNL     1      19.438 -11.497  44.158  1.00  0.00     0.120 A 
ATOM     16  C   UNL     1      20.254 -10.770  45.024  1.00  0.00     0.093 A 
ATOM     17  C   UNL     1      21.303 -11.393  45.708  1.00  0.00     0.131 A 
ENDROOT
BRANCH   6  18
ATOM     18  O   UNL     1      25.080 -14.774  47.202  1.00  0.00    -0.507 OA
ATOM     19  H   UNL     1      25.078 -13.770  47.310  1.00  0.00     0.293 HD
ENDBRANCH   6  18
BRANCH  17  20
ATOM     20  O   UNL     1      22.136 -10.584  46.486  1.00  0.00    -0.507 OA
ATOM     21  H   UNL     1      21.998  -9.590  46.604  1.00  0.00     0.293 HD
ENDBRANCH  17  20
BRANCH  15  22
ATOM     22  O   UNL     1      18.405 -10.848  43.484  1.00  0.00    -0.508 OA
ATOM     23  H   UNL     1      17.459 -11.214  43.485  1.00  0.00     0.293 HD
ENDBRANCH  15  22
TORSDOF 3
ENDMDL
