MODEL 1
REMARK VINA RESULT:    -3.500      0.000      0.000
REMARK INTER + INTRA:          -4.876
REMARK INTER:                  -4.523
REMARK INTRA:                  -0.353
REMARK UNBOUND:                -0.353
REMARK SMILES CCCCCCC(=O)[O-]
REMARK SMILES IDX 5 1 6 2 7 3 8 4 9 5 4 6 3 7 2 8 1 9
REMARK H PARENT
REMARK Flexibility Score: inf
ROOT
ATOM      1  C   UNL     1     -18.183  43.899  32.782  1.00  0.00     0.006 C 
ENDROOT
BRANCH   1   2
ATOM      2  C   UNL     1     -16.962  44.492  33.494  1.00  0.00     0.053 C 
BRANCH   2   3
ATOM      3  C   UNL     1     -16.036  43.404  33.937  1.00  0.00     0.041 C 
ATOM      4  O   UNL     1     -14.827  43.661  34.179  1.00  0.00    -0.550 OA
ATOM      5  O   UNL     1     -16.495  42.096  34.033  1.00  0.00    -0.550 OA
ENDBRANCH   2   3
ENDBRANCH   1   2
BRANCH   1   6
ATOM      6  C   UNL     1     -18.022  43.871  31.253  1.00  0.00     0.000 C 
BRANCH   6   7
ATOM      7  C   UNL     1     -17.153  45.024  30.729  1.00  0.00    -0.000 C 
BRANCH   7   8
ATOM      8  C   UNL     1     -16.011  44.496  29.853  1.00  0.00    -0.003 C 
ATOM      9  C   UNL     1     -14.651  44.839  30.453  1.00  0.00     0.004 C 
ENDBRANCH   7   8
ENDBRANCH   6   7
ENDBRANCH   1   6
TORSDOF 5
ENDMDL
MODEL 2
REMARK VINA RESULT:    -3.463      2.666      3.843
REMARK INTER + INTRA:          -4.828
REMARK INTER:                  -4.411
REMARK INTRA:                  -0.417
REMARK UNBOUND:                -0.353
REMARK SMILES CCCCCCC(=O)[O-]
REMARK SMILES IDX 5 1 6 2 7 3 8 4 9 5 4 6 3 7 2 8 1 9
REMARK H PARENT
REMARK Flexibility Score: inf
ROOT
ATOM      1  C   UNL     1     -18.971  43.843  33.043  1.00  0.00     0.006 C 
ENDROOT
BRANCH   1   2
ATOM      2  C   UNL     1     -17.540  44.396  33.030  1.00  0.00     0.053 C 
BRANCH   2   3
ATOM      3  C   UNL     1     -16.963  44.317  31.652  1.00  0.00     0.041 C 
ATOM      4  O   UNL     1     -17.264  45.183  30.789  1.00  0.00    -0.550 OA
ATOM      5  O   UNL     1     -16.132  43.259  31.306  1.00  0.00    -0.550 OA
ENDBRANCH   2   3
ENDBRANCH   1   2
BRANCH   1   6
ATOM      6  C   UNL     1     -19.017  42.325  33.283  1.00  0.00     0.000 C 
BRANCH   6   7
ATOM      7  C   UNL     1     -17.920  41.844  34.245  1.00  0.00    -0.000 C 
BRANCH   7   8
ATOM      8  C   UNL     1     -17.222  40.593  33.700  1.00  0.00    -0.003 C 
ATOM      9  C   UNL     1     -17.729  40.242  32.305  1.00  0.00     0.004 C 
ENDBRANCH   7   8
ENDBRANCH   6   7
ENDBRANCH   1   6
TORSDOF 5
ENDMDL
MODEL 3
REMARK VINA RESULT:    -3.461      2.306      3.423
REMARK INTER + INTRA:          -4.825
REMARK INTER:                  -4.463
REMARK INTRA:                  -0.362
REMARK UNBOUND:                -0.353
REMARK SMILES CCCCCCC(=O)[O-]
REMARK SMILES IDX 5 1 6 2 7 3 8 4 9 5 4 6 3 7 2 8 1 9
REMARK H PARENT
REMARK Flexibility Score: inf
ROOT
ATOM      1  C   UNL     1     -16.448  43.301  33.685  1.00  0.00     0.006 C 
ENDROOT
BRANCH   1   2
ATOM      2  C   UNL     1     -17.169  44.543  33.146  1.00  0.00     0.053 C 
BRANCH   2   3
ATOM      3  C   UNL     1     -17.600  44.322  31.730  1.00  0.00     0.041 C 
ATOM      4  O   UNL     1     -18.292  43.315  31.429  1.00  0.00    -0.550 OA
ATOM      5  O   UNL     1     -17.194  45.202  30.734  1.00  0.00    -0.550 OA
ENDBRANCH   2   3
ENDBRANCH   1   2
BRANCH   1   6
ATOM      6  C   UNL     1     -15.033  43.614  34.198  1.00  0.00     0.000 C 
BRANCH   6   7
ATOM      7  C   UNL     1     -14.544  45.006  33.771  1.00  0.00    -0.000 C 
BRANCH   7   8
ATOM      8  C   UNL     1     -13.309  44.901  32.868  1.00  0.00    -0.003 C 
ATOM      9  C   UNL     1     -13.702  44.571  31.432  1.00  0.00     0.004 C 
ENDBRANCH   7   8
ENDBRANCH   6   7
ENDBRANCH   1   6
TORSDOF 5
ENDMDL
MODEL 4
REMARK VINA RESULT:    -3.436      2.278      3.506
REMARK INTER + INTRA:          -4.793
REMARK INTER:                  -4.598
REMARK INTRA:                  -0.196
REMARK UNBOUND:                -0.353
REMARK SMILES CCCCCCC(=O)[O-]
REMARK SMILES IDX 5 1 6 2 7 3 8 4 9 5 4 6 3 7 2 8 1 9
REMARK H PARENT
REMARK Flexibility Score: inf
ROOT
ATOM      1  C   UNL     1     -16.585  44.584  33.527  1.00  0.00     0.006 C 
ENDROOT
BRANCH   1   2
ATOM      2  C   UNL     1     -15.244  43.998  33.985  1.00  0.00     0.053 C 
BRANCH   2   3
ATOM      3  C   UNL     1     -14.225  45.082  34.138  1.00  0.00     0.041 C 
ATOM      4  O   UNL     1     -14.454  46.063  34.893  1.00  0.00    -0.550 OA
ATOM      5  O   UNL     1     -13.044  45.036  33.408  1.00  0.00    -0.550 OA
ENDBRANCH   2   3
ENDBRANCH   1   2
BRANCH   1   6
ATOM      6  C   UNL     1     -16.987  44.114  32.119  1.00  0.00     0.000 C 
BRANCH   6   7
ATOM      7  C   UNL     1     -18.481  43.772  32.013  1.00  0.00    -0.000 C 
BRANCH   7   8
ATOM      8  C   UNL     1     -19.134  43.734  33.400  1.00  0.00    -0.003 C 
ATOM      9  C   UNL     1     -19.368  42.299  33.860  1.00  0.00     0.004 C 
ENDBRANCH   7   8
ENDBRANCH   6   7
ENDBRANCH   1   6
TORSDOF 5
ENDMDL
MODEL 5
REMARK VINA RESULT:    -3.430      2.208      3.424
REMARK INTER + INTRA:          -4.785
REMARK INTER:                  -4.531
REMARK INTRA:                  -0.254
REMARK UNBOUND:                -0.353
REMARK SMILES CCCCCCC(=O)[O-]
REMARK SMILES IDX 5 1 6 2 7 3 8 4 9 5 4 6 3 7 2 8 1 9
REMARK H PARENT
REMARK Flexibility Score: inf
ROOT
ATOM      1  C   UNL     1     -17.312  44.454  33.431  1.00  0.00     0.006 C 
ENDROOT
BRANCH   1   2
ATOM      2  C   UNL     1     -17.793  44.008  32.044  1.00  0.00     0.053 C 
BRANCH   2   3
ATOM      3  C   UNL     1     -17.914  42.518  31.988  1.00  0.00     0.041 C 
ATOM      4  O   UNL     1     -18.735  41.921  32.733  1.00  0.00    -0.550 OA
ATOM      5  O   UNL     1     -17.086  41.784  31.149  1.00  0.00    -0.550 OA
ENDBRANCH   2   3
ENDBRANCH   1   2
BRANCH   1   6
ATOM      6  C   UNL     1     -15.911  43.922  33.770  1.00  0.00     0.000 C 
BRANCH   6   7
ATOM      7  C   UNL     1     -14.812  44.547  32.897  1.00  0.00    -0.000 C 
BRANCH   7   8
ATOM      8  C   UNL     1     -13.728  45.199  33.762  1.00  0.00    -0.003 C 
ATOM      9  C   UNL     1     -14.339  45.938  34.948  1.00  0.00     0.004 C 
ENDBRANCH   7   8
ENDBRANCH   6   7
ENDBRANCH   1   6
TORSDOF 5
ENDMDL
MODEL 6
REMARK VINA RESULT:    -3.427      1.972      3.538
REMARK INTER + INTRA:          -4.781
REMARK INTER:                  -4.409
REMARK INTRA:                  -0.372
REMARK UNBOUND:                -0.353
REMARK SMILES CCCCCCC(=O)[O-]
REMARK SMILES IDX 5 1 6 2 7 3 8 4 9 5 4 6 3 7 2 8 1 9
REMARK H PARENT
REMARK Flexibility Score: inf
ROOT
ATOM      1  C   UNL     1     -15.875  44.345  29.922  1.00  0.00     0.006 C 
ENDROOT
BRANCH   1   2
ATOM      2  C   UNL     1     -17.111  44.835  30.686  1.00  0.00     0.053 C 
BRANCH   2   3
ATOM      3  C   UNL     1     -17.808  43.685  31.343  1.00  0.00     0.041 C 
ATOM      4  O   UNL     1     -17.363  42.515  31.208  1.00  0.00    -0.550 OA
ATOM      5  O   UNL     1     -18.976  43.899  32.063  1.00  0.00    -0.550 OA
ENDBRANCH   2   3
ENDBRANCH   1   2
BRANCH   1   6
ATOM      6  C   UNL     1     -14.564  44.905  30.497  1.00  0.00     0.000 C 
BRANCH   6   7
ATOM      7  C   UNL     1     -14.016  44.057  31.655  1.00  0.00    -0.000 C 
BRANCH   7   8
ATOM      8  C   UNL     1     -13.812  44.911  32.911  1.00  0.00    -0.003 C 
ATOM      9  C   UNL     1     -15.030  44.847  33.827  1.00  0.00     0.004 C 
ENDBRANCH   7   8
ENDBRANCH   6   7
ENDBRANCH   1   6
TORSDOF 5
ENDMDL
MODEL 7
REMARK VINA RESULT:    -3.425      2.192      3.651
REMARK INTER + INTRA:          -4.779
REMARK INTER:                  -4.365
REMARK INTRA:                  -0.414
REMARK UNBOUND:                -0.353
REMARK SMILES CCCCCCC(=O)[O-]
REMARK SMILES IDX 5 1 6 2 7 3 8 4 9 5 4 6 3 7 2 8 1 9
REMARK H PARENT
REMARK Flexibility Score: inf
ROOT
ATOM      1  C   UNL     1     -17.649  44.073  31.979  1.00  0.00     0.006 C 
ENDROOT
BRANCH   1   2
ATOM      2  C   UNL     1     -17.057  44.920  30.845  1.00  0.00     0.053 C 
BRANCH   2   3
ATOM      3  C   UNL     1     -15.762  44.333  30.379  1.00  0.00     0.041 C 
ATOM      4  O   UNL     1     -15.699  43.120  30.048  1.00  0.00    -0.550 OA
ATOM      5  O   UNL     1     -14.612  45.113  30.359  1.00  0.00    -0.550 OA
ENDBRANCH   2   3
ENDBRANCH   1   2
BRANCH   1   6
ATOM      6  C   UNL     1     -17.049  44.419  33.352  1.00  0.00     0.000 C 
BRANCH   6   7
ATOM      7  C   UNL     1     -16.124  43.317  33.888  1.00  0.00    -0.000 C 
BRANCH   7   8
ATOM      8  C   UNL     1     -14.677  43.815  33.988  1.00  0.00    -0.003 C 
ATOM      9  C   UNL     1     -14.629  45.309  34.294  1.00  0.00     0.004 C 
ENDBRANCH   7   8
ENDBRANCH   6   7
ENDBRANCH   1   6
TORSDOF 5
ENDMDL
MODEL 8
REMARK VINA RESULT:    -3.406      1.464      2.968
REMARK INTER + INTRA:          -4.755
REMARK INTER:                  -4.397
REMARK INTRA:                  -0.358
REMARK UNBOUND:                -0.353
REMARK SMILES CCCCCCC(=O)[O-]
REMARK SMILES IDX 5 1 6 2 7 3 8 4 9 5 4 6 3 7 2 8 1 9
REMARK H PARENT
REMARK Flexibility Score: inf
ROOT
ATOM      1  C   UNL     1     -14.605  43.947  31.635  1.00  0.00     0.006 C 
ENDROOT
BRANCH   1   2
ATOM      2  C   UNL     1     -13.950  44.838  32.698  1.00  0.00     0.053 C 
BRANCH   2   3
ATOM      3  C   UNL     1     -14.755  44.825  33.958  1.00  0.00     0.041 C 
ATOM      4  O   UNL     1     -15.574  43.893  34.177  1.00  0.00    -0.550 OA
ATOM      5  O   UNL     1     -14.640  45.867  34.869  1.00  0.00    -0.550 OA
ENDBRANCH   2   3
ENDBRANCH   1   2
BRANCH   1   6
ATOM      6  C   UNL     1     -15.261  44.757  30.506  1.00  0.00     0.000 C 
BRANCH   6   7
ATOM      7  C   UNL     1     -16.784  44.878  30.672  1.00  0.00    -0.000 C 
BRANCH   7   8
ATOM      8  C   UNL     1     -17.399  43.534  31.078  1.00  0.00    -0.003 C 
ATOM      9  C   UNL     1     -18.609  43.733  31.986  1.00  0.00     0.004 C 
ENDBRANCH   7   8
ENDBRANCH   6   7
ENDBRANCH   1   6
TORSDOF 5
ENDMDL
MODEL 9
REMARK VINA RESULT:    -3.381      2.298      3.363
REMARK INTER + INTRA:          -4.722
REMARK INTER:                  -4.486
REMARK INTRA:                  -0.236
REMARK UNBOUND:                -0.353
REMARK SMILES CCCCCCC(=O)[O-]
REMARK SMILES IDX 5 1 6 2 7 3 8 4 9 5 4 6 3 7 2 8 1 9
REMARK H PARENT
REMARK Flexibility Score: inf
ROOT
ATOM      1  C   UNL     1     -17.204  44.504  32.038  1.00  0.00     0.006 C 
ENDROOT
BRANCH   1   2
ATOM      2  C   UNL     1     -18.362  43.498  32.004  1.00  0.00     0.053 C 
BRANCH   2   3
ATOM      3  C   UNL     1     -19.043  43.442  33.334  1.00  0.00     0.041 C 
ATOM      4  O   UNL     1     -19.133  42.349  33.953  1.00  0.00    -0.550 OA
ATOM      5  O   UNL     1     -19.624  44.585  33.868  1.00  0.00    -0.550 OA
ENDBRANCH   2   3
ENDBRANCH   1   2
BRANCH   1   6
ATOM      6  C   UNL     1     -15.979  43.971  32.799  1.00  0.00     0.000 C 
BRANCH   6   7
ATOM      7  C   UNL     1     -15.691  44.763  34.084  1.00  0.00    -0.000 C 
BRANCH   7   8
ATOM      8  C   UNL     1     -14.233  45.237  34.120  1.00  0.00    -0.003 C 
ATOM      9  C   UNL     1     -13.495  44.847  32.843  1.00  0.00     0.004 C 
ENDBRANCH   7   8
ENDBRANCH   6   7
ENDBRANCH   1   6
TORSDOF 5
ENDMDL
