MODEL 1
REMARK VINA RESULT:    -2.503      0.000      0.000
REMARK INTER + INTRA:          -5.137
REMARK INTER:                  -3.819
REMARK INTRA:                  -1.318
REMARK UNBOUND:                -1.318
REMARK SMILES OC[C@@H]1O[C@](CO)(O[C@@H]2O[C@H](CO)[C@H](O)[C@@H](O)[C@H]2O)[C@H](O)[C@@H]1O
REMARK SMILES IDX 8 1 9 2 11 3 14 4 10 5 16 6 18 7 12 8 13 9 15 11 17 13 19 15
REMARK SMILES IDX 5 17 20 18 4 19 22 20 3 21 6 22 7 23 21 25 23 27 2 29 1 30
REMARK H PARENT 13 10 15 12 17 14 19 16 7 24 21 26 23 28 1 31
REMARK Flexibility Score: inf
ROOT
ATOM      1  O   UNL     1       4.911  -6.999   5.312  1.00  0.00    -0.313 OA
ENDROOT
BRANCH   1   2
ATOM      2  C   UNL     1       3.926  -6.683   4.332  1.00  0.00     0.285 C 
ATOM      3  C   UNL     1       5.384  -5.456   2.875  1.00  0.00     0.178 C 
ATOM      4  C   UNL     1       4.714  -4.113   3.257  1.00  0.00     0.177 C 
ATOM      5  O   UNL     1       4.518  -6.576   3.042  1.00  0.00    -0.341 OA
ATOM      6  C   UNL     1       4.089  -4.187   4.657  1.00  0.00     0.179 C 
ATOM      7  C   UNL     1       3.166  -5.408   4.737  1.00  0.00     0.202 C 
BRANCH   3   8
ATOM      8  C   UNL     1       6.767  -5.694   3.522  1.00  0.00     0.191 C 
BRANCH   8   9
ATOM      9  O   UNL     1       7.421  -6.782   2.923  1.00  0.00    -0.394 OA
ATOM     10  H   UNL     1       6.880  -7.590   3.128  1.00  0.00     0.210 HD
ENDBRANCH   8   9
ENDBRANCH   3   8
BRANCH   4  11
ATOM     11  O   UNL     1       5.650  -3.067   3.194  1.00  0.00    -0.387 OA
ATOM     12  H   UNL     1       6.105  -3.134   2.313  1.00  0.00     0.211 HD
ENDBRANCH   4  11
BRANCH   6  13
ATOM     13  O   UNL     1       3.349  -3.023   4.924  1.00  0.00    -0.387 OA
ATOM     14  H   UNL     1       2.902  -3.158   5.800  1.00  0.00     0.211 HD
ENDBRANCH   6  13
BRANCH   7  15
ATOM     15  O   UNL     1       2.057  -5.244   3.887  1.00  0.00    -0.385 OA
ATOM     16  H   UNL     1       1.262  -5.584   4.376  1.00  0.00     0.211 HD
ENDBRANCH   7  15
ENDBRANCH   1   2
BRANCH   1  17
ATOM     17  C   UNL     1       4.799  -8.313   5.858  1.00  0.00     0.224 C 
ATOM     18  C   UNL     1       6.043  -9.122   5.429  1.00  0.00     0.208 C 
ATOM     19  O   UNL     1       3.652  -8.967   5.337  1.00  0.00    -0.337 OA
ATOM     20  C   UNL     1       5.567  -9.864   4.207  1.00  0.00     0.180 C 
ATOM     21  C   UNL     1       4.079 -10.027   4.511  1.00  0.00     0.179 C 
BRANCH  17  22
ATOM     22  C   UNL     1       4.717  -8.256   7.403  1.00  0.00     0.225 C 
BRANCH  22  23
ATOM     23  O   UNL     1       4.029  -9.374   7.898  1.00  0.00    -0.391 OA
ATOM     24  H   UNL     1       3.852  -9.189   8.856  1.00  0.00     0.210 HD
ENDBRANCH  22  23
ENDBRANCH  17  22
BRANCH  18  25
ATOM     25  O   UNL     1       7.149  -8.303   5.143  1.00  0.00    -0.385 OA
ATOM     26  H   UNL     1       7.049  -8.018   4.198  1.00  0.00     0.211 HD
ENDBRANCH  18  25
BRANCH  20  27
ATOM     27  O   UNL     1       5.773  -9.101   3.044  1.00  0.00    -0.387 OA
ATOM     28  H   UNL     1       6.505  -8.462   3.245  1.00  0.00     0.211 HD
ENDBRANCH  20  27
BRANCH  21  29
ATOM     29  C   UNL     1       3.188 -10.125   3.265  1.00  0.00     0.191 C 
BRANCH  29  30
ATOM     30  O   UNL     1       1.905  -9.628   3.536  1.00  0.00    -0.394 OA
ATOM     31  H   UNL     1       1.554 -10.168   4.291  1.00  0.00     0.210 HD
ENDBRANCH  29  30
ENDBRANCH  21  29
ENDBRANCH   1  17
TORSDOF 13
ENDMDL
MODEL 2
REMARK VINA RESULT:    -1.567      1.203      1.912
REMARK INTER + INTRA:          -3.709
REMARK INTER:                  -2.155
REMARK INTRA:                  -1.554
REMARK UNBOUND:                -1.318
REMARK SMILES OC[C@@H]1O[C@](CO)(O[C@@H]2O[C@H](CO)[C@H](O)[C@@H](O)[C@H]2O)[C@H](O)[C@@H]1O
REMARK SMILES IDX 8 1 9 2 11 3 14 4 10 5 16 6 18 7 12 8 13 9 15 11 17 13 19 15
REMARK SMILES IDX 5 17 20 18 4 19 22 20 3 21 6 22 7 23 21 25 23 27 2 29 1 30
REMARK H PARENT 13 10 15 12 17 14 19 16 7 24 21 26 23 28 1 31
REMARK Flexibility Score: inf
ROOT
ATOM      1  O   UNL     1       4.188  -7.205   5.120  1.00  0.00    -0.313 OA
ENDROOT
BRANCH   1   2
ATOM      2  C   UNL     1       3.582  -6.870   3.875  1.00  0.00     0.285 C 
ATOM      3  C   UNL     1       5.372  -5.492   3.068  1.00  0.00     0.178 C 
ATOM      4  C   UNL     1       4.530  -4.206   3.254  1.00  0.00     0.177 C 
ATOM      5  O   UNL     1       4.573  -6.657   2.875  1.00  0.00    -0.341 OA
ATOM      6  C   UNL     1       3.469  -4.395   4.347  1.00  0.00     0.179 C 
ATOM      7  C   UNL     1       2.651  -5.657   4.048  1.00  0.00     0.202 C 
BRANCH   3   8
ATOM      8  C   UNL     1       6.462  -5.712   4.142  1.00  0.00     0.191 C 
BRANCH   8   9
ATOM      9  O   UNL     1       7.640  -6.213   3.568  1.00  0.00    -0.394 OA
ATOM     10  H   UNL     1       8.046  -6.827   4.235  1.00  0.00     0.210 HD
ENDBRANCH   8   9
ENDBRANCH   3   8
BRANCH   4  11
ATOM     11  O   UNL     1       5.364  -3.119   3.565  1.00  0.00    -0.387 OA
ATOM     12  H   UNL     1       4.848  -2.291   3.378  1.00  0.00     0.211 HD
ENDBRANCH   4  11
BRANCH   6  13
ATOM     13  O   UNL     1       2.612  -3.283   4.393  1.00  0.00    -0.387 OA
ATOM     14  H   UNL     1       2.186  -3.281   5.289  1.00  0.00     0.211 HD
ENDBRANCH   6  13
BRANCH   7  15
ATOM     15  O   UNL     1       1.893  -5.488   2.875  1.00  0.00    -0.385 OA
ATOM     16  H   UNL     1       1.602  -6.391   2.583  1.00  0.00     0.211 HD
ENDBRANCH   7  15
ENDBRANCH   1   2
BRANCH   1  17
ATOM     17  C   UNL     1       4.110  -8.589   5.461  1.00  0.00     0.224 C 
ATOM     18  C   UNL     1       5.058  -8.847   6.653  1.00  0.00     0.208 C 
ATOM     19  O   UNL     1       4.549  -9.388   4.374  1.00  0.00    -0.337 OA
ATOM     20  C   UNL     1       6.318  -9.341   5.991  1.00  0.00     0.180 C 
ATOM     21  C   UNL     1       5.759 -10.014   4.738  1.00  0.00     0.179 C 
BRANCH  17  22
ATOM     22  C   UNL     1       2.662  -8.974   5.849  1.00  0.00     0.225 C 
BRANCH  22  23
ATOM     23  O   UNL     1       2.662  -9.797   6.984  1.00  0.00    -0.391 OA
ATOM     24  H   UNL     1       3.608 -10.047   7.145  1.00  0.00     0.210 HD
ENDBRANCH  22  23
ENDBRANCH  17  22
BRANCH  18  25
ATOM     25  O   UNL     1       5.292  -7.692   7.419  1.00  0.00    -0.385 OA
ATOM     26  H   UNL     1       4.419  -7.440   7.819  1.00  0.00     0.211 HD
ENDBRANCH  18  25
BRANCH  20  27
ATOM     27  O   UNL     1       7.168  -8.270   5.663  1.00  0.00    -0.387 OA
ATOM     28  H   UNL     1       6.858  -7.916   4.789  1.00  0.00     0.211 HD
ENDBRANCH  20  27
BRANCH  21  29
ATOM     29  C   UNL     1       6.728 -10.034   3.548  1.00  0.00     0.191 C 
BRANCH  29  30
ATOM     30  O   UNL     1       6.791  -8.772   2.941  1.00  0.00    -0.394 OA
ATOM     31  H   UNL     1       5.852  -8.464   2.847  1.00  0.00     0.210 HD
ENDBRANCH  29  30
ENDBRANCH  21  29
ENDBRANCH   1  17
TORSDOF 13
ENDMDL
MODEL 3
REMARK VINA RESULT:    -0.784      8.203     11.117
REMARK INTER + INTRA:          -2.515
REMARK INTER:                  -1.717
REMARK INTRA:                  -0.798
REMARK UNBOUND:                -1.318
REMARK SMILES OC[C@@H]1O[C@](CO)(O[C@@H]2O[C@H](CO)[C@H](O)[C@@H](O)[C@H]2O)[C@H](O)[C@@H]1O
REMARK SMILES IDX 8 1 9 2 11 3 14 4 10 5 16 6 18 7 12 8 13 9 15 11 17 13 19 15
REMARK SMILES IDX 5 17 20 18 4 19 22 20 3 21 6 22 7 23 21 25 23 27 2 29 1 30
REMARK H PARENT 13 10 15 12 17 14 19 16 7 24 21 26 23 28 1 31
REMARK Flexibility Score: inf
ROOT
ATOM      1  O   UNL     1      14.589  -6.994   3.919  1.00  0.00    -0.313 OA
ENDROOT
BRANCH   1   2
ATOM      2  C   UNL     1      15.907  -7.107   3.391  1.00  0.00     0.285 C 
ATOM      3  C   UNL     1      16.184  -9.443   3.863  1.00  0.00     0.178 C 
ATOM      4  C   UNL     1      17.201  -9.143   4.993  1.00  0.00     0.177 C 
ATOM      5  O   UNL     1      16.132  -8.415   2.876  1.00  0.00    -0.341 OA
ATOM      6  C   UNL     1      16.967  -7.748   5.589  1.00  0.00     0.179 C 
ATOM      7  C   UNL     1      16.942  -6.712   4.460  1.00  0.00     0.202 C 
BRANCH   3   8
ATOM      8  C   UNL     1      14.775  -9.846   4.353  1.00  0.00     0.191 C 
BRANCH   8   9
ATOM      9  O   UNL     1      13.841  -9.776   3.308  1.00  0.00    -0.394 OA
ATOM     10  H   UNL     1      14.295  -9.330   2.546  1.00  0.00     0.210 HD
ENDBRANCH   8   9
ENDBRANCH   3   8
BRANCH   4  11
ATOM     11  O   UNL     1      17.117 -10.124   5.996  1.00  0.00    -0.387 OA
ATOM     12  H   UNL     1      17.891 -10.734   5.874  1.00  0.00     0.211 HD
ENDBRANCH   4  11
BRANCH   6  13
ATOM     13  O   UNL     1      17.991  -7.427   6.496  1.00  0.00    -0.387 OA
ATOM     14  H   UNL     1      17.874  -8.014   7.287  1.00  0.00     0.211 HD
ENDBRANCH   6  13
BRANCH   7  15
ATOM     15  O   UNL     1      18.209  -6.607   3.857  1.00  0.00    -0.385 OA
ATOM     16  H   UNL     1      18.882  -6.628   4.587  1.00  0.00     0.211 HD
ENDBRANCH   7  15
ENDBRANCH   1   2
BRANCH   1  17
ATOM     17  C   UNL     1      13.947  -5.750   3.640  1.00  0.00     0.224 C 
ATOM     18  C   UNL     1      13.533  -5.107   4.982  1.00  0.00     0.208 C 
ATOM     19  O   UNL     1      12.769  -5.966   2.879  1.00  0.00    -0.337 OA
ATOM     20  C   UNL     1      12.095  -5.526   5.137  1.00  0.00     0.180 C 
ATOM     21  C   UNL     1      11.653  -5.642   3.679  1.00  0.00     0.179 C 
BRANCH  17  22
ATOM     22  C   UNL     1      14.902  -4.802   2.876  1.00  0.00     0.225 C 
BRANCH  22  23
ATOM     23  O   UNL     1      14.528  -3.465   3.076  1.00  0.00    -0.391 OA
ATOM     24  H   UNL     1      15.363  -2.933   3.022  1.00  0.00     0.210 HD
ENDBRANCH  22  23
ENDBRANCH  17  22
BRANCH  18  25
ATOM     25  O   UNL     1      14.322  -5.548   6.059  1.00  0.00    -0.385 OA
ATOM     26  H   UNL     1      15.102  -4.936   6.103  1.00  0.00     0.211 HD
ENDBRANCH  18  25
BRANCH  20  27
ATOM     27  O   UNL     1      11.999  -6.762   5.802  1.00  0.00    -0.387 OA
ATOM     28  H   UNL     1      11.386  -6.627   6.571  1.00  0.00     0.211 HD
ENDBRANCH  20  27
BRANCH  21  29
ATOM     29  C   UNL     1      10.517  -6.647   3.442  1.00  0.00     0.191 C 
BRANCH  29  30
ATOM     30  O   UNL     1       9.338  -6.213   4.064  1.00  0.00    -0.394 OA
ATOM     31  H   UNL     1       9.612  -5.532   4.732  1.00  0.00     0.210 HD
ENDBRANCH  29  30
ENDBRANCH  21  29
ENDBRANCH   1  17
TORSDOF 13
ENDMDL
MODEL 4
REMARK VINA RESULT:    -0.333      1.543      5.361
REMARK INTER + INTRA:          -1.826
REMARK INTER:                  -2.059
REMARK INTRA:                   0.233
REMARK UNBOUND:                -1.318
REMARK SMILES OC[C@@H]1O[C@](CO)(O[C@@H]2O[C@H](CO)[C@H](O)[C@@H](O)[C@H]2O)[C@H](O)[C@@H]1O
REMARK SMILES IDX 8 1 9 2 11 3 14 4 10 5 16 6 18 7 12 8 13 9 15 11 17 13 19 15
REMARK SMILES IDX 5 17 20 18 4 19 22 20 3 21 6 22 7 23 21 25 23 27 2 29 1 30
REMARK H PARENT 13 10 15 12 17 14 19 16 7 24 21 26 23 28 1 31
REMARK Flexibility Score: inf
ROOT
ATOM      1  O   UNL     1       4.469  -6.419   5.391  1.00  0.00    -0.313 OA
ENDROOT
BRANCH   1   2
ATOM      2  C   UNL     1       5.257  -7.597   5.251  1.00  0.00     0.285 C 
ATOM      3  C   UNL     1       3.420  -9.131   5.094  1.00  0.00     0.178 C 
ATOM      4  C   UNL     1       3.715  -9.703   6.503  1.00  0.00     0.177 C 
ATOM      5  O   UNL     1       4.572  -8.570   4.470  1.00  0.00    -0.341 OA
ATOM      6  C   UNL     1       4.429  -8.667   7.381  1.00  0.00     0.179 C 
ATOM      7  C   UNL     1       5.659  -8.134   6.637  1.00  0.00     0.202 C 
BRANCH   3   8
ATOM      8  C   UNL     1       2.205  -8.178   5.026  1.00  0.00     0.191 C 
BRANCH   8   9
ATOM      9  O   UNL     1       1.943  -7.793   3.702  1.00  0.00    -0.394 OA
ATOM     10  H   UNL     1       1.705  -8.619   3.204  1.00  0.00     0.210 HD
ENDBRANCH   8   9
ENDBRANCH   3   8
BRANCH   4  11
ATOM     11  O   UNL     1       2.523 -10.125   7.117  1.00  0.00    -0.387 OA
ATOM     12  H   UNL     1       2.212 -10.933   6.628  1.00  0.00     0.211 HD
ENDBRANCH   4  11
BRANCH   6  13
ATOM     13  O   UNL     1       4.833  -9.249   8.594  1.00  0.00    -0.387 OA
ATOM     14  H   UNL     1       5.568  -8.688   8.955  1.00  0.00     0.211 HD
ENDBRANCH   6  13
BRANCH   7  15
ATOM     15  O   UNL     1       6.618  -9.150   6.476  1.00  0.00    -0.385 OA
ATOM     16  H   UNL     1       7.414  -8.887   7.009  1.00  0.00     0.211 HD
ENDBRANCH   7  15
ENDBRANCH   1   2
BRANCH   1  17
ATOM     17  C   UNL     1       5.054  -5.247   4.826  1.00  0.00     0.224 C 
ATOM     18  C   UNL     1       4.940  -5.341   3.289  1.00  0.00     0.208 C 
ATOM     19  O   UNL     1       6.433  -5.177   5.157  1.00  0.00    -0.337 OA
ATOM     20  C   UNL     1       6.276  -5.900   2.877  1.00  0.00     0.180 C 
ATOM     21  C   UNL     1       7.185  -5.357   3.978  1.00  0.00     0.179 C 
BRANCH  17  22
ATOM     22  C   UNL     1       4.326  -3.976   5.330  1.00  0.00     0.225 C 
BRANCH  22  23
ATOM     23  O   UNL     1       2.974  -4.007   4.957  1.00  0.00    -0.391 OA
ATOM     24  H   UNL     1       2.961  -4.015   3.965  1.00  0.00     0.210 HD
ENDBRANCH  22  23
ENDBRANCH  17  22
BRANCH  18  25
ATOM     25  O   UNL     1       3.880  -6.168   2.875  1.00  0.00    -0.385 OA
ATOM     26  H   UNL     1       3.360  -5.645   2.211  1.00  0.00     0.211 HD
ENDBRANCH  18  25
BRANCH  20  27
ATOM     27  O   UNL     1       6.255  -7.306   2.876  1.00  0.00    -0.387 OA
ATOM     28  H   UNL     1       6.015  -7.590   3.796  1.00  0.00     0.211 HD
ENDBRANCH  20  27
BRANCH  21  29
ATOM     29  C   UNL     1       8.420  -6.224   4.261  1.00  0.00     0.191 C 
BRANCH  29  30
ATOM     30  O   UNL     1       9.520  -5.420   4.596  1.00  0.00    -0.394 OA
ATOM     31  H   UNL     1      10.252  -5.683   3.980  1.00  0.00     0.210 HD
ENDBRANCH  29  30
ENDBRANCH  21  29
ENDBRANCH   1  17
TORSDOF 13
ENDMDL
MODEL 5
REMARK VINA RESULT:    -0.007      1.941      3.806
REMARK INTER + INTRA:          -1.328
REMARK INTER:                  -0.852
REMARK INTRA:                  -0.476
REMARK UNBOUND:                -1.318
REMARK SMILES OC[C@@H]1O[C@](CO)(O[C@@H]2O[C@H](CO)[C@H](O)[C@@H](O)[C@H]2O)[C@H](O)[C@@H]1O
REMARK SMILES IDX 8 1 9 2 11 3 14 4 10 5 16 6 18 7 12 8 13 9 15 11 17 13 19 15
REMARK SMILES IDX 5 17 20 18 4 19 22 20 3 21 6 22 7 23 21 25 23 27 2 29 1 30
REMARK H PARENT 13 10 15 12 17 14 19 16 7 24 21 26 23 28 1 31
REMARK Flexibility Score: inf
ROOT
ATOM      1  O   UNL     1       6.442  -6.460   5.365  1.00  0.00    -0.313 OA
ENDROOT
BRANCH   1   2
ATOM      2  C   UNL     1       6.616  -5.707   4.169  1.00  0.00     0.285 C 
ATOM      3  C   UNL     1       7.584  -7.479   2.875  1.00  0.00     0.178 C 
ATOM      4  C   UNL     1       8.979  -6.806   2.908  1.00  0.00     0.177 C 
ATOM      5  O   UNL     1       6.515  -6.549   3.025  1.00  0.00    -0.341 OA
ATOM      6  C   UNL     1       9.130  -5.911   4.146  1.00  0.00     0.179 C 
ATOM      7  C   UNL     1       7.948  -4.937   4.215  1.00  0.00     0.202 C 
BRANCH   3   8
ATOM      8  C   UNL     1       7.431  -8.693   3.819  1.00  0.00     0.191 C 
BRANCH   8   9
ATOM      9  O   UNL     1       7.199  -9.870   3.091  1.00  0.00    -0.394 OA
ATOM     10  H   UNL     1       7.635 -10.608   3.593  1.00  0.00     0.210 HD
ENDBRANCH   8   9
ENDBRANCH   3   8
BRANCH   4  11
ATOM     11  O   UNL     1       9.991  -7.781   2.883  1.00  0.00    -0.387 OA
ATOM     12  H   UNL     1      10.552  -7.642   3.692  1.00  0.00     0.211 HD
ENDBRANCH   4  11
BRANCH   6  13
ATOM     13  O   UNL     1      10.331  -5.185   4.080  1.00  0.00    -0.387 OA
ATOM     14  H   UNL     1      10.171  -4.414   3.476  1.00  0.00     0.211 HD
ENDBRANCH   6  13
BRANCH   7  15
ATOM     15  O   UNL     1       7.993  -4.029   3.142  1.00  0.00    -0.385 OA
ATOM     16  H   UNL     1       7.884  -4.558   2.308  1.00  0.00     0.211 HD
ENDBRANCH   7  15
ENDBRANCH   1   2
BRANCH   1  17
ATOM     17  C   UNL     1       5.112  -6.448   5.883  1.00  0.00     0.224 C 
ATOM     18  C   UNL     1       4.855  -7.797   6.588  1.00  0.00     0.208 C 
ATOM     19  O   UNL     1       4.174  -6.323   4.825  1.00  0.00    -0.337 OA
ATOM     20  C   UNL     1       4.164  -8.615   5.529  1.00  0.00     0.180 C 
ATOM     21  C   UNL     1       3.451  -7.530   4.724  1.00  0.00     0.179 C 
BRANCH  17  22
ATOM     22  C   UNL     1       4.929  -5.285   6.889  1.00  0.00     0.225 C 
BRANCH  22  23
ATOM     23  O   UNL     1       4.252  -4.216   6.284  1.00  0.00    -0.391 OA
ATOM     24  H   UNL     1       3.582  -3.903   6.945  1.00  0.00     0.210 HD
ENDBRANCH  22  23
ENDBRANCH  17  22
BRANCH  18  25
ATOM     25  O   UNL     1       6.040  -8.411   7.030  1.00  0.00    -0.385 OA
ATOM     26  H   UNL     1       5.896  -8.644   7.984  1.00  0.00     0.211 HD
ENDBRANCH  18  25
BRANCH  20  27
ATOM     27  O   UNL     1       5.099  -9.308   4.739  1.00  0.00    -0.387 OA
ATOM     28  H   UNL     1       5.342 -10.130   5.238  1.00  0.00     0.211 HD
ENDBRANCH  20  27
BRANCH  21  29
ATOM     29  C   UNL     1       3.215  -7.889   3.251  1.00  0.00     0.191 C 
BRANCH  29  30
ATOM     30  O   UNL     1       2.645  -9.165   3.140  1.00  0.00    -0.394 OA
ATOM     31  H   UNL     1       3.379  -9.773   2.865  1.00  0.00     0.210 HD
ENDBRANCH  29  30
ENDBRANCH  21  29
ENDBRANCH   1  17
TORSDOF 13
ENDMDL
MODEL 6
REMARK VINA RESULT:     0.161      1.506      5.497
REMARK INTER + INTRA:          -1.073
REMARK INTER:                   0.033
REMARK INTRA:                  -1.106
REMARK UNBOUND:                -1.318
REMARK SMILES OC[C@@H]1O[C@](CO)(O[C@@H]2O[C@H](CO)[C@H](O)[C@@H](O)[C@H]2O)[C@H](O)[C@@H]1O
REMARK SMILES IDX 8 1 9 2 11 3 14 4 10 5 16 6 18 7 12 8 13 9 15 11 17 13 19 15
REMARK SMILES IDX 5 17 20 18 4 19 22 20 3 21 6 22 7 23 21 25 23 27 2 29 1 30
REMARK H PARENT 13 10 15 12 17 14 19 16 7 24 21 26 23 28 1 31
REMARK Flexibility Score: inf
ROOT
ATOM      1  O   UNL     1       4.369  -6.745   4.490  1.00  0.00    -0.313 OA
ENDROOT
BRANCH   1   2
ATOM      2  C   UNL     1       5.163  -7.925   4.569  1.00  0.00     0.285 C 
ATOM      3  C   UNL     1       3.333  -9.475   4.618  1.00  0.00     0.178 C 
ATOM      4  C   UNL     1       3.589  -9.804   6.110  1.00  0.00     0.177 C 
ATOM      5  O   UNL     1       4.501  -9.018   3.941  1.00  0.00    -0.341 OA
ATOM      6  C   UNL     1       4.278  -8.632   6.823  1.00  0.00     0.179 C 
ATOM      7  C   UNL     1       5.527  -8.222   6.034  1.00  0.00     0.202 C 
BRANCH   3   8
ATOM      8  C   UNL     1       2.119  -8.554   4.360  1.00  0.00     0.191 C 
BRANCH   8   9
ATOM      9  O   UNL     1       2.020  -8.222   3.000  1.00  0.00    -0.394 OA
ATOM     10  H   UNL     1       1.738  -7.271   2.956  1.00  0.00     0.210 HD
ENDBRANCH   8   9
ENDBRANCH   3   8
BRANCH   4  11
ATOM     11  O   UNL     1       2.381 -10.125   6.752  1.00  0.00    -0.387 OA
ATOM     12  H   UNL     1       2.342 -11.115   6.824  1.00  0.00     0.211 HD
ENDBRANCH   4  11
BRANCH   6  13
ATOM     13  O   UNL     1       4.649  -9.002   8.126  1.00  0.00    -0.387 OA
ATOM     14  H   UNL     1       3.811  -9.106   8.648  1.00  0.00     0.211 HD
ENDBRANCH   6  13
BRANCH   7  15
ATOM     15  O   UNL     1       6.491  -9.245   6.070  1.00  0.00    -0.385 OA
ATOM     16  H   UNL     1       6.003 -10.108   6.024  1.00  0.00     0.211 HD
ENDBRANCH   7  15
ENDBRANCH   1   2
BRANCH   1  17
ATOM     17  C   UNL     1       5.030  -5.628   3.895  1.00  0.00     0.224 C 
ATOM     18  C   UNL     1       5.238  -4.553   4.984  1.00  0.00     0.208 C 
ATOM     19  O   UNL     1       4.220  -5.064   2.875  1.00  0.00    -0.337 OA
ATOM     20  C   UNL     1       4.060  -3.635   4.793  1.00  0.00     0.180 C 
ATOM     21  C   UNL     1       3.795  -3.787   3.297  1.00  0.00     0.179 C 
BRANCH  17  22
ATOM     22  C   UNL     1       6.398  -6.053   3.308  1.00  0.00     0.225 C 
BRANCH  22  23
ATOM     23  O   UNL     1       7.443  -5.415   3.992  1.00  0.00    -0.391 OA
ATOM     24  H   UNL     1       7.207  -5.452   4.955  1.00  0.00     0.210 HD
ENDBRANCH  22  23
ENDBRANCH  17  22
BRANCH  18  25
ATOM     25  O   UNL     1       5.271  -5.095   6.281  1.00  0.00    -0.385 OA
ATOM     26  H   UNL     1       5.879  -4.517   6.811  1.00  0.00     0.211 HD
ENDBRANCH  18  25
BRANCH  20  27
ATOM     27  O   UNL     1       2.958  -4.065   5.555  1.00  0.00    -0.387 OA
ATOM     28  H   UNL     1       2.681  -3.295   6.118  1.00  0.00     0.211 HD
ENDBRANCH  20  27
BRANCH  21  29
ATOM     29  C   UNL     1       2.336  -3.547   2.886  1.00  0.00     0.191 C 
BRANCH  29  30
ATOM     30  O   UNL     1       1.898  -2.292   3.331  1.00  0.00    -0.394 OA
ATOM     31  H   UNL     1       2.188  -2.218   4.277  1.00  0.00     0.210 HD
ENDBRANCH  29  30
ENDBRANCH  21  29
ENDBRANCH   1  17
TORSDOF 13
ENDMDL
MODEL 7
REMARK VINA RESULT:     0.344      8.619     11.057
REMARK INTER + INTRA:          -0.793
REMARK INTER:                  -1.780
REMARK INTRA:                   0.987
REMARK UNBOUND:                -1.318
REMARK SMILES OC[C@@H]1O[C@](CO)(O[C@@H]2O[C@H](CO)[C@H](O)[C@@H](O)[C@H]2O)[C@H](O)[C@@H]1O
REMARK SMILES IDX 8 1 9 2 11 3 14 4 10 5 16 6 18 7 12 8 13 9 15 11 17 13 19 15
REMARK SMILES IDX 5 17 20 18 4 19 22 20 3 21 6 22 7 23 21 25 23 27 2 29 1 30
REMARK H PARENT 13 10 15 12 17 14 19 16 7 24 21 26 23 28 1 31
REMARK Flexibility Score: inf
ROOT
ATOM      1  O   UNL     1      15.327  -5.759   4.881  1.00  0.00    -0.313 OA
ENDROOT
BRANCH   1   2
ATOM      2  C   UNL     1      14.745  -6.856   4.182  1.00  0.00     0.285 C 
ATOM      3  C   UNL     1      13.210  -5.555   2.876  1.00  0.00     0.178 C 
ATOM      4  C   UNL     1      12.000  -6.079   3.689  1.00  0.00     0.177 C 
ATOM      5  O   UNL     1      14.316  -6.454   2.885  1.00  0.00    -0.341 OA
ATOM      6  C   UNL     1      12.425  -6.494   5.104  1.00  0.00     0.179 C 
ATOM      7  C   UNL     1      13.605  -7.469   5.013  1.00  0.00     0.202 C 
BRANCH   3   8
ATOM      8  C   UNL     1      13.638  -4.109   3.214  1.00  0.00     0.191 C 
BRANCH   8   9
ATOM      9  O   UNL     1      14.982  -3.890   2.875  1.00  0.00    -0.394 OA
ATOM     10  H   UNL     1      15.337  -3.227   3.523  1.00  0.00     0.210 HD
ENDBRANCH   8   9
ENDBRANCH   3   8
BRANCH   4  11
ATOM     11  O   UNL     1      10.993  -5.100   3.749  1.00  0.00    -0.387 OA
ATOM     12  H   UNL     1      10.359  -5.375   4.462  1.00  0.00     0.211 HD
ENDBRANCH   4  11
BRANCH   6  13
ATOM     13  O   UNL     1      11.356  -7.115   5.772  1.00  0.00    -0.387 OA
ATOM     14  H   UNL     1      11.673  -8.011   6.058  1.00  0.00     0.211 HD
ENDBRANCH   6  13
BRANCH   7  15
ATOM     15  O   UNL     1      13.201  -8.679   4.419  1.00  0.00    -0.385 OA
ATOM     16  H   UNL     1      12.439  -9.026   4.952  1.00  0.00     0.211 HD
ENDBRANCH   7  15
ENDBRANCH   1   2
BRANCH   1  17
ATOM     17  C   UNL     1      16.696  -5.947   5.238  1.00  0.00     0.224 C 
ATOM     18  C   UNL     1      17.533  -5.987   3.941  1.00  0.00     0.208 C 
ATOM     19  O   UNL     1      16.864  -7.189   5.905  1.00  0.00    -0.337 OA
ATOM     20  C   UNL     1      17.667  -7.461   3.662  1.00  0.00     0.180 C 
ATOM     21  C   UNL     1      17.618  -8.044   5.073  1.00  0.00     0.179 C 
BRANCH  17  22
ATOM     22  C   UNL     1      17.186  -4.792   6.145  1.00  0.00     0.225 C 
BRANCH  22  23
ATOM     23  O   UNL     1      16.547  -4.844   7.392  1.00  0.00    -0.391 OA
ATOM     24  H   UNL     1      15.691  -5.323   7.245  1.00  0.00     0.210 HD
ENDBRANCH  22  23
ENDBRANCH  17  22
BRANCH  18  25
ATOM     25  O   UNL     1      16.914  -5.310   2.876  1.00  0.00    -0.385 OA
ATOM     26  H   UNL     1      17.307  -4.399   2.857  1.00  0.00     0.211 HD
ENDBRANCH  18  25
BRANCH  20  27
ATOM     27  O   UNL     1      16.596  -7.924   2.878  1.00  0.00    -0.387 OA
ATOM     28  H   UNL     1      16.968  -8.602   2.255  1.00  0.00     0.211 HD
ENDBRANCH  20  27
BRANCH  21  29
ATOM     29  C   UNL     1      17.072  -9.476   5.146  1.00  0.00     0.191 C 
BRANCH  29  30
ATOM     30  O   UNL     1      16.942  -9.887   6.481  1.00  0.00    -0.394 OA
ATOM     31  H   UNL     1      16.062 -10.340   6.545  1.00  0.00     0.210 HD
ENDBRANCH  29  30
ENDBRANCH  21  29
ENDBRANCH   1  17
TORSDOF 13
ENDMDL
