MODEL 1
REMARK VINA RESULT:    -3.294      0.000      0.000
REMARK INTER + INTRA:          -7.692
REMARK INTER:                  -6.375
REMARK INTRA:                  -1.317
REMARK UNBOUND:                -1.317
REMARK SMILES CCCCCCCCCCCCCCCCCC(=O)[O-]
REMARK SMILES IDX 10 1 11 2 12 3 13 4 14 5 15 6 16 7 17 8 18 9 19 10 20 11
REMARK SMILES IDX 9 12 8 13 7 14 6 15 5 16 4 17 3 18 2 19 1 20
REMARK H PARENT
REMARK Flexibility Score: inf
ROOT
ATOM      1  C   UNL     1      21.640   5.911 -10.105  1.00  0.00     0.000 C 
ENDROOT
BRANCH   1   2
ATOM      2  C   UNL     1      21.822   7.122 -11.027  1.00  0.00     0.000 C 
BRANCH   2   3
ATOM      3  C   UNL     1      22.398   6.697 -12.387  1.00  0.00     0.000 C 
BRANCH   3   4
ATOM      4  C   UNL     1      22.638   5.175 -12.476  1.00  0.00     0.000 C 
BRANCH   4   5
ATOM      5  C   UNL     1      23.699   4.776 -13.518  1.00  0.00     0.000 C 
BRANCH   5   6
ATOM      6  C   UNL     1      24.624   5.921 -13.974  1.00  0.00     0.000 C 
BRANCH   6   7
ATOM      7  C   UNL     1      25.820   5.485 -14.847  1.00  0.00     0.006 C 
BRANCH   7   8
ATOM      8  C   UNL     1      26.459   4.150 -14.430  1.00  0.00     0.053 C 
BRANCH   8   9
ATOM      9  C   UNL     1      27.907   4.080 -14.806  1.00  0.00     0.041 C 
ATOM     10  O   UNL     1      28.440   5.019 -15.455  1.00  0.00    -0.550 OA
ATOM     11  O   UNL     1      28.659   2.962 -14.471  1.00  0.00    -0.550 OA
ENDBRANCH   8   9
ENDBRANCH   7   8
ENDBRANCH   6   7
ENDBRANCH   5   6
ENDBRANCH   4   5
ENDBRANCH   3   4
ENDBRANCH   2   3
ENDBRANCH   1   2
BRANCH   1  12
ATOM     12  C   UNL     1      20.333   6.016  -9.308  1.00  0.00     0.000 C 
BRANCH  12  13
ATOM     13  C   UNL     1      19.358   7.056  -9.888  1.00  0.00    -0.000 C 
BRANCH  13  14
ATOM     14  C   UNL     1      18.585   6.554 -11.126  1.00  0.00    -0.000 C 
BRANCH  14  15
ATOM     15  C   UNL     1      17.726   5.317 -10.810  1.00  0.00    -0.000 C 
BRANCH  15  16
ATOM     16  C   UNL     1      18.229   4.050 -11.520  1.00  0.00    -0.000 C 
BRANCH  16  17
ATOM     17  C   UNL     1      19.457   4.326 -12.406  1.00  0.00    -0.000 C 
BRANCH  17  18
ATOM     18  C   UNL     1      19.462   3.478 -13.688  1.00  0.00    -0.000 C 
BRANCH  18  19
ATOM     19  C   UNL     1      18.761   2.124 -13.504  1.00  0.00    -0.003 C 
ATOM     20  C   UNL     1      18.722   1.344 -14.815  1.00  0.00     0.004 C 
ENDBRANCH  18  19
ENDBRANCH  17  18
ENDBRANCH  16  17
ENDBRANCH  15  16
ENDBRANCH  14  15
ENDBRANCH  13  14
ENDBRANCH  12  13
ENDBRANCH   1  12
TORSDOF 16
ENDMDL
MODEL 2
REMARK VINA RESULT:    -3.078      4.891      7.062
REMARK INTER + INTRA:          -7.274
REMARK INTER:                  -6.069
REMARK INTRA:                  -1.205
REMARK UNBOUND:                -1.317
REMARK SMILES CCCCCCCCCCCCCCCCCC(=O)[O-]
REMARK SMILES IDX 10 1 11 2 12 3 13 4 14 5 15 6 16 7 17 8 18 9 19 10 20 11
REMARK SMILES IDX 9 12 8 13 7 14 6 15 5 16 4 17 3 18 2 19 1 20
REMARK H PARENT
REMARK Flexibility Score: inf
ROOT
ATOM      1  C   UNL     1      22.518   6.329 -12.655  1.00  0.00     0.000 C 
ENDROOT
BRANCH   1   2
ATOM      2  C   UNL     1      21.618   7.055 -11.648  1.00  0.00     0.000 C 
BRANCH   2   3
ATOM      3  C   UNL     1      21.606   6.325 -10.295  1.00  0.00     0.000 C 
BRANCH   3   4
ATOM      4  C   UNL     1      20.236   6.414  -9.589  1.00  0.00     0.000 C 
BRANCH   4   5
ATOM      5  C   UNL     1      19.125   7.021 -10.468  1.00  0.00     0.000 C 
BRANCH   5   6
ATOM      6  C   UNL     1      18.176   5.994 -11.115  1.00  0.00     0.000 C 
BRANCH   6   7
ATOM      7  C   UNL     1      18.482   4.519 -10.778  1.00  0.00     0.006 C 
BRANCH   7   8
ATOM      8  C   UNL     1      17.237   3.639 -10.586  1.00  0.00     0.053 C 
BRANCH   8   9
ATOM      9  C   UNL     1      15.977   4.446 -10.561  1.00  0.00     0.041 C 
ATOM     10  O   UNL     1      15.194   4.431 -11.548  1.00  0.00    -0.550 OA
ATOM     11  O   UNL     1      15.684   5.244  -9.463  1.00  0.00    -0.550 OA
ENDBRANCH   8   9
ENDBRANCH   7   8
ENDBRANCH   6   7
ENDBRANCH   5   6
ENDBRANCH   4   5
ENDBRANCH   3   4
ENDBRANCH   2   3
ENDBRANCH   1   2
BRANCH   1  12
ATOM     12  C   UNL     1      22.067   4.875 -12.848  1.00  0.00     0.000 C 
BRANCH  12  13
ATOM     13  C   UNL     1      20.619   4.758 -13.357  1.00  0.00    -0.000 C 
BRANCH  13  14
ATOM     14  C   UNL     1      20.318   3.420 -14.063  1.00  0.00    -0.000 C 
BRANCH  14  15
ATOM     15  C   UNL     1      18.867   2.960 -13.840  1.00  0.00    -0.000 C 
BRANCH  15  16
ATOM     16  C   UNL     1      18.712   1.432 -13.914  1.00  0.00    -0.000 C 
BRANCH  16  17
ATOM     17  C   UNL     1      18.155   0.967 -15.271  1.00  0.00    -0.000 C 
BRANCH  17  18
ATOM     18  C   UNL     1      17.356  -0.341 -15.163  1.00  0.00    -0.000 C 
BRANCH  18  19
ATOM     19  C   UNL     1      17.019  -0.944 -16.534  1.00  0.00    -0.003 C 
ATOM     20  C   UNL     1      17.077   0.116 -17.630  1.00  0.00     0.004 C 
ENDBRANCH  18  19
ENDBRANCH  17  18
ENDBRANCH  16  17
ENDBRANCH  15  16
ENDBRANCH  14  15
ENDBRANCH  13  14
ENDBRANCH  12  13
ENDBRANCH   1  12
TORSDOF 16
ENDMDL
MODEL 3
REMARK VINA RESULT:    -2.956      3.058      6.877
REMARK INTER + INTRA:          -7.037
REMARK INTER:                  -5.609
REMARK INTRA:                  -1.428
REMARK UNBOUND:                -1.317
REMARK SMILES CCCCCCCCCCCCCCCCCC(=O)[O-]
REMARK SMILES IDX 10 1 11 2 12 3 13 4 14 5 15 6 16 7 17 8 18 9 19 10 20 11
REMARK SMILES IDX 9 12 8 13 7 14 6 15 5 16 4 17 3 18 2 19 1 20
REMARK H PARENT
REMARK Flexibility Score: inf
ROOT
ATOM      1  C   UNL     1      21.323   5.895  -9.809  1.00  0.00     0.000 C 
ENDROOT
BRANCH   1   2
ATOM      2  C   UNL     1      19.869   6.184  -9.420  1.00  0.00     0.000 C 
BRANCH   2   3
ATOM      3  C   UNL     1      19.194   7.099 -10.453  1.00  0.00     0.000 C 
BRANCH   3   4
ATOM      4  C   UNL     1      18.153   6.351 -11.314  1.00  0.00     0.000 C 
BRANCH   4   5
ATOM      5  C   UNL     1      17.295   5.351 -10.517  1.00  0.00     0.000 C 
BRANCH   5   6
ATOM      6  C   UNL     1      17.351   3.898 -11.026  1.00  0.00     0.000 C 
BRANCH   6   7
ATOM      7  C   UNL     1      18.533   3.581 -11.967  1.00  0.00     0.006 C 
BRANCH   7   8
ATOM      8  C   UNL     1      18.418   2.237 -12.704  1.00  0.00     0.053 C 
BRANCH   8   9
ATOM      9  C   UNL     1      19.034   2.291 -14.067  1.00  0.00     0.041 C 
ATOM     10  O   UNL     1      19.803   3.239 -14.380  1.00  0.00    -0.550 OA
ATOM     11  O   UNL     1      18.733   1.312 -15.005  1.00  0.00    -0.550 OA
ENDBRANCH   8   9
ENDBRANCH   7   8
ENDBRANCH   6   7
ENDBRANCH   5   6
ENDBRANCH   4   5
ENDBRANCH   3   4
ENDBRANCH   2   3
ENDBRANCH   1   2
BRANCH   1  12
ATOM     12  C   UNL     1      21.936   7.080 -10.569  1.00  0.00     0.000 C 
BRANCH  12  13
ATOM     13  C   UNL     1      22.205   6.767 -12.051  1.00  0.00    -0.000 C 
BRANCH  13  14
ATOM     14  C   UNL     1      22.175   5.260 -12.380  1.00  0.00    -0.000 C 
BRANCH  14  15
ATOM     15  C   UNL     1      23.289   4.858 -13.362  1.00  0.00    -0.000 C 
BRANCH  15  16
ATOM     16  C   UNL     1      24.263   6.010 -13.656  1.00  0.00    -0.000 C 
BRANCH  16  17
ATOM     17  C   UNL     1      25.318   5.627 -14.710  1.00  0.00    -0.000 C 
BRANCH  17  18
ATOM     18  C   UNL     1      26.164   4.416 -14.285  1.00  0.00    -0.000 C 
BRANCH  18  19
ATOM     19  C   UNL     1      27.589   4.460 -14.853  1.00  0.00    -0.003 C 
ATOM     20  C   UNL     1      28.363   3.195 -14.493  1.00  0.00     0.004 C 
ENDBRANCH  18  19
ENDBRANCH  17  18
ENDBRANCH  16  17
ENDBRANCH  15  16
ENDBRANCH  14  15
ENDBRANCH  13  14
ENDBRANCH  12  13
ENDBRANCH   1  12
TORSDOF 16
ENDMDL
MODEL 4
REMARK VINA RESULT:    -2.894      4.768      6.687
REMARK INTER + INTRA:          -6.918
REMARK INTER:                  -5.212
REMARK INTRA:                  -1.705
REMARK UNBOUND:                -1.317
REMARK SMILES CCCCCCCCCCCCCCCCCC(=O)[O-]
REMARK SMILES IDX 10 1 11 2 12 3 13 4 14 5 15 6 16 7 17 8 18 9 19 10 20 11
REMARK SMILES IDX 9 12 8 13 7 14 6 15 5 16 4 17 3 18 2 19 1 20
REMARK H PARENT
REMARK Flexibility Score: inf
ROOT
ATOM      1  C   UNL     1      21.255   7.125 -12.587  1.00  0.00     0.000 C 
ENDROOT
BRANCH   1   2
ATOM      2  C   UNL     1      20.217   6.195 -13.224  1.00  0.00     0.000 C 
BRANCH   2   3
ATOM      3  C   UNL     1      20.753   4.758 -13.324  1.00  0.00     0.000 C 
BRANCH   3   4
ATOM      4  C   UNL     1      19.882   3.866 -14.235  1.00  0.00     0.000 C 
BRANCH   4   5
ATOM      5  C   UNL     1      19.761   2.411 -13.744  1.00  0.00     0.000 C 
BRANCH   5   6
ATOM      6  C   UNL     1      18.366   1.781 -13.917  1.00  0.00     0.000 C 
BRANCH   6   7
ATOM      7  C   UNL     1      18.150   1.033 -15.250  1.00  0.00     0.006 C 
BRANCH   7   8
ATOM      8  C   UNL     1      17.267  -0.220 -15.141  1.00  0.00     0.053 C 
BRANCH   8   9
ATOM      9  C   UNL     1      17.035  -0.860 -16.475  1.00  0.00     0.041 C 
ATOM     10  O   UNL     1      16.772  -2.090 -16.551  1.00  0.00    -0.550 OA
ATOM     11  O   UNL     1      17.141  -0.106 -17.636  1.00  0.00    -0.550 OA
ENDBRANCH   8   9
ENDBRANCH   7   8
ENDBRANCH   6   7
ENDBRANCH   5   6
ENDBRANCH   4   5
ENDBRANCH   3   4
ENDBRANCH   2   3
ENDBRANCH   1   2
BRANCH   1  12
ATOM     12  C   UNL     1      22.073   6.387 -11.517  1.00  0.00     0.000 C 
BRANCH  12  13
ATOM     13  C   UNL     1      21.991   7.054 -10.133  1.00  0.00    -0.000 C 
BRANCH  13  14
ATOM     14  C   UNL     1      21.567   6.088  -9.006  1.00  0.00    -0.000 C 
BRANCH  14  15
ATOM     15  C   UNL     1      20.246   5.368  -9.327  1.00  0.00    -0.000 C 
BRANCH  15  16
ATOM     16  C   UNL     1      19.136   6.336  -9.767  1.00  0.00    -0.000 C 
BRANCH  16  17
ATOM     17  C   UNL     1      18.123   5.669 -10.715  1.00  0.00    -0.000 C 
BRANCH  17  18
ATOM     18  C   UNL     1      18.057   4.145 -10.530  1.00  0.00    -0.000 C 
BRANCH  18  19
ATOM     19  C   UNL     1      16.776   3.532 -11.113  1.00  0.00    -0.003 C 
ATOM     20  C   UNL     1      15.544   4.329 -10.691  1.00  0.00     0.004 C 
ENDBRANCH  18  19
ENDBRANCH  17  18
ENDBRANCH  16  17
ENDBRANCH  15  16
ENDBRANCH  14  15
ENDBRANCH  13  14
ENDBRANCH  12  13
ENDBRANCH   1  12
TORSDOF 16
ENDMDL
MODEL 5
REMARK VINA RESULT:    -2.789      1.893      3.961
REMARK INTER + INTRA:          -6.714
REMARK INTER:                  -5.427
REMARK INTRA:                  -1.287
REMARK UNBOUND:                -1.317
REMARK SMILES CCCCCCCCCCCCCCCCCC(=O)[O-]
REMARK SMILES IDX 10 1 11 2 12 3 13 4 14 5 15 6 16 7 17 8 18 9 19 10 20 11
REMARK SMILES IDX 9 12 8 13 7 14 6 15 5 16 4 17 3 18 2 19 1 20
REMARK H PARENT
REMARK Flexibility Score: inf
ROOT
ATOM      1  C   UNL     1      17.899   5.939 -11.133  1.00  0.00     0.000 C 
ENDROOT
BRANCH   1   2
ATOM      2  C   UNL     1      18.700   6.440  -9.926  1.00  0.00     0.000 C 
BRANCH   2   3
ATOM      3  C   UNL     1      20.058   5.728  -9.833  1.00  0.00     0.000 C 
BRANCH   3   4
ATOM      4  C   UNL     1      21.245   6.715  -9.859  1.00  0.00     0.000 C 
BRANCH   4   5
ATOM      5  C   UNL     1      21.931   6.823 -11.234  1.00  0.00     0.000 C 
BRANCH   5   6
ATOM      6  C   UNL     1      21.086   6.324 -12.422  1.00  0.00     0.000 C 
BRANCH   6   7
ATOM      7  C   UNL     1      21.725   5.184 -13.243  1.00  0.00     0.006 C 
BRANCH   7   8
ATOM      8  C   UNL     1      23.121   4.759 -12.763  1.00  0.00     0.053 C 
BRANCH   8   9
ATOM      9  C   UNL     1      24.210   5.388 -13.576  1.00  0.00     0.041 C 
ATOM     10  O   UNL     1      25.095   4.671 -14.114  1.00  0.00    -0.550 OA
ATOM     11  O   UNL     1      24.266   6.769 -13.713  1.00  0.00    -0.550 OA
ENDBRANCH   8   9
ENDBRANCH   7   8
ENDBRANCH   6   7
ENDBRANCH   5   6
ENDBRANCH   4   5
ENDBRANCH   3   4
ENDBRANCH   2   3
ENDBRANCH   1   2
BRANCH   1  12
ATOM     12  C   UNL     1      16.831   4.924 -10.702  1.00  0.00     0.000 C 
BRANCH  12  13
ATOM     13  C   UNL     1      17.181   3.479 -11.100  1.00  0.00    -0.000 C 
BRANCH  13  14
ATOM     14  C   UNL     1      18.271   3.385 -12.188  1.00  0.00    -0.000 C 
BRANCH  14  15
ATOM     15  C   UNL     1      18.294   2.005 -12.869  1.00  0.00    -0.000 C 
BRANCH  15  16
ATOM     16  C   UNL     1      19.076   2.011 -14.192  1.00  0.00    -0.000 C 
BRANCH  16  17
ATOM     17  C   UNL     1      18.365   1.203 -15.293  1.00  0.00    -0.000 C 
BRANCH  17  18
ATOM     18  C   UNL     1      17.530   0.043 -14.728  1.00  0.00    -0.000 C 
BRANCH  18  19
ATOM     19  C   UNL     1      17.024  -0.910 -15.820  1.00  0.00    -0.003 C 
ATOM     20  C   UNL     1      17.212  -0.303 -17.208  1.00  0.00     0.004 C 
ENDBRANCH  18  19
ENDBRANCH  17  18
ENDBRANCH  16  17
ENDBRANCH  15  16
ENDBRANCH  14  15
ENDBRANCH  13  14
ENDBRANCH  12  13
ENDBRANCH   1  12
TORSDOF 16
ENDMDL
MODEL 6
REMARK VINA RESULT:    -2.688      0.775      1.521
REMARK INTER + INTRA:          -6.519
REMARK INTER:                  -5.190
REMARK INTRA:                  -1.329
REMARK UNBOUND:                -1.317
REMARK SMILES CCCCCCCCCCCCCCCCCC(=O)[O-]
REMARK SMILES IDX 10 1 11 2 12 3 13 4 14 5 15 6 16 7 17 8 18 9 19 10 20 11
REMARK SMILES IDX 9 12 8 13 7 14 6 15 5 16 4 17 3 18 2 19 1 20
REMARK H PARENT
REMARK Flexibility Score: inf
ROOT
ATOM      1  C   UNL     1      20.501   6.147  -9.850  1.00  0.00     0.000 C 
ENDROOT
BRANCH   1   2
ATOM      2  C   UNL     1      21.419   7.125 -10.592  1.00  0.00     0.000 C 
BRANCH   2   3
ATOM      3  C   UNL     1      21.733   6.618 -12.009  1.00  0.00     0.000 C 
BRANCH   3   4
ATOM      4  C   UNL     1      22.504   5.281 -12.000  1.00  0.00     0.000 C 
BRANCH   4   5
ATOM      5  C   UNL     1      23.041   4.866 -13.383  1.00  0.00     0.000 C 
BRANCH   5   6
ATOM      6  C   UNL     1      24.382   5.512 -13.779  1.00  0.00     0.000 C 
BRANCH   6   7
ATOM      7  C   UNL     1      25.512   4.516 -14.116  1.00  0.00     0.006 C 
BRANCH   7   8
ATOM      8  C   UNL     1      26.667   5.117 -14.932  1.00  0.00     0.053 C 
BRANCH   8   9
ATOM      9  C   UNL     1      27.897   4.264 -14.875  1.00  0.00     0.041 C 
ATOM     10  O   UNL     1      28.147   3.580 -13.847  1.00  0.00    -0.550 OA
ATOM     11  O   UNL     1      28.784   4.251 -15.942  1.00  0.00    -0.550 OA
ENDBRANCH   8   9
ENDBRANCH   7   8
ENDBRANCH   6   7
ENDBRANCH   5   6
ENDBRANCH   4   5
ENDBRANCH   3   4
ENDBRANCH   2   3
ENDBRANCH   1   2
BRANCH   1  12
ATOM     12  C   UNL     1      19.040   6.616  -9.902  1.00  0.00     0.000 C 
BRANCH  12  13
ATOM     13  C   UNL     1      18.260   6.019 -11.087  1.00  0.00    -0.000 C 
BRANCH  13  14
ATOM     14  C   UNL     1      17.621   4.649 -10.778  1.00  0.00    -0.000 C 
BRANCH  14  15
ATOM     15  C   UNL     1      18.086   3.558 -11.758  1.00  0.00    -0.000 C 
BRANCH  15  16
ATOM     16  C   UNL     1      19.240   4.024 -12.660  1.00  0.00    -0.000 C 
BRANCH  16  17
ATOM     17  C   UNL     1      19.577   2.997 -13.755  1.00  0.00    -0.000 C 
BRANCH  17  18
ATOM     18  C   UNL     1      18.517   1.891 -13.872  1.00  0.00    -0.000 C 
BRANCH  18  19
ATOM     19  C   UNL     1      18.558   1.172 -15.228  1.00  0.00    -0.003 C 
ATOM     20  C   UNL     1      17.516   0.058 -15.291  1.00  0.00     0.004 C 
ENDBRANCH  18  19
ENDBRANCH  17  18
ENDBRANCH  16  17
ENDBRANCH  15  16
ENDBRANCH  14  15
ENDBRANCH  13  14
ENDBRANCH  12  13
ENDBRANCH   1  12
TORSDOF 16
ENDMDL
MODEL 7
REMARK VINA RESULT:    -2.100      4.632      8.385
REMARK INTER + INTRA:          -5.381
REMARK INTER:                  -4.684
REMARK INTRA:                  -0.697
REMARK UNBOUND:                -1.317
REMARK SMILES CCCCCCCCCCCCCCCCCC(=O)[O-]
REMARK SMILES IDX 10 1 11 2 12 3 13 4 14 5 15 6 16 7 17 8 18 9 19 10 20 11
REMARK SMILES IDX 9 12 8 13 7 14 6 15 5 16 4 17 3 18 2 19 1 20
REMARK H PARENT
REMARK Flexibility Score: inf
ROOT
ATOM      1  C   UNL     1      22.005   4.825 -11.208  1.00  0.00     0.000 C 
ENDROOT
BRANCH   1   2
ATOM      2  C   UNL     1      21.955   6.184 -10.502  1.00  0.00     0.000 C 
BRANCH   2   3
ATOM      3  C   UNL     1      21.350   6.052  -9.096  1.00  0.00     0.000 C 
BRANCH   3   4
ATOM      4  C   UNL     1      19.823   5.830  -9.129  1.00  0.00     0.000 C 
BRANCH   4   5
ATOM      5  C   UNL     1      19.075   6.808 -10.054  1.00  0.00     0.000 C 
BRANCH   5   6
ATOM      6  C   UNL     1      18.158   6.141 -11.098  1.00  0.00     0.000 C 
BRANCH   6   7
ATOM      7  C   UNL     1      18.462   4.654 -11.378  1.00  0.00     0.006 C 
BRANCH   7   8
ATOM      8  C   UNL     1      17.384   3.679 -10.879  1.00  0.00     0.053 C 
BRANCH   8   9
ATOM      9  C   UNL     1      16.079   4.368 -10.624  1.00  0.00     0.041 C 
ATOM     10  O   UNL     1      15.062   4.073 -11.305  1.00  0.00    -0.550 OA
ATOM     11  O   UNL     1      15.995   5.361  -9.656  1.00  0.00    -0.550 OA
ENDBRANCH   8   9
ENDBRANCH   7   8
ENDBRANCH   6   7
ENDBRANCH   5   6
ENDBRANCH   4   5
ENDBRANCH   3   4
ENDBRANCH   2   3
ENDBRANCH   1   2
BRANCH   1  12
ATOM     12  C   UNL     1      22.318   4.991 -12.702  1.00  0.00     0.000 C 
BRANCH  12  13
ATOM     13  C   UNL     1      22.681   6.438 -13.081  1.00  0.00    -0.000 C 
BRANCH  13  14
ATOM     14  C   UNL     1      24.135   6.601 -13.572  1.00  0.00    -0.000 C 
BRANCH  14  15
ATOM     15  C   UNL     1      24.716   5.282 -14.112  1.00  0.00    -0.000 C 
BRANCH  15  16
ATOM     16  C   UNL     1      26.119   5.456 -14.715  1.00  0.00    -0.000 C 
BRANCH  16  17
ATOM     17  C   UNL     1      26.987   4.197 -14.547  1.00  0.00    -0.000 C 
BRANCH  17  18
ATOM     18  C   UNL     1      28.332   4.305 -15.283  1.00  0.00    -0.000 C 
BRANCH  18  19
ATOM     19  C   UNL     1      29.255   3.110 -15.009  1.00  0.00    -0.003 C 
ATOM     20  C   UNL     1      29.110   2.622 -13.570  1.00  0.00     0.004 C 
ENDBRANCH  18  19
ENDBRANCH  17  18
ENDBRANCH  16  17
ENDBRANCH  15  16
ENDBRANCH  14  15
ENDBRANCH  13  14
ENDBRANCH  12  13
ENDBRANCH   1  12
TORSDOF 16
ENDMDL
MODEL 8
REMARK VINA RESULT:    -2.074      3.902      7.586
REMARK INTER + INTRA:          -5.331
REMARK INTER:                  -4.505
REMARK INTRA:                  -0.826
REMARK UNBOUND:                -1.317
REMARK SMILES CCCCCCCCCCCCCCCCCC(=O)[O-]
REMARK SMILES IDX 10 1 11 2 12 3 13 4 14 5 15 6 16 7 17 8 18 9 19 10 20 11
REMARK SMILES IDX 9 12 8 13 7 14 6 15 5 16 4 17 3 18 2 19 1 20
REMARK H PARENT
REMARK Flexibility Score: inf
ROOT
ATOM      1  C   UNL     1      19.861   7.002 -11.790  1.00  0.00     0.000 C 
ENDROOT
BRANCH   1   2
ATOM      2  C   UNL     1      18.701   6.989 -10.788  1.00  0.00     0.000 C 
BRANCH   2   3
ATOM      3  C   UNL     1      17.725   5.841 -11.090  1.00  0.00     0.000 C 
BRANCH   3   4
ATOM      4  C   UNL     1      18.360   4.452 -10.868  1.00  0.00     0.000 C 
BRANCH   4   5
ATOM      5  C   UNL     1      17.849   3.374 -11.842  1.00  0.00     0.000 C 
BRANCH   5   6
ATOM      6  C   UNL     1      18.836   2.988 -12.960  1.00  0.00     0.000 C 
BRANCH   6   7
ATOM      7  C   UNL     1      18.668   1.558 -13.515  1.00  0.00     0.006 C 
BRANCH   7   8
ATOM      8  C   UNL     1      18.456   1.485 -15.035  1.00  0.00     0.053 C 
BRANCH   8   9
ATOM      9  C   UNL     1      17.641   0.293 -15.431  1.00  0.00     0.041 C 
ATOM     10  O   UNL     1      17.430   0.044 -16.648  1.00  0.00    -0.550 OA
ATOM     11  O   UNL     1      17.085  -0.524 -14.456  1.00  0.00    -0.550 OA
ENDBRANCH   8   9
ENDBRANCH   7   8
ENDBRANCH   6   7
ENDBRANCH   5   6
ENDBRANCH   4   5
ENDBRANCH   3   4
ENDBRANCH   2   3
ENDBRANCH   1   2
BRANCH   1  12
ATOM     12  C   UNL     1      21.189   6.660 -11.099  1.00  0.00     0.000 C 
BRANCH  12  13
ATOM     13  C   UNL     1      21.944   5.509 -11.787  1.00  0.00    -0.000 C 
BRANCH  13  14
ATOM     14  C   UNL     1      22.774   5.957 -13.008  1.00  0.00    -0.000 C 
BRANCH  14  15
ATOM     15  C   UNL     1      23.720   4.850 -13.505  1.00  0.00    -0.000 C 
BRANCH  15  16
ATOM     16  C   UNL     1      25.023   5.406 -14.099  1.00  0.00    -0.000 C 
BRANCH  16  17
ATOM     17  C   UNL     1      26.019   4.292 -14.467  1.00  0.00    -0.000 C 
BRANCH  17  18
ATOM     18  C   UNL     1      27.331   4.843 -15.048  1.00  0.00    -0.000 C 
BRANCH  18  19
ATOM     19  C   UNL     1      28.406   3.759 -15.217  1.00  0.00    -0.003 C 
ATOM     20  C   UNL     1      28.754   3.117 -13.876  1.00  0.00     0.004 C 
ENDBRANCH  18  19
ENDBRANCH  17  18
ENDBRANCH  16  17
ENDBRANCH  15  16
ENDBRANCH  14  15
ENDBRANCH  13  14
ENDBRANCH  12  13
ENDBRANCH   1  12
TORSDOF 16
ENDMDL
MODEL 9
REMARK VINA RESULT:    -1.489     18.098     21.466
REMARK INTER + INTRA:          -4.198
REMARK INTER:                  -3.992
REMARK INTRA:                  -0.205
REMARK UNBOUND:                -1.317
REMARK SMILES CCCCCCCCCCCCCCCCCC(=O)[O-]
REMARK SMILES IDX 10 1 11 2 12 3 13 4 14 5 15 6 16 7 17 8 18 9 19 10 20 11
REMARK SMILES IDX 9 12 8 13 7 14 6 15 5 16 4 17 3 18 2 19 1 20
REMARK H PARENT
REMARK Flexibility Score: inf
ROOT
ATOM      1  C   UNL     1      30.017 -12.232 -27.543  1.00  0.00     0.000 C 
ENDROOT
BRANCH   1   2
ATOM      2  C   UNL     1      30.741 -13.095 -26.504  1.00  0.00     0.000 C 
BRANCH   2   3
ATOM      3  C   UNL     1      30.456 -12.596 -25.079  1.00  0.00     0.000 C 
BRANCH   3   4
ATOM      4  C   UNL     1      29.794 -11.202 -25.063  1.00  0.00     0.000 C 
BRANCH   4   5
ATOM      5  C   UNL     1      30.164 -10.354 -23.832  1.00  0.00     0.000 C 
BRANCH   5   6
ATOM      6  C   UNL     1      31.347 -10.893 -23.005  1.00  0.00     0.000 C 
BRANCH   6   7
ATOM      7  C   UNL     1      31.769 -10.004 -21.815  1.00  0.00     0.006 C 
BRANCH   7   8
ATOM      8  C   UNL     1      31.813  -8.500 -22.128  1.00  0.00     0.053 C 
BRANCH   8   9
ATOM      9  C   UNL     1      32.663  -7.749 -21.150  1.00  0.00     0.041 C 
ATOM     10  O   UNL     1      33.167  -6.639 -21.469  1.00  0.00    -0.550 OA
ATOM     11  O   UNL     1      32.928  -8.291 -19.899  1.00  0.00    -0.550 OA
ENDBRANCH   8   9
ENDBRANCH   7   8
ENDBRANCH   6   7
ENDBRANCH   5   6
ENDBRANCH   4   5
ENDBRANCH   3   4
ENDBRANCH   2   3
ENDBRANCH   1   2
BRANCH   1  12
ATOM     12  C   UNL     1      29.329 -13.106 -28.602  1.00  0.00     0.000 C 
BRANCH  12  13
ATOM     13  C   UNL     1      27.812 -12.859 -28.690  1.00  0.00    -0.000 C 
BRANCH  13  14
ATOM     14  C   UNL     1      27.101 -12.886 -27.321  1.00  0.00    -0.000 C 
BRANCH  14  15
ATOM     15  C   UNL     1      27.259 -11.557 -26.560  1.00  0.00    -0.000 C 
BRANCH  15  16
ATOM     16  C   UNL     1      26.095 -11.287 -25.593  1.00  0.00    -0.000 C 
BRANCH  16  17
ATOM     17  C   UNL     1      24.951 -10.503 -26.261  1.00  0.00    -0.000 C 
BRANCH  17  18
ATOM     18  C   UNL     1      23.879 -10.055 -25.255  1.00  0.00    -0.000 C 
BRANCH  18  19
ATOM     19  C   UNL     1      22.535  -9.737 -25.925  1.00  0.00    -0.003 C 
ATOM     20  C   UNL     1      21.590  -9.033 -24.954  1.00  0.00     0.004 C 
ENDBRANCH  18  19
ENDBRANCH  17  18
ENDBRANCH  16  17
ENDBRANCH  15  16
ENDBRANCH  14  15
ENDBRANCH  13  14
ENDBRANCH  12  13
ENDBRANCH   1  12
TORSDOF 16
ENDMDL
