MODEL 1
REMARK VINA RESULT:    -6.400      0.000      0.000
REMARK INTER + INTRA:          -7.275
REMARK INTER:                  -6.962
REMARK INTRA:                  -0.314
REMARK UNBOUND:                -0.314
REMARK SMILES C=C1C[C@]2(O)O[C@]3(C[C@@H]2C(C)C)[C@H](C)CC[C@@H]13
REMARK SMILES IDX 14 1 13 2 15 3 16 4 17 5 7 6 8 7 9 8 4 9 6 10 3 11 2 12 1 13
REMARK SMILES IDX 10 14 11 15 12 16 5 17
REMARK H PARENT 5 18
REMARK Flexibility Score: inf
ROOT
ATOM      1  C   UNL     1      10.555  20.964   5.555  1.00  0.00     0.011 C 
ATOM      2  C   UNL     1      10.908  19.962   4.443  1.00  0.00     0.019 C 
ATOM      3  C   UNL     1      11.846  18.838   4.957  1.00  0.00     0.007 C 
ATOM      4  C   UNL     1      13.243  19.087   4.354  1.00  0.00     0.011 C 
ATOM      5  C   UNL     1      13.149  20.489   3.774  1.00  0.00     0.047 C 
ATOM      6  C   UNL     1      11.704  20.601   3.289  1.00  0.00     0.081 C 
ATOM      7  C   UNL     1      11.440  19.866   1.941  1.00  0.00     0.046 C 
ATOM      8  C   UNL     1      11.438  21.006   0.930  1.00  0.00     0.054 C 
ATOM      9  C   UNL     1      12.027  22.166   1.755  1.00  0.00     0.173 C 
ATOM     10  O   UNL     1      11.472  21.971   3.046  1.00  0.00    -0.342 OA
ATOM     11  C   UNL     1      13.597  22.138   1.854  1.00  0.00     0.096 C 
ATOM     12  C   UNL     1      14.081  20.952   2.681  1.00  0.00    -0.066 C 
ATOM     13  C   UNL     1      15.347  20.523   2.596  1.00  0.00     0.008 C 
ENDROOT
BRANCH   8  14
ATOM     14  C   UNL     1      12.043  20.732  -0.494  1.00  0.00    -0.009 C 
ATOM     15  C   UNL     1      13.056  19.576  -0.585  1.00  0.00     0.008 C 
ATOM     16  C   UNL     1      10.918  20.484  -1.512  1.00  0.00     0.008 C 
ENDBRANCH   8  14
BRANCH   9  17
ATOM     17  O   UNL     1      11.588  23.407   1.261  1.00  0.00    -0.365 OA
ATOM     18  H   UNL     1      11.954  24.114   1.852  1.00  0.00     0.214 HD
ENDBRANCH   9  17
TORSDOF 2
ENDMDL
MODEL 2
REMARK VINA RESULT:    -6.377      2.514      4.712
REMARK INTER + INTRA:          -7.250
REMARK INTER:                  -6.995
REMARK INTRA:                  -0.255
REMARK UNBOUND:                -0.314
REMARK SMILES C=C1C[C@]2(O)O[C@]3(C[C@@H]2C(C)C)[C@H](C)CC[C@@H]13
REMARK SMILES IDX 14 1 13 2 15 3 16 4 17 5 7 6 8 7 9 8 4 9 6 10 3 11 2 12 1 13
REMARK SMILES IDX 10 14 11 15 12 16 5 17
REMARK H PARENT 5 18
REMARK Flexibility Score: inf
ROOT
ATOM      1  C   UNL     1      11.466  18.837  -2.555  1.00  0.00     0.011 C 
ATOM      2  C   UNL     1      11.633  18.620  -1.042  1.00  0.00     0.019 C 
ATOM      3  C   UNL     1      10.270  18.651  -0.302  1.00  0.00     0.007 C 
ATOM      4  C   UNL     1      10.207  19.968   0.499  1.00  0.00     0.011 C 
ATOM      5  C   UNL     1      11.375  20.781  -0.038  1.00  0.00     0.047 C 
ATOM      6  C   UNL     1      12.444  19.738  -0.360  1.00  0.00     0.081 C 
ATOM      7  C   UNL     1      13.198  19.208   0.897  1.00  0.00     0.046 C 
ATOM      8  C   UNL     1      14.513  19.976   0.849  1.00  0.00     0.054 C 
ATOM      9  C   UNL     1      14.210  21.065  -0.197  1.00  0.00     0.173 C 
ATOM     10  O   UNL     1      13.409  20.391  -1.155  1.00  0.00    -0.342 OA
ATOM     11  C   UNL     1      13.411  22.291   0.379  1.00  0.00     0.096 C 
ATOM     12  C   UNL     1      11.991  21.897   0.769  1.00  0.00    -0.066 C 
ATOM     13  C   UNL     1      11.268  22.658   1.601  1.00  0.00     0.008 C 
ENDROOT
BRANCH   8  14
ATOM     14  C   UNL     1      15.158  20.421   2.211  1.00  0.00    -0.009 C 
ATOM     15  C   UNL     1      14.178  20.665   3.373  1.00  0.00     0.008 C 
ATOM     16  C   UNL     1      16.212  19.397   2.662  1.00  0.00     0.008 C 
ENDBRANCH   8  14
BRANCH   9  17
ATOM     17  O   UNL     1      15.391  21.499  -0.826  1.00  0.00    -0.365 OA
ATOM     18  H   UNL     1      16.138  20.947  -0.478  1.00  0.00     0.214 HD
ENDBRANCH   9  17
TORSDOF 2
ENDMDL
MODEL 3
REMARK VINA RESULT:    -6.207      1.827      4.775
REMARK INTER + INTRA:          -7.066
REMARK INTER:                  -6.810
REMARK INTRA:                  -0.255
REMARK UNBOUND:                -0.314
REMARK SMILES C=C1C[C@]2(O)O[C@]3(C[C@@H]2C(C)C)[C@H](C)CC[C@@H]13
REMARK SMILES IDX 14 1 13 2 15 3 16 4 17 5 7 6 8 7 9 8 4 9 6 10 3 11 2 12 1 13
REMARK SMILES IDX 10 14 11 15 12 16 5 17
REMARK H PARENT 5 18
REMARK Flexibility Score: inf
ROOT
ATOM      1  C   UNL     1      12.767  19.027  -2.191  1.00  0.00     0.011 C 
ATOM      2  C   UNL     1      11.935  18.947  -0.900  1.00  0.00     0.019 C 
ATOM      3  C   UNL     1      10.504  19.512  -1.101  1.00  0.00     0.007 C 
ATOM      4  C   UNL     1      10.429  20.861  -0.358  1.00  0.00     0.011 C 
ATOM      5  C   UNL     1      11.878  21.175  -0.019  1.00  0.00     0.047 C 
ATOM      6  C   UNL     1      12.510  19.809   0.240  1.00  0.00     0.081 C 
ATOM      7  C   UNL     1      12.158  19.212   1.636  1.00  0.00     0.046 C 
ATOM      8  C   UNL     1      13.415  19.494   2.449  1.00  0.00     0.054 C 
ATOM      9  C   UNL     1      14.165  20.491   1.544  1.00  0.00     0.173 C 
ATOM     10  O   UNL     1      13.907  20.010   0.235  1.00  0.00    -0.342 OA
ATOM     11  C   UNL     1      13.646  21.971   1.667  1.00  0.00     0.096 C 
ATOM     12  C   UNL     1      12.235  22.114   1.107  1.00  0.00    -0.066 C 
ATOM     13  C   UNL     1      11.468  23.164   1.430  1.00  0.00     0.008 C 
ENDROOT
BRANCH   8  14
ATOM     14  C   UNL     1      13.246  19.861   3.968  1.00  0.00    -0.009 C 
ATOM     15  C   UNL     1      11.923  20.548   4.352  1.00  0.00     0.008 C 
ATOM     16  C   UNL     1      13.424  18.608   4.841  1.00  0.00     0.008 C 
ENDBRANCH   8  14
BRANCH   9  17
ATOM     17  O   UNL     1      15.550  20.435   1.777  1.00  0.00    -0.365 OA
ATOM     18  H   UNL     1      15.756  19.545   2.164  1.00  0.00     0.214 HD
ENDBRANCH   9  17
TORSDOF 2
ENDMDL
MODEL 4
REMARK VINA RESULT:    -6.072      2.736      4.826
REMARK INTER + INTRA:          -6.918
REMARK INTER:                  -6.556
REMARK INTRA:                  -0.362
REMARK UNBOUND:                -0.314
REMARK SMILES C=C1C[C@]2(O)O[C@]3(C[C@@H]2C(C)C)[C@H](C)CC[C@@H]13
REMARK SMILES IDX 14 1 13 2 15 3 16 4 17 5 7 6 8 7 9 8 4 9 6 10 3 11 2 12 1 13
REMARK SMILES IDX 10 14 11 15 12 16 5 17
REMARK H PARENT 5 18
REMARK Flexibility Score: inf
ROOT
ATOM      1  C   UNL     1      11.138  20.822   9.168  1.00  0.00     0.011 C 
ATOM      2  C   UNL     1      11.148  21.566   7.822  1.00  0.00     0.019 C 
ATOM      3  C   UNL     1       9.769  22.202   7.505  1.00  0.00     0.007 C 
ATOM      4  C   UNL     1       9.128  21.381   6.368  1.00  0.00     0.011 C 
ATOM      5  C   UNL     1       9.999  20.138   6.277  1.00  0.00     0.047 C 
ATOM      6  C   UNL     1      11.402  20.633   6.622  1.00  0.00     0.081 C 
ATOM      7  C   UNL     1      12.102  21.390   5.453  1.00  0.00     0.046 C 
ATOM      8  C   UNL     1      13.053  20.339   4.894  1.00  0.00     0.054 C 
ATOM      9  C   UNL     1      12.541  19.052   5.569  1.00  0.00     0.173 C 
ATOM     10  O   UNL     1      12.179  19.482   6.872  1.00  0.00    -0.342 OA
ATOM     11  C   UNL     1      11.286  18.422   4.861  1.00  0.00     0.096 C 
ATOM     12  C   UNL     1      10.056  19.310   5.017  1.00  0.00    -0.066 C 
ATOM     13  C   UNL     1       8.997  19.168   4.209  1.00  0.00     0.008 C 
ENDROOT
BRANCH   8  14
ATOM     14  C   UNL     1      13.293  20.310   3.341  1.00  0.00    -0.009 C 
ATOM     15  C   UNL     1      12.303  21.129   2.491  1.00  0.00     0.008 C 
ATOM     16  C   UNL     1      14.722  20.771   3.014  1.00  0.00     0.008 C 
ENDBRANCH   8  14
BRANCH   9  17
ATOM     17  O   UNL     1      13.571  18.101   5.682  1.00  0.00    -0.365 OA
ATOM     18  H   UNL     1      14.300  18.371   5.066  1.00  0.00     0.214 HD
ENDBRANCH   9  17
TORSDOF 2
ENDMDL
MODEL 5
REMARK VINA RESULT:    -5.994      1.696      4.322
REMARK INTER + INTRA:          -6.833
REMARK INTER:                  -6.523
REMARK INTRA:                  -0.311
REMARK UNBOUND:                -0.314
REMARK SMILES C=C1C[C@]2(O)O[C@]3(C[C@@H]2C(C)C)[C@H](C)CC[C@@H]13
REMARK SMILES IDX 14 1 13 2 15 3 16 4 17 5 7 6 8 7 9 8 4 9 6 10 3 11 2 12 1 13
REMARK SMILES IDX 10 14 11 15 12 16 5 17
REMARK H PARENT 5 18
REMARK Flexibility Score: inf
ROOT
ATOM      1  C   UNL     1      16.138  19.849   2.635  1.00  0.00     0.011 C 
ATOM      2  C   UNL     1      14.802  19.089   2.671  1.00  0.00     0.019 C 
ATOM      3  C   UNL     1      14.465  18.452   1.298  1.00  0.00     0.007 C 
ATOM      4  C   UNL     1      13.304  19.260   0.684  1.00  0.00     0.011 C 
ATOM      5  C   UNL     1      13.215  20.500   1.560  1.00  0.00     0.047 C 
ATOM      6  C   UNL     1      13.597  20.006   2.954  1.00  0.00     0.081 C 
ATOM      7  C   UNL     1      12.453  19.232   3.676  1.00  0.00     0.046 C 
ATOM      8  C   UNL     1      11.900  20.274   4.642  1.00  0.00     0.054 C 
ATOM      9  C   UNL     1      12.549  21.570   4.120  1.00  0.00     0.173 C 
ATOM     10  O   UNL     1      13.849  21.157   3.729  1.00  0.00    -0.342 OA
ATOM     11  C   UNL     1      11.807  22.194   2.882  1.00  0.00     0.096 C 
ATOM     12  C   UNL     1      11.947  21.312   1.646  1.00  0.00    -0.066 C 
ATOM     13  C   UNL     1      11.115  21.447   0.605  1.00  0.00     0.008 C 
ENDROOT
BRANCH   8  14
ATOM     14  C   UNL     1      10.353  20.282   4.914  1.00  0.00    -0.009 C 
ATOM     15  C   UNL     1       9.564  19.081   4.359  1.00  0.00     0.008 C 
ATOM     16  C   UNL     1      10.078  20.397   6.422  1.00  0.00     0.008 C 
ENDBRANCH   8  14
BRANCH   9  17
ATOM     17  O   UNL     1      12.671  22.520   5.150  1.00  0.00    -0.365 OA
ATOM     18  H   UNL     1      11.784  22.610   5.584  1.00  0.00     0.214 HD
ENDBRANCH   9  17
TORSDOF 2
ENDMDL
MODEL 6
REMARK VINA RESULT:    -5.943      2.901      5.401
REMARK INTER + INTRA:          -6.778
REMARK INTER:                  -6.415
REMARK INTRA:                  -0.362
REMARK UNBOUND:                -0.314
REMARK SMILES C=C1C[C@]2(O)O[C@]3(C[C@@H]2C(C)C)[C@H](C)CC[C@@H]13
REMARK SMILES IDX 14 1 13 2 15 3 16 4 17 5 7 6 8 7 9 8 4 9 6 10 3 11 2 12 1 13
REMARK SMILES IDX 10 14 11 15 12 16 5 17
REMARK H PARENT 5 18
REMARK Flexibility Score: inf
ROOT
ATOM      1  C   UNL     1       9.205  16.556   2.782  1.00  0.00     0.011 C 
ATOM      2  C   UNL     1       9.282  18.021   3.243  1.00  0.00     0.019 C 
ATOM      3  C   UNL     1       9.364  18.999   2.042  1.00  0.00     0.007 C 
ATOM      4  C   UNL     1      10.800  19.562   1.999  1.00  0.00     0.011 C 
ATOM      5  C   UNL     1      11.571  18.676   2.965  1.00  0.00     0.047 C 
ATOM      6  C   UNL     1      10.556  18.330   4.053  1.00  0.00     0.081 C 
ATOM      7  C   UNL     1      10.315  19.485   5.071  1.00  0.00     0.046 C 
ATOM      8  C   UNL     1      11.142  19.049   6.275  1.00  0.00     0.054 C 
ATOM      9  C   UNL     1      11.998  17.914   5.681  1.00  0.00     0.173 C 
ATOM     10  O   UNL     1      11.110  17.261   4.788  1.00  0.00    -0.342 OA
ATOM     11  C   UNL     1      13.257  18.420   4.887  1.00  0.00     0.096 C 
ATOM     12  C   UNL     1      12.853  19.144   3.607  1.00  0.00    -0.066 C 
ATOM     13  C   UNL     1      13.709  19.960   2.977  1.00  0.00     0.008 C 
ENDROOT
BRANCH   8  14
ATOM     14  C   UNL     1      11.871  20.161   7.112  1.00  0.00    -0.009 C 
ATOM     15  C   UNL     1      11.929  21.560   6.469  1.00  0.00     0.008 C 
ATOM     16  C   UNL     1      11.233  20.285   8.504  1.00  0.00     0.008 C 
ENDBRANCH   8  14
BRANCH   9  17
ATOM     17  O   UNL     1      12.381  17.000   6.680  1.00  0.00    -0.365 OA
ATOM     18  H   UNL     1      12.782  17.518   7.425  1.00  0.00     0.214 HD
ENDBRANCH   9  17
TORSDOF 2
ENDMDL
MODEL 7
REMARK VINA RESULT:    -5.917      1.786      2.748
REMARK INTER + INTRA:          -6.750
REMARK INTER:                  -6.387
REMARK INTRA:                  -0.363
REMARK UNBOUND:                -0.314
REMARK SMILES C=C1C[C@]2(O)O[C@]3(C[C@@H]2C(C)C)[C@H](C)CC[C@@H]13
REMARK SMILES IDX 14 1 13 2 15 3 16 4 17 5 7 6 8 7 9 8 4 9 6 10 3 11 2 12 1 13
REMARK SMILES IDX 10 14 11 15 12 16 5 17
REMARK H PARENT 5 18
REMARK Flexibility Score: inf
ROOT
ATOM      1  C   UNL     1      12.746  18.244   6.217  1.00  0.00     0.011 C 
ATOM      2  C   UNL     1      11.731  18.523   5.097  1.00  0.00     0.019 C 
ATOM      3  C   UNL     1      11.145  17.212   4.511  1.00  0.00     0.007 C 
ATOM      4  C   UNL     1      11.746  17.023   3.103  1.00  0.00     0.011 C 
ATOM      5  C   UNL     1      12.873  18.043   3.045  1.00  0.00     0.047 C 
ATOM      6  C   UNL     1      12.361  19.219   3.875  1.00  0.00     0.081 C 
ATOM      7  C   UNL     1      11.320  20.105   3.127  1.00  0.00     0.046 C 
ATOM      8  C   UNL     1      12.151  21.304   2.689  1.00  0.00     0.054 C 
ATOM      9  C   UNL     1      13.588  20.803   2.932  1.00  0.00     0.173 C 
ATOM     10  O   UNL     1      13.477  20.044   4.126  1.00  0.00    -0.342 OA
ATOM     11  C   UNL     1      14.142  19.886   1.781  1.00  0.00     0.096 C 
ATOM     12  C   UNL     1      13.402  18.554   1.727  1.00  0.00    -0.066 C 
ATOM     13  C   UNL     1      13.445  17.785   0.631  1.00  0.00     0.008 C 
ENDROOT
BRANCH   8  14
ATOM     14  C   UNL     1      11.826  21.962   1.299  1.00  0.00    -0.009 C 
ATOM     15  C   UNL     1      10.881  21.164   0.382  1.00  0.00     0.008 C 
ATOM     16  C   UNL     1      11.246  23.371   1.499  1.00  0.00     0.008 C 
ENDBRANCH   8  14
BRANCH   9  17
ATOM     17  O   UNL     1      14.462  21.880   3.166  1.00  0.00    -0.365 OA
ATOM     18  H   UNL     1      14.028  22.702   2.819  1.00  0.00     0.214 HD
ENDBRANCH   9  17
TORSDOF 2
ENDMDL
MODEL 8
REMARK VINA RESULT:    -5.854      1.654      2.315
REMARK INTER + INTRA:          -6.681
REMARK INTER:                  -6.942
REMARK INTRA:                   0.261
REMARK UNBOUND:                -0.314
REMARK SMILES C=C1C[C@]2(O)O[C@]3(C[C@@H]2C(C)C)[C@H](C)CC[C@@H]13
REMARK SMILES IDX 14 1 13 2 15 3 16 4 17 5 7 6 8 7 9 8 4 9 6 10 3 11 2 12 1 13
REMARK SMILES IDX 10 14 11 15 12 16 5 17
REMARK H PARENT 5 18
REMARK Flexibility Score: inf
ROOT
ATOM      1  C   UNL     1      11.959  21.172   6.820  1.00  0.00     0.011 C 
ATOM      2  C   UNL     1      11.158  21.136   5.508  1.00  0.00     0.019 C 
ATOM      3  C   UNL     1      10.200  19.917   5.452  1.00  0.00     0.007 C 
ATOM      4  C   UNL     1      10.779  18.919   4.429  1.00  0.00     0.011 C 
ATOM      5  C   UNL     1      12.182  19.438   4.161  1.00  0.00     0.047 C 
ATOM      6  C   UNL     1      12.049  20.957   4.264  1.00  0.00     0.081 C 
ATOM      7  C   UNL     1      11.405  21.614   3.005  1.00  0.00     0.046 C 
ATOM      8  C   UNL     1      12.612  22.178   2.266  1.00  0.00     0.054 C 
ATOM      9  C   UNL     1      13.783  21.493   2.996  1.00  0.00     0.173 C 
ATOM     10  O   UNL     1      13.361  21.467   4.350  1.00  0.00    -0.342 OA
ATOM     11  C   UNL     1      14.060  20.024   2.508  1.00  0.00     0.096 C 
ATOM     12  C   UNL     1      12.922  19.086   2.895  1.00  0.00    -0.066 C 
ATOM     13  C   UNL     1      12.765  17.904   2.283  1.00  0.00     0.008 C 
ENDROOT
BRANCH   8  14
ATOM     14  C   UNL     1      12.600  22.143   0.696  1.00  0.00    -0.009 C 
ATOM     15  C   UNL     1      13.906  21.681   0.022  1.00  0.00     0.008 C 
ATOM     16  C   UNL     1      11.447  21.261   0.191  1.00  0.00     0.008 C 
ENDBRANCH   8  14
BRANCH   9  17
ATOM     17  O   UNL     1      14.952  22.270   2.907  1.00  0.00    -0.365 OA
ATOM     18  H   UNL     1      15.642  21.725   2.447  1.00  0.00     0.214 HD
ENDBRANCH   9  17
TORSDOF 2
ENDMDL
MODEL 9
REMARK VINA RESULT:    -5.773      2.207      5.407
REMARK INTER + INTRA:          -6.593
REMARK INTER:                  -6.568
REMARK INTRA:                  -0.025
REMARK UNBOUND:                -0.314
REMARK SMILES C=C1C[C@]2(O)O[C@]3(C[C@@H]2C(C)C)[C@H](C)CC[C@@H]13
REMARK SMILES IDX 14 1 13 2 15 3 16 4 17 5 7 6 8 7 9 8 4 9 6 10 3 11 2 12 1 13
REMARK SMILES IDX 10 14 11 15 12 16 5 17
REMARK H PARENT 5 18
REMARK Flexibility Score: inf
ROOT
ATOM      1  C   UNL     1      12.256  22.263   2.233  1.00  0.00     0.011 C 
ATOM      2  C   UNL     1      12.922  21.866   3.561  1.00  0.00     0.019 C 
ATOM      3  C   UNL     1      14.194  21.009   3.333  1.00  0.00     0.007 C 
ATOM      4  C   UNL     1      13.862  19.563   3.756  1.00  0.00     0.011 C 
ATOM      5  C   UNL     1      12.350  19.565   3.917  1.00  0.00     0.047 C 
ATOM      6  C   UNL     1      12.028  20.966   4.435  1.00  0.00     0.081 C 
ATOM      7  C   UNL     1      12.339  21.158   5.951  1.00  0.00     0.046 C 
ATOM      8  C   UNL     1      10.962  21.046   6.594  1.00  0.00     0.054 C 
ATOM      9  C   UNL     1      10.115  20.477   5.439  1.00  0.00     0.173 C 
ATOM     10  O   UNL     1      10.634  21.132   4.292  1.00  0.00    -0.342 OA
ATOM     11  C   UNL     1      10.255  18.921   5.259  1.00  0.00     0.096 C 
ATOM     12  C   UNL     1      11.650  18.541   4.776  1.00  0.00    -0.066 C 
ATOM     13  C   UNL     1      12.106  17.287   4.904  1.00  0.00     0.008 C 
ENDROOT
BRANCH   8  14
ATOM     14  C   UNL     1      10.856  20.349   7.998  1.00  0.00    -0.009 C 
ATOM     15  C   UNL     1      11.926  20.749   9.031  1.00  0.00     0.008 C 
ATOM     16  C   UNL     1       9.467  20.590   8.609  1.00  0.00     0.008 C 
ENDBRANCH   8  14
BRANCH   9  17
ATOM     17  O   UNL     1       8.763  20.836   5.585  1.00  0.00    -0.365 OA
ATOM     18  H   UNL     1       8.707  21.825   5.542  1.00  0.00     0.214 HD
ENDBRANCH   9  17
TORSDOF 2
ENDMDL
