MODEL 1
REMARK VINA RESULT:    70.685      0.000      0.000
REMARK INTER + INTRA:         102.428
REMARK INTER:                 103.743
REMARK INTRA:                  -1.315
REMARK UNBOUND:                -1.315
REMARK SMILES O=c1c(O[C@@H]2O[C@@H](CO)[C@@H](O)[C@H](O)[C@H]2O)c(-c2ccc(O)c(O)c2)oc2cc(O)cc(O)c12
REMARK SMILES IDX 4 1 3 2 16 3 25 4 2 5 26 6 1 7 33 8 27 9 31 10 28 11 30 12
REMARK SMILES IDX 17 13 18 14 19 15 20 16 24 17 22 18 21 19 23 21 32 23 29 25
REMARK SMILES IDX 5 27 14 28 6 29 12 30 7 31 10 32 15 33 13 35 8 37 9 38 11 40
REMARK H PARENT 21 20 23 22 32 24 29 26 15 34 13 36 9 39 11 41
REMARK Flexibility Score: inf
ROOT
ATOM      1  O   UNL     1     -39.683  30.358 -24.138  1.00  0.00    -0.454 OA
ENDROOT
BRANCH   1   2
ATOM      2  C   UNL     1     -40.654  30.390 -23.121  1.00  0.00     0.214 A 
ATOM      3  C   UNL     1     -40.470  29.625 -21.938  1.00  0.00     0.180 A 
ATOM      4  O   UNL     1     -41.410  29.648 -20.998  1.00  0.00    -0.452 OA
ATOM      5  C   UNL     1     -41.798  31.210 -23.216  1.00  0.00     0.239 A 
ATOM      6  C   UNL     1     -42.519  30.369 -21.071  1.00  0.00     0.146 A 
ATOM      7  O   UNL     1     -41.940  31.972 -24.204  1.00  0.00    -0.285 OA
ATOM      8  C   UNL     1     -42.760  31.200 -22.186  1.00  0.00     0.111 A 
ATOM      9  C   UNL     1     -43.442  30.307 -20.023  1.00  0.00     0.094 A 
ATOM     10  C   UNL     1     -43.938  31.989 -22.216  1.00  0.00     0.134 A 
ATOM     11  C   UNL     1     -44.604  31.077 -20.058  1.00  0.00     0.123 A 
ATOM     12  C   UNL     1     -44.848  31.919 -21.149  1.00  0.00     0.093 A 
BRANCH   3  13
ATOM     13  C   UNL     1     -39.252  28.805 -21.646  1.00  0.00     0.025 A 
ATOM     14  C   UNL     1     -38.097  29.322 -21.018  1.00  0.00     0.016 A 
ATOM     15  C   UNL     1     -36.978  28.516 -20.802  1.00  0.00     0.051 A 
ATOM     16  C   UNL     1     -36.973  27.185 -21.223  1.00  0.00     0.157 A 
ATOM     17  C   UNL     1     -39.232  27.458 -22.066  1.00  0.00     0.062 A 
ATOM     18  C   UNL     1     -38.105  26.651 -21.860  1.00  0.00     0.158 A 
BRANCH  16  19
ATOM     19  O   UNL     1     -35.834  26.410 -21.005  1.00  0.00    -0.504 OA
ATOM     20  H   UNL     1     -35.827  25.407 -21.158  1.00  0.00     0.293 HD
ENDBRANCH  16  19
BRANCH  18  21
ATOM     21  O   UNL     1     -38.106  25.322 -22.288  1.00  0.00    -0.504 OA
ATOM     22  H   UNL     1     -38.941  24.892 -22.669  1.00  0.00     0.293 HD
ENDBRANCH  18  21
ENDBRANCH   3  13
BRANCH  10  23
ATOM     23  O   UNL     1     -44.210  32.837 -23.291  1.00  0.00    -0.507 OA
ATOM     24  H   UNL     1     -43.681  33.688 -23.440  1.00  0.00     0.293 HD
ENDBRANCH  10  23
BRANCH  11  25
ATOM     25  O   UNL     1     -45.511  30.999 -19.003  1.00  0.00    -0.508 OA
ATOM     26  H   UNL     1     -45.620  30.147 -18.458  1.00  0.00     0.293 HD
ENDBRANCH  11  25
ENDBRANCH   1   2
BRANCH   1  27
ATOM     27  C   UNL     1     -38.531  31.211 -24.256  1.00  0.00     0.339 C 
ATOM     28  C   UNL     1     -37.309  30.475 -24.875  1.00  0.00     0.214 C 
ATOM     29  O   UNL     1     -38.889  32.438 -24.888  1.00  0.00    -0.332 OA
ATOM     30  C   UNL     1     -36.079  31.403 -24.832  1.00  0.00     0.180 C 
ATOM     31  C   UNL     1     -37.909  32.958 -25.783  1.00  0.00     0.179 C 
ATOM     32  C   UNL     1     -36.452  32.855 -25.242  1.00  0.00     0.177 C 
BRANCH  28  33
ATOM     33  O   UNL     1     -37.046  29.266 -24.207  1.00  0.00    -0.384 OA
ATOM     34  H   UNL     1     -37.199  29.413 -23.238  1.00  0.00     0.211 HD
ENDBRANCH  28  33
BRANCH  30  35
ATOM     35  O   UNL     1     -35.087  30.884 -25.680  1.00  0.00    -0.387 OA
ATOM     36  H   UNL     1     -35.517  30.169 -26.222  1.00  0.00     0.211 HD
ENDBRANCH  30  35
BRANCH  31  37
ATOM     37  C   UNL     1     -38.269  34.411 -26.122  1.00  0.00     0.191 C 
BRANCH  37  38
ATOM     38  O   UNL     1     -39.582  34.697 -25.717  1.00  0.00    -0.394 OA
ATOM     39  H   UNL     1     -39.512  35.339 -24.961  1.00  0.00     0.210 HD
ENDBRANCH  37  38
ENDBRANCH  31  37
BRANCH  32  40
ATOM     40  O   UNL     1     -36.238  33.744 -24.174  1.00  0.00    -0.387 OA
ATOM     41  H   UNL     1     -37.067  34.279 -24.050  1.00  0.00     0.211 HD
ENDBRANCH  32  40
ENDBRANCH   1  27
TORSDOF 12
ENDMDL
MODEL 2
REMARK VINA RESULT:    73.101      1.576      5.585
REMARK INTER + INTRA:         105.974
REMARK INTER:                 106.259
REMARK INTRA:                  -0.285
REMARK UNBOUND:                -1.315
REMARK SMILES O=c1c(O[C@@H]2O[C@@H](CO)[C@@H](O)[C@H](O)[C@H]2O)c(-c2ccc(O)c(O)c2)oc2cc(O)cc(O)c12
REMARK SMILES IDX 4 1 3 2 16 3 25 4 2 5 26 6 1 7 33 8 27 9 31 10 28 11 30 12
REMARK SMILES IDX 17 13 18 14 19 15 20 16 24 17 22 18 21 19 23 21 32 23 29 25
REMARK SMILES IDX 5 27 14 28 6 29 12 30 7 31 10 32 15 33 13 35 8 37 9 38 11 40
REMARK H PARENT 21 20 23 22 32 24 29 26 15 34 13 36 9 39 11 41
REMARK Flexibility Score: inf
ROOT
ATOM      1  O   UNL     1     -39.093  29.388 -21.594  1.00  0.00    -0.454 OA
ENDROOT
BRANCH   1   2
ATOM      2  C   UNL     1     -40.226  30.148 -21.935  1.00  0.00     0.214 A 
ATOM      3  C   UNL     1     -40.150  31.113 -22.974  1.00  0.00     0.180 A 
ATOM      4  O   UNL     1     -41.225  31.839 -23.266  1.00  0.00    -0.452 OA
ATOM      5  C   UNL     1     -41.471  29.943 -21.303  1.00  0.00     0.239 A 
ATOM      6  C   UNL     1     -42.398  31.708 -22.663  1.00  0.00     0.146 A 
ATOM      7  O   UNL     1     -41.595  29.030 -20.450  1.00  0.00    -0.285 OA
ATOM      8  C   UNL     1     -42.580  30.737 -21.655  1.00  0.00     0.111 A 
ATOM      9  C   UNL     1     -43.458  32.534 -23.049  1.00  0.00     0.094 A 
ATOM     10  C   UNL     1     -43.859  30.595 -21.058  1.00  0.00     0.134 A 
ATOM     11  C   UNL     1     -44.713  32.399 -22.453  1.00  0.00     0.123 A 
ATOM     12  C   UNL     1     -44.913  31.428 -21.465  1.00  0.00     0.093 A 
BRANCH   3  13
ATOM     13  C   UNL     1     -38.933  31.355 -23.812  1.00  0.00     0.025 A 
ATOM     14  C   UNL     1     -37.813  30.495 -23.825  1.00  0.00     0.016 A 
ATOM     15  C   UNL     1     -36.692  30.791 -24.603  1.00  0.00     0.051 A 
ATOM     16  C   UNL     1     -36.651  31.958 -25.369  1.00  0.00     0.157 A 
ATOM     17  C   UNL     1     -38.878  32.530 -24.592  1.00  0.00     0.062 A 
ATOM     18  C   UNL     1     -37.748  32.833 -25.364  1.00  0.00     0.158 A 
BRANCH  16  19
ATOM     19  O   UNL     1     -35.511  32.232 -26.125  1.00  0.00    -0.504 OA
ATOM     20  H   UNL     1     -35.562  32.677 -27.035  1.00  0.00     0.293 HD
ENDBRANCH  16  19
BRANCH  18  21
ATOM     21  O   UNL     1     -37.713  34.005 -26.125  1.00  0.00    -0.504 OA
ATOM     22  H   UNL     1     -37.152  34.800 -25.842  1.00  0.00     0.293 HD
ENDBRANCH  18  21
ENDBRANCH   3  13
BRANCH  10  23
ATOM     23  O   UNL     1     -44.088  29.637 -20.068  1.00  0.00    -0.507 OA
ATOM     24  H   UNL     1     -44.579  29.868 -19.212  1.00  0.00     0.293 HD
ENDBRANCH  10  23
BRANCH  11  25
ATOM     25  O   UNL     1     -45.754  33.234 -22.852  1.00  0.00    -0.508 OA
ATOM     26  H   UNL     1     -46.475  32.916 -23.494  1.00  0.00     0.293 HD
ENDBRANCH  11  25
ENDBRANCH   1   2
BRANCH   1  27
ATOM     27  C   UNL     1     -38.785  28.054 -22.035  1.00  0.00     0.339 C 
ATOM     28  C   UNL     1     -37.849  27.304 -21.047  1.00  0.00     0.214 C 
ATOM     29  O   UNL     1     -39.983  27.363 -22.386  1.00  0.00    -0.332 OA
ATOM     30  C   UNL     1     -37.449  25.945 -21.656  1.00  0.00     0.180 C 
ATOM     31  C   UNL     1     -40.003  25.984 -22.030  1.00  0.00     0.179 C 
ATOM     32  C   UNL     1     -38.665  25.244 -22.322  1.00  0.00     0.177 C 
BRANCH  28  33
ATOM     33  O   UNL     1     -36.709  28.068 -20.739  1.00  0.00    -0.384 OA
ATOM     34  H   UNL     1     -36.821  28.963 -21.151  1.00  0.00     0.211 HD
ENDBRANCH  28  33
BRANCH  30  35
ATOM     35  O   UNL     1     -36.898  25.138 -20.647  1.00  0.00    -0.387 OA
ATOM     36  H   UNL     1     -35.983  24.888 -20.946  1.00  0.00     0.211 HD
ENDBRANCH  30  35
BRANCH  31  37
ATOM     37  C   UNL     1     -41.178  25.304 -22.749  1.00  0.00     0.191 C 
BRANCH  37  38
ATOM     38  O   UNL     1     -41.502  26.001 -23.923  1.00  0.00    -0.394 OA
ATOM     39  H   UNL     1     -42.092  26.753 -23.652  1.00  0.00     0.210 HD
ENDBRANCH  37  38
ENDBRANCH  31  37
BRANCH  32  40
ATOM     40  O   UNL     1     -38.455  25.090 -23.703  1.00  0.00    -0.387 OA
ATOM     41  H   UNL     1     -37.915  24.265 -23.841  1.00  0.00     0.211 HD
ENDBRANCH  32  40
ENDBRANCH   1  27
TORSDOF 12
ENDMDL
