MODEL 1
REMARK VINA RESULT:    -4.041      0.000      0.000
REMARK INTER + INTRA:          -5.294
REMARK INTER:                  -4.986
REMARK INTRA:                  -0.308
REMARK UNBOUND:                -0.308
REMARK SMILES C=CCc1ccc(OC)c(OC)c1
REMARK SMILES IDX 7 1 10 2 13 3 4 4 5 5 6 6 8 7 9 8 11 9 12 10 3 11 2 12 1 13
REMARK H PARENT
REMARK Flexibility Score: inf
ROOT
ATOM      1  C   UNL     1      26.255  39.056  19.952  1.00  0.00     0.160 A 
ATOM      2  C   UNL     1      27.321  39.402  19.106  1.00  0.00     0.160 A 
ATOM      3  C   UNL     1      27.891  40.688  19.194  1.00  0.00     0.054 A 
ATOM      4  C   UNL     1      27.398  41.625  20.114  1.00  0.00    -0.040 A 
ATOM      5  C   UNL     1      26.341  41.268  20.962  1.00  0.00     0.008 A 
ATOM      6  C   UNL     1      25.770  39.996  20.880  1.00  0.00     0.051 A 
ENDROOT
BRANCH   1   7
ATOM      7  O   UNL     1      25.707  37.768  19.840  1.00  0.00    -0.493 OA
ATOM      8  C   UNL     1      24.641  37.273  20.644  1.00  0.00     0.278 C 
ENDBRANCH   1   7
BRANCH   2   9
ATOM      9  O   UNL     1      27.787  38.442  18.194  1.00  0.00    -0.493 OA
ATOM     10  C   UNL     1      28.714  38.707  17.145  1.00  0.00     0.278 C 
ENDBRANCH   2   9
BRANCH   4  11
ATOM     11  C   UNL     1      28.034  42.986  20.221  1.00  0.00     0.062 C 
BRANCH  11  12
ATOM     12  C   UNL     1      27.052  44.064  19.854  1.00  0.00    -0.030 C 
ATOM     13  C   UNL     1      26.496  44.124  18.640  1.00  0.00     0.004 C 
ENDBRANCH  11  12
ENDBRANCH   4  11
TORSDOF 4
ENDMDL
MODEL 2
REMARK VINA RESULT:    -4.040      9.700     12.052
REMARK INTER + INTRA:          -5.293
REMARK INTER:                  -5.053
REMARK INTRA:                  -0.240
REMARK UNBOUND:                -0.308
REMARK SMILES C=CCc1ccc(OC)c(OC)c1
REMARK SMILES IDX 7 1 10 2 13 3 4 4 5 5 6 6 8 7 9 8 11 9 12 10 3 11 2 12 1 13
REMARK H PARENT
REMARK Flexibility Score: inf
ROOT
ATOM      1  C   UNL     1      28.161  28.421  25.120  1.00  0.00     0.160 A 
ATOM      2  C   UNL     1      28.467  29.630  25.763  1.00  0.00     0.160 A 
ATOM      3  C   UNL     1      28.787  30.767  24.995  1.00  0.00     0.054 A 
ATOM      4  C   UNL     1      28.811  30.698  23.594  1.00  0.00    -0.040 A 
ATOM      5  C   UNL     1      28.494  29.489  22.959  1.00  0.00     0.008 A 
ATOM      6  C   UNL     1      28.176  28.358  23.714  1.00  0.00     0.051 A 
ENDROOT
BRANCH   1   7
ATOM      7  O   UNL     1      27.847  27.305  25.912  1.00  0.00    -0.493 OA
ATOM      8  C   UNL     1      28.681  26.161  26.060  1.00  0.00     0.278 C 
ENDBRANCH   1   7
BRANCH   2   9
ATOM      9  O   UNL     1      28.439  29.664  27.167  1.00  0.00    -0.493 OA
ATOM     10  C   UNL     1      29.125  30.623  27.965  1.00  0.00     0.278 C 
ENDBRANCH   2   9
BRANCH   4  11
ATOM     11  C   UNL     1      29.125  31.926  22.781  1.00  0.00     0.062 C 
BRANCH  11  12
ATOM     12  C   UNL     1      28.416  33.129  23.336  1.00  0.00    -0.030 C 
ATOM     13  C   UNL     1      28.310  34.265  22.640  1.00  0.00     0.004 C 
ENDBRANCH  11  12
ENDBRANCH   4  11
TORSDOF 4
ENDMDL
MODEL 3
REMARK VINA RESULT:    -4.016      2.291      5.336
REMARK INTER + INTRA:          -5.263
REMARK INTER:                  -4.993
REMARK INTRA:                  -0.270
REMARK UNBOUND:                -0.308
REMARK SMILES C=CCc1ccc(OC)c(OC)c1
REMARK SMILES IDX 7 1 10 2 13 3 4 4 5 5 6 6 8 7 9 8 11 9 12 10 3 11 2 12 1 13
REMARK H PARENT
REMARK Flexibility Score: inf
ROOT
ATOM      1  C   UNL     1      27.058  41.580  19.559  1.00  0.00     0.160 A 
ATOM      2  C   UNL     1      26.305  41.289  20.708  1.00  0.00     0.160 A 
ATOM      3  C   UNL     1      25.861  39.971  20.934  1.00  0.00     0.054 A 
ATOM      4  C   UNL     1      26.158  38.951  20.019  1.00  0.00    -0.040 A 
ATOM      5  C   UNL     1      26.919  39.248  18.880  1.00  0.00     0.008 A 
ATOM      6  C   UNL     1      27.362  40.551  18.648  1.00  0.00     0.051 A 
ENDROOT
BRANCH   1   7
ATOM      7  O   UNL     1      27.486  42.903  19.360  1.00  0.00    -0.493 OA
ATOM      8  C   UNL     1      26.737  43.897  18.668  1.00  0.00     0.278 C 
ENDBRANCH   1   7
BRANCH   2   9
ATOM      9  O   UNL     1      26.021  42.335  21.601  1.00  0.00    -0.493 OA
ATOM     10  C   UNL     1      26.808  42.659  22.742  1.00  0.00     0.278 C 
ENDBRANCH   2   9
BRANCH   4  11
ATOM     11  C   UNL     1      25.704  37.540  20.285  1.00  0.00     0.062 C 
BRANCH  11  12
ATOM     12  C   UNL     1      26.601  36.871  21.289  1.00  0.00    -0.030 C 
ATOM     13  C   UNL     1      27.594  36.060  20.914  1.00  0.00     0.004 C 
ENDBRANCH  11  12
ENDBRANCH   4  11
TORSDOF 4
ENDMDL
MODEL 4
REMARK VINA RESULT:    -3.950      1.706      2.994
REMARK INTER + INTRA:          -5.181
REMARK INTER:                  -4.942
REMARK INTRA:                  -0.239
REMARK UNBOUND:                -0.308
REMARK SMILES C=CCc1ccc(OC)c(OC)c1
REMARK SMILES IDX 7 1 10 2 13 3 4 4 5 5 6 6 8 7 9 8 11 9 12 10 3 11 2 12 1 13
REMARK H PARENT
REMARK Flexibility Score: inf
ROOT
ATOM      1  C   UNL     1      27.443  37.826  20.296  1.00  0.00     0.160 A 
ATOM      2  C   UNL     1      26.106  38.247  20.353  1.00  0.00     0.160 A 
ATOM      3  C   UNL     1      25.811  39.625  20.413  1.00  0.00     0.054 A 
ATOM      4  C   UNL     1      26.843  40.575  20.423  1.00  0.00    -0.040 A 
ATOM      5  C   UNL     1      28.175  40.145  20.355  1.00  0.00     0.008 A 
ATOM      6  C   UNL     1      28.475  38.783  20.297  1.00  0.00     0.051 A 
ENDROOT
BRANCH   1   7
ATOM      7  O   UNL     1      27.706  36.447  20.239  1.00  0.00    -0.493 OA
ATOM      8  C   UNL     1      28.990  35.863  20.431  1.00  0.00     0.278 C 
ENDBRANCH   1   7
BRANCH   2   9
ATOM      9  O   UNL     1      25.098  37.270  20.346  1.00  0.00    -0.493 OA
ATOM     10  C   UNL     1      23.923  37.316  21.149  1.00  0.00     0.278 C 
ENDBRANCH   2   9
BRANCH   4  11
ATOM     11  C   UNL     1      26.517  42.044  20.457  1.00  0.00     0.062 C 
BRANCH  11  12
ATOM     12  C   UNL     1      27.014  42.730  19.215  1.00  0.00    -0.030 C 
ATOM     13  C   UNL     1      26.584  43.946  18.864  1.00  0.00     0.004 C 
ENDBRANCH  11  12
ENDBRANCH   4  11
TORSDOF 4
ENDMDL
MODEL 5
REMARK VINA RESULT:    -3.907      9.538     11.756
REMARK INTER + INTRA:          -5.129
REMARK INTER:                  -4.874
REMARK INTRA:                  -0.255
REMARK UNBOUND:                -0.308
REMARK SMILES C=CCc1ccc(OC)c(OC)c1
REMARK SMILES IDX 7 1 10 2 13 3 4 4 5 5 6 6 8 7 9 8 11 9 12 10 3 11 2 12 1 13
REMARK H PARENT
REMARK Flexibility Score: inf
ROOT
ATOM      1  C   UNL     1      28.330  28.793  25.839  1.00  0.00     0.160 A 
ATOM      2  C   UNL     1      28.022  29.226  24.540  1.00  0.00     0.160 A 
ATOM      3  C   UNL     1      28.268  30.565  24.175  1.00  0.00     0.054 A 
ATOM      4  C   UNL     1      28.810  31.469  25.101  1.00  0.00    -0.040 A 
ATOM      5  C   UNL     1      29.125  31.025  26.392  1.00  0.00     0.008 A 
ATOM      6  C   UNL     1      28.884  29.701  26.761  1.00  0.00     0.051 A 
ENDROOT
BRANCH   1   7
ATOM      7  O   UNL     1      28.074  27.453  26.173  1.00  0.00    -0.493 OA
ATOM      8  C   UNL     1      29.050  26.417  26.158  1.00  0.00     0.278 C 
ENDBRANCH   1   7
BRANCH   2   9
ATOM      9  O   UNL     1      27.476  28.298  23.639  1.00  0.00    -0.493 OA
ATOM     10  C   UNL     1      26.209  28.436  23.006  1.00  0.00     0.278 C 
ENDBRANCH   2   9
BRANCH   4  11
ATOM     11  C   UNL     1      29.097  32.889  24.692  1.00  0.00     0.062 C 
BRANCH  11  12
ATOM     12  C   UNL     1      28.073  33.378  23.706  1.00  0.00    -0.030 C 
ATOM     13  C   UNL     1      28.365  34.312  22.795  1.00  0.00     0.004 C 
ENDBRANCH  11  12
ENDBRANCH   4  11
TORSDOF 4
ENDMDL
MODEL 6
REMARK VINA RESULT:    -3.833      2.709      5.599
REMARK INTER + INTRA:          -5.037
REMARK INTER:                  -4.812
REMARK INTRA:                  -0.225
REMARK UNBOUND:                -0.308
REMARK SMILES C=CCc1ccc(OC)c(OC)c1
REMARK SMILES IDX 7 1 10 2 13 3 4 4 5 5 6 6 8 7 9 8 11 9 12 10 3 11 2 12 1 13
REMARK H PARENT
REMARK Flexibility Score: inf
ROOT
ATOM      1  C   UNL     1      26.547  39.600  20.660  1.00  0.00     0.160 A 
ATOM      2  C   UNL     1      25.938  38.335  20.670  1.00  0.00     0.160 A 
ATOM      3  C   UNL     1      26.705  37.190  20.377  1.00  0.00     0.054 A 
ATOM      4  C   UNL     1      28.068  37.304  20.068  1.00  0.00    -0.040 A 
ATOM      5  C   UNL     1      28.671  38.569  20.071  1.00  0.00     0.008 A 
ATOM      6  C   UNL     1      27.918  39.709  20.359  1.00  0.00     0.051 A 
ENDROOT
BRANCH   1   7
ATOM      7  O   UNL     1      25.758  40.723  20.954  1.00  0.00    -0.493 OA
ATOM      8  C   UNL     1      26.275  42.000  21.312  1.00  0.00     0.278 C 
ENDBRANCH   1   7
BRANCH   2   9
ATOM      9  O   UNL     1      24.570  38.257  20.978  1.00  0.00    -0.493 OA
ATOM     10  C   UNL     1      23.827  37.045  21.051  1.00  0.00     0.278 C 
ENDBRANCH   2   9
BRANCH   4  11
ATOM     11  C   UNL     1      28.886  36.071  19.786  1.00  0.00     0.062 C 
BRANCH  11  12
ATOM     12  C   UNL     1      28.320  34.879  20.505  1.00  0.00    -0.030 C 
ATOM     13  C   UNL     1      28.820  33.652  20.333  1.00  0.00     0.004 C 
ENDBRANCH  11  12
ENDBRANCH   4  11
TORSDOF 4
ENDMDL
MODEL 7
REMARK VINA RESULT:    -3.736      1.416      3.093
REMARK INTER + INTRA:          -4.917
REMARK INTER:                  -4.614
REMARK INTRA:                  -0.304
REMARK UNBOUND:                -0.308
REMARK SMILES C=CCc1ccc(OC)c(OC)c1
REMARK SMILES IDX 7 1 10 2 13 3 4 4 5 5 6 6 8 7 9 8 11 9 12 10 3 11 2 12 1 13
REMARK H PARENT
REMARK Flexibility Score: inf
ROOT
ATOM      1  C   UNL     1      27.207  39.344  19.182  1.00  0.00     0.160 A 
ATOM      2  C   UNL     1      26.475  39.319  20.379  1.00  0.00     0.160 A 
ATOM      3  C   UNL     1      26.126  40.532  21.007  1.00  0.00     0.054 A 
ATOM      4  C   UNL     1      26.511  41.760  20.450  1.00  0.00    -0.040 A 
ATOM      5  C   UNL     1      27.233  41.775  19.249  1.00  0.00     0.008 A 
ATOM      6  C   UNL     1      27.583  40.579  18.621  1.00  0.00     0.051 A 
ENDROOT
BRANCH   1   7
ATOM      7  O   UNL     1      27.541  38.120  18.579  1.00  0.00    -0.493 OA
ATOM      8  C   UNL     1      28.824  37.507  18.656  1.00  0.00     0.278 C 
ENDBRANCH   1   7
BRANCH   2   9
ATOM      9  O   UNL     1      26.110  38.073  20.912  1.00  0.00    -0.493 OA
ATOM     10  C   UNL     1      24.801  37.517  20.843  1.00  0.00     0.278 C 
ENDBRANCH   2   9
BRANCH   4  11
ATOM     11  C   UNL     1      26.108  43.051  21.113  1.00  0.00     0.062 C 
BRANCH  11  12
ATOM     12  C   UNL     1      27.183  43.528  22.050  1.00  0.00    -0.030 C 
ATOM     13  C   UNL     1      27.147  43.256  23.358  1.00  0.00     0.004 C 
ENDBRANCH  11  12
ENDBRANCH   4  11
TORSDOF 4
ENDMDL
MODEL 8
REMARK VINA RESULT:    -3.553      2.705      5.306
REMARK INTER + INTRA:          -4.691
REMARK INTER:                  -4.449
REMARK INTRA:                  -0.242
REMARK UNBOUND:                -0.308
REMARK SMILES C=CCc1ccc(OC)c(OC)c1
REMARK SMILES IDX 7 1 10 2 13 3 4 4 5 5 6 6 8 7 9 8 11 9 12 10 3 11 2 12 1 13
REMARK H PARENT
REMARK Flexibility Score: inf
ROOT
ATOM      1  C   UNL     1      27.026  39.372  19.573  1.00  0.00     0.160 A 
ATOM      2  C   UNL     1      28.061  38.538  19.121  1.00  0.00     0.160 A 
ATOM      3  C   UNL     1      28.250  37.275  19.718  1.00  0.00     0.054 A 
ATOM      4  C   UNL     1      27.418  36.849  20.763  1.00  0.00    -0.040 A 
ATOM      5  C   UNL     1      26.380  37.683  21.201  1.00  0.00     0.008 A 
ATOM      6  C   UNL     1      26.187  38.935  20.616  1.00  0.00     0.051 A 
ENDROOT
BRANCH   1   7
ATOM      7  O   UNL     1      26.862  40.625  18.960  1.00  0.00    -0.493 OA
ATOM      8  C   UNL     1      27.137  41.872  19.590  1.00  0.00     0.278 C 
ENDBRANCH   1   7
BRANCH   2   9
ATOM      9  O   UNL     1      28.878  38.998  18.076  1.00  0.00    -0.493 OA
ATOM     10  C   UNL     1      28.640  38.749  16.694  1.00  0.00     0.278 C 
ENDBRANCH   2   9
BRANCH   4  11
ATOM     11  C   UNL     1      27.610  35.486  21.374  1.00  0.00     0.062 C 
BRANCH  11  12
ATOM     12  C   UNL     1      28.670  34.716  20.639  1.00  0.00    -0.030 C 
ATOM     13  C   UNL     1      28.948  33.443  20.937  1.00  0.00     0.004 C 
ENDBRANCH  11  12
ENDBRANCH   4  11
TORSDOF 4
ENDMDL
MODEL 9
REMARK VINA RESULT:    -3.534      2.506      4.973
REMARK INTER + INTRA:          -4.669
REMARK INTER:                  -4.326
REMARK INTRA:                  -0.342
REMARK UNBOUND:                -0.308
REMARK SMILES C=CCc1ccc(OC)c(OC)c1
REMARK SMILES IDX 7 1 10 2 13 3 4 4 5 5 6 6 8 7 9 8 11 9 12 10 3 11 2 12 1 13
REMARK H PARENT
REMARK Flexibility Score: inf
ROOT
ATOM      1  C   UNL     1      28.082  42.111  21.081  1.00  0.00     0.160 A 
ATOM      2  C   UNL     1      27.599  42.122  19.763  1.00  0.00     0.160 A 
ATOM      3  C   UNL     1      27.117  40.928  19.188  1.00  0.00     0.054 A 
ATOM      4  C   UNL     1      27.123  39.731  19.919  1.00  0.00    -0.040 A 
ATOM      5  C   UNL     1      27.597  39.732  21.238  1.00  0.00     0.008 A 
ATOM      6  C   UNL     1      28.077  40.910  21.814  1.00  0.00     0.051 A 
ENDROOT
BRANCH   1   7
ATOM      7  O   UNL     1      28.557  43.315  21.626  1.00  0.00    -0.493 OA
ATOM      8  C   UNL     1      27.831  44.125  22.545  1.00  0.00     0.278 C 
ENDBRANCH   1   7
BRANCH   2   9
ATOM      9  O   UNL     1      27.612  43.335  19.057  1.00  0.00    -0.493 OA
ATOM     10  C   UNL     1      26.455  44.114  18.769  1.00  0.00     0.278 C 
ENDBRANCH   2   9
BRANCH   4  11
ATOM     11  C   UNL     1      26.579  38.468  19.306  1.00  0.00     0.062 C 
BRANCH  11  12
ATOM     12  C   UNL     1      26.122  37.511  20.372  1.00  0.00    -0.030 C 
ATOM     13  C   UNL     1      24.835  37.401  20.712  1.00  0.00     0.004 C 
ENDBRANCH  11  12
ENDBRANCH   4  11
TORSDOF 4
ENDMDL
