MODEL 1
REMARK VINA RESULT:    -3.109      0.000      0.000
REMARK INTER + INTRA:          -3.763
REMARK INTER:                  -3.654
REMARK INTRA:                  -0.109
REMARK UNBOUND:                -0.109
REMARK SMILES CCCCC(=O)[O-]
REMARK SMILES IDX 4 1 5 2 6 3 7 4 3 5 2 6 1 7
REMARK H PARENT
REMARK Flexibility Score: inf
ROOT
ATOM      1  C   UNL     1     -18.679  43.738  31.893  1.00  0.00     0.053 C 
ENDROOT
BRANCH   1   2
ATOM      2  C   UNL     1     -17.412  44.506  31.675  1.00  0.00     0.041 C 
ATOM      3  O   UNL     1     -16.520  44.521  32.563  1.00  0.00    -0.550 OA
ATOM      4  O   UNL     1     -17.230  45.231  30.504  1.00  0.00    -0.550 OA
ENDBRANCH   1   2
BRANCH   1   5
ATOM      5  C   UNL     1     -19.094  43.732  33.371  1.00  0.00     0.006 C 
BRANCH   5   6
ATOM      6  C   UNL     1     -19.248  42.308  33.925  1.00  0.00    -0.003 C 
ATOM      7  C   UNL     1     -17.887  41.677  34.206  1.00  0.00     0.004 C 
ENDBRANCH   5   6
ENDBRANCH   1   5
TORSDOF 3
ENDMDL
MODEL 2
REMARK VINA RESULT:    -3.097      9.706     10.399
REMARK INTER + INTRA:          -3.749
REMARK INTER:                  -3.731
REMARK INTRA:                  -0.018
REMARK UNBOUND:                -0.109
REMARK SMILES CCCCC(=O)[O-]
REMARK SMILES IDX 4 1 5 2 6 3 7 4 3 5 2 6 1 7
REMARK H PARENT
REMARK Flexibility Score: inf
ROOT
ATOM      1  C   UNL     1     -24.915  39.300  28.831  1.00  0.00     0.053 C 
ENDROOT
BRANCH   1   2
ATOM      2  C   UNL     1     -24.767  37.853  29.189  1.00  0.00     0.041 C 
ATOM      3  O   UNL     1     -23.744  37.455  29.806  1.00  0.00    -0.550 OA
ATOM      4  O   UNL     1     -25.743  36.939  28.812  1.00  0.00    -0.550 OA
ENDBRANCH   1   2
BRANCH   1   5
ATOM      5  C   UNL     1     -25.839  39.496  27.622  1.00  0.00     0.006 C 
BRANCH   5   6
ATOM      6  C   UNL     1     -25.504  40.771  26.834  1.00  0.00    -0.003 C 
ATOM      7  C   UNL     1     -25.809  40.596  25.349  1.00  0.00     0.004 C 
ENDBRANCH   5   6
ENDBRANCH   1   5
TORSDOF 3
ENDMDL
MODEL 3
REMARK VINA RESULT:    -3.013      2.072      2.623
REMARK INTER + INTRA:          -3.650
REMARK INTER:                  -3.539
REMARK INTRA:                  -0.111
REMARK UNBOUND:                -0.109
REMARK SMILES CCCCC(=O)[O-]
REMARK SMILES IDX 4 1 5 2 6 3 7 4 3 5 2 6 1 7
REMARK H PARENT
REMARK Flexibility Score: inf
ROOT
ATOM      1  C   UNL     1     -16.775  44.544  33.506  1.00  0.00     0.053 C 
ENDROOT
BRANCH   1   2
ATOM      2  C   UNL     1     -15.727  43.508  33.774  1.00  0.00     0.041 C 
ATOM      3  O   UNL     1     -14.707  43.800  34.453  1.00  0.00    -0.550 OA
ATOM      4  O   UNL     1     -15.860  42.230  33.247  1.00  0.00    -0.550 OA
ENDBRANCH   1   2
BRANCH   1   5
ATOM      5  C   UNL     1     -17.915  43.990  32.641  1.00  0.00     0.006 C 
BRANCH   5   6
ATOM      6  C   UNL     1     -19.214  43.806  33.439  1.00  0.00    -0.003 C 
ATOM      7  C   UNL     1     -19.380  42.358  33.893  1.00  0.00     0.004 C 
ENDBRANCH   5   6
ENDBRANCH   1   5
TORSDOF 3
ENDMDL
MODEL 4
REMARK VINA RESULT:    -3.012      2.634      3.452
REMARK INTER + INTRA:          -3.649
REMARK INTER:                  -3.547
REMARK INTRA:                  -0.102
REMARK UNBOUND:                -0.109
REMARK SMILES CCCCC(=O)[O-]
REMARK SMILES IDX 4 1 5 2 6 3 7 4 3 5 2 6 1 7
REMARK H PARENT
REMARK Flexibility Score: inf
ROOT
ATOM      1  C   UNL     1     -17.131  44.527  33.486  1.00  0.00     0.053 C 
ENDROOT
BRANCH   1   2
ATOM      2  C   UNL     1     -17.433  44.412  32.024  1.00  0.00     0.041 C 
ATOM      3  O   UNL     1     -16.677  44.956  31.176  1.00  0.00    -0.550 OA
ATOM      4  O   UNL     1     -18.568  43.733  31.598  1.00  0.00    -0.550 OA
ENDBRANCH   1   2
BRANCH   1   5
ATOM      5  C   UNL     1     -15.753  43.947  33.831  1.00  0.00     0.006 C 
BRANCH   5   6
ATOM      6  C   UNL     1     -14.740  45.037  34.209  1.00  0.00    -0.003 C 
ATOM      7  C   UNL     1     -13.573  45.070  33.226  1.00  0.00     0.004 C 
ENDBRANCH   5   6
ENDBRANCH   1   5
TORSDOF 3
ENDMDL
MODEL 5
REMARK VINA RESULT:    -3.008      1.065      1.749
REMARK INTER + INTRA:          -3.644
REMARK INTER:                  -3.513
REMARK INTRA:                  -0.131
REMARK UNBOUND:                -0.109
REMARK SMILES CCCCC(=O)[O-]
REMARK SMILES IDX 4 1 5 2 6 3 7 4 3 5 2 6 1 7
REMARK H PARENT
REMARK Flexibility Score: inf
ROOT
ATOM      1  C   UNL     1     -19.101  44.006  33.174  1.00  0.00     0.053 C 
ENDROOT
BRANCH   1   2
ATOM      2  C   UNL     1     -17.722  44.475  32.827  1.00  0.00     0.041 C 
ATOM      3  O   UNL     1     -17.416  44.710  31.629  1.00  0.00    -0.550 OA
ATOM      4  O   UNL     1     -16.765  44.622  33.824  1.00  0.00    -0.550 OA
ENDBRANCH   1   2
BRANCH   1   5
ATOM      5  C   UNL     1     -19.081  42.631  33.855  1.00  0.00     0.006 C 
BRANCH   5   6
ATOM      6  C   UNL     1     -18.322  41.583  33.027  1.00  0.00    -0.003 C 
ATOM      7  C   UNL     1     -17.277  40.863  33.875  1.00  0.00     0.004 C 
ENDBRANCH   5   6
ENDBRANCH   1   5
TORSDOF 3
ENDMDL
MODEL 6
REMARK VINA RESULT:    -3.005      2.556      3.342
REMARK INTER + INTRA:          -3.640
REMARK INTER:                  -3.541
REMARK INTRA:                  -0.099
REMARK UNBOUND:                -0.109
REMARK SMILES CCCCC(=O)[O-]
REMARK SMILES IDX 4 1 5 2 6 3 7 4 3 5 2 6 1 7
REMARK H PARENT
REMARK Flexibility Score: inf
ROOT
ATOM      1  C   UNL     1     -16.313  43.689  32.160  1.00  0.00     0.053 C 
ENDROOT
BRANCH   1   2
ATOM      2  C   UNL     1     -16.212  44.663  31.027  1.00  0.00     0.041 C 
ATOM      3  O   UNL     1     -17.249  45.213  30.570  1.00  0.00    -0.550 OA
ATOM      4  O   UNL     1     -14.977  44.938  30.452  1.00  0.00    -0.550 OA
ENDBRANCH   1   2
BRANCH   1   5
ATOM      5  C   UNL     1     -16.209  44.387  33.523  1.00  0.00     0.006 C 
BRANCH   5   6
ATOM      6  C   UNL     1     -14.857  44.133  34.204  1.00  0.00    -0.003 C 
ATOM      7  C   UNL     1     -13.958  45.364  34.119  1.00  0.00     0.004 C 
ENDBRANCH   5   6
ENDBRANCH   1   5
TORSDOF 3
ENDMDL
MODEL 7
REMARK VINA RESULT:    -2.957      3.174      4.140
REMARK INTER + INTRA:          -3.584
REMARK INTER:                  -3.528
REMARK INTRA:                  -0.057
REMARK UNBOUND:                -0.109
REMARK SMILES CCCCC(=O)[O-]
REMARK SMILES IDX 4 1 5 2 6 3 7 4 3 5 2 6 1 7
REMARK H PARENT
REMARK Flexibility Score: inf
ROOT
ATOM      1  C   UNL     1     -15.319  44.120  34.136  1.00  0.00     0.053 C 
ENDROOT
BRANCH   1   2
ATOM      2  C   UNL     1     -14.325  45.239  34.186  1.00  0.00     0.041 C 
ATOM      3  O   UNL     1     -13.365  45.270  33.371  1.00  0.00    -0.550 OA
ATOM      4  O   UNL     1     -14.439  46.229  35.154  1.00  0.00    -0.550 OA
ENDBRANCH   1   2
BRANCH   1   5
ATOM      5  C   UNL     1     -16.526  44.468  33.255  1.00  0.00     0.006 C 
BRANCH   5   6
ATOM      6  C   UNL     1     -16.332  44.018  31.800  1.00  0.00    -0.003 C 
ATOM      7  C   UNL     1     -17.104  44.917  30.838  1.00  0.00     0.004 C 
ENDBRANCH   5   6
ENDBRANCH   1   5
TORSDOF 3
ENDMDL
MODEL 8
REMARK VINA RESULT:    -2.946      2.008      3.700
REMARK INTER + INTRA:          -3.571
REMARK INTER:                  -3.483
REMARK INTRA:                  -0.088
REMARK UNBOUND:                -0.109
REMARK SMILES CCCCC(=O)[O-]
REMARK SMILES IDX 4 1 5 2 6 3 7 4 3 5 2 6 1 7
REMARK H PARENT
REMARK Flexibility Score: inf
ROOT
ATOM      1  C   UNL     1     -17.960  43.803  31.320  1.00  0.00     0.053 C 
ENDROOT
BRANCH   1   2
ATOM      2  C   UNL     1     -18.143  44.102  32.776  1.00  0.00     0.041 C 
ATOM      3  O   UNL     1     -17.156  44.434  33.484  1.00  0.00    -0.550 OA
ATOM      4  O   UNL     1     -19.398  43.982  33.360  1.00  0.00    -0.550 OA
ENDBRANCH   1   2
BRANCH   1   5
ATOM      5  C   UNL     1     -17.150  44.897  30.611  1.00  0.00     0.006 C 
BRANCH   5   6
ATOM      6  C   UNL     1     -15.899  44.338  29.920  1.00  0.00    -0.003 C 
ATOM      7  C   UNL     1     -14.626  44.805  30.621  1.00  0.00     0.004 C 
ENDBRANCH   5   6
ENDBRANCH   1   5
TORSDOF 3
ENDMDL
MODEL 9
REMARK VINA RESULT:    -2.914      2.409      3.409
REMARK INTER + INTRA:          -3.534
REMARK INTER:                  -3.423
REMARK INTRA:                  -0.111
REMARK UNBOUND:                -0.109
REMARK SMILES CCCCC(=O)[O-]
REMARK SMILES IDX 4 1 5 2 6 3 7 4 3 5 2 6 1 7
REMARK H PARENT
REMARK Flexibility Score: inf
ROOT
ATOM      1  C   UNL     1     -16.950  44.519  33.504  1.00  0.00     0.053 C 
ENDROOT
BRANCH   1   2
ATOM      2  C   UNL     1     -16.119  43.324  33.860  1.00  0.00     0.041 C 
ATOM      3  O   UNL     1     -14.865  43.374  33.765  1.00  0.00    -0.550 OA
ATOM      4  O   UNL     1     -16.733  42.145  34.265  1.00  0.00    -0.550 OA
ENDBRANCH   1   2
BRANCH   1   5
ATOM      5  C   UNL     1     -18.169  44.132  32.656  1.00  0.00     0.006 C 
BRANCH   5   6
ATOM      6  C   UNL     1     -17.785  43.781  31.211  1.00  0.00    -0.003 C 
ATOM      7  C   UNL     1     -17.033  44.931  30.547  1.00  0.00     0.004 C 
ENDBRANCH   5   6
ENDBRANCH   1   5
TORSDOF 3
ENDMDL
