MODEL 1
REMARK VINA RESULT:    -3.231      0.000      0.000
REMARK INTER + INTRA:          -5.272
REMARK INTER:                  -4.364
REMARK INTRA:                  -0.908
REMARK UNBOUND:                -0.908
REMARK SMILES O=C[C@H](O)[C@@H](O)[C@H](O)CO
REMARK SMILES IDX 7 1 9 2 10 3 5 5 3 6 2 7 1 8 4 9 6 11 8 13
REMARK H PARENT 10 4 4 10 6 12 8 14
REMARK Flexibility Score: inf
ROOT
ATOM      1  C   UNL     1      18.368   8.424  12.333  1.00  0.00     0.171 C 
ENDROOT
BRANCH   1   2
ATOM      2  C   UNL     1      17.113   7.875  11.626  1.00  0.00     0.190 C 
BRANCH   2   3
ATOM      3  O   UNL     1      15.989   8.663  11.912  1.00  0.00    -0.394 OA
ATOM      4  H   UNL     1      15.192   8.124  11.666  1.00  0.00     0.210 HD
ENDBRANCH   2   3
ENDBRANCH   1   2
BRANCH   1   5
ATOM      5  C   UNL     1      18.264   8.317  13.877  1.00  0.00     0.181 C 
BRANCH   5   6
ATOM      6  C   UNL     1      19.656   8.331  14.548  1.00  0.00     0.209 C 
BRANCH   6   7
ATOM      7  C   UNL     1      19.972   9.690  15.108  1.00  0.00     0.258 C 
ATOM      8  O   UNL     1      20.095  10.657  14.374  1.00  0.00    -0.300 OA
ENDBRANCH   6   7
BRANCH   6   9
ATOM      9  O   UNL     1      20.656   7.977  13.625  1.00  0.00    -0.383 OA
ATOM     10  H   UNL     1      21.379   7.522  14.131  1.00  0.00     0.211 HD
ENDBRANCH   6   9
ENDBRANCH   5   6
BRANCH   5  11
ATOM     11  O   UNL     1      17.471   9.369  14.375  1.00  0.00    -0.387 OA
ATOM     12  H   UNL     1      17.195   9.121  15.296  1.00  0.00     0.211 HD
ENDBRANCH   5  11
ENDBRANCH   1   5
BRANCH   1  13
ATOM     13  O   UNL     1      18.614   9.748  11.925  1.00  0.00    -0.388 OA
ATOM     14  H   UNL     1      18.303   9.840  10.987  1.00  0.00     0.211 HD
ENDBRANCH   1  13
TORSDOF 8
ENDMDL
MODEL 2
REMARK VINA RESULT:    -3.038     15.955     17.011
REMARK INTER + INTRA:          -5.012
REMARK INTER:                  -4.086
REMARK INTRA:                  -0.926
REMARK UNBOUND:                -0.908
REMARK SMILES O=C[C@H](O)[C@@H](O)[C@H](O)CO
REMARK SMILES IDX 7 1 9 2 10 3 5 5 3 6 2 7 1 8 4 9 6 11 8 13
REMARK H PARENT 10 4 4 10 6 12 8 14
REMARK Flexibility Score: inf
ROOT
ATOM      1  C   UNL     1       9.472  17.956  24.916  1.00  0.00     0.171 C 
ENDROOT
BRANCH   1   2
ATOM      2  C   UNL     1       9.123  16.903  25.986  1.00  0.00     0.190 C 
BRANCH   2   3
ATOM      3  O   UNL     1       9.905  17.078  27.137  1.00  0.00    -0.394 OA
ATOM      4  H   UNL     1       9.743  18.005  27.454  1.00  0.00     0.210 HD
ENDBRANCH   2   3
ENDBRANCH   1   2
BRANCH   1   5
ATOM      5  C   UNL     1      10.760  17.591  24.133  1.00  0.00     0.181 C 
BRANCH   5   6
ATOM      6  C   UNL     1      11.019  18.571  22.966  1.00  0.00     0.209 C 
BRANCH   6   7
ATOM      7  C   UNL     1      12.133  19.525  23.299  1.00  0.00     0.258 C 
ATOM      8  O   UNL     1      11.944  20.471  24.047  1.00  0.00    -0.300 OA
ENDBRANCH   6   7
BRANCH   6   9
ATOM      9  O   UNL     1       9.860  19.311  22.672  1.00  0.00    -0.383 OA
ATOM     10  H   UNL     1       9.197  18.682  22.287  1.00  0.00     0.211 HD
ENDBRANCH   6   9
ENDBRANCH   5   6
BRANCH   5  11
ATOM     11  O   UNL     1      11.862  17.572  25.010  1.00  0.00    -0.387 OA
ATOM     12  H   UNL     1      12.285  18.469  24.972  1.00  0.00     0.211 HD
ENDBRANCH   5  11
ENDBRANCH   1   5
BRANCH   1  13
ATOM     13  O   UNL     1       9.573  19.230  25.504  1.00  0.00    -0.388 OA
ATOM     14  H   UNL     1      10.537  19.435  25.626  1.00  0.00     0.211 HD
ENDBRANCH   1  13
TORSDOF 8
ENDMDL
MODEL 3
REMARK VINA RESULT:    -2.988     15.798     16.987
REMARK INTER + INTRA:          -4.945
REMARK INTER:                  -4.036
REMARK INTRA:                  -0.909
REMARK UNBOUND:                -0.908
REMARK SMILES O=C[C@H](O)[C@@H](O)[C@H](O)CO
REMARK SMILES IDX 7 1 9 2 10 3 5 5 3 6 2 7 1 8 4 9 6 11 8 13
REMARK H PARENT 10 4 4 10 6 12 8 14
REMARK Flexibility Score: inf
ROOT
ATOM      1  C   UNL     1      11.137  19.782  23.487  1.00  0.00     0.171 C 
ENDROOT
BRANCH   1   2
ATOM      2  C   UNL     1      11.115  18.251  23.667  1.00  0.00     0.190 C 
BRANCH   2   3
ATOM      3  O   UNL     1      11.839  17.868  24.805  1.00  0.00    -0.394 OA
ATOM      4  H   UNL     1      12.141  16.935  24.651  1.00  0.00     0.210 HD
ENDBRANCH   2   3
ENDBRANCH   1   2
BRANCH   1   5
ATOM      5  C   UNL     1      12.294  20.247  22.565  1.00  0.00     0.181 C 
BRANCH   5   6
ATOM      6  C   UNL     1      12.240  21.769  22.299  1.00  0.00     0.209 C 
BRANCH   6   7
ATOM      7  C   UNL     1      13.310  22.490  23.071  1.00  0.00     0.258 C 
ATOM      8  O   UNL     1      13.279  22.537  24.290  1.00  0.00    -0.300 OA
ENDBRANCH   6   7
BRANCH   6   9
ATOM      9  O   UNL     1      10.986  22.292  22.664  1.00  0.00    -0.383 OA
ATOM     10  H   UNL     1      10.914  23.196  22.261  1.00  0.00     0.211 HD
ENDBRANCH   6   9
ENDBRANCH   5   6
BRANCH   5  11
ATOM     11  O   UNL     1      13.532  19.895  23.139  1.00  0.00    -0.387 OA
ATOM     12  H   UNL     1      14.084  20.719  23.178  1.00  0.00     0.211 HD
ENDBRANCH   5  11
ENDBRANCH   1   5
BRANCH   1  13
ATOM     13  O   UNL     1      11.193  20.416  24.741  1.00  0.00    -0.388 OA
ATOM     14  H   UNL     1      11.561  19.766  25.396  1.00  0.00     0.211 HD
ENDBRANCH   1  13
TORSDOF 8
ENDMDL
MODEL 4
REMARK VINA RESULT:    -2.969     14.649     15.904
REMARK INTER + INTRA:          -4.918
REMARK INTER:                  -4.708
REMARK INTRA:                  -0.210
REMARK UNBOUND:                -0.908
REMARK SMILES O=C[C@H](O)[C@@H](O)[C@H](O)CO
REMARK SMILES IDX 7 1 9 2 10 3 5 5 3 6 2 7 1 8 4 9 6 11 8 13
REMARK H PARENT 10 4 4 10 6 12 8 14
REMARK Flexibility Score: inf
ROOT
ATOM      1  C   UNL     1      11.568  19.545  23.372  1.00  0.00     0.171 C 
ENDROOT
BRANCH   1   2
ATOM      2  C   UNL     1      11.175  18.101  23.742  1.00  0.00     0.190 C 
BRANCH   2   3
ATOM      3  O   UNL     1      11.810  17.695  24.925  1.00  0.00    -0.394 OA
ATOM      4  H   UNL     1      12.148  16.775  24.765  1.00  0.00     0.210 HD
ENDBRANCH   2   3
ENDBRANCH   1   2
BRANCH   1   5
ATOM      5  C   UNL     1      12.971  19.621  22.716  1.00  0.00     0.181 C 
BRANCH   5   6
ATOM      6  C   UNL     1      12.880  19.905  21.199  1.00  0.00     0.209 C 
BRANCH   6   7
ATOM      7  C   UNL     1      11.618  20.652  20.865  1.00  0.00     0.258 C 
ATOM      8  O   UNL     1      11.638  21.855  20.664  1.00  0.00    -0.300 OA
ENDBRANCH   6   7
BRANCH   6   9
ATOM      9  O   UNL     1      12.905  18.704  20.466  1.00  0.00    -0.383 OA
ATOM     10  H   UNL     1      12.871  17.958  21.120  1.00  0.00     0.211 HD
ENDBRANCH   6   9
ENDBRANCH   5   6
BRANCH   5  11
ATOM     11  O   UNL     1      13.743  20.612  23.353  1.00  0.00    -0.387 OA
ATOM     12  H   UNL     1      14.607  20.195  23.608  1.00  0.00     0.211 HD
ENDBRANCH   5  11
ENDBRANCH   1   5
BRANCH   1  13
ATOM     13  O   UNL     1      11.486  20.375  24.505  1.00  0.00    -0.388 OA
ATOM     14  H   UNL     1      10.604  20.218  24.935  1.00  0.00     0.211 HD
ENDBRANCH   1  13
TORSDOF 8
ENDMDL
MODEL 5
REMARK VINA RESULT:    -2.906     15.243     16.313
REMARK INTER + INTRA:          -4.834
REMARK INTER:                  -3.864
REMARK INTRA:                  -0.970
REMARK UNBOUND:                -0.908
REMARK SMILES O=C[C@H](O)[C@@H](O)[C@H](O)CO
REMARK SMILES IDX 7 1 9 2 10 3 5 5 3 6 2 7 1 8 4 9 6 11 8 13
REMARK H PARENT 10 4 4 10 6 12 8 14
REMARK Flexibility Score: inf
ROOT
ATOM      1  C   UNL     1      11.223  18.672  22.906  1.00  0.00     0.171 C 
ENDROOT
BRANCH   1   2
ATOM      2  C   UNL     1      10.876  17.592  23.950  1.00  0.00     0.190 C 
BRANCH   2   3
ATOM      3  O   UNL     1      11.767  17.635  25.033  1.00  0.00    -0.394 OA
ATOM      4  H   UNL     1      11.506  16.899  25.645  1.00  0.00     0.210 HD
ENDBRANCH   2   3
ENDBRANCH   1   2
BRANCH   1   5
ATOM      5  C   UNL     1      12.269  19.686  23.437  1.00  0.00     0.181 C 
BRANCH   5   6
ATOM      6  C   UNL     1      12.895  20.517  22.293  1.00  0.00     0.209 C 
BRANCH   6   7
ATOM      7  C   UNL     1      12.363  21.923  22.295  1.00  0.00     0.258 C 
ATOM      8  O   UNL     1      11.189  22.149  22.046  1.00  0.00    -0.300 OA
ENDBRANCH   6   7
BRANCH   6   9
ATOM      9  O   UNL     1      12.622  19.929  21.045  1.00  0.00    -0.383 OA
ATOM     10  H   UNL     1      11.654  19.714  21.025  1.00  0.00     0.211 HD
ENDBRANCH   6   9
ENDBRANCH   5   6
BRANCH   5  11
ATOM     11  O   UNL     1      11.670  20.536  24.388  1.00  0.00    -0.387 OA
ATOM     12  H   UNL     1      12.261  21.326  24.492  1.00  0.00     0.211 HD
ENDBRANCH   5  11
ENDBRANCH   1   5
BRANCH   1  13
ATOM     13  O   UNL     1      10.053  19.321  22.472  1.00  0.00    -0.388 OA
ATOM     14  H   UNL     1       9.410  19.329  23.229  1.00  0.00     0.211 HD
ENDBRANCH   1  13
TORSDOF 8
ENDMDL
MODEL 6
REMARK VINA RESULT:    -2.857     15.164     16.046
REMARK INTER + INTRA:          -4.768
REMARK INTER:                  -3.847
REMARK INTRA:                  -0.920
REMARK UNBOUND:                -0.908
REMARK SMILES O=C[C@H](O)[C@@H](O)[C@H](O)CO
REMARK SMILES IDX 7 1 9 2 10 3 5 5 3 6 2 7 1 8 4 9 6 11 8 13
REMARK H PARENT 10 4 4 10 6 12 8 14
REMARK Flexibility Score: inf
ROOT
ATOM      1  C   UNL     1      10.529  17.480  24.532  1.00  0.00     0.171 C 
ENDROOT
BRANCH   1   2
ATOM      2  C   UNL     1      10.115  15.997  24.452  1.00  0.00     0.190 C 
BRANCH   2   3
ATOM      3  O   UNL     1      11.185  15.199  24.022  1.00  0.00    -0.394 OA
ATOM      4  H   UNL     1      10.787  14.384  23.617  1.00  0.00     0.210 HD
ENDBRANCH   2   3
ENDBRANCH   1   2
BRANCH   1   5
ATOM      5  C   UNL     1      10.349  18.213  23.177  1.00  0.00     0.181 C 
BRANCH   5   6
ATOM      6  C   UNL     1      10.640  19.726  23.300  1.00  0.00     0.209 C 
BRANCH   6   7
ATOM      7  C   UNL     1      11.944  20.080  22.641  1.00  0.00     0.258 C 
ATOM      8  O   UNL     1      13.008  19.799  23.168  1.00  0.00    -0.300 OA
ENDBRANCH   6   7
BRANCH   6   9
ATOM      9  O   UNL     1      10.694  20.113  24.651  1.00  0.00    -0.383 OA
ATOM     10  H   UNL     1      11.091  19.359  25.160  1.00  0.00     0.211 HD
ENDBRANCH   6   9
ENDBRANCH   5   6
BRANCH   5  11
ATOM     11  O   UNL     1      11.187  17.631  22.206  1.00  0.00    -0.387 OA
ATOM     12  H   UNL     1      12.095  17.562  22.601  1.00  0.00     0.211 HD
ENDBRANCH   5  11
ENDBRANCH   1   5
BRANCH   1  13
ATOM     13  O   UNL     1      11.850  17.589  25.004  1.00  0.00    -0.388 OA
ATOM     14  H   UNL     1      12.385  18.051  24.306  1.00  0.00     0.211 HD
ENDBRANCH   1  13
TORSDOF 8
ENDMDL
MODEL 7
REMARK VINA RESULT:    -2.842     15.981     17.198
REMARK INTER + INTRA:          -4.747
REMARK INTER:                  -4.216
REMARK INTRA:                  -0.531
REMARK UNBOUND:                -0.908
REMARK SMILES O=C[C@H](O)[C@@H](O)[C@H](O)CO
REMARK SMILES IDX 7 1 9 2 10 3 5 5 3 6 2 7 1 8 4 9 6 11 8 13
REMARK H PARENT 10 4 4 10 6 12 8 14
REMARK Flexibility Score: inf
ROOT
ATOM      1  C   UNL     1      12.854  20.408  23.380  1.00  0.00     0.171 C 
ENDROOT
BRANCH   1   2
ATOM      2  C   UNL     1      11.953  19.166  23.239  1.00  0.00     0.190 C 
BRANCH   2   3
ATOM      3  O   UNL     1      11.919  18.431  24.433  1.00  0.00    -0.394 OA
ATOM      4  H   UNL     1      11.265  17.697  24.298  1.00  0.00     0.210 HD
ENDBRANCH   2   3
ENDBRANCH   1   2
BRANCH   1   5
ATOM      5  C   UNL     1      12.116  21.715  22.991  1.00  0.00     0.181 C 
BRANCH   5   6
ATOM      6  C   UNL     1      12.665  22.936  23.764  1.00  0.00     0.209 C 
BRANCH   6   7
ATOM      7  C   UNL     1      12.999  24.062  22.825  1.00  0.00     0.258 C 
ATOM      8  O   UNL     1      14.099  24.134  22.300  1.00  0.00    -0.300 OA
ENDBRANCH   6   7
BRANCH   6   9
ATOM      9  O   UNL     1      13.820  22.589  24.486  1.00  0.00    -0.383 OA
ATOM     10  H   UNL     1      13.541  22.408  25.422  1.00  0.00     0.211 HD
ENDBRANCH   6   9
ENDBRANCH   5   6
BRANCH   5  11
ATOM     11  O   UNL     1      12.221  21.927  21.603  1.00  0.00    -0.387 OA
ATOM     12  H   UNL     1      11.738  21.186  21.153  1.00  0.00     0.211 HD
ENDBRANCH   5  11
ENDBRANCH   1   5
BRANCH   1  13
ATOM     13  O   UNL     1      14.032  20.240  22.629  1.00  0.00    -0.388 OA
ATOM     14  H   UNL     1      14.628  21.011  22.820  1.00  0.00     0.211 HD
ENDBRANCH   1  13
TORSDOF 8
ENDMDL
MODEL 8
REMARK VINA RESULT:    -2.832     15.349     16.526
REMARK INTER + INTRA:          -4.734
REMARK INTER:                  -4.005
REMARK INTRA:                  -0.729
REMARK UNBOUND:                -0.908
REMARK SMILES O=C[C@H](O)[C@@H](O)[C@H](O)CO
REMARK SMILES IDX 7 1 9 2 10 3 5 5 3 6 2 7 1 8 4 9 6 11 8 13
REMARK H PARENT 10 4 4 10 6 12 8 14
REMARK Flexibility Score: inf
ROOT
ATOM      1  C   UNL     1      11.306  18.907  23.393  1.00  0.00     0.171 C 
ENDROOT
BRANCH   1   2
ATOM      2  C   UNL     1      11.157  17.876  22.257  1.00  0.00     0.190 C 
BRANCH   2   3
ATOM      3  O   UNL     1      11.852  18.288  21.111  1.00  0.00    -0.394 OA
ATOM      4  H   UNL     1      12.790  18.451  21.390  1.00  0.00     0.210 HD
ENDBRANCH   2   3
ENDBRANCH   1   2
BRANCH   1   5
ATOM      5  C   UNL     1      12.110  20.156  22.949  1.00  0.00     0.181 C 
BRANCH   5   6
ATOM      6  C   UNL     1      11.740  21.404  23.784  1.00  0.00     0.209 C 
BRANCH   6   7
ATOM      7  C   UNL     1      12.967  22.193  24.148  1.00  0.00     0.258 C 
ATOM      8  O   UNL     1      13.586  22.814  23.299  1.00  0.00    -0.300 OA
ENDBRANCH   6   7
BRANCH   6   9
ATOM      9  O   UNL     1      11.072  21.031  24.965  1.00  0.00    -0.383 OA
ATOM     10  H   UNL     1      10.187  20.668  24.702  1.00  0.00     0.211 HD
ENDBRANCH   6   9
ENDBRANCH   5   6
BRANCH   5  11
ATOM     11  O   UNL     1      13.490  19.895  23.047  1.00  0.00    -0.387 OA
ATOM     12  H   UNL     1      13.737  19.319  22.278  1.00  0.00     0.211 HD
ENDBRANCH   5  11
ENDBRANCH   1   5
BRANCH   1  13
ATOM     13  O   UNL     1      11.881  18.301  24.525  1.00  0.00    -0.388 OA
ATOM     14  H   UNL     1      11.419  17.436  24.676  1.00  0.00     0.211 HD
ENDBRANCH   1  13
TORSDOF 8
ENDMDL
MODEL 9
REMARK VINA RESULT:    -2.831     13.920     15.260
REMARK INTER + INTRA:          -4.733
REMARK INTER:                  -4.020
REMARK INTRA:                  -0.713
REMARK UNBOUND:                -0.908
REMARK SMILES O=C[C@H](O)[C@@H](O)[C@H](O)CO
REMARK SMILES IDX 7 1 9 2 10 3 5 5 3 6 2 7 1 8 4 9 6 11 8 13
REMARK H PARENT 10 4 4 10 6 12 8 14
REMARK Flexibility Score: inf
ROOT
ATOM      1  C   UNL     1      11.860  20.873  21.464  1.00  0.00     0.171 C 
ENDROOT
BRANCH   1   2
ATOM      2  C   UNL     1      12.945  21.401  22.424  1.00  0.00     0.190 C 
BRANCH   2   3
ATOM      3  O   UNL     1      13.754  20.356  22.891  1.00  0.00    -0.394 OA
ATOM      4  H   UNL     1      13.785  19.675  22.169  1.00  0.00     0.210 HD
ENDBRANCH   2   3
ENDBRANCH   1   2
BRANCH   1   5
ATOM      5  C   UNL     1      11.887  19.328  21.342  1.00  0.00     0.181 C 
BRANCH   5   6
ATOM      6  C   UNL     1      10.531  18.766  20.856  1.00  0.00     0.209 C 
BRANCH   6   7
ATOM      7  C   UNL     1      10.731  17.603  19.925  1.00  0.00     0.258 C 
ATOM      8  O   UNL     1      11.268  16.577  20.311  1.00  0.00    -0.300 OA
ENDBRANCH   6   7
BRANCH   6   9
ATOM      9  O   UNL     1       9.792  19.760  20.190  1.00  0.00    -0.383 OA
ATOM     10  H   UNL     1       9.433  20.375  20.882  1.00  0.00     0.211 HD
ENDBRANCH   6   9
ENDBRANCH   5   6
BRANCH   5  11
ATOM     11  O   UNL     1      12.920  18.936  20.468  1.00  0.00    -0.387 OA
ATOM     12  H   UNL     1      12.882  17.947  20.391  1.00  0.00     0.211 HD
ENDBRANCH   5  11
ENDBRANCH   1   5
BRANCH   1  13
ATOM     13  O   UNL     1      11.984  21.490  20.205  1.00  0.00    -0.388 OA
ATOM     14  H   UNL     1      12.392  22.385  20.343  1.00  0.00     0.211 HD
ENDBRANCH   1  13
TORSDOF 8
ENDMDL
