MODEL 1
REMARK VINA RESULT:    -5.153      0.000      0.000
REMARK INTER + INTRA:          -7.107
REMARK INTER:                  -6.358
REMARK INTRA:                  -0.749
REMARK UNBOUND:                -0.749
REMARK SMILES C=CC(=C)CCC=C(C)C
REMARK SMILES IDX 5 1 6 2 7 3 9 4 8 5 10 6 3 7 4 8 2 9 1 10
REMARK H PARENT
REMARK Flexibility Score: inf
ROOT
ATOM      1  C   UNL     1     134.941 154.041 124.431  1.00  0.00     0.039 C 
ENDROOT
BRANCH   1   2
ATOM      2  C   UNL     1     135.870 154.598 123.344  1.00  0.00     0.032 C 
BRANCH   2   3
ATOM      3  C   UNL     1     137.179 155.050 123.941  1.00  0.00    -0.028 C 
ATOM      4  C   UNL     1     139.581 154.968 124.452  1.00  0.00     0.039 C 
ATOM      5  C   UNL     1     138.341 154.371 123.837  1.00  0.00    -0.080 C 
ATOM      6  C   UNL     1     138.426 153.031 123.142  1.00  0.00     0.039 C 
ENDBRANCH   2   3
ENDBRANCH   1   2
BRANCH   1   7
ATOM      7  C   UNL     1     135.053 152.535 124.512  1.00  0.00    -0.055 C 
ATOM      8  C   UNL     1     135.269 151.962 125.701  1.00  0.00     0.012 C 
BRANCH   7   9
ATOM      9  C   UNL     1     134.884 151.663 123.320  1.00  0.00    -0.005 C 
ATOM     10  C   UNL     1     135.617 150.574 123.082  1.00  0.00     0.009 C 
ENDBRANCH   7   9
ENDBRANCH   1   7
TORSDOF 4
ENDMDL
MODEL 2
REMARK VINA RESULT:    -4.937     13.750     16.487
REMARK INTER + INTRA:          -6.841
REMARK INTER:                  -6.401
REMARK INTRA:                  -0.440
REMARK UNBOUND:                -0.749
REMARK SMILES C=CC(=C)CCC=C(C)C
REMARK SMILES IDX 5 1 6 2 7 3 9 4 8 5 10 6 3 7 4 8 2 9 1 10
REMARK H PARENT
REMARK Flexibility Score: inf
ROOT
ATOM      1  C   UNL     1     137.530 137.977 122.727  1.00  0.00     0.039 C 
ENDROOT
BRANCH   1   2
ATOM      2  C   UNL     1     137.886 136.485 122.762  1.00  0.00     0.032 C 
BRANCH   2   3
ATOM      3  C   UNL     1     138.866 136.196 123.871  1.00  0.00    -0.028 C 
ATOM      4  C   UNL     1     139.655 135.286 126.013  1.00  0.00     0.039 C 
ATOM      5  C   UNL     1     138.559 135.538 125.010  1.00  0.00    -0.080 C 
ATOM      6  C   UNL     1     137.154 135.067 125.309  1.00  0.00     0.039 C 
ENDBRANCH   2   3
ENDBRANCH   1   2
BRANCH   1   7
ATOM      7  C   UNL     1     136.252 138.241 123.492  1.00  0.00    -0.055 C 
ATOM      8  C   UNL     1     135.297 137.305 123.504  1.00  0.00     0.012 C 
BRANCH   7   9
ATOM      9  C   UNL     1     136.038 139.490 124.270  1.00  0.00    -0.005 C 
ATOM     10  C   UNL     1     134.956 140.262 124.160  1.00  0.00     0.009 C 
ENDBRANCH   7   9
ENDBRANCH   1   7
TORSDOF 4
ENDMDL
MODEL 3
REMARK VINA RESULT:    -4.899     14.316     17.055
REMARK INTER + INTRA:          -6.793
REMARK INTER:                  -6.145
REMARK INTRA:                  -0.648
REMARK UNBOUND:                -0.749
REMARK SMILES C=CC(=C)CCC=C(C)C
REMARK SMILES IDX 5 1 6 2 7 3 9 4 8 5 10 6 3 7 4 8 2 9 1 10
REMARK H PARENT
REMARK Flexibility Score: inf
ROOT
ATOM      1  C   UNL     1     136.727 135.144 123.980  1.00  0.00     0.039 C 
ENDROOT
BRANCH   1   2
ATOM      2  C   UNL     1     135.914 136.095 123.092  1.00  0.00     0.032 C 
BRANCH   2   3
ATOM      3  C   UNL     1     135.581 137.365 123.834  1.00  0.00    -0.028 C 
ATOM      4  C   UNL     1     135.861 139.689 124.581  1.00  0.00     0.039 C 
ATOM      5  C   UNL     1     136.344 138.479 123.823  1.00  0.00    -0.080 C 
ATOM      6  C   UNL     1     137.666 138.537 123.092  1.00  0.00     0.039 C 
ENDBRANCH   2   3
ENDBRANCH   1   2
BRANCH   1   7
ATOM      7  C   UNL     1     138.140 135.001 123.459  1.00  0.00    -0.055 C 
ATOM      8  C   UNL     1     138.337 134.875 122.142  1.00  0.00     0.012 C 
BRANCH   7   9
ATOM      9  C   UNL     1     139.324 135.039 124.357  1.00  0.00    -0.005 C 
ATOM     10  C   UNL     1     139.300 135.513 125.603  1.00  0.00     0.009 C 
ENDBRANCH   7   9
ENDBRANCH   1   7
TORSDOF 4
ENDMDL
MODEL 4
REMARK VINA RESULT:    -4.872     14.017     16.759
REMARK INTER + INTRA:          -6.761
REMARK INTER:                  -6.312
REMARK INTRA:                  -0.449
REMARK UNBOUND:                -0.749
REMARK SMILES C=CC(=C)CCC=C(C)C
REMARK SMILES IDX 5 1 6 2 7 3 9 4 8 5 10 6 3 7 4 8 2 9 1 10
REMARK H PARENT
REMARK Flexibility Score: inf
ROOT
ATOM      1  C   UNL     1     135.665 136.688 123.496  1.00  0.00     0.039 C 
ENDROOT
BRANCH   1   2
ATOM      2  C   UNL     1     136.673 135.551 123.283  1.00  0.00     0.032 C 
BRANCH   2   3
ATOM      3  C   UNL     1     137.443 135.276 124.550  1.00  0.00    -0.028 C 
ATOM      4  C   UNL     1     139.417 135.077 126.000  1.00  0.00     0.039 C 
ATOM      5  C   UNL     1     138.788 135.338 124.655  1.00  0.00    -0.080 C 
ATOM      6  C   UNL     1     139.671 135.643 123.467  1.00  0.00     0.039 C 
ENDBRANCH   2   3
ENDBRANCH   1   2
BRANCH   1   7
ATOM      7  C   UNL     1     136.368 138.028 123.536  1.00  0.00    -0.055 C 
ATOM      8  C   UNL     1     137.375 138.258 122.687  1.00  0.00     0.012 C 
BRANCH   7   9
ATOM      9  C   UNL     1     135.948 139.116 124.457  1.00  0.00    -0.005 C 
ATOM     10  C   UNL     1     135.075 140.071 124.135  1.00  0.00     0.009 C 
ENDBRANCH   7   9
ENDBRANCH   1   7
TORSDOF 4
ENDMDL
MODEL 5
REMARK VINA RESULT:    -4.666      0.775      4.206
REMARK INTER + INTRA:          -6.506
REMARK INTER:                  -5.960
REMARK INTRA:                  -0.547
REMARK UNBOUND:                -0.749
REMARK SMILES C=CC(=C)CCC=C(C)C
REMARK SMILES IDX 5 1 6 2 7 3 9 4 8 5 10 6 3 7 4 8 2 9 1 10
REMARK H PARENT
REMARK Flexibility Score: inf
ROOT
ATOM      1  C   UNL     1     136.348 155.080 123.603  1.00  0.00     0.039 C 
ENDROOT
BRANCH   1   2
ATOM      2  C   UNL     1     135.260 154.008 123.459  1.00  0.00     0.032 C 
BRANCH   2   3
ATOM      3  C   UNL     1     135.155 153.181 124.715  1.00  0.00    -0.028 C 
ATOM      4  C   UNL     1     135.220 151.153 126.101  1.00  0.00     0.039 C 
ATOM      5  C   UNL     1     135.313 151.841 124.763  1.00  0.00    -0.080 C 
ATOM      6  C   UNL     1     135.562 151.019 123.519  1.00  0.00     0.039 C 
ENDBRANCH   2   3
ENDBRANCH   1   2
BRANCH   1   7
ATOM      7  C   UNL     1     137.722 154.448 123.641  1.00  0.00    -0.055 C 
ATOM      8  C   UNL     1     138.070 153.591 122.675  1.00  0.00     0.012 C 
BRANCH   7   9
ATOM      9  C   UNL     1     138.718 154.781 124.693  1.00  0.00    -0.005 C 
ATOM     10  C   UNL     1     139.981 155.125 124.442  1.00  0.00     0.009 C 
ENDBRANCH   7   9
ENDBRANCH   1   7
TORSDOF 4
ENDMDL
MODEL 6
REMARK VINA RESULT:    -4.625     22.513     23.830
REMARK INTER + INTRA:          -6.456
REMARK INTER:                  -5.789
REMARK INTRA:                  -0.667
REMARK UNBOUND:                -0.749
REMARK SMILES C=CC(=C)CCC=C(C)C
REMARK SMILES IDX 5 1 6 2 7 3 9 4 8 5 10 6 3 7 4 8 2 9 1 10
REMARK H PARENT
REMARK Flexibility Score: inf
ROOT
ATOM      1  C   UNL     1     155.108 138.392 125.044  1.00  0.00     0.039 C 
ENDROOT
BRANCH   1   2
ATOM      2  C   UNL     1     154.705 136.912 125.034  1.00  0.00     0.032 C 
BRANCH   2   3
ATOM      3  C   UNL     1     153.218 136.762 125.231  1.00  0.00    -0.028 C 
ATOM      4  C   UNL     1     150.958 135.887 124.823  1.00  0.00     0.039 C 
ATOM      5  C   UNL     1     152.424 135.967 124.482  1.00  0.00    -0.080 C 
ATOM      6  C   UNL     1     152.960 135.176 123.310  1.00  0.00     0.039 C 
ENDBRANCH   2   3
ENDBRANCH   1   2
BRANCH   1   7
ATOM      7  C   UNL     1     155.044 138.975 123.650  1.00  0.00    -0.055 C 
ATOM      8  C   UNL     1     155.065 140.304 123.500  1.00  0.00     0.012 C 
BRANCH   7   9
ATOM      9  C   UNL     1     155.004 138.120 122.434  1.00  0.00    -0.005 C 
ATOM     10  C   UNL     1     154.052 138.190 121.504  1.00  0.00     0.009 C 
ENDBRANCH   7   9
ENDBRANCH   1   7
TORSDOF 4
ENDMDL
MODEL 7
REMARK VINA RESULT:    -4.620      1.152      2.390
REMARK INTER + INTRA:          -6.450
REMARK INTER:                  -5.789
REMARK INTRA:                  -0.661
REMARK UNBOUND:                -0.749
REMARK SMILES C=CC(=C)CCC=C(C)C
REMARK SMILES IDX 5 1 6 2 7 3 9 4 8 5 10 6 3 7 4 8 2 9 1 10
REMARK H PARENT
REMARK Flexibility Score: inf
ROOT
ATOM      1  C   UNL     1     135.649 151.359 122.227  1.00  0.00     0.039 C 
ENDROOT
BRANCH   1   2
ATOM      2  C   UNL     1     136.032 152.804 121.885  1.00  0.00     0.032 C 
BRANCH   2   3
ATOM      3  C   UNL     1     137.366 153.161 122.491  1.00  0.00    -0.028 C 
ATOM      4  C   UNL     1     138.949 154.389 123.914  1.00  0.00     0.039 C 
ATOM      5  C   UNL     1     137.564 154.177 123.358  1.00  0.00    -0.080 C 
ATOM      6  C   UNL     1     136.446 155.109 123.768  1.00  0.00     0.039 C 
ENDBRANCH   2   3
ENDBRANCH   1   2
BRANCH   1   7
ATOM      7  C   UNL     1     135.761 151.112 123.716  1.00  0.00    -0.055 C 
ATOM      8  C   UNL     1     136.710 150.285 124.168  1.00  0.00     0.012 C 
BRANCH   7   9
ATOM      9  C   UNL     1     134.880 151.794 124.700  1.00  0.00    -0.005 C 
ATOM     10  C   UNL     1     135.236 152.068 125.956  1.00  0.00     0.009 C 
ENDBRANCH   7   9
ENDBRANCH   1   7
TORSDOF 4
ENDMDL
MODEL 8
REMARK VINA RESULT:    -4.596     14.419     17.173
REMARK INTER + INTRA:          -6.420
REMARK INTER:                  -5.806
REMARK INTRA:                  -0.614
REMARK UNBOUND:                -0.749
REMARK SMILES C=CC(=C)CCC=C(C)C
REMARK SMILES IDX 5 1 6 2 7 3 9 4 8 5 10 6 3 7 4 8 2 9 1 10
REMARK H PARENT
REMARK Flexibility Score: inf
ROOT
ATOM      1  C   UNL     1     139.377 135.647 122.375  1.00  0.00     0.039 C 
ENDROOT
BRANCH   1   2
ATOM      2  C   UNL     1     137.940 136.055 122.026  1.00  0.00     0.032 C 
BRANCH   2   3
ATOM      3  C   UNL     1     137.635 137.436 122.550  1.00  0.00    -0.028 C 
ATOM      4  C   UNL     1     136.382 139.174 123.754  1.00  0.00     0.039 C 
ATOM      5  C   UNL     1     136.532 137.757 123.260  1.00  0.00    -0.080 C 
ATOM      6  C   UNL     1     135.447 136.747 123.556  1.00  0.00     0.039 C 
ENDBRANCH   2   3
ENDBRANCH   1   2
BRANCH   1   7
ATOM      7  C   UNL     1     139.624 135.772 123.862  1.00  0.00    -0.055 C 
ATOM      8  C   UNL     1     140.424 136.746 124.308  1.00  0.00     0.012 C 
BRANCH   7   9
ATOM      9  C   UNL     1     138.971 134.875 124.852  1.00  0.00    -0.005 C 
ATOM     10  C   UNL     1     137.926 135.227 125.602  1.00  0.00     0.009 C 
ENDBRANCH   7   9
ENDBRANCH   1   7
TORSDOF 4
ENDMDL
