MODEL 1
REMARK VINA RESULT:    -6.268      0.000      0.000
REMARK INTER + INTRA:          -9.451
REMARK INTER:                  -8.833
REMARK INTRA:                  -0.618
REMARK UNBOUND:                -0.618
REMARK SMILES COc1ccc(-c2cc(=O)c3c(OC)c(OC)c(OC)c(OC)c3o2)cc1OC
REMARK SMILES IDX 7 1 8 2 9 3 10 4 11 5 24 6 25 7 21 8 18 9 15 10 12 11 6 12
REMARK SMILES IDX 3 13 27 14 4 15 26 16 5 17 2 18 1 19 28 20 29 21 22 22 23 23
REMARK SMILES IDX 13 24 14 25 19 26 20 27 16 28 17 29
REMARK H PARENT
REMARK Flexibility Score: inf
ROOT
ATOM      1  C   UNL     1      -6.380   5.252  -4.290  1.00  0.00     0.138 A 
ATOM      2  C   UNL     1      -5.368   5.294  -5.256  1.00  0.00     0.100 A 
ATOM      3  C   UNL     1      -5.300   4.287  -6.215  1.00  0.00     0.197 A 
ATOM      4  O   UNL     1      -4.388   4.342  -7.085  1.00  0.00    -0.289 OA
ATOM      5  C   UNL     1      -6.247   3.239  -6.201  1.00  0.00     0.115 A 
ATOM      6  C   UNL     1      -7.245   3.265  -5.197  1.00  0.00     0.188 A 
ATOM      7  O   UNL     1      -7.264   4.258  -4.311  1.00  0.00    -0.452 OA
ATOM      8  C   UNL     1      -8.207   2.229  -5.128  1.00  0.00     0.209 A 
ATOM      9  C   UNL     1      -8.192   1.193  -6.073  1.00  0.00     0.211 A 
ATOM     10  C   UNL     1      -7.225   1.190  -7.105  1.00  0.00     0.208 A 
ATOM     11  C   UNL     1      -6.217   2.176  -7.129  1.00  0.00     0.179 A 
ENDROOT
BRANCH   1  12
ATOM     12  C   UNL     1      -6.495   6.296  -3.244  1.00  0.00     0.021 A 
ATOM     13  C   UNL     1      -6.755   8.255  -1.227  1.00  0.00     0.160 A 
ATOM     14  C   UNL     1      -5.479   7.858  -1.656  1.00  0.00     0.161 A 
ATOM     15  C   UNL     1      -7.895   7.665  -1.805  1.00  0.00     0.051 A 
ATOM     16  C   UNL     1      -5.354   6.878  -2.662  1.00  0.00     0.062 A 
ATOM     17  C   UNL     1      -7.763   6.695  -2.799  1.00  0.00     0.016 A 
BRANCH  13  18
ATOM     18  O   UNL     1      -6.847   9.233  -0.225  1.00  0.00    -0.493 OA
ATOM     19  C   UNL     1      -6.990   8.954   1.164  1.00  0.00     0.278 C 
ENDBRANCH  13  18
BRANCH  14  20
ATOM     20  O   UNL     1      -4.359   8.458  -1.058  1.00  0.00    -0.493 OA
ATOM     21  C   UNL     1      -3.575   7.863  -0.029  1.00  0.00     0.278 C 
ENDBRANCH  14  20
ENDBRANCH   1  12
BRANCH   8  22
ATOM     22  O   UNL     1      -9.210   2.163  -4.140  1.00  0.00    -0.490 OA
ATOM     23  C   UNL     1     -10.446   2.868  -4.134  1.00  0.00     0.278 C 
ENDBRANCH   8  22
BRANCH  11  24
ATOM     24  O   UNL     1      -5.176   2.096  -8.062  1.00  0.00    -0.492 OA
ATOM     25  C   UNL     1      -5.377   2.367  -9.446  1.00  0.00     0.278 C 
ENDBRANCH  11  24
BRANCH   9  26
ATOM     26  O   UNL     1      -9.183   0.201  -5.935  1.00  0.00    -0.490 OA
ATOM     27  C   UNL     1      -9.050  -1.051  -5.273  1.00  0.00     0.279 C 
ENDBRANCH   9  26
BRANCH  10  28
ATOM     28  O   UNL     1      -7.273   0.214  -8.106  1.00  0.00    -0.490 OA
ATOM     29  C   UNL     1      -6.558  -1.015  -8.016  1.00  0.00     0.278 C 
ENDBRANCH  10  28
TORSDOF 7
ENDMDL
MODEL 2
REMARK VINA RESULT:    -6.261     10.056     13.448
REMARK INTER + INTRA:          -9.441
REMARK INTER:                  -8.867
REMARK INTRA:                  -0.574
REMARK UNBOUND:                -0.618
REMARK SMILES COc1ccc(-c2cc(=O)c3c(OC)c(OC)c(OC)c(OC)c3o2)cc1OC
REMARK SMILES IDX 7 1 8 2 9 3 10 4 11 5 24 6 25 7 21 8 18 9 15 10 12 11 6 12
REMARK SMILES IDX 3 13 27 14 4 15 26 16 5 17 2 18 1 19 28 20 29 21 22 22 23 23
REMARK SMILES IDX 13 24 14 25 19 26 20 27 16 28 17 29
REMARK H PARENT
REMARK Flexibility Score: inf
ROOT
ATOM      1  C   UNL     1       4.184   5.929  -2.286  1.00  0.00     0.138 A 
ATOM      2  C   UNL     1       3.719   5.850  -0.968  1.00  0.00     0.100 A 
ATOM      3  C   UNL     1       2.849   6.828  -0.492  1.00  0.00     0.197 A 
ATOM      4  O   UNL     1       2.431   6.739   0.694  1.00  0.00    -0.289 OA
ATOM      5  C   UNL     1       2.448   7.883  -1.341  1.00  0.00     0.115 A 
ATOM      6  C   UNL     1       2.954   7.895  -2.664  1.00  0.00     0.188 A 
ATOM      7  O   UNL     1       3.778   6.929  -3.064  1.00  0.00    -0.452 OA
ATOM      8  C   UNL     1       2.598   8.940  -3.549  1.00  0.00     0.209 A 
ATOM      9  C   UNL     1       1.718   9.947  -3.128  1.00  0.00     0.211 A 
ATOM     10  C   UNL     1       1.174   9.912  -1.822  1.00  0.00     0.208 A 
ATOM     11  C   UNL     1       1.589   8.918  -0.913  1.00  0.00     0.179 A 
ENDROOT
BRANCH   1  12
ATOM     12  C   UNL     1       5.115   4.917  -2.840  1.00  0.00     0.021 A 
ATOM     13  C   UNL     1       6.919   3.033  -3.919  1.00  0.00     0.160 A 
ATOM     14  C   UNL     1       6.466   2.890  -2.599  1.00  0.00     0.161 A 
ATOM     15  C   UNL     1       6.472   4.121  -4.692  1.00  0.00     0.051 A 
ATOM     16  C   UNL     1       5.567   3.835  -2.063  1.00  0.00     0.062 A 
ATOM     17  C   UNL     1       5.583   5.053  -4.154  1.00  0.00     0.016 A 
BRANCH  13  18
ATOM     18  O   UNL     1       7.812   2.076  -4.425  1.00  0.00    -0.493 OA
ATOM     19  C   UNL     1       7.924   1.725  -5.800  1.00  0.00     0.278 C 
ENDBRANCH  13  18
BRANCH  14  20
ATOM     20  O   UNL     1       6.932   1.799  -1.849  1.00  0.00    -0.493 OA
ATOM     21  C   UNL     1       7.990   1.863  -0.897  1.00  0.00     0.278 C 
ENDBRANCH  14  20
ENDBRANCH   1  12
BRANCH   8  22
ATOM     22  O   UNL     1       3.085   9.044  -4.867  1.00  0.00    -0.490 OA
ATOM     23  C   UNL     1       2.888   8.110  -5.923  1.00  0.00     0.278 C 
ENDBRANCH   8  22
BRANCH  11  24
ATOM     24  O   UNL     1       1.164   8.961   0.420  1.00  0.00    -0.492 OA
ATOM     25  C   UNL     1       1.675   9.913   1.349  1.00  0.00     0.278 C 
ENDBRANCH  11  24
BRANCH   9  26
ATOM     26  O   UNL     1       1.414  10.951  -4.069  1.00  0.00    -0.490 OA
ATOM     27  C   UNL     1       2.041  12.222  -4.194  1.00  0.00     0.279 C 
ENDBRANCH   9  26
BRANCH  10  28
ATOM     28  O   UNL     1       0.218  10.858  -1.437  1.00  0.00    -0.490 OA
ATOM     29  C   UNL     1      -1.170  10.553  -1.343  1.00  0.00     0.278 C 
ENDBRANCH  10  28
TORSDOF 7
ENDMDL
MODEL 3
REMARK VINA RESULT:    -6.212      8.417     10.243
REMARK INTER + INTRA:          -9.372
REMARK INTER:                  -8.790
REMARK INTRA:                  -0.582
REMARK UNBOUND:                -0.618
REMARK SMILES COc1ccc(-c2cc(=O)c3c(OC)c(OC)c(OC)c(OC)c3o2)cc1OC
REMARK SMILES IDX 7 1 8 2 9 3 10 4 11 5 24 6 25 7 21 8 18 9 15 10 12 11 6 12
REMARK SMILES IDX 3 13 27 14 4 15 26 16 5 17 2 18 1 19 28 20 29 21 22 22 23 23
REMARK SMILES IDX 13 24 14 25 19 26 20 27 16 28 17 29
REMARK H PARENT
REMARK Flexibility Score: inf
ROOT
ATOM      1  C   UNL     1      -6.942  -3.052   2.219  1.00  0.00     0.138 A 
ATOM      2  C   UNL     1      -5.851  -3.285   1.374  1.00  0.00     0.100 A 
ATOM      3  C   UNL     1      -5.923  -2.886   0.042  1.00  0.00     0.197 A 
ATOM      4  O   UNL     1      -4.930  -3.095  -0.706  1.00  0.00    -0.289 OA
ATOM      5  C   UNL     1      -7.091  -2.254  -0.438  1.00  0.00     0.115 A 
ATOM      6  C   UNL     1      -8.153  -2.046   0.475  1.00  0.00     0.188 A 
ATOM      7  O   UNL     1      -8.023  -2.443   1.739  1.00  0.00    -0.452 OA
ATOM      8  C   UNL     1      -9.353  -1.434   0.040  1.00  0.00     0.209 A 
ATOM      9  C   UNL     1      -9.478  -1.003  -1.289  1.00  0.00     0.211 A 
ATOM     10  C   UNL     1      -8.402  -1.167  -2.192  1.00  0.00     0.208 A 
ATOM     11  C   UNL     1      -7.237  -1.848  -1.783  1.00  0.00     0.179 A 
ENDROOT
BRANCH   1  12
ATOM     12  C   UNL     1      -6.919  -3.461   3.643  1.00  0.00     0.021 A 
ATOM     13  C   UNL     1      -6.921  -4.272   6.348  1.00  0.00     0.160 A 
ATOM     14  C   UNL     1      -5.715  -4.228   5.633  1.00  0.00     0.161 A 
ATOM     15  C   UNL     1      -8.122  -3.916   5.705  1.00  0.00     0.051 A 
ATOM     16  C   UNL     1      -5.719  -3.825   4.282  1.00  0.00     0.062 A 
ATOM     17  C   UNL     1      -8.118  -3.519   4.368  1.00  0.00     0.016 A 
BRANCH  13  18
ATOM     18  O   UNL     1      -6.886  -4.676   7.691  1.00  0.00    -0.493 OA
ATOM     19  C   UNL     1      -6.894  -3.785   8.802  1.00  0.00     0.278 C 
ENDBRANCH  13  18
BRANCH  14  20
ATOM     20  O   UNL     1      -4.534  -4.594   6.297  1.00  0.00    -0.493 OA
ATOM     21  C   UNL     1      -3.820  -5.806   6.070  1.00  0.00     0.278 C 
ENDBRANCH  14  20
ENDBRANCH   1  12
BRANCH   8  22
ATOM     22  O   UNL     1     -10.467  -1.222   0.877  1.00  0.00    -0.490 OA
ATOM     23  C   UNL     1     -10.567  -0.281   1.939  1.00  0.00     0.278 C 
ENDBRANCH   8  22
BRANCH  11  24
ATOM     24  O   UNL     1      -6.229  -2.138  -2.710  1.00  0.00    -0.492 OA
ATOM     25  C   UNL     1      -6.305  -3.257  -3.588  1.00  0.00     0.278 C 
ENDBRANCH  11  24
BRANCH   9  26
ATOM     26  O   UNL     1     -10.703  -0.403  -1.642  1.00  0.00    -0.490 OA
ATOM     27  C   UNL     1     -11.834  -1.046  -2.218  1.00  0.00     0.279 C 
ENDBRANCH   9  26
BRANCH  10  28
ATOM     28  O   UNL     1      -8.489  -0.646  -3.487  1.00  0.00    -0.490 OA
ATOM     29  C   UNL     1      -9.104  -1.353  -4.560  1.00  0.00     0.278 C 
ENDBRANCH  10  28
TORSDOF 7
ENDMDL
MODEL 4
REMARK VINA RESULT:    -6.210      5.887      7.671
REMARK INTER + INTRA:          -9.369
REMARK INTER:                  -8.593
REMARK INTRA:                  -0.776
REMARK UNBOUND:                -0.618
REMARK SMILES COc1ccc(-c2cc(=O)c3c(OC)c(OC)c(OC)c(OC)c3o2)cc1OC
REMARK SMILES IDX 7 1 8 2 9 3 10 4 11 5 24 6 25 7 21 8 18 9 15 10 12 11 6 12
REMARK SMILES IDX 3 13 27 14 4 15 26 16 5 17 2 18 1 19 28 20 29 21 22 22 23 23
REMARK SMILES IDX 13 24 14 25 19 26 20 27 16 28 17 29
REMARK H PARENT
REMARK Flexibility Score: inf
ROOT
ATOM      1  C   UNL     1      -6.772  -2.338  -1.853  1.00  0.00     0.138 A 
ATOM      2  C   UNL     1      -5.887  -3.159  -2.561  1.00  0.00     0.100 A 
ATOM      3  C   UNL     1      -5.889  -3.124  -3.953  1.00  0.00     0.197 A 
ATOM      4  O   UNL     1      -5.080  -3.863  -4.578  1.00  0.00    -0.289 OA
ATOM      5  C   UNL     1      -6.781  -2.264  -4.631  1.00  0.00     0.115 A 
ATOM      6  C   UNL     1      -7.644  -1.458  -3.850  1.00  0.00     0.188 A 
ATOM      7  O   UNL     1      -7.591  -1.530  -2.522  1.00  0.00    -0.452 OA
ATOM      8  C   UNL     1      -8.569  -0.593  -4.481  1.00  0.00     0.209 A 
ATOM      9  C   UNL     1      -8.610  -0.509  -5.880  1.00  0.00     0.211 A 
ATOM     10  C   UNL     1      -7.717  -1.278  -6.662  1.00  0.00     0.208 A 
ATOM     11  C   UNL     1      -6.850  -2.200  -6.040  1.00  0.00     0.179 A 
ENDROOT
BRANCH   1  12
ATOM     12  C   UNL     1      -6.814  -2.341  -0.372  1.00  0.00     0.021 A 
ATOM     13  C   UNL     1      -6.838  -2.340   2.451  1.00  0.00     0.160 A 
ATOM     14  C   UNL     1      -7.832  -1.646   1.744  1.00  0.00     0.161 A 
ATOM     15  C   UNL     1      -5.834  -3.026   1.744  1.00  0.00     0.051 A 
ATOM     16  C   UNL     1      -7.814  -1.647   0.334  1.00  0.00     0.062 A 
ATOM     17  C   UNL     1      -5.822  -3.022   0.349  1.00  0.00     0.016 A 
BRANCH  13  18
ATOM     18  O   UNL     1      -6.883  -2.321   3.854  1.00  0.00    -0.493 OA
ATOM     19  C   UNL     1      -6.250  -3.281   4.694  1.00  0.00     0.278 C 
ENDBRANCH  13  18
BRANCH  14  20
ATOM     20  O   UNL     1      -8.817  -0.965   2.475  1.00  0.00    -0.493 OA
ATOM     21  C   UNL     1     -10.015  -0.431   1.918  1.00  0.00     0.278 C 
ENDBRANCH  14  20
ENDBRANCH   1  12
BRANCH   8  22
ATOM     22  O   UNL     1      -9.485   0.215  -3.776  1.00  0.00    -0.490 OA
ATOM     23  C   UNL     1     -10.720  -0.198  -3.204  1.00  0.00     0.278 C 
ENDBRANCH   8  22
BRANCH  11  24
ATOM     24  O   UNL     1      -6.067  -3.063  -6.815  1.00  0.00    -0.492 OA
ATOM     25  C   UNL     1      -6.626  -4.170  -7.516  1.00  0.00     0.278 C 
ENDBRANCH  11  24
BRANCH   9  26
ATOM     26  O   UNL     1      -9.559   0.376  -6.430  1.00  0.00    -0.490 OA
ATOM     27  C   UNL     1      -9.345   1.731  -6.806  1.00  0.00     0.279 C 
ENDBRANCH   9  26
BRANCH  10  28
ATOM     28  O   UNL     1      -7.688  -1.118  -8.051  1.00  0.00    -0.490 OA
ATOM     29  C   UNL     1      -6.791  -0.223  -8.703  1.00  0.00     0.278 C 
ENDBRANCH  10  28
TORSDOF 7
ENDMDL
MODEL 5
REMARK VINA RESULT:    -6.139      7.130     10.513
REMARK INTER + INTRA:          -9.269
REMARK INTER:                  -8.765
REMARK INTRA:                  -0.504
REMARK UNBOUND:                -0.618
REMARK SMILES COc1ccc(-c2cc(=O)c3c(OC)c(OC)c(OC)c(OC)c3o2)cc1OC
REMARK SMILES IDX 7 1 8 2 9 3 10 4 11 5 24 6 25 7 21 8 18 9 15 10 12 11 6 12
REMARK SMILES IDX 3 13 27 14 4 15 26 16 5 17 2 18 1 19 28 20 29 21 22 22 23 23
REMARK SMILES IDX 13 24 14 25 19 26 20 27 16 28 17 29
REMARK H PARENT
REMARK Flexibility Score: inf
ROOT
ATOM      1  C   UNL     1      -6.510  -2.765  -2.539  1.00  0.00     0.138 A 
ATOM      2  C   UNL     1      -5.438  -2.995  -1.669  1.00  0.00     0.100 A 
ATOM      3  C   UNL     1      -5.645  -2.909  -0.295  1.00  0.00     0.197 A 
ATOM      4  O   UNL     1      -4.672  -3.128   0.478  1.00  0.00    -0.289 OA
ATOM      5  C   UNL     1      -6.928  -2.591   0.203  1.00  0.00     0.115 A 
ATOM      6  C   UNL     1      -7.966  -2.376  -0.736  1.00  0.00     0.188 A 
ATOM      7  O   UNL     1      -7.710  -2.479  -2.038  1.00  0.00    -0.452 OA
ATOM      8  C   UNL     1      -9.265  -2.036  -0.290  1.00  0.00     0.209 A 
ATOM      9  C   UNL     1      -9.534  -1.945   1.084  1.00  0.00     0.211 A 
ATOM     10  C   UNL     1      -8.511  -2.205   2.025  1.00  0.00     0.208 A 
ATOM     11  C   UNL     1      -7.197  -2.464   1.583  1.00  0.00     0.179 A 
ENDROOT
BRANCH   1  12
ATOM     12  C   UNL     1      -6.344  -2.839  -4.009  1.00  0.00     0.021 A 
ATOM     13  C   UNL     1      -6.023  -2.923  -6.813  1.00  0.00     0.160 A 
ATOM     14  C   UNL     1      -5.331  -3.836  -6.003  1.00  0.00     0.161 A 
ATOM     15  C   UNL     1      -6.868  -1.968  -6.217  1.00  0.00     0.051 A 
ATOM     16  C   UNL     1      -5.492  -3.789  -4.603  1.00  0.00     0.062 A 
ATOM     17  C   UNL     1      -7.021  -1.927  -4.831  1.00  0.00     0.016 A 
BRANCH  13  18
ATOM     18  O   UNL     1      -5.843  -2.996  -8.203  1.00  0.00    -0.493 OA
ATOM     19  C   UNL     1      -6.359  -2.049  -9.134  1.00  0.00     0.278 C 
ENDBRANCH  13  18
BRANCH  14  20
ATOM     20  O   UNL     1      -4.491  -4.773  -6.624  1.00  0.00    -0.493 OA
ATOM     21  C   UNL     1      -3.936  -5.916  -5.979  1.00  0.00     0.278 C 
ENDBRANCH  14  20
ENDBRANCH   1  12
BRANCH   8  22
ATOM     22  O   UNL     1     -10.343  -1.774  -1.159  1.00  0.00    -0.490 OA
ATOM     23  C   UNL     1     -10.566  -0.581  -1.902  1.00  0.00     0.278 C 
ENDBRANCH   8  22
BRANCH  11  24
ATOM     24  O   UNL     1      -6.153  -2.581   2.509  1.00  0.00    -0.492 OA
ATOM     25  C   UNL     1      -6.030  -3.707   3.374  1.00  0.00     0.278 C 
ENDBRANCH  11  24
BRANCH   9  26
ATOM     26  O   UNL     1     -10.852  -1.602   1.445  1.00  0.00    -0.490 OA
ATOM     27  C   UNL     1     -11.283  -0.390   2.053  1.00  0.00     0.279 C 
ENDBRANCH   9  26
BRANCH  10  28
ATOM     28  O   UNL     1      -8.803  -2.213   3.393  1.00  0.00    -0.490 OA
ATOM     29  C   UNL     1      -9.509  -3.280   4.021  1.00  0.00     0.278 C 
ENDBRANCH  10  28
TORSDOF 7
ENDMDL
MODEL 6
REMARK VINA RESULT:    -6.023      0.791      1.795
REMARK INTER + INTRA:          -9.105
REMARK INTER:                  -8.434
REMARK INTRA:                  -0.671
REMARK UNBOUND:                -0.618
REMARK SMILES COc1ccc(-c2cc(=O)c3c(OC)c(OC)c(OC)c(OC)c3o2)cc1OC
REMARK SMILES IDX 7 1 8 2 9 3 10 4 11 5 24 6 25 7 21 8 18 9 15 10 12 11 6 12
REMARK SMILES IDX 3 13 27 14 4 15 26 16 5 17 2 18 1 19 28 20 29 21 22 22 23 23
REMARK SMILES IDX 13 24 14 25 19 26 20 27 16 28 17 29
REMARK H PARENT
REMARK Flexibility Score: inf
ROOT
ATOM      1  C   UNL     1      -6.354   5.252  -4.288  1.00  0.00     0.138 A 
ATOM      2  C   UNL     1      -5.359   5.293  -5.271  1.00  0.00     0.100 A 
ATOM      3  C   UNL     1      -5.313   4.291  -6.236  1.00  0.00     0.197 A 
ATOM      4  O   UNL     1      -4.416   4.345  -7.121  1.00  0.00    -0.289 OA
ATOM      5  C   UNL     1      -6.266   3.249  -6.212  1.00  0.00     0.115 A 
ATOM      6  C   UNL     1      -7.247   3.275  -5.191  1.00  0.00     0.188 A 
ATOM      7  O   UNL     1      -7.245   4.264  -4.299  1.00  0.00    -0.452 OA
ATOM      8  C   UNL     1      -8.214   2.245  -5.111  1.00  0.00     0.209 A 
ATOM      9  C   UNL     1      -8.222   1.214  -6.062  1.00  0.00     0.211 A 
ATOM     10  C   UNL     1      -7.272   1.211  -7.111  1.00  0.00     0.208 A 
ATOM     11  C   UNL     1      -6.258   2.191  -7.146  1.00  0.00     0.179 A 
ENDROOT
BRANCH   1  12
ATOM     12  C   UNL     1      -6.444   6.290  -3.234  1.00  0.00     0.021 A 
ATOM     13  C   UNL     1      -6.566   8.287  -1.241  1.00  0.00     0.160 A 
ATOM     14  C   UNL     1      -7.695   8.017  -2.030  1.00  0.00     0.161 A 
ATOM     15  C   UNL     1      -5.379   7.561  -1.457  1.00  0.00     0.051 A 
ATOM     16  C   UNL     1      -7.629   7.021  -3.026  1.00  0.00     0.062 A 
ATOM     17  C   UNL     1      -5.322   6.577  -2.445  1.00  0.00     0.016 A 
BRANCH  13  18
ATOM     18  O   UNL     1      -6.662   9.283  -0.258  1.00  0.00    -0.493 OA
ATOM     19  C   UNL     1      -6.888   9.032   1.125  1.00  0.00     0.278 C 
ENDBRANCH  13  18
BRANCH  14  20
ATOM     20  O   UNL     1      -8.862   8.761  -1.798  1.00  0.00    -0.493 OA
ATOM     21  C   UNL     1     -10.088   8.216  -1.320  1.00  0.00     0.278 C 
ENDBRANCH  14  20
ENDBRANCH   1  12
BRANCH   8  22
ATOM     22  O   UNL     1      -9.201   2.180  -4.107  1.00  0.00    -0.490 OA
ATOM     23  C   UNL     1     -10.415   2.919  -4.057  1.00  0.00     0.278 C 
ENDBRANCH   8  22
BRANCH  11  24
ATOM     24  O   UNL     1      -5.235   2.110  -8.097  1.00  0.00    -0.492 OA
ATOM     25  C   UNL     1      -5.452   2.409  -9.473  1.00  0.00     0.278 C 
ENDBRANCH  11  24
BRANCH   9  26
ATOM     26  O   UNL     1      -9.217   0.228  -5.913  1.00  0.00    -0.490 OA
ATOM     27  C   UNL     1     -10.447   0.142  -6.622  1.00  0.00     0.279 C 
ENDBRANCH   9  26
BRANCH  10  28
ATOM     28  O   UNL     1      -7.343   0.241  -8.116  1.00  0.00    -0.490 OA
ATOM     29  C   UNL     1      -6.705  -1.028  -8.006  1.00  0.00     0.278 C 
ENDBRANCH  10  28
TORSDOF 7
ENDMDL
MODEL 7
REMARK VINA RESULT:    -6.006      1.588      3.799
REMARK INTER + INTRA:          -9.082
REMARK INTER:                  -8.352
REMARK INTRA:                  -0.730
REMARK UNBOUND:                -0.618
REMARK SMILES COc1ccc(-c2cc(=O)c3c(OC)c(OC)c(OC)c(OC)c3o2)cc1OC
REMARK SMILES IDX 7 1 8 2 9 3 10 4 11 5 24 6 25 7 21 8 18 9 15 10 12 11 6 12
REMARK SMILES IDX 3 13 27 14 4 15 26 16 5 17 2 18 1 19 28 20 29 21 22 22 23 23
REMARK SMILES IDX 13 24 14 25 19 26 20 27 16 28 17 29
REMARK H PARENT
REMARK Flexibility Score: inf
ROOT
ATOM      1  C   UNL     1      -7.252   5.495  -3.305  1.00  0.00     0.138 A 
ATOM      2  C   UNL     1      -8.629   5.573  -3.070  1.00  0.00     0.100 A 
ATOM      3  C   UNL     1      -9.489   4.735  -3.774  1.00  0.00     0.197 A 
ATOM      4  O   UNL     1     -10.727   4.810  -3.546  1.00  0.00    -0.289 OA
ATOM      5  C   UNL     1      -8.964   3.821  -4.714  1.00  0.00     0.115 A 
ATOM      6  C   UNL     1      -7.560   3.793  -4.895  1.00  0.00     0.188 A 
ATOM      7  O   UNL     1      -6.787   4.614  -4.187  1.00  0.00    -0.452 OA
ATOM      8  C   UNL     1      -6.985   2.908  -5.838  1.00  0.00     0.209 A 
ATOM      9  C   UNL     1      -7.802   2.034  -6.569  1.00  0.00     0.211 A 
ATOM     10  C   UNL     1      -9.200   2.026  -6.356  1.00  0.00     0.208 A 
ATOM     11  C   UNL     1      -9.784   2.962  -5.477  1.00  0.00     0.179 A 
ENDROOT
BRANCH   1  12
ATOM     12  C   UNL     1      -6.293   6.368  -2.586  1.00  0.00     0.021 A 
ATOM     13  C   UNL     1      -4.460   8.060  -1.265  1.00  0.00     0.160 A 
ATOM     14  C   UNL     1      -5.636   7.660  -0.613  1.00  0.00     0.161 A 
ATOM     15  C   UNL     1      -4.208   7.616  -2.577  1.00  0.00     0.051 A 
ATOM     16  C   UNL     1      -6.550   6.817  -1.278  1.00  0.00     0.062 A 
ATOM     17  C   UNL     1      -5.118   6.783  -3.228  1.00  0.00     0.016 A 
BRANCH  13  18
ATOM     18  O   UNL     1      -3.569   8.899  -0.577  1.00  0.00    -0.493 OA
ATOM     19  C   UNL     1      -2.432   9.523  -1.166  1.00  0.00     0.278 C 
ENDBRANCH  13  18
BRANCH  14  20
ATOM     20  O   UNL     1      -5.865   8.123   0.692  1.00  0.00    -0.493 OA
ATOM     21  C   UNL     1      -6.904   9.025   1.061  1.00  0.00     0.278 C 
ENDBRANCH  14  20
ENDBRANCH   1  12
BRANCH   8  22
ATOM     22  O   UNL     1      -5.602   2.844  -6.102  1.00  0.00    -0.490 OA
ATOM     23  C   UNL     1      -4.865   3.675  -6.991  1.00  0.00     0.278 C 
ENDBRANCH   8  22
BRANCH  11  24
ATOM     24  O   UNL     1     -11.177   3.053  -5.370  1.00  0.00    -0.492 OA
ATOM     25  C   UNL     1     -11.980   3.637  -6.392  1.00  0.00     0.278 C 
ENDBRANCH  11  24
BRANCH   9  26
ATOM     26  O   UNL     1      -7.152   1.185  -7.486  1.00  0.00    -0.490 OA
ATOM     27  C   UNL     1      -6.685  -0.137  -7.243  1.00  0.00     0.279 C 
ENDBRANCH   9  26
BRANCH  10  28
ATOM     28  O   UNL     1     -10.002   1.085  -7.010  1.00  0.00    -0.490 OA
ATOM     29  C   UNL     1     -10.339  -0.172  -6.431  1.00  0.00     0.278 C 
ENDBRANCH  10  28
TORSDOF 7
ENDMDL
MODEL 8
REMARK VINA RESULT:    -5.951      9.162     11.567
REMARK INTER + INTRA:          -9.005
REMARK INTER:                  -8.283
REMARK INTRA:                  -0.722
REMARK UNBOUND:                -0.618
REMARK SMILES COc1ccc(-c2cc(=O)c3c(OC)c(OC)c(OC)c(OC)c3o2)cc1OC
REMARK SMILES IDX 7 1 8 2 9 3 10 4 11 5 24 6 25 7 21 8 18 9 15 10 12 11 6 12
REMARK SMILES IDX 3 13 27 14 4 15 26 16 5 17 2 18 1 19 28 20 29 21 22 22 23 23
REMARK SMILES IDX 13 24 14 25 19 26 20 27 16 28 17 29
REMARK H PARENT
REMARK Flexibility Score: inf
ROOT
ATOM      1  C   UNL     1       2.726   7.890  -2.156  1.00  0.00     0.138 A 
ATOM      2  C   UNL     1       2.491   8.277  -3.480  1.00  0.00     0.100 A 
ATOM      3  C   UNL     1       3.248   7.708  -4.501  1.00  0.00     0.197 A 
ATOM      4  O   UNL     1       3.019   8.059  -5.690  1.00  0.00    -0.289 OA
ATOM      5  C   UNL     1       4.241   6.753  -4.189  1.00  0.00     0.115 A 
ATOM      6  C   UNL     1       4.419   6.406  -2.828  1.00  0.00     0.188 A 
ATOM      7  O   UNL     1       3.661   6.978  -1.896  1.00  0.00    -0.452 OA
ATOM      8  C   UNL     1       5.413   5.468  -2.461  1.00  0.00     0.209 A 
ATOM      9  C   UNL     1       6.200   4.856  -3.448  1.00  0.00     0.211 A 
ATOM     10  C   UNL     1       5.991   5.165  -4.813  1.00  0.00     0.208 A 
ATOM     11  C   UNL     1       5.058   6.158  -5.175  1.00  0.00     0.179 A 
ENDROOT
BRANCH   1  12
ATOM     12  C   UNL     1       1.953   8.468  -1.031  1.00  0.00     0.021 A 
ATOM     13  C   UNL     1       0.527   9.591   1.131  1.00  0.00     0.160 A 
ATOM     14  C   UNL     1      -0.011   9.645  -0.164  1.00  0.00     0.161 A 
ATOM     15  C   UNL     1       1.779   8.981   1.338  1.00  0.00     0.051 A 
ATOM     16  C   UNL     1       0.706   9.085  -1.241  1.00  0.00     0.062 A 
ATOM     17  C   UNL     1       2.482   8.430   0.267  1.00  0.00     0.016 A 
BRANCH  13  18
ATOM     18  O   UNL     1      -0.210  10.156   2.184  1.00  0.00    -0.493 OA
ATOM     19  C   UNL     1      -0.221   9.659   3.518  1.00  0.00     0.278 C 
ENDBRANCH  13  18
BRANCH  14  20
ATOM     20  O   UNL     1      -1.257  10.265  -0.341  1.00  0.00    -0.493 OA
ATOM     21  C   UNL     1      -2.342   9.707  -1.077  1.00  0.00     0.278 C 
ENDBRANCH  14  20
ENDBRANCH   1  12
BRANCH   8  22
ATOM     22  O   UNL     1       5.677   5.095  -1.128  1.00  0.00    -0.490 OA
ATOM     23  C   UNL     1       6.565   5.742  -0.223  1.00  0.00     0.278 C 
ENDBRANCH   8  22
BRANCH  11  24
ATOM     24  O   UNL     1       4.949   6.568  -6.509  1.00  0.00    -0.492 OA
ATOM     25  C   UNL     1       5.958   7.344  -7.149  1.00  0.00     0.278 C 
ENDBRANCH  11  24
BRANCH   9  26
ATOM     26  O   UNL     1       7.166   3.933  -3.000  1.00  0.00    -0.490 OA
ATOM     27  C   UNL     1       7.013   2.523  -2.890  1.00  0.00     0.279 C 
ENDBRANCH   9  26
BRANCH  10  28
ATOM     28  O   UNL     1       6.704   4.480  -5.802  1.00  0.00    -0.490 OA
ATOM     29  C   UNL     1       6.212   3.296  -6.424  1.00  0.00     0.278 C 
ENDBRANCH  10  28
TORSDOF 7
ENDMDL
MODEL 9
REMARK VINA RESULT:    -5.856      7.915     10.048
REMARK INTER + INTRA:          -8.870
REMARK INTER:                  -8.225
REMARK INTRA:                  -0.645
REMARK UNBOUND:                -0.618
REMARK SMILES COc1ccc(-c2cc(=O)c3c(OC)c(OC)c(OC)c(OC)c3o2)cc1OC
REMARK SMILES IDX 7 1 8 2 9 3 10 4 11 5 24 6 25 7 21 8 18 9 15 10 12 11 6 12
REMARK SMILES IDX 3 13 27 14 4 15 26 16 5 17 2 18 1 19 28 20 29 21 22 22 23 23
REMARK SMILES IDX 13 24 14 25 19 26 20 27 16 28 17 29
REMARK H PARENT
REMARK Flexibility Score: inf
ROOT
ATOM      1  C   UNL     1      -7.107  -2.914   1.893  1.00  0.00     0.138 A 
ATOM      2  C   UNL     1      -5.961  -3.253   1.164  1.00  0.00     0.100 A 
ATOM      3  C   UNL     1      -5.890  -2.919  -0.186  1.00  0.00     0.197 A 
ATOM      4  O   UNL     1      -4.848  -3.222  -0.830  1.00  0.00    -0.289 OA
ATOM      5  C   UNL     1      -6.969  -2.248  -0.801  1.00  0.00     0.115 A 
ATOM      6  C   UNL     1      -8.093  -1.933  -0.000  1.00  0.00     0.188 A 
ATOM      7  O   UNL     1      -8.102  -2.271   1.287  1.00  0.00    -0.452 OA
ATOM      8  C   UNL     1      -9.209  -1.277  -0.572  1.00  0.00     0.209 A 
ATOM      9  C   UNL     1      -9.189  -0.908  -1.925  1.00  0.00     0.211 A 
ATOM     10  C   UNL     1      -8.049  -1.180  -2.717  1.00  0.00     0.208 A 
ATOM     11  C   UNL     1      -6.969  -1.904  -2.171  1.00  0.00     0.179 A 
ENDROOT
BRANCH   1  12
ATOM     12  C   UNL     1      -7.236  -3.250   3.330  1.00  0.00     0.021 A 
ATOM     13  C   UNL     1      -7.445  -3.851   6.081  1.00  0.00     0.160 A 
ATOM     14  C   UNL     1      -8.601  -3.796   5.288  1.00  0.00     0.161 A 
ATOM     15  C   UNL     1      -6.190  -3.599   5.496  1.00  0.00     0.051 A 
ATOM     16  C   UNL     1      -8.492  -3.494   3.915  1.00  0.00     0.062 A 
ATOM     17  C   UNL     1      -6.091  -3.299   4.137  1.00  0.00     0.016 A 
BRANCH  13  18
ATOM     18  O   UNL     1      -7.585  -4.155   7.444  1.00  0.00    -0.493 OA
ATOM     19  C   UNL     1      -7.106  -5.348   8.057  1.00  0.00     0.278 C 
ENDBRANCH  13  18
BRANCH  14  20
ATOM     20  O   UNL     1      -9.840  -4.045   5.899  1.00  0.00    -0.493 OA
ATOM     21  C   UNL     1     -11.102  -3.675   5.352  1.00  0.00     0.278 C 
ENDBRANCH  14  20
ENDBRANCH   1  12
BRANCH   8  22
ATOM     22  O   UNL     1     -10.379  -0.959   0.147  1.00  0.00    -0.490 OA
ATOM     23  C   UNL     1     -11.383  -1.868   0.583  1.00  0.00     0.278 C 
ENDBRANCH   8  22
BRANCH  11  24
ATOM     24  O   UNL     1      -5.902  -2.298  -2.987  1.00  0.00    -0.492 OA
ATOM     25  C   UNL     1      -5.977  -3.439  -3.836  1.00  0.00     0.278 C 
ENDBRANCH  11  24
BRANCH   9  26
ATOM     26  O   UNL     1     -10.339  -0.259  -2.417  1.00  0.00    -0.490 OA
ATOM     27  C   UNL     1     -11.481  -0.873  -3.004  1.00  0.00     0.279 C 
ENDBRANCH   9  26
BRANCH  10  28
ATOM     28  O   UNL     1      -7.988  -0.722  -4.037  1.00  0.00    -0.490 OA
ATOM     29  C   UNL     1      -8.594  -1.421  -5.121  1.00  0.00     0.278 C 
ENDBRANCH  10  28
TORSDOF 7
ENDMDL
