MODEL 1
REMARK VINA RESULT:    -5.353      0.000      0.000
REMARK INTER + INTRA:          -6.133
REMARK INTER:                  -5.979
REMARK INTRA:                  -0.154
REMARK UNBOUND:                -0.154
REMARK SMILES COc1cc2ccc(=O)oc2cc1OC
REMARK SMILES IDX 3 1 13 2 12 3 11 4 5 5 4 6 6 7 7 8 8 9 9 10 10 11 2 12 1 13
REMARK SMILES IDX 14 14 15 15
REMARK H PARENT
REMARK Flexibility Score: inf
ROOT
ATOM      1  C   UNL     1      -8.249   5.330  -0.047  1.00  0.00     0.161 A 
ATOM      2  C   UNL     1      -6.918   5.760  -0.183  1.00  0.00     0.164 A 
ATOM      3  C   UNL     1      -6.171   6.097   0.963  1.00  0.00     0.098 A 
ATOM      4  C   UNL     1      -6.746   6.009   2.233  1.00  0.00     0.142 A 
ATOM      5  C   UNL     1      -8.082   5.578   2.370  1.00  0.00     0.022 A 
ATOM      6  C   UNL     1      -8.829   5.241   1.234  1.00  0.00     0.062 A 
ATOM      7  C   UNL     1      -8.629   5.500   3.655  1.00  0.00     0.019 A 
ATOM      8  C   UNL     1      -7.845   5.846   4.755  1.00  0.00     0.094 A 
ATOM      9  C   UNL     1      -6.528   6.264   4.543  1.00  0.00     0.336 A 
ATOM     10  O   UNL     1      -5.803   6.582   5.522  1.00  0.00    -0.246 OA
ATOM     11  O   UNL     1      -6.032   6.330   3.309  1.00  0.00    -0.423 OA
ENDROOT
BRANCH   1  12
ATOM     12  O   UNL     1      -8.963   5.003  -1.211  1.00  0.00    -0.493 OA
ATOM     13  C   UNL     1      -9.898   5.864  -1.855  1.00  0.00     0.278 C 
ENDBRANCH   1  12
BRANCH   2  14
ATOM     14  O   UNL     1      -6.373   5.838  -1.474  1.00  0.00    -0.493 OA
ATOM     15  C   UNL     1      -6.328   7.024  -2.262  1.00  0.00     0.278 C 
ENDBRANCH   2  14
TORSDOF 2
ENDMDL
MODEL 2
REMARK VINA RESULT:    -4.835      1.896      3.154
REMARK INTER + INTRA:          -5.554
REMARK INTER:                  -5.444
REMARK INTRA:                  -0.111
REMARK UNBOUND:                -0.154
REMARK SMILES COc1cc2ccc(=O)oc2cc1OC
REMARK SMILES IDX 3 1 13 2 12 3 11 4 5 5 4 6 6 7 7 8 8 9 9 10 10 11 2 12 1 13
REMARK SMILES IDX 14 14 15 15
REMARK H PARENT
REMARK Flexibility Score: inf
ROOT
ATOM      1  C   UNL     1      -7.117   6.384   1.764  1.00  0.00     0.161 A 
ATOM      2  C   UNL     1      -8.167   5.453   1.841  1.00  0.00     0.164 A 
ATOM      3  C   UNL     1      -8.499   4.873   3.081  1.00  0.00     0.098 A 
ATOM      4  C   UNL     1      -7.790   5.215   4.234  1.00  0.00     0.142 A 
ATOM      5  C   UNL     1      -6.735   6.148   4.159  1.00  0.00     0.022 A 
ATOM      6  C   UNL     1      -6.402   6.729   2.929  1.00  0.00     0.062 A 
ATOM      7  C   UNL     1      -6.045   6.471   5.331  1.00  0.00     0.019 A 
ATOM      8  C   UNL     1      -6.415   5.866   6.532  1.00  0.00     0.094 A 
ATOM      9  C   UNL     1      -7.471   4.950   6.532  1.00  0.00     0.336 A 
ATOM     10  O   UNL     1      -7.820   4.392   7.605  1.00  0.00    -0.246 OA
ATOM     11  O   UNL     1      -8.111   4.661   5.401  1.00  0.00    -0.423 OA
ENDROOT
BRANCH   1  12
ATOM     12  O   UNL     1      -6.814   6.942   0.512  1.00  0.00    -0.493 OA
ATOM     13  C   UNL     1      -7.388   8.143   0.003  1.00  0.00     0.278 C 
ENDBRANCH   1  12
BRANCH   2  14
ATOM     14  O   UNL     1      -8.858   5.132   0.661  1.00  0.00    -0.493 OA
ATOM     15  C   UNL     1      -8.680   3.926  -0.076  1.00  0.00     0.278 C 
ENDBRANCH   2  14
TORSDOF 2
ENDMDL
MODEL 3
REMARK VINA RESULT:    -4.828      1.367      5.731
REMARK INTER + INTRA:          -5.546
REMARK INTER:                  -5.549
REMARK INTRA:                   0.003
REMARK UNBOUND:                -0.154
REMARK SMILES COc1cc2ccc(=O)oc2cc1OC
REMARK SMILES IDX 3 1 13 2 12 3 11 4 5 5 4 6 6 7 7 8 8 9 9 10 10 11 2 12 1 13
REMARK SMILES IDX 14 14 15 15
REMARK H PARENT
REMARK Flexibility Score: inf
ROOT
ATOM      1  C   UNL     1      -6.816   6.376   4.174  1.00  0.00     0.161 A 
ATOM      2  C   UNL     1      -8.201   6.148   4.242  1.00  0.00     0.164 A 
ATOM      3  C   UNL     1      -8.914   5.816   3.073  1.00  0.00     0.098 A 
ATOM      4  C   UNL     1      -8.253   5.714   1.847  1.00  0.00     0.142 A 
ATOM      5  C   UNL     1      -6.863   5.944   1.777  1.00  0.00     0.022 A 
ATOM      6  C   UNL     1      -6.150   6.273   2.937  1.00  0.00     0.062 A 
ATOM      7  C   UNL     1      -6.231   5.834   0.535  1.00  0.00     0.019 A 
ATOM      8  C   UNL     1      -6.984   5.503  -0.590  1.00  0.00     0.094 A 
ATOM      9  C   UNL     1      -8.358   5.289  -0.446  1.00  0.00     0.336 A 
ATOM     10  O   UNL     1      -9.057   4.991  -1.450  1.00  0.00    -0.246 OA
ATOM     11  O   UNL     1      -8.935   5.401   0.748  1.00  0.00    -0.423 OA
ENDROOT
BRANCH   1  12
ATOM     12  O   UNL     1      -6.138   6.704   5.359  1.00  0.00    -0.493 OA
ATOM     13  C   UNL     1      -5.773   5.766   6.367  1.00  0.00     0.278 C 
ENDBRANCH   1  12
BRANCH   2  14
ATOM     14  O   UNL     1      -8.833   6.259   5.491  1.00  0.00    -0.493 OA
ATOM     15  C   UNL     1      -9.998   7.040   5.740  1.00  0.00     0.278 C 
ENDBRANCH   2  14
TORSDOF 2
ENDMDL
MODEL 4
REMARK VINA RESULT:    -4.803      1.249      2.631
REMARK INTER + INTRA:          -5.518
REMARK INTER:                  -5.386
REMARK INTRA:                  -0.132
REMARK UNBOUND:                -0.154
REMARK SMILES COc1cc2ccc(=O)oc2cc1OC
REMARK SMILES IDX 3 1 13 2 12 3 11 4 5 5 4 6 6 7 7 8 8 9 9 10 10 11 2 12 1 13
REMARK SMILES IDX 14 14 15 15
REMARK H PARENT
REMARK Flexibility Score: inf
ROOT
ATOM      1  C   UNL     1      -7.487   5.858  -0.436  1.00  0.00     0.161 A 
ATOM      2  C   UNL     1      -8.862   5.690  -0.198  1.00  0.00     0.164 A 
ATOM      3  C   UNL     1      -9.349   5.694   1.124  1.00  0.00     0.098 A 
ATOM      4  C   UNL     1      -8.473   5.860   2.200  1.00  0.00     0.142 A 
ATOM      5  C   UNL     1      -7.093   6.027   1.961  1.00  0.00     0.022 A 
ATOM      6  C   UNL     1      -6.604   6.026   0.649  1.00  0.00     0.062 A 
ATOM      7  C   UNL     1      -6.242   6.193   3.059  1.00  0.00     0.019 A 
ATOM      8  C   UNL     1      -6.777   6.187   4.347  1.00  0.00     0.094 A 
ATOM      9  C   UNL     1      -8.155   6.017   4.507  1.00  0.00     0.336 A 
ATOM     10  O   UNL     1      -8.658   6.009   5.661  1.00  0.00    -0.246 OA
ATOM     11  O   UNL     1      -8.942   5.861   3.445  1.00  0.00    -0.423 OA
ENDROOT
BRANCH   1  12
ATOM     12  O   UNL     1      -7.039   5.849  -1.766  1.00  0.00    -0.493 OA
ATOM     13  C   UNL     1      -6.347   6.926  -2.393  1.00  0.00     0.278 C 
ENDBRANCH   1  12
BRANCH   2  14
ATOM     14  O   UNL     1      -9.713   5.524  -1.302  1.00  0.00    -0.493 OA
ATOM     15  C   UNL     1     -10.784   6.402  -1.636  1.00  0.00     0.278 C 
ENDBRANCH   2  14
TORSDOF 2
ENDMDL
MODEL 5
REMARK VINA RESULT:    -4.701      2.170      3.125
REMARK INTER + INTRA:          -5.404
REMARK INTER:                  -5.282
REMARK INTRA:                  -0.123
REMARK UNBOUND:                -0.154
REMARK SMILES COc1cc2ccc(=O)oc2cc1OC
REMARK SMILES IDX 3 1 13 2 12 3 11 4 5 5 4 6 6 7 7 8 8 9 9 10 10 11 2 12 1 13
REMARK SMILES IDX 14 14 15 15
REMARK H PARENT
REMARK Flexibility Score: inf
ROOT
ATOM      1  C   UNL     1      -7.693   6.547  -2.694  1.00  0.00     0.161 A 
ATOM      2  C   UNL     1      -6.962   7.444  -1.895  1.00  0.00     0.164 A 
ATOM      3  C   UNL     1      -6.925   7.265  -0.498  1.00  0.00     0.098 A 
ATOM      4  C   UNL     1      -7.611   6.204   0.098  1.00  0.00     0.142 A 
ATOM      5  C   UNL     1      -8.346   5.305  -0.703  1.00  0.00     0.022 A 
ATOM      6  C   UNL     1      -8.385   5.478  -2.092  1.00  0.00     0.062 A 
ATOM      7  C   UNL     1      -9.021   4.253  -0.076  1.00  0.00     0.019 A 
ATOM      8  C   UNL     1      -8.951   4.124   1.310  1.00  0.00     0.094 A 
ATOM      9  C   UNL     1      -8.204   5.052   2.040  1.00  0.00     0.336 A 
ATOM     10  O   UNL     1      -8.128   4.954   3.293  1.00  0.00    -0.246 OA
ATOM     11  O   UNL     1      -7.570   6.045   1.418  1.00  0.00    -0.423 OA
ENDROOT
BRANCH   1  12
ATOM     12  O   UNL     1      -7.708   6.756  -4.082  1.00  0.00    -0.493 OA
ATOM     13  C   UNL     1      -8.810   6.453  -4.933  1.00  0.00     0.278 C 
ENDBRANCH   1  12
BRANCH   2  14
ATOM     14  O   UNL     1      -6.286   8.498  -2.527  1.00  0.00    -0.493 OA
ATOM     15  C   UNL     1      -6.708   9.859  -2.504  1.00  0.00     0.278 C 
ENDBRANCH   2  14
TORSDOF 2
ENDMDL
MODEL 6
REMARK VINA RESULT:    -4.648      2.171      6.264
REMARK INTER + INTRA:          -5.345
REMARK INTER:                  -5.214
REMARK INTRA:                  -0.131
REMARK UNBOUND:                -0.154
REMARK SMILES COc1cc2ccc(=O)oc2cc1OC
REMARK SMILES IDX 3 1 13 2 12 3 11 4 5 5 4 6 6 7 7 8 8 9 9 10 10 11 2 12 1 13
REMARK SMILES IDX 14 14 15 15
REMARK H PARENT
REMARK Flexibility Score: inf
ROOT
ATOM      1  C   UNL     1      -7.760   6.531   0.302  1.00  0.00     0.161 A 
ATOM      2  C   UNL     1      -8.650   5.509  -0.073  1.00  0.00     0.164 A 
ATOM      3  C   UNL     1      -8.925   5.287  -1.437  1.00  0.00     0.098 A 
ATOM      4  C   UNL     1      -8.321   6.076  -2.418  1.00  0.00     0.142 A 
ATOM      5  C   UNL     1      -7.429   7.102  -2.043  1.00  0.00     0.022 A 
ATOM      6  C   UNL     1      -7.151   7.327  -0.689  1.00  0.00     0.062 A 
ATOM      7  C   UNL     1      -6.841   7.875  -3.049  1.00  0.00     0.019 A 
ATOM      8  C   UNL     1      -7.149   7.612  -4.383  1.00  0.00     0.094 A 
ATOM      9  C   UNL     1      -8.042   6.578  -4.681  1.00  0.00     0.336 A 
ATOM     10  O   UNL     1      -8.334   6.324  -5.879  1.00  0.00    -0.246 OA
ATOM     11  O   UNL     1      -8.589   5.858  -3.703  1.00  0.00    -0.423 OA
ENDROOT
BRANCH   1  12
ATOM     12  O   UNL     1      -7.510   6.724   1.670  1.00  0.00    -0.493 OA
ATOM     13  C   UNL     1      -6.380   6.204   2.365  1.00  0.00     0.278 C 
ENDBRANCH   1  12
BRANCH   2  14
ATOM     14  O   UNL     1      -9.239   4.736   0.940  1.00  0.00    -0.493 OA
ATOM     15  C   UNL     1      -9.278   3.312   0.951  1.00  0.00     0.278 C 
ENDBRANCH   2  14
TORSDOF 2
ENDMDL
MODEL 7
REMARK VINA RESULT:    -4.580      2.267      5.969
REMARK INTER + INTRA:          -5.269
REMARK INTER:                  -5.145
REMARK INTRA:                  -0.123
REMARK UNBOUND:                -0.154
REMARK SMILES COc1cc2ccc(=O)oc2cc1OC
REMARK SMILES IDX 3 1 13 2 12 3 11 4 5 5 4 6 6 7 7 8 8 9 9 10 10 11 2 12 1 13
REMARK SMILES IDX 14 14 15 15
REMARK H PARENT
REMARK Flexibility Score: inf
ROOT
ATOM      1  C   UNL     1      -8.321   5.189  -0.493  1.00  0.00     0.161 A 
ATOM      2  C   UNL     1      -7.067   5.806  -0.346  1.00  0.00     0.164 A 
ATOM      3  C   UNL     1      -6.507   6.520  -1.424  1.00  0.00     0.098 A 
ATOM      4  C   UNL     1      -7.190   6.617  -2.638  1.00  0.00     0.142 A 
ATOM      5  C   UNL     1      -8.448   5.997  -2.788  1.00  0.00     0.022 A 
ATOM      6  C   UNL     1      -9.009   5.287  -1.719  1.00  0.00     0.062 A 
ATOM      7  C   UNL     1      -9.107   6.113  -4.016  1.00  0.00     0.019 A 
ATOM      8  C   UNL     1      -8.507   6.831  -5.050  1.00  0.00     0.094 A 
ATOM      9  C   UNL     1      -7.258   7.420  -4.830  1.00  0.00     0.336 A 
ATOM     10  O   UNL     1      -6.699   8.072  -5.749  1.00  0.00    -0.246 OA
ATOM     11  O   UNL     1      -6.653   7.294  -3.650  1.00  0.00    -0.423 OA
ENDROOT
BRANCH   1  12
ATOM     12  O   UNL     1      -8.847   4.486   0.602  1.00  0.00    -0.493 OA
ATOM     13  C   UNL     1      -9.025   3.073   0.645  1.00  0.00     0.278 C 
ENDBRANCH   1  12
BRANCH   2  14
ATOM     14  O   UNL     1      -6.408   5.687   0.888  1.00  0.00    -0.493 OA
ATOM     15  C   UNL     1      -6.472   6.652   1.934  1.00  0.00     0.278 C 
ENDBRANCH   2  14
TORSDOF 2
ENDMDL
MODEL 8
REMARK VINA RESULT:    -4.544      2.903      3.993
REMARK INTER + INTRA:          -5.229
REMARK INTER:                  -5.117
REMARK INTRA:                  -0.112
REMARK UNBOUND:                -0.154
REMARK SMILES COc1cc2ccc(=O)oc2cc1OC
REMARK SMILES IDX 3 1 13 2 12 3 11 4 5 5 4 6 6 7 7 8 8 9 9 10 10 11 2 12 1 13
REMARK SMILES IDX 14 14 15 15
REMARK H PARENT
REMARK Flexibility Score: inf
ROOT
ATOM      1  C   UNL     1      -8.284   7.827  -3.161  1.00  0.00     0.161 A 
ATOM      2  C   UNL     1      -8.267   9.067  -2.500  1.00  0.00     0.164 A 
ATOM      3  C   UNL     1      -7.850   9.139  -1.156  1.00  0.00     0.098 A 
ATOM      4  C   UNL     1      -7.456   7.985  -0.476  1.00  0.00     0.142 A 
ATOM      5  C   UNL     1      -7.474   6.739  -1.138  1.00  0.00     0.022 A 
ATOM      6  C   UNL     1      -7.886   6.663  -2.474  1.00  0.00     0.062 A 
ATOM      7  C   UNL     1      -7.072   5.602  -0.429  1.00  0.00     0.019 A 
ATOM      8  C   UNL     1      -6.669   5.730   0.900  1.00  0.00     0.094 A 
ATOM      9  C   UNL     1      -6.677   6.996   1.491  1.00  0.00     0.336 A 
ATOM     10  O   UNL     1      -6.318   7.134   2.689  1.00  0.00    -0.246 OA
ATOM     11  O   UNL     1      -7.064   8.063   0.793  1.00  0.00    -0.423 OA
ENDROOT
BRANCH   1  12
ATOM     12  O   UNL     1      -8.706   7.794  -4.499  1.00  0.00    -0.493 OA
ATOM     13  C   UNL     1      -8.620   6.650  -5.345  1.00  0.00     0.278 C 
ENDBRANCH   1  12
BRANCH   2  14
ATOM     14  O   UNL     1      -8.671  10.206  -3.214  1.00  0.00    -0.493 OA
ATOM     15  C   UNL     1      -7.781  11.125  -3.842  1.00  0.00     0.278 C 
ENDBRANCH   2  14
TORSDOF 2
ENDMDL
