MODEL 1
REMARK VINA RESULT:    -6.249      0.000      0.000
REMARK INTER + INTRA:          -8.068
REMARK INTER:                  -7.710
REMARK INTRA:                  -0.357
REMARK UNBOUND:                -0.357
REMARK SMILES COc1cc(-c2oc3cc(O)cc(O)c3c(=O)c2O)ccc1O
REMARK SMILES IDX 6 1 18 2 16 3 17 4 15 5 13 6 12 7 10 8 9 9 8 10 7 11 5 12
REMARK SMILES IDX 3 13 22 14 4 15 21 16 20 17 2 18 1 19 23 20 19 22 14 24
REMARK SMILES IDX 11 26
REMARK H PARENT 23 21 19 23 14 25 11 27
REMARK Flexibility Score: inf
ROOT
ATOM      1  C   UNL     1     -11.263 -16.922  21.357  1.00  0.00     0.180 A 
ATOM      2  C   UNL     1     -10.415 -16.907  22.478  1.00  0.00     0.208 A 
ATOM      3  C   UNL     1      -9.800 -15.701  22.850  1.00  0.00     0.238 A 
ATOM      4  O   UNL     1      -9.086 -15.681  23.886  1.00  0.00    -0.285 OA
ATOM      5  C   UNL     1     -10.026 -14.530  22.087  1.00  0.00     0.111 A 
ATOM      6  C   UNL     1      -9.423 -13.263  22.350  1.00  0.00     0.134 A 
ATOM      7  C   UNL     1      -9.821 -12.143  21.610  1.00  0.00     0.093 A 
ATOM      8  C   UNL     1     -10.751 -12.257  20.574  1.00  0.00     0.123 A 
ATOM      9  C   UNL     1     -11.300 -13.500  20.271  1.00  0.00     0.094 A 
ATOM     10  C   UNL     1     -10.951 -14.630  21.016  1.00  0.00     0.146 A 
ATOM     11  O   UNL     1     -11.507 -15.794  20.702  1.00  0.00    -0.452 OA
ENDROOT
BRANCH   1  12
ATOM     12  C   UNL     1     -11.928 -18.159  20.888  1.00  0.00     0.025 A 
ATOM     13  C   UNL     1     -13.752 -19.774  21.102  1.00  0.00     0.161 A 
ATOM     14  C   UNL     1     -13.256 -20.472  19.993  1.00  0.00     0.157 A 
ATOM     15  C   UNL     1     -13.087 -18.612  21.541  1.00  0.00     0.062 A 
ATOM     16  C   UNL     1     -12.113 -20.012  19.327  1.00  0.00     0.051 A 
ATOM     17  C   UNL     1     -11.457 -18.861  19.765  1.00  0.00     0.016 A 
BRANCH  13  18
ATOM     18  O   UNL     1     -14.905 -20.261  21.738  1.00  0.00    -0.493 OA
ATOM     19  C   UNL     1     -14.966 -20.655  23.106  1.00  0.00     0.278 C 
ENDBRANCH  13  18
BRANCH  14  20
ATOM     20  O   UNL     1     -13.910 -21.623  19.554  1.00  0.00    -0.504 OA
ATOM     21  H   UNL     1     -14.699 -21.575  18.921  1.00  0.00     0.293 HD
ENDBRANCH  14  20
ENDBRANCH   1  12
BRANCH   2  22
ATOM     22  O   UNL     1     -10.223 -18.070  23.230  1.00  0.00    -0.502 OA
ATOM     23  H   UNL     1     -10.939 -18.449  23.837  1.00  0.00     0.293 HD
ENDBRANCH   2  22
BRANCH   6  24
ATOM     24  O   UNL     1      -8.418 -13.059  23.299  1.00  0.00    -0.507 OA
ATOM     25  H   UNL     1      -7.690 -12.364  23.227  1.00  0.00     0.293 HD
ENDBRANCH   6  24
BRANCH   8  26
ATOM     26  O   UNL     1     -11.129 -11.139  19.832  1.00  0.00    -0.508 OA
ATOM     27  H   UNL     1     -11.809 -10.476  20.182  1.00  0.00     0.293 HD
ENDBRANCH   8  26
TORSDOF 6
ENDMDL
MODEL 2
REMARK VINA RESULT:    -6.173      2.780      4.135
REMARK INTER + INTRA:          -7.974
REMARK INTER:                  -7.877
REMARK INTRA:                  -0.097
REMARK UNBOUND:                -0.357
REMARK SMILES COc1cc(-c2oc3cc(O)cc(O)c3c(=O)c2O)ccc1O
REMARK SMILES IDX 6 1 18 2 16 3 17 4 15 5 13 6 12 7 10 8 9 9 8 10 7 11 5 12
REMARK SMILES IDX 3 13 22 14 4 15 21 16 20 17 2 18 1 19 23 20 19 22 14 24
REMARK SMILES IDX 11 26
REMARK H PARENT 23 21 19 23 14 25 11 27
REMARK Flexibility Score: inf
ROOT
ATOM      1  C   UNL     1     -12.865 -16.086  20.012  1.00  0.00     0.180 A 
ATOM      2  C   UNL     1     -12.543 -14.717  20.025  1.00  0.00     0.208 A 
ATOM      3  C   UNL     1     -11.503 -14.271  20.856  1.00  0.00     0.238 A 
ATOM      4  O   UNL     1     -11.182 -13.054  20.822  1.00  0.00    -0.285 OA
ATOM      5  C   UNL     1     -10.811 -15.194  21.676  1.00  0.00     0.111 A 
ATOM      6  C   UNL     1      -9.767 -14.846  22.585  1.00  0.00     0.134 A 
ATOM      7  C   UNL     1      -9.064 -15.858  23.249  1.00  0.00     0.093 A 
ATOM      8  C   UNL     1      -9.410 -17.202  23.086  1.00  0.00     0.123 A 
ATOM      9  C   UNL     1     -10.466 -17.547  22.246  1.00  0.00     0.094 A 
ATOM     10  C   UNL     1     -11.162 -16.563  21.542  1.00  0.00     0.146 A 
ATOM     11  O   UNL     1     -12.154 -16.935  20.743  1.00  0.00    -0.452 OA
ENDROOT
BRANCH   1  12
ATOM     12  C   UNL     1     -13.964 -16.628  19.181  1.00  0.00     0.025 A 
ATOM     13  C   UNL     1     -16.065 -17.871  19.027  1.00  0.00     0.161 A 
ATOM     14  C   UNL     1     -16.101 -17.625  17.647  1.00  0.00     0.157 A 
ATOM     15  C   UNL     1     -14.995 -17.363  19.791  1.00  0.00     0.062 A 
ATOM     16  C   UNL     1     -15.086 -16.877  17.040  1.00  0.00     0.051 A 
ATOM     17  C   UNL     1     -14.029 -16.375  17.800  1.00  0.00     0.016 A 
BRANCH  13  18
ATOM     18  O   UNL     1     -17.105 -18.619  19.601  1.00  0.00    -0.493 OA
ATOM     19  C   UNL     1     -16.916 -19.794  20.384  1.00  0.00     0.278 C 
ENDBRANCH  13  18
BRANCH  14  20
ATOM     20  O   UNL     1     -17.157 -18.127  16.887  1.00  0.00    -0.504 OA
ATOM     21  H   UNL     1     -17.223 -17.949  15.891  1.00  0.00     0.293 HD
ENDBRANCH  14  20
ENDBRANCH   1  12
BRANCH   2  22
ATOM     22  O   UNL     1     -13.225 -13.826  19.191  1.00  0.00    -0.502 OA
ATOM     23  H   UNL     1     -12.747 -13.125  18.638  1.00  0.00     0.293 HD
ENDBRANCH   2  22
BRANCH   6  24
ATOM     24  O   UNL     1      -9.405 -13.531  22.891  1.00  0.00    -0.507 OA
ATOM     25  H   UNL     1      -9.831 -12.969  23.613  1.00  0.00     0.293 HD
ENDBRANCH   6  24
BRANCH   8  26
ATOM     26  O   UNL     1      -8.715 -18.202  23.764  1.00  0.00    -0.508 OA
ATOM     27  H   UNL     1      -8.072 -18.820  23.283  1.00  0.00     0.293 HD
ENDBRANCH   8  26
TORSDOF 6
ENDMDL
MODEL 3
REMARK VINA RESULT:    -6.169      2.144      2.463
REMARK INTER + INTRA:          -7.968
REMARK INTER:                  -7.562
REMARK INTRA:                  -0.406
REMARK UNBOUND:                -0.357
REMARK SMILES COc1cc(-c2oc3cc(O)cc(O)c3c(=O)c2O)ccc1O
REMARK SMILES IDX 6 1 18 2 16 3 17 4 15 5 13 6 12 7 10 8 9 9 8 10 7 11 5 12
REMARK SMILES IDX 3 13 22 14 4 15 21 16 20 17 2 18 1 19 23 20 19 22 14 24
REMARK SMILES IDX 11 26
REMARK H PARENT 23 21 19 23 14 25 11 27
REMARK Flexibility Score: inf
ROOT
ATOM      1  C   UNL     1     -11.389 -16.546  20.928  1.00  0.00     0.180 A 
ATOM      2  C   UNL     1     -10.198 -17.232  20.635  1.00  0.00     0.208 A 
ATOM      3  C   UNL     1      -8.969 -16.600  20.887  1.00  0.00     0.238 A 
ATOM      4  O   UNL     1      -7.906 -17.239  20.674  1.00  0.00    -0.285 OA
ATOM      5  C   UNL     1      -8.948 -15.285  21.411  1.00  0.00     0.111 A 
ATOM      6  C   UNL     1      -7.761 -14.534  21.667  1.00  0.00     0.134 A 
ATOM      7  C   UNL     1      -7.855 -13.293  22.309  1.00  0.00     0.093 A 
ATOM      8  C   UNL     1      -9.096 -12.747  22.645  1.00  0.00     0.123 A 
ATOM      9  C   UNL     1     -10.263 -13.446  22.345  1.00  0.00     0.094 A 
ATOM     10  C   UNL     1     -10.200 -14.703  21.738  1.00  0.00     0.146 A 
ATOM     11  O   UNL     1     -11.336 -15.341  21.480  1.00  0.00    -0.452 OA
ENDROOT
BRANCH   1  12
ATOM     12  C   UNL     1     -12.722 -17.137  20.668  1.00  0.00     0.025 A 
ATOM     13  C   UNL     1     -14.637 -18.433  21.463  1.00  0.00     0.161 A 
ATOM     14  C   UNL     1     -15.280 -18.225  20.235  1.00  0.00     0.157 A 
ATOM     15  C   UNL     1     -13.359 -17.879  21.676  1.00  0.00     0.062 A 
ATOM     16  C   UNL     1     -14.657 -17.468  19.235  1.00  0.00     0.051 A 
ATOM     17  C   UNL     1     -13.391 -16.921  19.451  1.00  0.00     0.016 A 
BRANCH  13  18
ATOM     18  O   UNL     1     -15.297 -19.191  22.444  1.00  0.00    -0.493 OA
ATOM     19  C   UNL     1     -14.855 -20.460  22.915  1.00  0.00     0.278 C 
ENDBRANCH  13  18
BRANCH  14  20
ATOM     20  O   UNL     1     -16.544 -18.771  20.019  1.00  0.00    -0.504 OA
ATOM     21  H   UNL     1     -17.387 -18.286  20.304  1.00  0.00     0.293 HD
ENDBRANCH  14  20
ENDBRANCH   1  12
BRANCH   2  22
ATOM     22  O   UNL     1     -10.241 -18.538  20.138  1.00  0.00    -0.502 OA
ATOM     23  H   UNL     1     -10.076 -19.348  20.723  1.00  0.00     0.293 HD
ENDBRANCH   2  22
BRANCH   6  24
ATOM     24  O   UNL     1      -6.480 -14.946  21.289  1.00  0.00    -0.507 OA
ATOM     25  H   UNL     1      -5.695 -15.035  21.917  1.00  0.00     0.293 HD
ENDBRANCH   6  24
BRANCH   8  26
ATOM     26  O   UNL     1      -9.180 -11.504  23.268  1.00  0.00    -0.508 OA
ATOM     27  H   UNL     1      -8.421 -11.141  23.832  1.00  0.00     0.293 HD
ENDBRANCH   8  26
TORSDOF 6
ENDMDL
MODEL 4
REMARK VINA RESULT:    -6.091      4.905      7.275
REMARK INTER + INTRA:          -7.873
REMARK INTER:                  -7.751
REMARK INTRA:                  -0.122
REMARK UNBOUND:                -0.357
REMARK SMILES COc1cc(-c2oc3cc(O)cc(O)c3c(=O)c2O)ccc1O
REMARK SMILES IDX 6 1 18 2 16 3 17 4 15 5 13 6 12 7 10 8 9 9 8 10 7 11 5 12
REMARK SMILES IDX 3 13 22 14 4 15 21 16 20 17 2 18 1 19 23 20 19 22 14 24
REMARK SMILES IDX 11 26
REMARK H PARENT 23 21 19 23 14 25 11 27
REMARK Flexibility Score: inf
ROOT
ATOM      1  C   UNL     1      -7.776 -14.656  18.462  1.00  0.00     0.180 A 
ATOM      2  C   UNL     1      -7.474 -15.964  18.881  1.00  0.00     0.208 A 
ATOM      3  C   UNL     1      -7.883 -16.381  20.158  1.00  0.00     0.238 A 
ATOM      4  O   UNL     1      -7.658 -17.569  20.507  1.00  0.00    -0.285 OA
ATOM      5  C   UNL     1      -8.573 -15.481  21.006  1.00  0.00     0.111 A 
ATOM      6  C   UNL     1      -8.999 -15.785  22.334  1.00  0.00     0.134 A 
ATOM      7  C   UNL     1      -9.788 -14.863  23.033  1.00  0.00     0.093 A 
ATOM      8  C   UNL     1     -10.111 -13.623  22.477  1.00  0.00     0.123 A 
ATOM      9  C   UNL     1      -9.650 -13.294  21.205  1.00  0.00     0.094 A 
ATOM     10  C   UNL     1      -8.892 -14.207  20.468  1.00  0.00     0.146 A 
ATOM     11  O   UNL     1      -8.482 -13.858  19.254  1.00  0.00    -0.452 OA
ENDROOT
BRANCH   1  12
ATOM     12  C   UNL     1      -7.358 -14.136  17.140  1.00  0.00     0.025 A 
ATOM     13  C   UNL     1      -7.416 -14.306  14.702  1.00  0.00     0.161 A 
ATOM     14  C   UNL     1      -6.635 -13.146  14.609  1.00  0.00     0.157 A 
ATOM     15  C   UNL     1      -7.781 -14.793  15.973  1.00  0.00     0.062 A 
ATOM     16  C   UNL     1      -6.229 -12.477  15.770  1.00  0.00     0.051 A 
ATOM     17  C   UNL     1      -6.592 -12.963  17.027  1.00  0.00     0.016 A 
BRANCH  13  18
ATOM     18  O   UNL     1      -7.810 -14.944  13.515  1.00  0.00    -0.493 OA
ATOM     19  C   UNL     1      -7.782 -16.354  13.309  1.00  0.00     0.278 C 
ENDBRANCH  13  18
BRANCH  14  20
ATOM     20  O   UNL     1      -6.270 -12.661  13.353  1.00  0.00    -0.504 OA
ATOM     21  H   UNL     1      -6.285 -13.253  12.531  1.00  0.00     0.293 HD
ENDBRANCH  14  20
ENDBRANCH   1  12
BRANCH   2  22
ATOM     22  O   UNL     1      -6.811 -16.843  18.020  1.00  0.00    -0.502 OA
ATOM     23  H   UNL     1      -6.938 -17.846  18.064  1.00  0.00     0.293 HD
ENDBRANCH   2  22
BRANCH   6  24
ATOM     24  O   UNL     1      -8.653 -16.955  23.016  1.00  0.00    -0.507 OA
ATOM     25  H   UNL     1      -9.224 -17.786  23.059  1.00  0.00     0.293 HD
ENDBRANCH   6  24
BRANCH   8  26
ATOM     26  O   UNL     1     -10.884 -12.706  23.187  1.00  0.00    -0.508 OA
ATOM     27  H   UNL     1     -11.887 -12.645  23.059  1.00  0.00     0.293 HD
ENDBRANCH   8  26
TORSDOF 6
ENDMDL
MODEL 5
REMARK VINA RESULT:    -6.080      2.804      3.436
REMARK INTER + INTRA:          -7.859
REMARK INTER:                  -7.482
REMARK INTRA:                  -0.377
REMARK UNBOUND:                -0.357
REMARK SMILES COc1cc(-c2oc3cc(O)cc(O)c3c(=O)c2O)ccc1O
REMARK SMILES IDX 6 1 18 2 16 3 17 4 15 5 13 6 12 7 10 8 9 9 8 10 7 11 5 12
REMARK SMILES IDX 3 13 22 14 4 15 21 16 20 17 2 18 1 19 23 20 19 22 14 24
REMARK SMILES IDX 11 26
REMARK H PARENT 23 21 19 23 14 25 11 27
REMARK Flexibility Score: inf
ROOT
ATOM      1  C   UNL     1      -9.198 -17.700  21.258  1.00  0.00     0.180 A 
ATOM      2  C   UNL     1      -9.260 -17.312  22.608  1.00  0.00     0.208 A 
ATOM      3  C   UNL     1      -9.722 -16.024  22.925  1.00  0.00     0.238 A 
ATOM      4  O   UNL     1      -9.827 -15.701  24.137  1.00  0.00    -0.285 OA
ATOM      5  C   UNL     1     -10.098 -15.136  21.889  1.00  0.00     0.111 A 
ATOM      6  C   UNL     1     -10.542 -13.794  22.093  1.00  0.00     0.134 A 
ATOM      7  C   UNL     1     -11.013 -13.050  21.004  1.00  0.00     0.093 A 
ATOM      8  C   UNL     1     -10.995 -13.576  19.710  1.00  0.00     0.123 A 
ATOM      9  C   UNL     1     -10.509 -14.862  19.493  1.00  0.00     0.094 A 
ATOM     10  C   UNL     1     -10.066 -15.643  20.563  1.00  0.00     0.146 A 
ATOM     11  O   UNL     1      -9.620 -16.868  20.314  1.00  0.00    -0.452 OA
ENDROOT
BRANCH   1  12
ATOM     12  C   UNL     1      -8.701 -19.032  20.844  1.00  0.00     0.025 A 
ATOM     13  C   UNL     1      -9.170 -21.296  20.048  1.00  0.00     0.161 A 
ATOM     14  C   UNL     1      -7.794 -21.556  19.994  1.00  0.00     0.157 A 
ATOM     15  C   UNL     1      -9.618 -20.028  20.468  1.00  0.00     0.062 A 
ATOM     16  C   UNL     1      -6.877 -20.559  20.349  1.00  0.00     0.051 A 
ATOM     17  C   UNL     1      -7.324 -19.304  20.764  1.00  0.00     0.016 A 
BRANCH  13  18
ATOM     18  O   UNL     1     -10.059 -22.317  19.678  1.00  0.00    -0.493 OA
ATOM     19  C   UNL     1     -11.344 -22.100  19.103  1.00  0.00     0.278 C 
ENDBRANCH  13  18
BRANCH  14  20
ATOM     20  O   UNL     1      -7.346 -22.810  19.580  1.00  0.00    -0.504 OA
ATOM     21  H   UNL     1      -6.361 -22.999  19.437  1.00  0.00     0.293 HD
ENDBRANCH  14  20
ENDBRANCH   1  12
BRANCH   2  22
ATOM     22  O   UNL     1      -8.904 -18.212  23.616  1.00  0.00    -0.502 OA
ATOM     23  H   UNL     1      -8.161 -18.023  24.277  1.00  0.00     0.293 HD
ENDBRANCH   2  22
BRANCH   6  24
ATOM     24  O   UNL     1     -10.514 -13.143  23.329  1.00  0.00    -0.507 OA
ATOM     25  H   UNL     1     -11.160 -13.313  24.085  1.00  0.00     0.293 HD
ENDBRANCH   6  24
BRANCH   8  26
ATOM     26  O   UNL     1     -11.451 -12.822  18.631  1.00  0.00    -0.508 OA
ATOM     27  H   UNL     1     -12.440 -12.696  18.452  1.00  0.00     0.293 HD
ENDBRANCH   8  26
TORSDOF 6
ENDMDL
MODEL 6
REMARK VINA RESULT:    -6.047      5.338      8.131
REMARK INTER + INTRA:          -7.818
REMARK INTER:                  -7.579
REMARK INTRA:                  -0.239
REMARK UNBOUND:                -0.357
REMARK SMILES COc1cc(-c2oc3cc(O)cc(O)c3c(=O)c2O)ccc1O
REMARK SMILES IDX 6 1 18 2 16 3 17 4 15 5 13 6 12 7 10 8 9 9 8 10 7 11 5 12
REMARK SMILES IDX 3 13 22 14 4 15 21 16 20 17 2 18 1 19 23 20 19 22 14 24
REMARK SMILES IDX 11 26
REMARK H PARENT 23 21 19 23 14 25 11 27
REMARK Flexibility Score: inf
ROOT
ATOM      1  C   UNL     1      -7.253 -14.372  19.461  1.00  0.00     0.180 A 
ATOM      2  C   UNL     1      -7.424 -14.054  18.102  1.00  0.00     0.208 A 
ATOM      3  C   UNL     1      -6.451 -14.470  17.178  1.00  0.00     0.238 A 
ATOM      4  O   UNL     1      -6.637 -14.231  15.956  1.00  0.00    -0.285 OA
ATOM      5  C   UNL     1      -5.313 -15.181  17.626  1.00  0.00     0.111 A 
ATOM      6  C   UNL     1      -4.246 -15.617  16.783  1.00  0.00     0.134 A 
ATOM      7  C   UNL     1      -3.234 -16.426  17.314  1.00  0.00     0.093 A 
ATOM      8  C   UNL     1      -3.216 -16.763  18.670  1.00  0.00     0.123 A 
ATOM      9  C   UNL     1      -4.221 -16.293  19.512  1.00  0.00     0.094 A 
ATOM     10  C   UNL     1      -5.264 -15.514  19.005  1.00  0.00     0.146 A 
ATOM     11  O   UNL     1      -6.208 -15.097  19.840  1.00  0.00    -0.452 OA
ENDROOT
BRANCH   1  12
ATOM     12  C   UNL     1      -8.223 -13.948  20.497  1.00  0.00     0.025 A 
ATOM     13  C   UNL     1      -8.757 -12.540  22.423  1.00  0.00     0.161 A 
ATOM     14  C   UNL     1     -10.053 -13.071  22.444  1.00  0.00     0.157 A 
ATOM     15  C   UNL     1      -7.846 -12.978  21.441  1.00  0.00     0.062 A 
ATOM     16  C   UNL     1     -10.438 -14.023  21.492  1.00  0.00     0.051 A 
ATOM     17  C   UNL     1      -9.533 -14.454  20.521  1.00  0.00     0.016 A 
BRANCH  13  18
ATOM     18  O   UNL     1      -8.411 -11.582  23.389  1.00  0.00    -0.493 OA
ATOM     19  C   UNL     1      -7.148 -10.925  23.458  1.00  0.00     0.278 C 
ENDBRANCH  13  18
BRANCH  14  20
ATOM     20  O   UNL     1     -10.958 -12.642  23.414  1.00  0.00    -0.504 OA
ATOM     21  H   UNL     1     -10.958 -11.687  23.753  1.00  0.00     0.293 HD
ENDBRANCH  14  20
ENDBRANCH   1  12
BRANCH   2  22
ATOM     22  O   UNL     1      -8.567 -13.370  17.678  1.00  0.00    -0.502 OA
ATOM     23  H   UNL     1      -8.574 -12.781  16.855  1.00  0.00     0.293 HD
ENDBRANCH   2  22
BRANCH   6  24
ATOM     24  O   UNL     1      -4.119 -15.260  15.438  1.00  0.00    -0.507 OA
ATOM     25  H   UNL     1      -4.847 -14.832  14.885  1.00  0.00     0.293 HD
ENDBRANCH   6  24
BRANCH   8  26
ATOM     26  O   UNL     1      -2.196 -17.556  19.192  1.00  0.00    -0.508 OA
ATOM     27  H   UNL     1      -1.569 -17.210  19.908  1.00  0.00     0.293 HD
ENDBRANCH   8  26
TORSDOF 6
ENDMDL
MODEL 7
REMARK VINA RESULT:    -6.029      3.015      4.337
REMARK INTER + INTRA:          -7.795
REMARK INTER:                  -7.451
REMARK INTRA:                  -0.344
REMARK UNBOUND:                -0.357
REMARK SMILES COc1cc(-c2oc3cc(O)cc(O)c3c(=O)c2O)ccc1O
REMARK SMILES IDX 6 1 18 2 16 3 17 4 15 5 13 6 12 7 10 8 9 9 8 10 7 11 5 12
REMARK SMILES IDX 3 13 22 14 4 15 21 16 20 17 2 18 1 19 23 20 19 22 14 24
REMARK SMILES IDX 11 26
REMARK H PARENT 23 21 19 23 14 25 11 27
REMARK Flexibility Score: inf
ROOT
ATOM      1  C   UNL     1      -9.919 -14.529  20.667  1.00  0.00     0.180 A 
ATOM      2  C   UNL     1      -9.775 -13.489  21.603  1.00  0.00     0.208 A 
ATOM      3  C   UNL     1      -8.484 -13.105  22.000  1.00  0.00     0.238 A 
ATOM      4  O   UNL     1      -8.359 -12.138  22.796  1.00  0.00    -0.285 OA
ATOM      5  C   UNL     1      -7.356 -13.776  21.471  1.00  0.00     0.111 A 
ATOM      6  C   UNL     1      -6.003 -13.496  21.833  1.00  0.00     0.134 A 
ATOM      7  C   UNL     1      -4.960 -14.131  21.148  1.00  0.00     0.093 A 
ATOM      8  C   UNL     1      -5.221 -15.084  20.160  1.00  0.00     0.123 A 
ATOM      9  C   UNL     1      -6.538 -15.407  19.842  1.00  0.00     0.094 A 
ATOM     10  C   UNL     1      -7.600 -14.764  20.481  1.00  0.00     0.146 A 
ATOM     11  O   UNL     1      -8.840 -15.093  20.139  1.00  0.00    -0.452 OA
ENDROOT
BRANCH   1  12
ATOM     12  C   UNL     1     -11.247 -15.006  20.218  1.00  0.00     0.025 A 
ATOM     13  C   UNL     1     -13.063 -16.634  20.391  1.00  0.00     0.161 A 
ATOM     14  C   UNL     1     -13.793 -15.912  19.436  1.00  0.00     0.157 A 
ATOM     15  C   UNL     1     -11.792 -16.170  20.784  1.00  0.00     0.062 A 
ATOM     16  C   UNL     1     -13.261 -14.740  18.885  1.00  0.00     0.051 A 
ATOM     17  C   UNL     1     -12.002 -14.284  19.276  1.00  0.00     0.016 A 
BRANCH  13  18
ATOM     18  O   UNL     1     -13.633 -17.800  20.926  1.00  0.00    -0.493 OA
ATOM     19  C   UNL     1     -13.044 -18.584  21.960  1.00  0.00     0.278 C 
ENDBRANCH  13  18
BRANCH  14  20
ATOM     20  O   UNL     1     -15.051 -16.367  19.043  1.00  0.00    -0.504 OA
ATOM     21  H   UNL     1     -15.711 -15.759  18.572  1.00  0.00     0.293 HD
ENDBRANCH  14  20
ENDBRANCH   1  12
BRANCH   2  22
ATOM     22  O   UNL     1     -10.903 -12.826  22.097  1.00  0.00    -0.502 OA
ATOM     23  H   UNL     1     -11.259 -12.982  23.031  1.00  0.00     0.293 HD
ENDBRANCH   2  22
BRANCH   6  24
ATOM     24  O   UNL     1      -5.636 -12.631  22.867  1.00  0.00    -0.507 OA
ATOM     25  H   UNL     1      -6.243 -12.343  23.620  1.00  0.00     0.293 HD
ENDBRANCH   6  24
BRANCH   8  26
ATOM     26  O   UNL     1      -4.176 -15.723  19.496  1.00  0.00    -0.508 OA
ATOM     27  H   UNL     1      -3.210 -15.572  19.758  1.00  0.00     0.293 HD
ENDBRANCH   8  26
TORSDOF 6
ENDMDL
MODEL 8
REMARK VINA RESULT:    -5.957      3.002      7.400
REMARK INTER + INTRA:          -7.707
REMARK INTER:                  -7.466
REMARK INTRA:                  -0.241
REMARK UNBOUND:                -0.357
REMARK SMILES COc1cc(-c2oc3cc(O)cc(O)c3c(=O)c2O)ccc1O
REMARK SMILES IDX 6 1 18 2 16 3 17 4 15 5 13 6 12 7 10 8 9 9 8 10 7 11 5 12
REMARK SMILES IDX 3 13 22 14 4 15 21 16 20 17 2 18 1 19 23 20 19 22 14 24
REMARK SMILES IDX 11 26
REMARK H PARENT 23 21 19 23 14 25 11 27
REMARK Flexibility Score: inf
ROOT
ATOM      1  C   UNL     1     -13.501 -16.380  19.390  1.00  0.00     0.180 A 
ATOM      2  C   UNL     1     -13.194 -17.451  20.248  1.00  0.00     0.208 A 
ATOM      3  C   UNL     1     -14.135 -18.480  20.416  1.00  0.00     0.238 A 
ATOM      4  O   UNL     1     -13.833 -19.462  21.142  1.00  0.00    -0.285 OA
ATOM      5  C   UNL     1     -15.377 -18.416  19.739  1.00  0.00     0.111 A 
ATOM      6  C   UNL     1     -16.420 -19.382  19.867  1.00  0.00     0.134 A 
ATOM      7  C   UNL     1     -17.553 -19.287  19.050  1.00  0.00     0.093 A 
ATOM      8  C   UNL     1     -17.710 -18.224  18.156  1.00  0.00     0.123 A 
ATOM      9  C   UNL     1     -16.725 -17.244  18.068  1.00  0.00     0.094 A 
ATOM     10  C   UNL     1     -15.566 -17.331  18.843  1.00  0.00     0.146 A 
ATOM     11  O   UNL     1     -14.646 -16.382  18.719  1.00  0.00    -0.452 OA
ENDROOT
BRANCH   1  12
ATOM     12  C   UNL     1     -12.571 -15.247  19.180  1.00  0.00     0.025 A 
ATOM     13  C   UNL     1     -11.355 -13.331  20.091  1.00  0.00     0.161 A 
ATOM     14  C   UNL     1     -10.762 -13.121  18.839  1.00  0.00     0.157 A 
ATOM     15  C   UNL     1     -12.255 -14.402  20.257  1.00  0.00     0.062 A 
ATOM     16  C   UNL     1     -11.058 -13.973  17.768  1.00  0.00     0.051 A 
ATOM     17  C   UNL     1     -11.950 -15.033  17.937  1.00  0.00     0.016 A 
BRANCH  13  18
ATOM     18  O   UNL     1     -11.027 -12.460  21.142  1.00  0.00    -0.493 OA
ATOM     19  C   UNL     1     -10.318 -12.844  22.316  1.00  0.00     0.278 C 
ENDBRANCH  13  18
BRANCH  14  20
ATOM     20  O   UNL     1      -9.871 -12.061  18.668  1.00  0.00    -0.504 OA
ATOM     21  H   UNL     1      -9.842 -11.283  19.317  1.00  0.00     0.293 HD
ENDBRANCH  14  20
ENDBRANCH   1  12
BRANCH   2  22
ATOM     22  O   UNL     1     -11.953 -17.505  20.889  1.00  0.00    -0.502 OA
ATOM     23  H   UNL     1     -11.282 -16.749  20.838  1.00  0.00     0.293 HD
ENDBRANCH   2  22
BRANCH   6  24
ATOM     24  O   UNL     1     -16.404 -20.429  20.793  1.00  0.00    -0.507 OA
ATOM     25  H   UNL     1     -16.402 -21.409  20.554  1.00  0.00     0.293 HD
ENDBRANCH   6  24
BRANCH   8  26
ATOM     26  O   UNL     1     -18.849 -18.129  17.359  1.00  0.00    -0.508 OA
ATOM     27  H   UNL     1     -18.805 -17.771  16.413  1.00  0.00     0.293 HD
ENDBRANCH   8  26
TORSDOF 6
ENDMDL
MODEL 9
REMARK VINA RESULT:    -5.942      5.207      7.592
REMARK INTER + INTRA:          -7.688
REMARK INTER:                  -7.352
REMARK INTRA:                  -0.337
REMARK UNBOUND:                -0.357
REMARK SMILES COc1cc(-c2oc3cc(O)cc(O)c3c(=O)c2O)ccc1O
REMARK SMILES IDX 6 1 18 2 16 3 17 4 15 5 13 6 12 7 10 8 9 9 8 10 7 11 5 12
REMARK SMILES IDX 3 13 22 14 4 15 21 16 20 17 2 18 1 19 23 20 19 22 14 24
REMARK SMILES IDX 11 26
REMARK H PARENT 23 21 19 23 14 25 11 27
REMARK Flexibility Score: inf
ROOT
ATOM      1  C   UNL     1      -7.495 -14.366  19.261  1.00  0.00     0.180 A 
ATOM      2  C   UNL     1      -6.523 -15.363  19.463  1.00  0.00     0.208 A 
ATOM      3  C   UNL     1      -5.703 -15.741  18.387  1.00  0.00     0.238 A 
ATOM      4  O   UNL     1      -4.800 -16.594  18.587  1.00  0.00    -0.285 OA
ATOM      5  C   UNL     1      -5.877 -15.133  17.121  1.00  0.00     0.111 A 
ATOM      6  C   UNL     1      -5.129 -15.468  15.952  1.00  0.00     0.134 A 
ATOM      7  C   UNL     1      -5.295 -14.710  14.787  1.00  0.00     0.093 A 
ATOM      8  C   UNL     1      -6.227 -13.671  14.728  1.00  0.00     0.123 A 
ATOM      9  C   UNL     1      -7.003 -13.376  15.846  1.00  0.00     0.094 A 
ATOM     10  C   UNL     1      -6.836 -14.090  17.035  1.00  0.00     0.146 A 
ATOM     11  O   UNL     1      -7.588 -13.768  18.080  1.00  0.00    -0.452 OA
ENDROOT
BRANCH   1  12
ATOM     12  C   UNL     1      -8.411 -13.931  20.340  1.00  0.00     0.025 A 
ATOM     13  C   UNL     1      -8.803 -12.603  22.356  1.00  0.00     0.161 A 
ATOM     14  C   UNL     1     -10.137 -13.032  22.371  1.00  0.00     0.157 A 
ATOM     15  C   UNL     1      -7.945 -13.051  21.331  1.00  0.00     0.062 A 
ATOM     16  C   UNL     1     -10.610 -13.892  21.373  1.00  0.00     0.051 A 
ATOM     17  C   UNL     1      -9.758 -14.334  20.360  1.00  0.00     0.016 A 
BRANCH  13  18
ATOM     18  O   UNL     1      -8.367 -11.735  23.369  1.00  0.00    -0.493 OA
ATOM     19  C   UNL     1      -7.103 -11.080  23.382  1.00  0.00     0.278 C 
ENDBRANCH  13  18
BRANCH  14  20
ATOM     20  O   UNL     1     -10.990 -12.593  23.383  1.00  0.00    -0.504 OA
ATOM     21  H   UNL     1     -10.803 -12.795  24.358  1.00  0.00     0.293 HD
ENDBRANCH  14  20
ENDBRANCH   1  12
BRANCH   2  22
ATOM     22  O   UNL     1      -6.355 -15.935  20.727  1.00  0.00    -0.502 OA
ATOM     23  H   UNL     1      -7.017 -15.796  21.480  1.00  0.00     0.293 HD
ENDBRANCH   2  22
BRANCH   6  24
ATOM     24  O   UNL     1      -4.241 -16.544  15.876  1.00  0.00    -0.507 OA
ATOM     25  H   UNL     1      -3.723 -16.806  15.050  1.00  0.00     0.293 HD
ENDBRANCH   6  24
BRANCH   8  26
ATOM     26  O   UNL     1      -6.396 -12.933  13.559  1.00  0.00    -0.508 OA
ATOM     27  H   UNL     1      -6.367 -13.371  12.646  1.00  0.00     0.293 HD
ENDBRANCH   8  26
TORSDOF 6
ENDMDL
