MODEL 1
REMARK VINA RESULT:    -3.754      0.000      0.000
REMARK INTER + INTRA:          -8.042
REMARK INTER:                  -5.839
REMARK INTRA:                  -2.203
REMARK UNBOUND:                -2.203
REMARK SMILES COc1cc(CNC(=O)CCCCC=CC(C)C)ccc1O
REMARK SMILES IDX 11 1 12 2 13 3 14 4 15 5 16 6 17 7 18 8 10 9 8 10 9 11 7 12
REMARK SMILES IDX 6 14 5 15 4 16 19 17 3 18 20 19 21 20 2 21 1 22 22 23
REMARK H PARENT 7 13 22 24
REMARK Flexibility Score: inf
ROOT
ATOM      1  C   UNL     1     129.640 142.610 136.495  1.00  0.00     0.010 C 
ENDROOT
BRANCH   1   2
ATOM      2  C   UNL     1     129.942 143.753 135.509  1.00  0.00     0.005 C 
BRANCH   2   3
ATOM      3  C   UNL     1     128.838 143.954 134.461  1.00  0.00     0.027 C 
BRANCH   3   4
ATOM      4  C   UNL     1     129.396 143.874 133.067  1.00  0.00    -0.031 C 
ATOM      5  C   UNL     1     130.354 144.711 132.639  1.00  0.00    -0.028 C 
BRANCH   5   6
ATOM      6  C   UNL     1     130.930 144.600 131.247  1.00  0.00     0.005 C 
ATOM      7  C   UNL     1     130.797 143.166 130.724  1.00  0.00     0.012 C 
ATOM      8  C   UNL     1     132.397 145.043 131.231  1.00  0.00     0.012 C 
ENDBRANCH   5   6
ENDBRANCH   3   4
ENDBRANCH   2   3
ENDBRANCH   1   2
BRANCH   1   9
ATOM      9  C   UNL     1     128.708 141.516 135.943  1.00  0.00     0.100 C 
BRANCH   9  10
ATOM     10  C   UNL     1     129.467 140.403 135.278  1.00  0.00     0.220 C 
ATOM     11  O   UNL     1     129.855 139.421 135.966  1.00  0.00    -0.275 OA
ATOM     12  N   UNL     1     129.765 140.471 133.875  1.00  0.00    -0.352 N 
ATOM     13  H   UNL     1     129.346 141.243 133.307  1.00  0.00     0.163 HD
BRANCH  12  14
ATOM     14  C   UNL     1     130.782 139.637 133.239  1.00  0.00     0.151 C 
BRANCH  14  15
ATOM     15  C   UNL     1     131.977 140.478 132.888  1.00  0.00    -0.025 A 
ATOM     16  C   UNL     1     132.771 140.149 131.778  1.00  0.00     0.056 A 
ATOM     17  C   UNL     1     132.350 141.553 133.707  1.00  0.00     0.009 A 
ATOM     18  C   UNL     1     133.927 140.898 131.478  1.00  0.00     0.160 A 
ATOM     19  C   UNL     1     133.483 142.309 133.404  1.00  0.00     0.050 A 
ATOM     20  C   UNL     1     134.270 141.987 132.291  1.00  0.00     0.157 A 
BRANCH  18  21
ATOM     21  O   UNL     1     134.760 140.585 130.393  1.00  0.00    -0.493 OA
ATOM     22  C   UNL     1     134.354 139.827 129.258  1.00  0.00     0.278 C 
ENDBRANCH  18  21
BRANCH  20  23
ATOM     23  O   UNL     1     135.404 142.740 131.992  1.00  0.00    -0.504 OA
ATOM     24  H   UNL     1     135.792 143.402 132.654  1.00  0.00     0.293 HD
ENDBRANCH  20  23
ENDBRANCH  14  15
ENDBRANCH  12  14
ENDBRANCH   9  10
ENDBRANCH   1   9
TORSDOF 10
ENDMDL
MODEL 2
REMARK VINA RESULT:    -3.641      2.448      5.277
REMARK INTER + INTRA:          -7.865
REMARK INTER:                  -5.496
REMARK INTRA:                  -2.369
REMARK UNBOUND:                -2.203
REMARK SMILES COc1cc(CNC(=O)CCCCC=CC(C)C)ccc1O
REMARK SMILES IDX 11 1 12 2 13 3 14 4 15 5 16 6 17 7 18 8 10 9 8 10 9 11 7 12
REMARK SMILES IDX 6 14 5 15 4 16 19 17 3 18 20 19 21 20 2 21 1 22 22 23
REMARK H PARENT 7 13 22 24
REMARK Flexibility Score: inf
ROOT
ATOM      1  C   UNL     1     130.431 144.745 132.366  1.00  0.00     0.010 C 
ENDROOT
BRANCH   1   2
ATOM      2  C   UNL     1     129.614 143.471 132.645  1.00  0.00     0.005 C 
BRANCH   2   3
ATOM      3  C   UNL     1     129.231 143.311 134.124  1.00  0.00     0.027 C 
BRANCH   3   4
ATOM      4  C   UNL     1     130.101 144.167 135.002  1.00  0.00    -0.031 C 
ATOM      5  C   UNL     1     130.462 143.777 136.235  1.00  0.00    -0.028 C 
BRANCH   5   6
ATOM      6  C   UNL     1     131.363 144.630 137.096  1.00  0.00     0.005 C 
ATOM      7  C   UNL     1     132.498 145.228 136.259  1.00  0.00     0.012 C 
ATOM      8  C   UNL     1     131.930 143.813 138.262  1.00  0.00     0.012 C 
ENDBRANCH   5   6
ENDBRANCH   3   4
ENDBRANCH   2   3
ENDBRANCH   1   2
BRANCH   1   9
ATOM      9  C   UNL     1     131.400 144.639 131.175  1.00  0.00     0.100 C 
BRANCH   9  10
ATOM     10  C   UNL     1     132.456 143.592 131.391  1.00  0.00     0.220 C 
ATOM     11  O   UNL     1     132.748 142.804 130.452  1.00  0.00    -0.275 OA
ATOM     12  N   UNL     1     133.111 143.480 132.664  1.00  0.00    -0.352 N 
ATOM     13  H   UNL     1     132.926 144.208 133.392  1.00  0.00     0.163 HD
BRANCH  12  14
ATOM     14  C   UNL     1     133.865 142.296 133.066  1.00  0.00     0.151 C 
BRANCH  14  15
ATOM     15  C   UNL     1     133.129 141.577 134.161  1.00  0.00    -0.025 A 
ATOM     16  C   UNL     1     133.666 141.522 135.457  1.00  0.00     0.056 A 
ATOM     17  C   UNL     1     131.937 140.893 133.880  1.00  0.00     0.009 A 
ATOM     18  C   UNL     1     133.011 140.799 136.474  1.00  0.00     0.160 A 
ATOM     19  C   UNL     1     131.275 140.190 134.888  1.00  0.00     0.050 A 
ATOM     20  C   UNL     1     131.805 140.144 136.183  1.00  0.00     0.157 A 
BRANCH  18  21
ATOM     21  O   UNL     1     133.529 140.700 137.774  1.00  0.00    -0.493 OA
ATOM     22  C   UNL     1     134.746 141.300 138.204  1.00  0.00     0.278 C 
ENDBRANCH  18  21
BRANCH  20  23
ATOM     23  O   UNL     1     131.145 139.439 137.187  1.00  0.00    -0.504 OA
ATOM     24  H   UNL     1     130.292 139.788 137.609  1.00  0.00     0.293 HD
ENDBRANCH  20  23
ENDBRANCH  14  15
ENDBRANCH  12  14
ENDBRANCH   9  10
ENDBRANCH   1   9
TORSDOF 10
ENDMDL
MODEL 3
REMARK VINA RESULT:    -3.624      2.126      5.036
REMARK INTER + INTRA:          -7.839
REMARK INTER:                  -5.509
REMARK INTRA:                  -2.329
REMARK UNBOUND:                -2.203
REMARK SMILES COc1cc(CNC(=O)CCCCC=CC(C)C)ccc1O
REMARK SMILES IDX 11 1 12 2 13 3 14 4 15 5 16 6 17 7 18 8 10 9 8 10 9 11 7 12
REMARK SMILES IDX 6 14 5 15 4 16 19 17 3 18 20 19 21 20 2 21 1 22 22 23
REMARK H PARENT 7 13 22 24
REMARK Flexibility Score: inf
ROOT
ATOM      1  C   UNL     1     130.499 144.967 132.476  1.00  0.00     0.010 C 
ENDROOT
BRANCH   1   2
ATOM      2  C   UNL     1     129.632 143.716 132.707  1.00  0.00     0.005 C 
BRANCH   2   3
ATOM      3  C   UNL     1     129.110 143.601 134.147  1.00  0.00     0.027 C 
BRANCH   3   4
ATOM      4  C   UNL     1     129.935 144.435 135.088  1.00  0.00    -0.031 C 
ATOM      5  C   UNL     1     130.473 143.919 136.204  1.00  0.00    -0.028 C 
BRANCH   5   6
ATOM      6  C   UNL     1     131.327 144.758 137.125  1.00  0.00     0.005 C 
ATOM      7  C   UNL     1     132.578 145.253 136.394  1.00  0.00     0.012 C 
ATOM      8  C   UNL     1     131.716 143.963 138.376  1.00  0.00     0.012 C 
ENDBRANCH   5   6
ENDBRANCH   3   4
ENDBRANCH   2   3
ENDBRANCH   1   2
BRANCH   1   9
ATOM      9  C   UNL     1     131.489 144.853 131.302  1.00  0.00     0.100 C 
BRANCH   9  10
ATOM     10  C   UNL     1     132.417 143.680 131.451  1.00  0.00     0.220 C 
ATOM     11  O   UNL     1     132.526 142.854 130.505  1.00  0.00    -0.275 OA
ATOM     12  N   UNL     1     133.155 143.493 132.668  1.00  0.00    -0.352 N 
ATOM     13  H   UNL     1     133.125 144.244 133.396  1.00  0.00     0.163 HD
BRANCH  12  14
ATOM     14  C   UNL     1     133.780 142.225 133.029  1.00  0.00     0.151 C 
BRANCH  14  15
ATOM     15  C   UNL     1     132.978 141.554 134.109  1.00  0.00    -0.025 A 
ATOM     16  C   UNL     1     131.731 140.983 133.811  1.00  0.00     0.056 A 
ATOM     17  C   UNL     1     133.434 141.560 135.434  1.00  0.00     0.009 A 
ATOM     18  C   UNL     1     130.946 140.406 134.830  1.00  0.00     0.160 A 
ATOM     19  C   UNL     1     132.670 140.973 136.444  1.00  0.00     0.050 A 
ATOM     20  C   UNL     1     131.430 140.394 136.145  1.00  0.00     0.157 A 
BRANCH  18  21
ATOM     21  O   UNL     1     129.684 139.848 134.576  1.00  0.00    -0.493 OA
ATOM     22  C   UNL     1     129.472 138.550 134.033  1.00  0.00     0.278 C 
ENDBRANCH  18  21
BRANCH  20  23
ATOM     23  O   UNL     1     130.666 139.812 137.155  1.00  0.00    -0.504 OA
ATOM     24  H   UNL     1     129.746 139.428 136.971  1.00  0.00     0.293 HD
ENDBRANCH  20  23
ENDBRANCH  14  15
ENDBRANCH  12  14
ENDBRANCH   9  10
ENDBRANCH   1   9
TORSDOF 10
ENDMDL
MODEL 4
REMARK VINA RESULT:    -3.491      1.843      3.428
REMARK INTER + INTRA:          -7.633
REMARK INTER:                  -5.619
REMARK INTRA:                  -2.014
REMARK UNBOUND:                -2.203
REMARK SMILES COc1cc(CNC(=O)CCCCC=CC(C)C)ccc1O
REMARK SMILES IDX 11 1 12 2 13 3 14 4 15 5 16 6 17 7 18 8 10 9 8 10 9 11 7 12
REMARK SMILES IDX 6 14 5 15 4 16 19 17 3 18 20 19 21 20 2 21 1 22 22 23
REMARK H PARENT 7 13 22 24
REMARK Flexibility Score: inf
ROOT
ATOM      1  C   UNL     1     130.243 142.348 136.873  1.00  0.00     0.010 C 
ENDROOT
BRANCH   1   2
ATOM      2  C   UNL     1     130.804 143.647 136.270  1.00  0.00     0.005 C 
BRANCH   2   3
ATOM      3  C   UNL     1     132.332 143.629 136.113  1.00  0.00     0.027 C 
BRANCH   3   4
ATOM      4  C   UNL     1     132.746 142.760 134.958  1.00  0.00    -0.031 C 
ATOM      5  C   UNL     1     133.495 141.661 135.132  1.00  0.00    -0.028 C 
BRANCH   5   6
ATOM      6  C   UNL     1     133.878 140.777 133.969  1.00  0.00     0.005 C 
ATOM      7  C   UNL     1     134.001 139.318 134.421  1.00  0.00     0.012 C 
ATOM      8  C   UNL     1     135.189 141.254 133.334  1.00  0.00     0.012 C 
ENDBRANCH   5   6
ENDBRANCH   3   4
ENDBRANCH   2   3
ENDBRANCH   1   2
BRANCH   1   9
ATOM      9  C   UNL     1     129.128 141.684 136.044  1.00  0.00     0.100 C 
BRANCH   9  10
ATOM     10  C   UNL     1     129.650 141.066 134.778  1.00  0.00     0.220 C 
ATOM     11  O   UNL     1     130.334 140.010 134.841  1.00  0.00    -0.275 OA
ATOM     12  N   UNL     1     129.387 141.688 133.510  1.00  0.00    -0.352 N 
ATOM     13  H   UNL     1     128.734 142.504 133.474  1.00  0.00     0.163 HD
BRANCH  12  14
ATOM     14  C   UNL     1     130.139 141.369 132.300  1.00  0.00     0.151 C 
BRANCH  14  15
ATOM     15  C   UNL     1     130.915 142.577 131.855  1.00  0.00    -0.025 A 
ATOM     16  C   UNL     1     132.205 142.431 131.322  1.00  0.00     0.056 A 
ATOM     17  C   UNL     1     130.387 143.862 132.037  1.00  0.00     0.009 A 
ATOM     18  C   UNL     1     132.962 143.562 130.957  1.00  0.00     0.160 A 
ATOM     19  C   UNL     1     131.125 144.986 131.661  1.00  0.00     0.050 A 
ATOM     20  C   UNL     1     132.407 144.840 131.119  1.00  0.00     0.157 A 
BRANCH  18  21
ATOM     21  O   UNL     1     134.264 143.459 130.445  1.00  0.00    -0.493 OA
ATOM     22  C   UNL     1     134.613 142.727 129.275  1.00  0.00     0.278 C 
ENDBRANCH  18  21
BRANCH  20  23
ATOM     23  O   UNL     1     133.145 145.963 130.748  1.00  0.00    -0.504 OA
ATOM     24  H   UNL     1     133.785 146.414 131.391  1.00  0.00     0.293 HD
ENDBRANCH  20  23
ENDBRANCH  14  15
ENDBRANCH  12  14
ENDBRANCH   9  10
ENDBRANCH   1   9
TORSDOF 10
ENDMDL
MODEL 5
REMARK VINA RESULT:    -3.485      2.688      4.666
REMARK INTER + INTRA:          -7.623
REMARK INTER:                  -5.578
REMARK INTRA:                  -2.045
REMARK UNBOUND:                -2.203
REMARK SMILES COc1cc(CNC(=O)CCCCC=CC(C)C)ccc1O
REMARK SMILES IDX 11 1 12 2 13 3 14 4 15 5 16 6 17 7 18 8 10 9 8 10 9 11 7 12
REMARK SMILES IDX 6 14 5 15 4 16 19 17 3 18 20 19 21 20 2 21 1 22 22 23
REMARK H PARENT 7 13 22 24
REMARK Flexibility Score: inf
ROOT
ATOM      1  C   UNL     1     132.376 143.439 135.605  1.00  0.00     0.010 C 
ENDROOT
BRANCH   1   2
ATOM      2  C   UNL     1     131.351 142.355 135.223  1.00  0.00     0.005 C 
BRANCH   2   3
ATOM      3  C   UNL     1     131.708 141.617 133.925  1.00  0.00     0.027 C 
BRANCH   3   4
ATOM      4  C   UNL     1     133.187 141.675 133.660  1.00  0.00    -0.031 C 
ATOM      5  C   UNL     1     134.014 140.689 134.042  1.00  0.00    -0.028 C 
BRANCH   5   6
ATOM      6  C   UNL     1     135.493 140.744 133.742  1.00  0.00     0.005 C 
ATOM      7  C   UNL     1     136.292 140.996 135.024  1.00  0.00     0.012 C 
ATOM      8  C   UNL     1     135.795 141.827 132.700  1.00  0.00     0.012 C 
ENDBRANCH   5   6
ENDBRANCH   3   4
ENDBRANCH   2   3
ENDBRANCH   1   2
BRANCH   1   9
ATOM      9  C   UNL     1     131.805 144.866 135.677  1.00  0.00     0.100 C 
BRANCH   9  10
ATOM     10  C   UNL     1     131.374 145.377 134.331  1.00  0.00     0.220 C 
ATOM     11  O   UNL     1     130.153 145.606 134.117  1.00  0.00    -0.275 OA
ATOM     12  N   UNL     1     132.344 145.580 133.292  1.00  0.00    -0.352 N 
ATOM     13  H   UNL     1     133.360 145.480 133.523  1.00  0.00     0.163 HD
BRANCH  12  14
ATOM     14  C   UNL     1     131.981 145.720 131.884  1.00  0.00     0.151 C 
BRANCH  14  15
ATOM     15  C   UNL     1     131.894 144.361 131.248  1.00  0.00    -0.025 A 
ATOM     16  C   UNL     1     133.050 143.734 130.758  1.00  0.00     0.056 A 
ATOM     17  C   UNL     1     130.648 143.743 131.071  1.00  0.00     0.009 A 
ATOM     18  C   UNL     1     132.967 142.487 130.107  1.00  0.00     0.160 A 
ATOM     19  C   UNL     1     130.562 142.500 130.443  1.00  0.00     0.050 A 
ATOM     20  C   UNL     1     131.717 141.869 129.964  1.00  0.00     0.157 A 
BRANCH  18  21
ATOM     21  O   UNL     1     134.097 141.840 129.583  1.00  0.00    -0.493 OA
ATOM     22  C   UNL     1     134.780 142.244 128.401  1.00  0.00     0.278 C 
ENDBRANCH  18  21
BRANCH  20  23
ATOM     23  O   UNL     1     131.629 140.629 129.333  1.00  0.00    -0.504 OA
ATOM     24  H   UNL     1     131.814 140.523 128.343  1.00  0.00     0.293 HD
ENDBRANCH  20  23
ENDBRANCH  14  15
ENDBRANCH  12  14
ENDBRANCH   9  10
ENDBRANCH   1   9
TORSDOF 10
ENDMDL
MODEL 6
REMARK VINA RESULT:    -3.464      1.731      2.709
REMARK INTER + INTRA:          -7.590
REMARK INTER:                  -5.334
REMARK INTRA:                  -2.256
REMARK UNBOUND:                -2.203
REMARK SMILES COc1cc(CNC(=O)CCCCC=CC(C)C)ccc1O
REMARK SMILES IDX 11 1 12 2 13 3 14 4 15 5 16 6 17 7 18 8 10 9 8 10 9 11 7 12
REMARK SMILES IDX 6 14 5 15 4 16 19 17 3 18 20 19 21 20 2 21 1 22 22 23
REMARK H PARENT 7 13 22 24
REMARK Flexibility Score: inf
ROOT
ATOM      1  C   UNL     1     129.842 144.724 133.796  1.00  0.00     0.010 C 
ENDROOT
BRANCH   1   2
ATOM      2  C   UNL     1     130.994 144.802 132.778  1.00  0.00     0.005 C 
BRANCH   2   3
ATOM      3  C   UNL     1     130.575 144.392 131.359  1.00  0.00     0.027 C 
BRANCH   3   4
ATOM      4  C   UNL     1     131.542 143.399 130.775  1.00  0.00    -0.031 C 
ATOM      5  C   UNL     1     131.126 142.346 130.054  1.00  0.00    -0.028 C 
BRANCH   5   6
ATOM      6  C   UNL     1     132.108 141.373 129.446  1.00  0.00     0.005 C 
ATOM      7  C   UNL     1     133.477 142.035 129.266  1.00  0.00     0.012 C 
ATOM      8  C   UNL     1     131.586 140.845 128.105  1.00  0.00     0.012 C 
ENDBRANCH   5   6
ENDBRANCH   3   4
ENDBRANCH   2   3
ENDBRANCH   1   2
BRANCH   1   9
ATOM      9  C   UNL     1     128.860 143.561 133.566  1.00  0.00     0.100 C 
BRANCH   9  10
ATOM     10  C   UNL     1     129.394 142.254 134.081  1.00  0.00     0.220 C 
ATOM     11  O   UNL     1     129.478 142.066 135.324  1.00  0.00    -0.275 OA
ATOM     12  N   UNL     1     129.824 141.238 133.161  1.00  0.00    -0.352 N 
ATOM     13  H   UNL     1     129.650 141.376 132.139  1.00  0.00     0.163 HD
BRANCH  12  14
ATOM     14  C   UNL     1     130.670 140.116 133.558  1.00  0.00     0.151 C 
BRANCH  14  15
ATOM     15  C   UNL     1     132.097 140.402 133.184  1.00  0.00    -0.025 A 
ATOM     16  C   UNL     1     132.841 139.457 132.461  1.00  0.00     0.056 A 
ATOM     17  C   UNL     1     132.718 141.582 133.617  1.00  0.00     0.009 A 
ATOM     18  C   UNL     1     134.197 139.693 132.158  1.00  0.00     0.160 A 
ATOM     19  C   UNL     1     134.055 141.829 133.304  1.00  0.00     0.050 A 
ATOM     20  C   UNL     1     134.795 140.891 132.574  1.00  0.00     0.157 A 
BRANCH  18  21
ATOM     21  O   UNL     1     134.981 138.762 131.460  1.00  0.00    -0.493 OA
ATOM     22  C   UNL     1     135.347 137.481 131.960  1.00  0.00     0.278 C 
ENDBRANCH  18  21
BRANCH  20  23
ATOM     23  O   UNL     1     136.132 141.138 132.266  1.00  0.00    -0.504 OA
ATOM     24  H   UNL     1     136.400 141.640 131.428  1.00  0.00     0.293 HD
ENDBRANCH  20  23
ENDBRANCH  14  15
ENDBRANCH  12  14
ENDBRANCH   9  10
ENDBRANCH   1   9
TORSDOF 10
ENDMDL
MODEL 7
REMARK VINA RESULT:    -3.441     19.050     20.355
REMARK INTER + INTRA:          -7.556
REMARK INTER:                  -5.619
REMARK INTRA:                  -1.937
REMARK UNBOUND:                -2.203
REMARK SMILES COc1cc(CNC(=O)CCCCC=CC(C)C)ccc1O
REMARK SMILES IDX 11 1 12 2 13 3 14 4 15 5 16 6 17 7 18 8 10 9 8 10 9 11 7 12
REMARK SMILES IDX 6 14 5 15 4 16 19 17 3 18 20 19 21 20 2 21 1 22 22 23
REMARK H PARENT 7 13 22 24
REMARK Flexibility Score: inf
ROOT
ATOM      1  C   UNL     1     143.192 128.354 145.939  1.00  0.00     0.010 C 
ENDROOT
BRANCH   1   2
ATOM      2  C   UNL     1     141.699 128.692 145.781  1.00  0.00     0.005 C 
BRANCH   2   3
ATOM      3  C   UNL     1     141.455 130.082 145.175  1.00  0.00     0.027 C 
BRANCH   3   4
ATOM      4  C   UNL     1     141.424 130.019 143.673  1.00  0.00    -0.031 C 
ATOM      5  C   UNL     1     141.882 131.026 142.914  1.00  0.00    -0.028 C 
BRANCH   5   6
ATOM      6  C   UNL     1     141.876 130.938 141.406  1.00  0.00     0.005 C 
ATOM      7  C   UNL     1     142.511 132.190 140.793  1.00  0.00     0.012 C 
ATOM      8  C   UNL     1     140.449 130.749 140.880  1.00  0.00     0.012 C 
ENDBRANCH   5   6
ENDBRANCH   3   4
ENDBRANCH   2   3
ENDBRANCH   1   2
BRANCH   1   9
ATOM      9  C   UNL     1     143.622 127.025 145.291  1.00  0.00     0.100 C 
BRANCH   9  10
ATOM     10  C   UNL     1     144.538 127.233 144.118  1.00  0.00     0.220 C 
ATOM     11  O   UNL     1     145.643 126.627 144.081  1.00  0.00    -0.275 OA
ATOM     12  N   UNL     1     144.166 128.131 143.062  1.00  0.00    -0.352 N 
ATOM     13  H   UNL     1     143.204 128.543 143.065  1.00  0.00     0.163 HD
BRANCH  12  14
ATOM     14  C   UNL     1     145.125 128.658 142.094  1.00  0.00     0.151 C 
BRANCH  14  15
ATOM     15  C   UNL     1     145.500 130.065 142.469  1.00  0.00    -0.025 A 
ATOM     16  C   UNL     1     145.370 130.501 143.797  1.00  0.00     0.056 A 
ATOM     17  C   UNL     1     145.912 130.972 141.484  1.00  0.00     0.009 A 
ATOM     18  C   UNL     1     145.664 131.834 144.145  1.00  0.00     0.160 A 
ATOM     19  C   UNL     1     146.221 132.290 141.825  1.00  0.00     0.050 A 
ATOM     20  C   UNL     1     146.102 132.722 143.152  1.00  0.00     0.157 A 
BRANCH  18  21
ATOM     21  O   UNL     1     145.523 132.314 145.456  1.00  0.00    -0.493 OA
ATOM     22  C   UNL     1     144.276 132.493 146.118  1.00  0.00     0.278 C 
ENDBRANCH  18  21
BRANCH  20  23
ATOM     23  O   UNL     1     146.407 134.039 143.491  1.00  0.00    -0.504 OA
ATOM     24  H   UNL     1     147.315 134.296 143.860  1.00  0.00     0.293 HD
ENDBRANCH  20  23
ENDBRANCH  14  15
ENDBRANCH  12  14
ENDBRANCH   9  10
ENDBRANCH   1   9
TORSDOF 10
ENDMDL
MODEL 8
REMARK VINA RESULT:    -3.430     18.351     19.730
REMARK INTER + INTRA:          -7.537
REMARK INTER:                  -5.101
REMARK INTRA:                  -2.436
REMARK UNBOUND:                -2.203
REMARK SMILES COc1cc(CNC(=O)CCCCC=CC(C)C)ccc1O
REMARK SMILES IDX 11 1 12 2 13 3 14 4 15 5 16 6 17 7 18 8 10 9 8 10 9 11 7 12
REMARK SMILES IDX 6 14 5 15 4 16 19 17 3 18 20 19 21 20 2 21 1 22 22 23
REMARK H PARENT 7 13 22 24
REMARK Flexibility Score: inf
ROOT
ATOM      1  C   UNL     1     142.866 128.237 145.970  1.00  0.00     0.010 C 
ENDROOT
BRANCH   1   2
ATOM      2  C   UNL     1     141.713 128.441 144.971  1.00  0.00     0.005 C 
BRANCH   2   3
ATOM      3  C   UNL     1     141.347 129.919 144.765  1.00  0.00     0.027 C 
BRANCH   3   4
ATOM      4  C   UNL     1     142.522 130.811 145.056  1.00  0.00    -0.031 C 
ATOM      5  C   UNL     1     142.766 131.917 144.337  1.00  0.00    -0.028 C 
BRANCH   5   6
ATOM      6  C   UNL     1     143.930 132.824 144.659  1.00  0.00     0.005 C 
ATOM      7  C   UNL     1     143.900 134.072 143.772  1.00  0.00     0.012 C 
ATOM      8  C   UNL     1     145.259 132.079 144.491  1.00  0.00     0.012 C 
ENDBRANCH   5   6
ENDBRANCH   3   4
ENDBRANCH   2   3
ENDBRANCH   1   2
BRANCH   1   9
ATOM      9  C   UNL     1     144.010 127.345 145.456  1.00  0.00     0.100 C 
BRANCH   9  10
ATOM     10  C   UNL     1     144.859 128.041 144.430  1.00  0.00     0.220 C 
ATOM     11  O   UNL     1     145.793 128.797 144.810  1.00  0.00    -0.275 OA
ATOM     12  N   UNL     1     144.593 127.861 143.031  1.00  0.00    -0.352 N 
ATOM     13  H   UNL     1     143.881 127.151 142.740  1.00  0.00     0.163 HD
BRANCH  12  14
ATOM     14  C   UNL     1     145.116 128.756 142.003  1.00  0.00     0.151 C 
BRANCH  14  15
ATOM     15  C   UNL     1     144.024 129.671 141.526  1.00  0.00    -0.025 A 
ATOM     16  C   UNL     1     142.704 129.203 141.423  1.00  0.00     0.056 A 
ATOM     17  C   UNL     1     144.326 130.975 141.110  1.00  0.00     0.009 A 
ATOM     18  C   UNL     1     141.686 130.037 140.920  1.00  0.00     0.160 A 
ATOM     19  C   UNL     1     143.318 131.811 140.628  1.00  0.00     0.050 A 
ATOM     20  C   UNL     1     142.000 131.349 140.536  1.00  0.00     0.157 A 
BRANCH  18  21
ATOM     21  O   UNL     1     140.360 129.598 140.779  1.00  0.00    -0.493 OA
ATOM     22  C   UNL     1     139.755 128.593 141.584  1.00  0.00     0.278 C 
ENDBRANCH  18  21
BRANCH  20  23
ATOM     23  O   UNL     1     140.995 132.184 140.050  1.00  0.00    -0.504 OA
ATOM     24  H   UNL     1     140.978 133.174 140.264  1.00  0.00     0.293 HD
ENDBRANCH  20  23
ENDBRANCH  14  15
ENDBRANCH  12  14
ENDBRANCH   9  10
ENDBRANCH   1   9
TORSDOF 10
ENDMDL
MODEL 9
REMARK VINA RESULT:    -3.398      2.378      3.806
REMARK INTER + INTRA:          -7.487
REMARK INTER:                  -5.486
REMARK INTRA:                  -2.002
REMARK UNBOUND:                -2.203
REMARK SMILES COc1cc(CNC(=O)CCCCC=CC(C)C)ccc1O
REMARK SMILES IDX 11 1 12 2 13 3 14 4 15 5 16 6 17 7 18 8 10 9 8 10 9 11 7 12
REMARK SMILES IDX 6 14 5 15 4 16 19 17 3 18 20 19 21 20 2 21 1 22 22 23
REMARK H PARENT 7 13 22 24
REMARK Flexibility Score: inf
ROOT
ATOM      1  C   UNL     1     132.340 140.194 137.514  1.00  0.00     0.010 C 
ENDROOT
BRANCH   1   2
ATOM      2  C   UNL     1     132.501 141.252 138.620  1.00  0.00     0.005 C 
BRANCH   2   3
ATOM      3  C   UNL     1     133.342 142.460 138.181  1.00  0.00     0.027 C 
BRANCH   3   4
ATOM      4  C   UNL     1     132.470 143.551 137.624  1.00  0.00    -0.031 C 
ATOM      5  C   UNL     1     132.421 143.816 136.309  1.00  0.00    -0.028 C 
BRANCH   5   6
ATOM      6  C   UNL     1     131.517 144.893 135.757  1.00  0.00     0.005 C 
ATOM      7  C   UNL     1     132.333 146.125 135.355  1.00  0.00     0.012 C 
ATOM      8  C   UNL     1     130.440 145.273 136.780  1.00  0.00     0.012 C 
ENDBRANCH   5   6
ENDBRANCH   3   4
ENDBRANCH   2   3
ENDBRANCH   1   2
BRANCH   1   9
ATOM      9  C   UNL     1     130.882 139.866 137.146  1.00  0.00     0.100 C 
BRANCH   9  10
ATOM     10  C   UNL     1     130.253 140.938 136.301  1.00  0.00     0.220 C 
ATOM     11  O   UNL     1     129.474 141.772 136.837  1.00  0.00    -0.275 OA
ATOM     12  N   UNL     1     130.522 140.997 134.892  1.00  0.00    -0.352 N 
ATOM     13  H   UNL     1     131.248 140.360 134.490  1.00  0.00     0.163 HD
BRANCH  12  14
ATOM     14  C   UNL     1     129.695 141.756 133.958  1.00  0.00     0.151 C 
BRANCH  14  15
ATOM     15  C   UNL     1     130.571 142.614 133.089  1.00  0.00    -0.025 A 
ATOM     16  C   UNL     1     131.916 142.268 132.880  1.00  0.00     0.056 A 
ATOM     17  C   UNL     1     130.074 143.805 132.541  1.00  0.00     0.009 A 
ATOM     18  C   UNL     1     132.759 143.100 132.116  1.00  0.00     0.160 A 
ATOM     19  C   UNL     1     130.899 144.623 131.769  1.00  0.00     0.050 A 
ATOM     20  C   UNL     1     132.237 144.272 131.551  1.00  0.00     0.157 A 
BRANCH  18  21
ATOM     21  O   UNL     1     134.113 142.801 131.906  1.00  0.00    -0.493 OA
ATOM     22  C   UNL     1     134.594 141.571 131.375  1.00  0.00     0.278 C 
ENDBRANCH  18  21
BRANCH  20  23
ATOM     23  O   UNL     1     133.061 145.092 130.783  1.00  0.00    -0.504 OA
ATOM     24  H   UNL     1     133.379 144.813 129.862  1.00  0.00     0.293 HD
ENDBRANCH  20  23
ENDBRANCH  14  15
ENDBRANCH  12  14
ENDBRANCH   9  10
ENDBRANCH   1   9
TORSDOF 10
ENDMDL
