MODEL 1
REMARK VINA RESULT:    -3.864      0.000      0.000
REMARK INTER + INTRA:          -8.530
REMARK INTER:                  -6.801
REMARK INTRA:                  -1.728
REMARK UNBOUND:                -1.728
REMARK SMILES CCCCCCCCCCCCCCC(=O)[O-]
REMARK SMILES IDX 9 1 10 2 11 3 12 4 13 5 14 6 15 7 16 8 17 9 8 10 7 11 6 12
REMARK SMILES IDX 5 13 4 14 3 15 2 16 1 17
REMARK H PARENT
REMARK Flexibility Score: inf
ROOT
ATOM      1  C   UNL     1      24.448 -16.564   3.749  1.00  0.00     0.000 C 
ENDROOT
BRANCH   1   2
ATOM      2  C   UNL     1      24.680 -16.080   5.193  1.00  0.00     0.000 C 
BRANCH   2   3
ATOM      3  C   UNL     1      24.846 -14.556   5.292  1.00  0.00     0.000 C 
BRANCH   3   4
ATOM      4  C   UNL     1      23.736 -13.888   6.121  1.00  0.00     0.000 C 
BRANCH   4   5
ATOM      5  C   UNL     1      22.318 -14.399   5.785  1.00  0.00     0.006 C 
BRANCH   5   6
ATOM      6  C   UNL     1      21.412 -14.448   7.023  1.00  0.00     0.053 C 
BRANCH   6   7
ATOM      7  C   UNL     1      21.730 -15.646   7.859  1.00  0.00     0.041 C 
ATOM      8  O   UNL     1      21.775 -15.550   9.113  1.00  0.00    -0.550 OA
ATOM      9  O   UNL     1      21.932 -16.880   7.255  1.00  0.00    -0.550 OA
ENDBRANCH   6   7
ENDBRANCH   5   6
ENDBRANCH   4   5
ENDBRANCH   3   4
ENDBRANCH   2   3
ENDBRANCH   1   2
BRANCH   1  10
ATOM     10  C   UNL     1      23.029 -17.088   3.452  1.00  0.00     0.000 C 
BRANCH  10  11
ATOM     11  C   UNL     1      22.569 -16.947   1.988  1.00  0.00    -0.000 C 
BRANCH  11  12
ATOM     12  C   UNL     1      21.375 -16.001   1.767  1.00  0.00    -0.000 C 
BRANCH  12  13
ATOM     13  C   UNL     1      21.667 -14.559   2.216  1.00  0.00    -0.000 C 
BRANCH  13  14
ATOM     14  C   UNL     1      21.751 -13.580   1.034  1.00  0.00    -0.000 C 
BRANCH  14  15
ATOM     15  C   UNL     1      23.106 -12.861   0.956  1.00  0.00    -0.000 C 
BRANCH  15  16
ATOM     16  C   UNL     1      23.787 -12.824   2.329  1.00  0.00    -0.003 C 
ATOM     17  C   UNL     1      24.566 -11.527   2.522  1.00  0.00     0.004 C 
ENDBRANCH  15  16
ENDBRANCH  14  15
ENDBRANCH  13  14
ENDBRANCH  12  13
ENDBRANCH  11  12
ENDBRANCH  10  11
ENDBRANCH   1  10
TORSDOF 13
ENDMDL
MODEL 2
REMARK VINA RESULT:    -3.860      1.437      3.690
REMARK INTER + INTRA:          -8.522
REMARK INTER:                  -6.623
REMARK INTRA:                  -1.899
REMARK UNBOUND:                -1.728
REMARK SMILES CCCCCCCCCCCCCCC(=O)[O-]
REMARK SMILES IDX 9 1 10 2 11 3 12 4 13 5 14 6 15 7 16 8 17 9 8 10 7 11 6 12
REMARK SMILES IDX 5 13 4 14 3 15 2 16 1 17
REMARK H PARENT
REMARK Flexibility Score: inf
ROOT
ATOM      1  C   UNL     1      21.950 -15.191   1.501  1.00  0.00     0.000 C 
ENDROOT
BRANCH   1   2
ATOM      2  C   UNL     1      21.458 -16.091   2.650  1.00  0.00     0.000 C 
BRANCH   2   3
ATOM      3  C   UNL     1      21.673 -15.463   4.036  1.00  0.00     0.000 C 
BRANCH   3   4
ATOM      4  C   UNL     1      21.148 -16.348   5.179  1.00  0.00     0.000 C 
BRANCH   4   5
ATOM      5  C   UNL     1      21.585 -15.874   6.581  1.00  0.00     0.006 C 
BRANCH   5   6
ATOM      6  C   UNL     1      21.781 -14.353   6.645  1.00  0.00     0.053 C 
BRANCH   6   7
ATOM      7  C   UNL     1      21.709 -13.875   8.060  1.00  0.00     0.041 C 
ATOM      8  O   UNL     1      21.702 -12.642   8.312  1.00  0.00    -0.550 OA
ATOM      9  O   UNL     1      21.605 -14.790   9.098  1.00  0.00    -0.550 OA
ENDBRANCH   6   7
ENDBRANCH   5   6
ENDBRANCH   4   5
ENDBRANCH   3   4
ENDBRANCH   2   3
ENDBRANCH   1   2
BRANCH   1  10
ATOM     10  C   UNL     1      21.841 -13.676   1.761  1.00  0.00     0.000 C 
BRANCH  10  11
ATOM     11  C   UNL     1      23.100 -12.856   1.414  1.00  0.00    -0.000 C 
BRANCH  11  12
ATOM     12  C   UNL     1      24.427 -13.632   1.495  1.00  0.00    -0.000 C 
BRANCH  12  13
ATOM     13  C   UNL     1      25.305 -13.189   2.677  1.00  0.00    -0.000 C 
BRANCH  13  14
ATOM     14  C   UNL     1      24.524 -13.120   3.998  1.00  0.00    -0.000 C 
BRANCH  14  15
ATOM     15  C   UNL     1      25.105 -14.046   5.078  1.00  0.00    -0.000 C 
BRANCH  15  16
ATOM     16  C   UNL     1      25.249 -15.478   4.552  1.00  0.00    -0.003 C 
ATOM     17  C   UNL     1      25.020 -16.498   5.664  1.00  0.00     0.004 C 
ENDBRANCH  15  16
ENDBRANCH  14  15
ENDBRANCH  13  14
ENDBRANCH  12  13
ENDBRANCH  11  12
ENDBRANCH  10  11
ENDBRANCH   1  10
TORSDOF 13
ENDMDL
MODEL 3
REMARK VINA RESULT:    -3.784      1.592      3.530
REMARK INTER + INTRA:          -8.387
REMARK INTER:                  -6.348
REMARK INTRA:                  -2.040
REMARK UNBOUND:                -1.728
REMARK SMILES CCCCCCCCCCCCCCC(=O)[O-]
REMARK SMILES IDX 9 1 10 2 11 3 12 4 13 5 14 6 15 7 16 8 17 9 8 10 7 11 6 12
REMARK SMILES IDX 5 13 4 14 3 15 2 16 1 17
REMARK H PARENT
REMARK Flexibility Score: inf
ROOT
ATOM      1  C   UNL     1      21.500 -15.146   1.556  1.00  0.00     0.000 C 
ENDROOT
BRANCH   1   2
ATOM      2  C   UNL     1      21.674 -16.253   2.613  1.00  0.00     0.000 C 
BRANCH   2   3
ATOM      3  C   UNL     1      21.675 -15.712   4.051  1.00  0.00     0.000 C 
BRANCH   3   4
ATOM      4  C   UNL     1      22.927 -16.127   4.842  1.00  0.00     0.000 C 
BRANCH   4   5
ATOM      5  C   UNL     1      23.183 -15.264   6.096  1.00  0.00     0.006 C 
BRANCH   5   6
ATOM      6  C   UNL     1      22.089 -14.207   6.306  1.00  0.00     0.053 C 
BRANCH   6   7
ATOM      7  C   UNL     1      21.819 -14.015   7.764  1.00  0.00     0.041 C 
ATOM      8  O   UNL     1      21.525 -12.875   8.209  1.00  0.00    -0.550 OA
ATOM      9  O   UNL     1      21.848 -15.104   8.625  1.00  0.00    -0.550 OA
ENDBRANCH   6   7
ENDBRANCH   5   6
ENDBRANCH   4   5
ENDBRANCH   3   4
ENDBRANCH   2   3
ENDBRANCH   1   2
BRANCH   1  10
ATOM     10  C   UNL     1      21.856 -13.723   2.031  1.00  0.00     0.000 C 
BRANCH  10  11
ATOM     11  C   UNL     1      22.879 -12.974   1.155  1.00  0.00    -0.000 C 
BRANCH  11  12
ATOM     12  C   UNL     1      24.313 -12.937   1.713  1.00  0.00    -0.000 C 
BRANCH  12  13
ATOM     13  C   UNL     1      24.361 -13.090   3.243  1.00  0.00    -0.000 C 
BRANCH  13  14
ATOM     14  C   UNL     1      25.659 -13.752   3.729  1.00  0.00    -0.000 C 
BRANCH  14  15
ATOM     15  C   UNL     1      26.228 -13.087   4.991  1.00  0.00    -0.000 C 
BRANCH  15  16
ATOM     16  C   UNL     1      25.301 -11.972   5.487  1.00  0.00    -0.003 C 
ATOM     17  C   UNL     1      25.091 -12.061   6.996  1.00  0.00     0.004 C 
ENDBRANCH  15  16
ENDBRANCH  14  15
ENDBRANCH  13  14
ENDBRANCH  12  13
ENDBRANCH  11  12
ENDBRANCH  10  11
ENDBRANCH   1  10
TORSDOF 13
ENDMDL
MODEL 4
REMARK VINA RESULT:    -3.702      2.994      4.677
REMARK INTER + INTRA:          -8.244
REMARK INTER:                  -6.936
REMARK INTRA:                  -1.309
REMARK UNBOUND:                -1.728
REMARK SMILES CCCCCCCCCCCCCCC(=O)[O-]
REMARK SMILES IDX 9 1 10 2 11 3 12 4 13 5 14 6 15 7 16 8 17 9 8 10 7 11 6 12
REMARK SMILES IDX 5 13 4 14 3 15 2 16 1 17
REMARK H PARENT
REMARK Flexibility Score: inf
ROOT
ATOM      1  C   UNL     1      24.828 -12.627   2.011  1.00  0.00     0.000 C 
ENDROOT
BRANCH   1   2
ATOM      2  C   UNL     1      24.676 -12.300   3.508  1.00  0.00     0.000 C 
BRANCH   2   3
ATOM      3  C   UNL     1      25.036 -13.485   4.418  1.00  0.00     0.000 C 
BRANCH   3   4
ATOM      4  C   UNL     1      24.661 -13.241   5.890  1.00  0.00     0.000 C 
BRANCH   4   5
ATOM      5  C   UNL     1      25.420 -12.063   6.537  1.00  0.00     0.006 C 
BRANCH   5   6
ATOM      6  C   UNL     1      24.737 -11.568   7.819  1.00  0.00     0.053 C 
BRANCH   6   7
ATOM      7  C   UNL     1      24.752 -10.074   7.876  1.00  0.00     0.041 C 
ATOM      8  O   UNL     1      23.727  -9.443   8.242  1.00  0.00    -0.550 OA
ATOM      9  O   UNL     1      25.914  -9.379   7.569  1.00  0.00    -0.550 OA
ENDBRANCH   6   7
ENDBRANCH   5   6
ENDBRANCH   4   5
ENDBRANCH   3   4
ENDBRANCH   2   3
ENDBRANCH   1   2
BRANCH   1  10
ATOM     10  C   UNL     1      23.734 -12.040   1.097  1.00  0.00     0.000 C 
BRANCH  10  11
ATOM     11  C   UNL     1      22.506 -12.945   0.876  1.00  0.00    -0.000 C 
BRANCH  11  12
ATOM     12  C   UNL     1      22.795 -14.457   0.906  1.00  0.00    -0.000 C 
BRANCH  12  13
ATOM     13  C   UNL     1      21.775 -15.240   1.750  1.00  0.00    -0.000 C 
BRANCH  13  14
ATOM     14  C   UNL     1      21.875 -14.913   3.248  1.00  0.00    -0.000 C 
BRANCH  14  15
ATOM     15  C   UNL     1      22.055 -16.167   4.118  1.00  0.00    -0.000 C 
BRANCH  15  16
ATOM     16  C   UNL     1      21.215 -16.072   5.396  1.00  0.00    -0.003 C 
ATOM     17  C   UNL     1      21.474 -14.759   6.129  1.00  0.00     0.004 C 
ENDBRANCH  15  16
ENDBRANCH  14  15
ENDBRANCH  13  14
ENDBRANCH  12  13
ENDBRANCH  11  12
ENDBRANCH  10  11
ENDBRANCH   1  10
TORSDOF 13
ENDMDL
MODEL 5
REMARK VINA RESULT:    -3.695      2.506      4.607
REMARK INTER + INTRA:          -8.232
REMARK INTER:                  -6.130
REMARK INTRA:                  -2.102
REMARK UNBOUND:                -1.728
REMARK SMILES CCCCCCCCCCCCCCC(=O)[O-]
REMARK SMILES IDX 9 1 10 2 11 3 12 4 13 5 14 6 15 7 16 8 17 9 8 10 7 11 6 12
REMARK SMILES IDX 5 13 4 14 3 15 2 16 1 17
REMARK H PARENT
REMARK Flexibility Score: inf
ROOT
ATOM      1  C   UNL     1      22.806 -13.235   0.935  1.00  0.00     0.000 C 
ENDROOT
BRANCH   1   2
ATOM      2  C   UNL     1      23.731 -12.855   2.107  1.00  0.00     0.000 C 
BRANCH   2   3
ATOM      3  C   UNL     1      25.073 -13.601   2.076  1.00  0.00     0.000 C 
BRANCH   3   4
ATOM      4  C   UNL     1      25.894 -13.402   3.361  1.00  0.00     0.000 C 
BRANCH   4   5
ATOM      5  C   UNL     1      25.306 -12.341   4.316  1.00  0.00     0.006 C 
BRANCH   5   6
ATOM      6  C   UNL     1      25.589 -12.667   5.789  1.00  0.00     0.053 C 
BRANCH   6   7
ATOM      7  C   UNL     1      25.267 -11.492   6.656  1.00  0.00     0.041 C 
ATOM      8  O   UNL     1      25.538 -10.325   6.269  1.00  0.00    -0.550 OA
ATOM      9  O   UNL     1      24.625 -11.682   7.872  1.00  0.00    -0.550 OA
ENDBRANCH   6   7
ENDBRANCH   5   6
ENDBRANCH   4   5
ENDBRANCH   3   4
ENDBRANCH   2   3
ENDBRANCH   1   2
BRANCH   1  10
ATOM     10  C   UNL     1      21.517 -13.981   1.332  1.00  0.00     0.000 C 
BRANCH  10  11
ATOM     11  C   UNL     1      21.684 -15.490   1.595  1.00  0.00    -0.000 C 
BRANCH  11  12
ATOM     12  C   UNL     1      21.538 -15.917   3.067  1.00  0.00    -0.000 C 
BRANCH  12  13
ATOM     13  C   UNL     1      22.859 -16.414   3.677  1.00  0.00    -0.000 C 
BRANCH  13  14
ATOM     14  C   UNL     1      23.276 -15.608   4.917  1.00  0.00    -0.000 C 
BRANCH  14  15
ATOM     15  C   UNL     1      22.356 -14.407   5.180  1.00  0.00    -0.000 C 
BRANCH  15  16
ATOM     16  C   UNL     1      22.130 -14.209   6.683  1.00  0.00    -0.003 C 
ATOM     17  C   UNL     1      21.045 -15.147   7.204  1.00  0.00     0.004 C 
ENDBRANCH  15  16
ENDBRANCH  14  15
ENDBRANCH  13  14
ENDBRANCH  12  13
ENDBRANCH  11  12
ENDBRANCH  10  11
ENDBRANCH   1  10
TORSDOF 13
ENDMDL
MODEL 6
REMARK VINA RESULT:    -3.657      1.430      2.570
REMARK INTER + INTRA:          -8.164
REMARK INTER:                  -6.513
REMARK INTRA:                  -1.651
REMARK UNBOUND:                -1.728
REMARK SMILES CCCCCCCCCCCCCCC(=O)[O-]
REMARK SMILES IDX 9 1 10 2 11 3 12 4 13 5 14 6 15 7 16 8 17 9 8 10 7 11 6 12
REMARK SMILES IDX 5 13 4 14 3 15 2 16 1 17
REMARK H PARENT
REMARK Flexibility Score: inf
ROOT
ATOM      1  C   UNL     1      22.447 -16.488   2.848  1.00  0.00     0.000 C 
ENDROOT
BRANCH   1   2
ATOM      2  C   UNL     1      23.696 -15.852   3.486  1.00  0.00     0.000 C 
BRANCH   2   3
ATOM      3  C   UNL     1      23.544 -15.620   4.997  1.00  0.00     0.000 C 
BRANCH   3   4
ATOM      4  C   UNL     1      22.440 -16.488   5.624  1.00  0.00     0.000 C 
BRANCH   4   5
ATOM      5  C   UNL     1      21.307 -15.671   6.282  1.00  0.00     0.006 C 
BRANCH   5   6
ATOM      6  C   UNL     1      21.774 -14.274   6.713  1.00  0.00     0.053 C 
BRANCH   6   7
ATOM      7  C   UNL     1      21.553 -14.077   8.179  1.00  0.00     0.041 C 
ATOM      8  O   UNL     1      21.498 -15.070   8.950  1.00  0.00    -0.550 OA
ATOM      9  O   UNL     1      21.454 -12.794   8.700  1.00  0.00    -0.550 OA
ENDBRANCH   6   7
ENDBRANCH   5   6
ENDBRANCH   4   5
ENDBRANCH   3   4
ENDBRANCH   2   3
ENDBRANCH   1   2
BRANCH   1  10
ATOM     10  C   UNL     1      21.702 -15.598   1.834  1.00  0.00     0.000 C 
BRANCH  10  11
ATOM     11  C   UNL     1      21.804 -14.082   2.090  1.00  0.00    -0.000 C 
BRANCH  11  12
ATOM     12  C   UNL     1      22.242 -13.243   0.875  1.00  0.00    -0.000 C 
BRANCH  12  13
ATOM     13  C   UNL     1      23.747 -12.926   0.882  1.00  0.00    -0.000 C 
BRANCH  13  14
ATOM     14  C   UNL     1      24.104 -11.780   1.841  1.00  0.00    -0.000 C 
BRANCH  14  15
ATOM     15  C   UNL     1      24.755 -12.276   3.141  1.00  0.00    -0.000 C 
BRANCH  15  16
ATOM     16  C   UNL     1      26.050 -13.041   2.847  1.00  0.00    -0.003 C 
ATOM     17  C   UNL     1      26.855 -13.272   4.122  1.00  0.00     0.004 C 
ENDBRANCH  15  16
ENDBRANCH  14  15
ENDBRANCH  13  14
ENDBRANCH  12  13
ENDBRANCH  11  12
ENDBRANCH  10  11
ENDBRANCH   1  10
TORSDOF 13
ENDMDL
MODEL 7
REMARK VINA RESULT:    -3.641     12.922     15.395
REMARK INTER + INTRA:          -8.137
REMARK INTER:                  -6.567
REMARK INTRA:                  -1.570
REMARK UNBOUND:                -1.728
REMARK SMILES CCCCCCCCCCCCCCC(=O)[O-]
REMARK SMILES IDX 9 1 10 2 11 3 12 4 13 5 14 6 15 7 16 8 17 9 8 10 7 11 6 12
REMARK SMILES IDX 5 13 4 14 3 15 2 16 1 17
REMARK H PARENT
REMARK Flexibility Score: inf
ROOT
ATOM      1  C   UNL     1      25.094   0.026  10.657  1.00  0.00     0.000 C 
ENDROOT
BRANCH   1   2
ATOM      2  C   UNL     1      23.825   0.388   9.862  1.00  0.00     0.000 C 
BRANCH   2   3
ATOM      3  C   UNL     1      22.949  -0.834   9.546  1.00  0.00     0.000 C 
BRANCH   3   4
ATOM      4  C   UNL     1      23.397  -2.099  10.297  1.00  0.00     0.000 C 
BRANCH   4   5
ATOM      5  C   UNL     1      23.273  -3.392   9.463  1.00  0.00     0.006 C 
BRANCH   5   6
ATOM      6  C   UNL     1      24.479  -3.602   8.537  1.00  0.00     0.053 C 
BRANCH   6   7
ATOM      7  C   UNL     1      24.218  -4.726   7.585  1.00  0.00     0.041 C 
ATOM      8  O   UNL     1      24.774  -4.743   6.457  1.00  0.00    -0.550 OA
ATOM      9  O   UNL     1      23.396  -5.779   7.963  1.00  0.00    -0.550 OA
ENDBRANCH   6   7
ENDBRANCH   5   6
ENDBRANCH   4   5
ENDBRANCH   3   4
ENDBRANCH   2   3
ENDBRANCH   1   2
BRANCH   1  10
ATOM     10  C   UNL     1      26.425   0.294   9.928  1.00  0.00     0.000 C 
BRANCH  10  11
ATOM     11  C   UNL     1      27.186  -0.962   9.463  1.00  0.00    -0.000 C 
BRANCH  11  12
ATOM     12  C   UNL     1      27.154  -2.146  10.447  1.00  0.00    -0.000 C 
BRANCH  12  13
ATOM     13  C   UNL     1      28.515  -2.852  10.572  1.00  0.00    -0.000 C 
BRANCH  13  14
ATOM     14  C   UNL     1      29.076  -2.801  12.002  1.00  0.00    -0.000 C 
BRANCH  14  15
ATOM     15  C   UNL     1      29.988  -1.588  12.238  1.00  0.00    -0.000 C 
BRANCH  15  16
ATOM     16  C   UNL     1      29.170  -0.362  12.660  1.00  0.00    -0.003 C 
ATOM     17  C   UNL     1      29.699   0.907  12.000  1.00  0.00     0.004 C 
ENDBRANCH  15  16
ENDBRANCH  14  15
ENDBRANCH  13  14
ENDBRANCH  12  13
ENDBRANCH  11  12
ENDBRANCH  10  11
ENDBRANCH   1  10
TORSDOF 13
ENDMDL
MODEL 8
REMARK VINA RESULT:    -3.594      2.741      5.399
REMARK INTER + INTRA:          -8.054
REMARK INTER:                  -6.425
REMARK INTRA:                  -1.629
REMARK UNBOUND:                -1.728
REMARK SMILES CCCCCCCCCCCCCCC(=O)[O-]
REMARK SMILES IDX 9 1 10 2 11 3 12 4 13 5 14 6 15 7 16 8 17 9 8 10 7 11 6 12
REMARK SMILES IDX 5 13 4 14 3 15 2 16 1 17
REMARK H PARENT
REMARK Flexibility Score: inf
ROOT
ATOM      1  C   UNL     1      21.646 -16.063   2.154  1.00  0.00     0.000 C 
ENDROOT
BRANCH   1   2
ATOM      2  C   UNL     1      21.667 -14.539   2.380  1.00  0.00     0.000 C 
BRANCH   2   3
ATOM      3  C   UNL     1      21.806 -13.744   1.073  1.00  0.00     0.000 C 
BRANCH   3   4
ATOM      4  C   UNL     1      23.154 -13.011   0.962  1.00  0.00     0.000 C 
BRANCH   4   5
ATOM      5  C   UNL     1      23.802 -12.695   2.327  1.00  0.00     0.006 C 
BRANCH   5   6
ATOM      6  C   UNL     1      24.538 -11.349   2.322  1.00  0.00     0.053 C 
BRANCH   6   7
ATOM      7  C   UNL     1      25.292 -11.159   3.599  1.00  0.00     0.041 C 
ATOM      8  O   UNL     1      25.647 -12.156   4.279  1.00  0.00    -0.550 OA
ATOM      9  O   UNL     1      25.642  -9.881   4.015  1.00  0.00    -0.550 OA
ENDBRANCH   6   7
ENDBRANCH   5   6
ENDBRANCH   4   5
ENDBRANCH   3   4
ENDBRANCH   2   3
ENDBRANCH   1   2
BRANCH   1  10
ATOM     10  C   UNL     1      23.023 -16.754   2.208  1.00  0.00     0.000 C 
BRANCH  10  11
ATOM     11  C   UNL     1      24.003 -16.188   3.253  1.00  0.00    -0.000 C 
BRANCH  11  12
ATOM     12  C   UNL     1      23.700 -16.579   4.711  1.00  0.00    -0.000 C 
BRANCH  12  13
ATOM     13  C   UNL     1      23.994 -15.444   5.706  1.00  0.00    -0.000 C 
BRANCH  13  14
ATOM     14  C   UNL     1      22.886 -14.380   5.730  1.00  0.00    -0.000 C 
BRANCH  14  15
ATOM     15  C   UNL     1      21.506 -14.968   6.064  1.00  0.00    -0.000 C 
BRANCH  15  16
ATOM     16  C   UNL     1      21.207 -14.846   7.562  1.00  0.00    -0.003 C 
ATOM     17  C   UNL     1      21.615 -13.475   8.094  1.00  0.00     0.004 C 
ENDBRANCH  15  16
ENDBRANCH  14  15
ENDBRANCH  13  14
ENDBRANCH  12  13
ENDBRANCH  11  12
ENDBRANCH  10  11
ENDBRANCH   1  10
TORSDOF 13
ENDMDL
MODEL 9
REMARK VINA RESULT:    -3.543      1.130      2.416
REMARK INTER + INTRA:          -7.964
REMARK INTER:                  -6.306
REMARK INTRA:                  -1.658
REMARK UNBOUND:                -1.728
REMARK SMILES CCCCCCCCCCCCCCC(=O)[O-]
REMARK SMILES IDX 9 1 10 2 11 3 12 4 13 5 14 6 15 7 16 8 17 9 8 10 7 11 6 12
REMARK SMILES IDX 5 13 4 14 3 15 2 16 1 17
REMARK H PARENT
REMARK Flexibility Score: inf
ROOT
ATOM      1  C   UNL     1      22.829 -16.655   2.037  1.00  0.00     0.000 C 
ENDROOT
BRANCH   1   2
ATOM      2  C   UNL     1      24.055 -16.248   2.876  1.00  0.00     0.000 C 
BRANCH   2   3
ATOM      3  C   UNL     1      23.849 -16.472   4.382  1.00  0.00     0.000 C 
BRANCH   3   4
ATOM      4  C   UNL     1      24.496 -15.372   5.241  1.00  0.00     0.000 C 
BRANCH   4   5
ATOM      5  C   UNL     1      23.489 -14.330   5.776  1.00  0.00     0.006 C 
BRANCH   5   6
ATOM      6  C   UNL     1      22.168 -14.974   6.217  1.00  0.00     0.053 C 
BRANCH   6   7
ATOM      7  C   UNL     1      21.802 -14.525   7.596  1.00  0.00     0.041 C 
ATOM      8  O   UNL     1      21.855 -15.332   8.560  1.00  0.00    -0.550 OA
ATOM      9  O   UNL     1      21.444 -13.203   7.824  1.00  0.00    -0.550 OA
ENDBRANCH   6   7
ENDBRANCH   5   6
ENDBRANCH   4   5
ENDBRANCH   3   4
ENDBRANCH   2   3
ENDBRANCH   1   2
BRANCH   1  10
ATOM     10  C   UNL     1      21.584 -15.763   2.217  1.00  0.00     0.000 C 
BRANCH  10  11
ATOM     11  C   UNL     1      21.868 -14.252   2.325  1.00  0.00    -0.000 C 
BRANCH  11  12
ATOM     12  C   UNL     1      22.250 -13.563   1.002  1.00  0.00    -0.000 C 
BRANCH  12  13
ATOM     13  C   UNL     1      23.519 -12.703   1.124  1.00  0.00    -0.000 C 
BRANCH  13  14
ATOM     14  C   UNL     1      24.004 -12.570   2.576  1.00  0.00    -0.000 C 
BRANCH  14  15
ATOM     15  C   UNL     1      24.898 -11.339   2.792  1.00  0.00    -0.000 C 
BRANCH  15  16
ATOM     16  C   UNL     1      24.574 -10.242   1.773  1.00  0.00    -0.003 C 
ATOM     17  C   UNL     1      25.774  -9.951   0.878  1.00  0.00     0.004 C 
ENDBRANCH  15  16
ENDBRANCH  14  15
ENDBRANCH  13  14
ENDBRANCH  12  13
ENDBRANCH  11  12
ENDBRANCH  10  11
ENDBRANCH   1  10
TORSDOF 13
ENDMDL
