MODEL 1
REMARK VINA RESULT:    -4.178      0.000      0.000
REMARK INTER + INTRA:          -6.821
REMARK INTER:                  -5.888
REMARK INTRA:                  -0.933
REMARK UNBOUND:                -0.933
REMARK SMILES CC(=O)OCC[C@@H](C)CCC=C(C)C
REMARK SMILES IDX 8 1 7 2 9 3 10 4 11 5 12 6 13 7 14 8 6 9 5 10 4 11 2 12 3 13
REMARK SMILES IDX 1 14
REMARK H PARENT
REMARK Flexibility Score: inf
ROOT
ATOM      1  C   UNL     1       2.040 -21.694 -11.381  1.00  0.00     0.008 C 
ATOM      2  C   UNL     1       0.566 -21.670 -11.830  1.00  0.00    -0.011 C 
ENDROOT
BRANCH   2   3
ATOM      3  C   UNL     1      -0.264 -22.819 -11.196  1.00  0.00     0.007 C 
BRANCH   3   4
ATOM      4  C   UNL     1       0.396 -23.589 -10.033  1.00  0.00     0.027 C 
BRANCH   4   5
ATOM      5  C   UNL     1      -0.578 -24.396  -9.212  1.00  0.00    -0.028 C 
ATOM      6  C   UNL     1      -0.473 -25.722  -8.968  1.00  0.00    -0.080 C 
ATOM      7  C   UNL     1       0.639 -26.563  -9.548  1.00  0.00     0.039 C 
ATOM      8  C   UNL     1      -1.528 -26.376  -8.114  1.00  0.00     0.039 C 
ENDBRANCH   4   5
ENDBRANCH   3   4
ENDBRANCH   2   3
BRANCH   2   9
ATOM      9  C   UNL     1      -0.087 -20.284 -11.611  1.00  0.00     0.045 C 
BRANCH   9  10
ATOM     10  C   UNL     1       0.757 -19.345 -10.745  1.00  0.00     0.233 C 
BRANCH  10  11
ATOM     11  O   UNL     1       0.146 -19.170  -9.469  1.00  0.00    -0.466 OA
BRANCH  11  12
ATOM     12  C   UNL     1       0.007 -20.214  -8.551  1.00  0.00     0.302 C 
ATOM     13  O   UNL     1       1.017 -20.709  -7.980  1.00  0.00    -0.253 OA
ATOM     14  C   UNL     1      -1.354 -20.713  -8.206  1.00  0.00     0.139 C 
ENDBRANCH  11  12
ENDBRANCH  10  11
ENDBRANCH   9  10
ENDBRANCH   2   9
TORSDOF 7
ENDMDL
MODEL 2
REMARK VINA RESULT:    -4.110      3.881      7.034
REMARK INTER + INTRA:          -6.725
REMARK INTER:                  -6.093
REMARK INTRA:                  -0.632
REMARK UNBOUND:                -0.933
REMARK SMILES CC(=O)OCC[C@@H](C)CCC=C(C)C
REMARK SMILES IDX 8 1 7 2 9 3 10 4 11 5 12 6 13 7 14 8 6 9 5 10 4 11 2 12 3 13
REMARK SMILES IDX 1 14
REMARK H PARENT
REMARK Flexibility Score: inf
ROOT
ATOM      1  C   UNL     1      -2.120 -24.460  -7.213  1.00  0.00     0.008 C 
ATOM      2  C   UNL     1      -1.956 -25.920  -7.673  1.00  0.00    -0.011 C 
ENDROOT
BRANCH   2   3
ATOM      3  C   UNL     1      -0.723 -26.115  -8.597  1.00  0.00     0.007 C 
BRANCH   3   4
ATOM      4  C   UNL     1      -0.618 -25.176  -9.816  1.00  0.00     0.027 C 
BRANCH   4   5
ATOM      5  C   UNL     1       0.630 -24.328  -9.822  1.00  0.00    -0.028 C 
ATOM      6  C   UNL     1       0.649 -22.978  -9.884  1.00  0.00    -0.080 C 
ATOM      7  C   UNL     1      -0.614 -22.158 -10.004  1.00  0.00     0.039 C 
ATOM      8  C   UNL     1       1.985 -22.281  -9.866  1.00  0.00     0.039 C 
ENDBRANCH   4   5
ENDBRANCH   3   4
ENDBRANCH   2   3
BRANCH   2   9
ATOM      9  C   UNL     1      -1.961 -26.911  -6.484  1.00  0.00     0.045 C 
BRANCH   9  10
ATOM     10  C   UNL     1      -2.035 -28.378  -6.916  1.00  0.00     0.233 C 
BRANCH  10  11
ATOM     11  O   UNL     1      -0.783 -29.021  -6.692  1.00  0.00    -0.466 OA
BRANCH  11  12
ATOM     12  C   UNL     1       0.126 -29.279  -7.721  1.00  0.00     0.302 C 
ATOM     13  O   UNL     1       1.329 -28.909  -7.627  1.00  0.00    -0.253 OA
ATOM     14  C   UNL     1      -0.319 -30.044  -8.920  1.00  0.00     0.139 C 
ENDBRANCH  11  12
ENDBRANCH  10  11
ENDBRANCH   9  10
ENDBRANCH   2   9
TORSDOF 7
ENDMDL
MODEL 3
REMARK VINA RESULT:    -4.070      3.603      6.697
REMARK INTER + INTRA:          -6.669
REMARK INTER:                  -6.105
REMARK INTRA:                  -0.564
REMARK UNBOUND:                -0.933
REMARK SMILES CC(=O)OCC[C@@H](C)CCC=C(C)C
REMARK SMILES IDX 8 1 7 2 9 3 10 4 11 5 12 6 13 7 14 8 6 9 5 10 4 11 2 12 3 13
REMARK SMILES IDX 1 14
REMARK H PARENT
REMARK Flexibility Score: inf
ROOT
ATOM      1  C   UNL     1      -1.444 -26.665 -10.462  1.00  0.00     0.008 C 
ATOM      2  C   UNL     1      -0.626 -25.847  -9.445  1.00  0.00    -0.011 C 
ENDROOT
BRANCH   2   3
ATOM      3  C   UNL     1      -0.243 -24.443  -9.986  1.00  0.00     0.007 C 
BRANCH   3   4
ATOM      4  C   UNL     1       1.230 -24.016  -9.820  1.00  0.00     0.027 C 
BRANCH   4   5
ATOM      5  C   UNL     1       1.399 -22.580  -9.387  1.00  0.00    -0.028 C 
ATOM      6  C   UNL     1       1.659 -21.547 -10.219  1.00  0.00    -0.080 C 
ATOM      7  C   UNL     1       1.857 -21.737 -11.705  1.00  0.00     0.039 C 
ATOM      8  C   UNL     1       1.786 -20.168  -9.626  1.00  0.00     0.039 C 
ENDBRANCH   4   5
ENDBRANCH   3   4
ENDBRANCH   2   3
BRANCH   2   9
ATOM      9  C   UNL     1      -1.318 -25.776  -8.062  1.00  0.00     0.045 C 
BRANCH   9  10
ATOM     10  C   UNL     1      -2.001 -27.085  -7.658  1.00  0.00     0.233 C 
BRANCH  10  11
ATOM     11  O   UNL     1      -1.162 -27.827  -6.778  1.00  0.00    -0.466 OA
BRANCH  11  12
ATOM     12  C   UNL     1      -0.471 -28.973  -7.182  1.00  0.00     0.302 C 
ATOM     13  O   UNL     1      -1.010 -30.111  -7.106  1.00  0.00    -0.253 OA
ATOM     14  C   UNL     1       0.897 -28.841  -7.757  1.00  0.00     0.139 C 
ENDBRANCH  11  12
ENDBRANCH  10  11
ENDBRANCH   9  10
ENDBRANCH   2   9
TORSDOF 7
ENDMDL
MODEL 4
REMARK VINA RESULT:    -4.059      3.669      6.407
REMARK INTER + INTRA:          -6.653
REMARK INTER:                  -5.618
REMARK INTRA:                  -1.036
REMARK UNBOUND:                -0.933
REMARK SMILES CC(=O)OCC[C@@H](C)CCC=C(C)C
REMARK SMILES IDX 8 1 7 2 9 3 10 4 11 5 12 6 13 7 14 8 6 9 5 10 4 11 2 12 3 13
REMARK SMILES IDX 1 14
REMARK H PARENT
REMARK Flexibility Score: inf
ROOT
ATOM      1  C   UNL     1      -1.356 -25.257  -8.236  1.00  0.00     0.008 C 
ATOM      2  C   UNL     1      -0.725 -25.516  -9.617  1.00  0.00    -0.011 C 
ENDROOT
BRANCH   2   3
ATOM      3  C   UNL     1       0.818 -25.342  -9.604  1.00  0.00     0.007 C 
BRANCH   3   4
ATOM      4  C   UNL     1       1.352 -23.902  -9.746  1.00  0.00     0.027 C 
BRANCH   4   5
ATOM      5  C   UNL     1       0.523 -23.036 -10.662  1.00  0.00    -0.028 C 
ATOM      6  C   UNL     1      -0.219 -21.978 -10.266  1.00  0.00    -0.080 C 
ATOM      7  C   UNL     1      -0.334 -21.571  -8.815  1.00  0.00     0.039 C 
ATOM      8  C   UNL     1      -0.981 -21.209 -11.313  1.00  0.00     0.039 C 
ENDBRANCH   4   5
ENDBRANCH   3   4
ENDBRANCH   2   3
BRANCH   2   9
ATOM      9  C   UNL     1      -1.158 -26.879 -10.209  1.00  0.00     0.045 C 
BRANCH   9  10
ATOM     10  C   UNL     1      -0.021 -27.905 -10.265  1.00  0.00     0.233 C 
BRANCH  10  11
ATOM     11  O   UNL     1      -0.236 -28.930  -9.299  1.00  0.00    -0.466 OA
BRANCH  11  12
ATOM     12  C   UNL     1       0.247 -28.844  -7.990  1.00  0.00     0.302 C 
ATOM     13  O   UNL     1       1.487 -28.839  -7.759  1.00  0.00    -0.253 OA
ATOM     14  C   UNL     1      -0.715 -28.709  -6.860  1.00  0.00     0.139 C 
ENDBRANCH  11  12
ENDBRANCH  10  11
ENDBRANCH   9  10
ENDBRANCH   2   9
TORSDOF 7
ENDMDL
MODEL 5
REMARK VINA RESULT:    -4.058      1.745      3.153
REMARK INTER + INTRA:          -6.651
REMARK INTER:                  -5.890
REMARK INTRA:                  -0.762
REMARK UNBOUND:                -0.933
REMARK SMILES CC(=O)OCC[C@@H](C)CCC=C(C)C
REMARK SMILES IDX 8 1 7 2 9 3 10 4 11 5 12 6 13 7 14 8 6 9 5 10 4 11 2 12 3 13
REMARK SMILES IDX 1 14
REMARK H PARENT
REMARK Flexibility Score: inf
ROOT
ATOM      1  C   UNL     1      -1.507 -24.516 -11.324  1.00  0.00     0.008 C 
ATOM      2  C   UNL     1      -0.920 -24.469  -9.902  1.00  0.00    -0.011 C 
ENDROOT
BRANCH   2   3
ATOM      3  C   UNL     1       0.561 -24.933  -9.857  1.00  0.00     0.007 C 
BRANCH   3   4
ATOM      4  C   UNL     1       0.812 -26.406  -9.471  1.00  0.00     0.027 C 
BRANCH   4   5
ATOM      5  C   UNL     1      -0.267 -26.995  -8.597  1.00  0.00    -0.028 C 
ATOM      6  C   UNL     1      -0.135 -28.115  -7.852  1.00  0.00    -0.080 C 
ATOM      7  C   UNL     1       1.130 -28.941  -7.855  1.00  0.00     0.039 C 
ATOM      8  C   UNL     1      -1.309 -28.563  -7.021  1.00  0.00     0.039 C 
ENDBRANCH   4   5
ENDBRANCH   3   4
ENDBRANCH   2   3
BRANCH   2   9
ATOM      9  C   UNL     1      -1.123 -23.088  -9.232  1.00  0.00     0.045 C 
BRANCH   9  10
ATOM     10  C   UNL     1      -1.110 -21.923 -10.227  1.00  0.00     0.233 C 
BRANCH  10  11
ATOM     11  O   UNL     1      -0.018 -21.051  -9.949  1.00  0.00    -0.466 OA
BRANCH  11  12
ATOM     12  C   UNL     1       1.309 -21.397 -10.219  1.00  0.00     0.302 C 
ATOM     13  O   UNL     1       2.135 -21.564  -9.279  1.00  0.00    -0.253 OA
ATOM     14  C   UNL     1       1.739 -21.619 -11.628  1.00  0.00     0.139 C 
ENDBRANCH  11  12
ENDBRANCH  10  11
ENDBRANCH   9  10
ENDBRANCH   2   9
TORSDOF 7
ENDMDL
MODEL 6
REMARK VINA RESULT:    -4.039      1.481      2.740
REMARK INTER + INTRA:          -6.625
REMARK INTER:                  -5.892
REMARK INTRA:                  -0.733
REMARK UNBOUND:                -0.933
REMARK SMILES CC(=O)OCC[C@@H](C)CCC=C(C)C
REMARK SMILES IDX 8 1 7 2 9 3 10 4 11 5 12 6 13 7 14 8 6 9 5 10 4 11 2 12 3 13
REMARK SMILES IDX 1 14
REMARK H PARENT
REMARK Flexibility Score: inf
ROOT
ATOM      1  C   UNL     1      -0.872 -23.170 -10.313  1.00  0.00     0.008 C 
ATOM      2  C   UNL     1       0.502 -23.450  -9.676  1.00  0.00    -0.011 C 
ENDROOT
BRANCH   2   3
ATOM      3  C   UNL     1       0.856 -24.961  -9.672  1.00  0.00     0.007 C 
BRANCH   3   4
ATOM      4  C   UNL     1      -0.305 -25.944  -9.928  1.00  0.00     0.027 C 
BRANCH   4   5
ATOM      5  C   UNL     1      -0.395 -27.053  -8.909  1.00  0.00    -0.028 C 
ATOM      6  C   UNL     1      -1.102 -26.991  -7.758  1.00  0.00    -0.080 C 
ATOM      7  C   UNL     1      -1.859 -25.751  -7.342  1.00  0.00     0.039 C 
ATOM      8  C   UNL     1      -1.098 -28.195  -6.853  1.00  0.00     0.039 C 
ENDBRANCH   4   5
ENDBRANCH   3   4
ENDBRANCH   2   3
BRANCH   2   9
ATOM      9  C   UNL     1       1.623 -22.585 -10.303  1.00  0.00     0.045 C 
BRANCH   9  10
ATOM     10  C   UNL     1       1.989 -21.361  -9.458  1.00  0.00     0.233 C 
BRANCH  10  11
ATOM     11  O   UNL     1       1.880 -20.174 -10.238  1.00  0.00    -0.466 OA
BRANCH  11  12
ATOM     12  C   UNL     1       0.763 -19.335 -10.180  1.00  0.00     0.302 C 
ATOM     13  O   UNL     1       0.617 -18.398 -11.013  1.00  0.00    -0.253 OA
ATOM     14  C   UNL     1      -0.289 -19.582  -9.156  1.00  0.00     0.139 C 
ENDBRANCH  11  12
ENDBRANCH  10  11
ENDBRANCH   9  10
ENDBRANCH   2   9
TORSDOF 7
ENDMDL
MODEL 7
REMARK VINA RESULT:    -3.876      4.629      7.895
REMARK INTER + INTRA:          -6.396
REMARK INTER:                  -5.823
REMARK INTRA:                  -0.573
REMARK UNBOUND:                -0.933
REMARK SMILES CC(=O)OCC[C@@H](C)CCC=C(C)C
REMARK SMILES IDX 8 1 7 2 9 3 10 4 11 5 12 6 13 7 14 8 6 9 5 10 4 11 2 12 3 13
REMARK SMILES IDX 1 14
REMARK H PARENT
REMARK Flexibility Score: inf
ROOT
ATOM      1  C   UNL     1       0.876 -28.521  -9.801  1.00  0.00     0.008 C 
ATOM      2  C   UNL     1       0.504 -27.763  -8.513  1.00  0.00    -0.011 C 
ENDROOT
BRANCH   2   3
ATOM      3  C   UNL     1      -0.573 -26.671  -8.758  1.00  0.00     0.007 C 
BRANCH   3   4
ATOM      4  C   UNL     1      -0.351 -25.743  -9.970  1.00  0.00     0.027 C 
BRANCH   4   5
ATOM      5  C   UNL     1       0.746 -24.728  -9.763  1.00  0.00    -0.028 C 
ATOM      6  C   UNL     1       0.687 -23.434 -10.151  1.00  0.00    -0.080 C 
ATOM      7  C   UNL     1      -0.500 -22.868 -10.894  1.00  0.00     0.039 C 
ATOM      8  C   UNL     1       1.868 -22.546  -9.855  1.00  0.00     0.039 C 
ENDBRANCH   4   5
ENDBRANCH   3   4
ENDBRANCH   2   3
BRANCH   2   9
ATOM      9  C   UNL     1       0.115 -28.724  -7.363  1.00  0.00     0.045 C 
BRANCH   9  10
ATOM     10  C   UNL     1      -1.398 -28.832  -7.149  1.00  0.00     0.233 C 
BRANCH  10  11
ATOM     11  O   UNL     1      -1.948 -29.825  -8.010  1.00  0.00    -0.466 OA
BRANCH  11  12
ATOM     12  C   UNL     1      -1.491 -31.146  -8.024  1.00  0.00     0.302 C 
ATOM     13  O   UNL     1      -0.810 -31.582  -8.993  1.00  0.00    -0.253 OA
ATOM     14  C   UNL     1      -1.771 -32.033  -6.860  1.00  0.00     0.139 C 
ENDBRANCH  11  12
ENDBRANCH  10  11
ENDBRANCH   9  10
ENDBRANCH   2   9
TORSDOF 7
ENDMDL
MODEL 8
REMARK VINA RESULT:    -3.821      1.648      3.004
REMARK INTER + INTRA:          -6.319
REMARK INTER:                  -5.566
REMARK INTRA:                  -0.753
REMARK UNBOUND:                -0.933
REMARK SMILES CC(=O)OCC[C@@H](C)CCC=C(C)C
REMARK SMILES IDX 8 1 7 2 9 3 10 4 11 5 12 6 13 7 14 8 6 9 5 10 4 11 2 12 3 13
REMARK SMILES IDX 1 14
REMARK H PARENT
REMARK Flexibility Score: inf
ROOT
ATOM      1  C   UNL     1       1.801 -22.559  -9.954  1.00  0.00     0.008 C 
ATOM      2  C   UNL     1       0.466 -23.327  -9.941  1.00  0.00    -0.011 C 
ENDROOT
BRANCH   2   3
ATOM      3  C   UNL     1       0.658 -24.840  -9.646  1.00  0.00     0.007 C 
BRANCH   3   4
ATOM      4  C   UNL     1      -0.599 -25.729  -9.752  1.00  0.00     0.027 C 
BRANCH   4   5
ATOM      5  C   UNL     1      -0.656 -26.823  -8.715  1.00  0.00    -0.028 C 
ATOM      6  C   UNL     1      -1.323 -26.745  -7.543  1.00  0.00    -0.080 C 
ATOM      7  C   UNL     1      -2.065 -25.498  -7.118  1.00  0.00     0.039 C 
ATOM      8  C   UNL     1      -1.290 -27.936  -6.621  1.00  0.00     0.039 C 
ENDBRANCH   4   5
ENDBRANCH   3   4
ENDBRANCH   2   3
BRANCH   2   9
ATOM      9  C   UNL     1      -0.575 -22.672  -9.000  1.00  0.00     0.045 C 
BRANCH   9  10
ATOM     10  C   UNL     1      -0.549 -21.141  -9.039  1.00  0.00     0.233 C 
BRANCH  10  11
ATOM     11  O   UNL     1      -1.511 -20.657  -9.973  1.00  0.00    -0.466 OA
BRANCH  11  12
ATOM     12  C   UNL     1      -1.153 -20.121 -11.213  1.00  0.00     0.302 C 
ATOM     13  O   UNL     1      -1.982 -20.086 -12.164  1.00  0.00    -0.253 OA
ATOM     14  C   UNL     1       0.207 -19.540 -11.398  1.00  0.00     0.139 C 
ENDBRANCH  11  12
ENDBRANCH  10  11
ENDBRANCH   9  10
ENDBRANCH   2   9
TORSDOF 7
ENDMDL
MODEL 9
REMARK VINA RESULT:    -3.792      3.608      6.365
REMARK INTER + INTRA:          -6.278
REMARK INTER:                  -5.516
REMARK INTRA:                  -0.761
REMARK UNBOUND:                -0.933
REMARK SMILES CC(=O)OCC[C@@H](C)CCC=C(C)C
REMARK SMILES IDX 8 1 7 2 9 3 10 4 11 5 12 6 13 7 14 8 6 9 5 10 4 11 2 12 3 13
REMARK SMILES IDX 1 14
REMARK H PARENT
REMARK Flexibility Score: inf
ROOT
ATOM      1  C   UNL     1       0.977 -25.470  -9.623  1.00  0.00     0.008 C 
ATOM      2  C   UNL     1      -0.470 -24.944  -9.588  1.00  0.00    -0.011 C 
ENDROOT
BRANCH   2   3
ATOM      3  C   UNL     1      -0.874 -24.238 -10.911  1.00  0.00     0.007 C 
BRANCH   3   4
ATOM      4  C   UNL     1      -1.167 -22.725 -10.824  1.00  0.00     0.027 C 
BRANCH   4   5
ATOM      5  C   UNL     1      -0.106 -21.944 -10.090  1.00  0.00    -0.028 C 
ATOM      6  C   UNL     1      -0.212 -21.502  -8.817  1.00  0.00    -0.080 C 
ATOM      7  C   UNL     1      -1.460 -21.711  -7.991  1.00  0.00     0.039 C 
ATOM      8  C   UNL     1       0.948 -20.745  -8.225  1.00  0.00     0.039 C 
ENDBRANCH   4   5
ENDBRANCH   3   4
ENDBRANCH   2   3
BRANCH   2   9
ATOM      9  C   UNL     1      -1.480 -26.042  -9.176  1.00  0.00     0.045 C 
BRANCH   9  10
ATOM     10  C   UNL     1      -1.225 -26.606  -7.775  1.00  0.00     0.233 C 
BRANCH  10  11
ATOM     11  O   UNL     1      -1.591 -27.983  -7.725  1.00  0.00    -0.466 OA
BRANCH  11  12
ATOM     12  C   UNL     1      -0.669 -28.997  -7.451  1.00  0.00     0.302 C 
ATOM     13  O   UNL     1      -1.050 -30.105  -6.981  1.00  0.00    -0.253 OA
ATOM     14  C   UNL     1       0.772 -28.785  -7.766  1.00  0.00     0.139 C 
ENDBRANCH  11  12
ENDBRANCH  10  11
ENDBRANCH   9  10
ENDBRANCH   2   9
TORSDOF 7
ENDMDL
