MODEL 1
REMARK VINA RESULT:    -5.710      0.000      0.000
REMARK INTER + INTRA:          -7.255
REMARK INTER:                  -6.879
REMARK INTRA:                  -0.376
REMARK UNBOUND:                -0.376
REMARK SMILES Oc1cc(O)c2c(c1)O[C@H](c1ccc(O)c(O)c1)[C@@H](O)C2
REMARK SMILES IDX 21 1 19 2 10 3 9 4 7 5 8 6 2 7 3 8 4 9 6 10 20 11 11 13
REMARK SMILES IDX 18 14 12 15 16 16 13 17 14 18 17 19 15 21 5 23 1 25
REMARK H PARENT 20 12 17 20 15 22 5 24 1 26
REMARK Flexibility Score: inf
ROOT
ATOM      1  C   UNL     1       2.922  12.786  22.347  1.00  0.00     0.079 C 
ATOM      2  C   UNL     1       3.058  13.221  20.875  1.00  0.00     0.164 C 
ATOM      3  C   UNL     1       1.719  13.787  20.359  1.00  0.00     0.232 C 
ATOM      4  O   UNL     1       0.689  12.814  20.535  1.00  0.00    -0.482 OA
ATOM      5  C   UNL     1       0.621  11.989  21.662  1.00  0.00     0.131 A 
ATOM      6  C   UNL     1      -0.514  11.198  21.854  1.00  0.00     0.093 A 
ATOM      7  C   UNL     1      -0.617  10.374  22.981  1.00  0.00     0.122 A 
ATOM      8  C   UNL     1       0.416  10.351  23.920  1.00  0.00     0.092 A 
ATOM      9  C   UNL     1       1.560  11.137  23.745  1.00  0.00     0.126 A 
ATOM     10  C   UNL     1       1.690  11.939  22.586  1.00  0.00     0.039 A 
ENDROOT
BRANCH   2  11
ATOM     11  O   UNL     1       4.100  14.155  20.729  1.00  0.00    -0.389 OA
ATOM     12  H   UNL     1       3.775  14.880  20.133  1.00  0.00     0.211 HD
ENDBRANCH   2  11
BRANCH   3  13
ATOM     13  C   UNL     1       1.814  14.171  18.902  1.00  0.00    -0.001 A 
ATOM     14  C   UNL     1       1.983  13.182  17.919  1.00  0.00     0.057 A 
ATOM     15  C   UNL     1       1.685  15.514  18.508  1.00  0.00     0.012 A 
ATOM     16  C   UNL     1       2.042  13.531  16.561  1.00  0.00     0.157 A 
ATOM     17  C   UNL     1       1.745  15.862  17.157  1.00  0.00     0.050 A 
ATOM     18  C   UNL     1       1.926  14.873  16.180  1.00  0.00     0.157 A 
BRANCH  16  19
ATOM     19  O   UNL     1       2.215  12.549  15.588  1.00  0.00    -0.504 OA
ATOM     20  H   UNL     1       3.061  12.497  15.031  1.00  0.00     0.293 HD
ENDBRANCH  16  19
BRANCH  18  21
ATOM     21  O   UNL     1       1.986  15.216  14.831  1.00  0.00    -0.504 OA
ATOM     22  H   UNL     1       2.068  16.182  14.532  1.00  0.00     0.293 HD
ENDBRANCH  18  21
ENDBRANCH   3  13
BRANCH   9  23
ATOM     23  O   UNL     1       2.537  11.104  24.741  1.00  0.00    -0.507 OA
ATOM     24  H   UNL     1       3.005  10.256  25.035  1.00  0.00     0.293 HD
ENDBRANCH   9  23
BRANCH   7  25
ATOM     25  O   UNL     1      -1.745   9.581  23.178  1.00  0.00    -0.508 OA
ATOM     26  H   UNL     1      -1.695   8.705  23.685  1.00  0.00     0.293 HD
ENDBRANCH   7  25
TORSDOF 6
ENDMDL
MODEL 2
REMARK VINA RESULT:    -5.600      1.858      7.179
REMARK INTER + INTRA:          -7.122
REMARK INTER:                  -6.915
REMARK INTRA:                  -0.207
REMARK UNBOUND:                -0.376
REMARK SMILES Oc1cc(O)c2c(c1)O[C@H](c1ccc(O)c(O)c1)[C@@H](O)C2
REMARK SMILES IDX 21 1 19 2 10 3 9 4 7 5 8 6 2 7 3 8 4 9 6 10 20 11 11 13
REMARK SMILES IDX 18 14 12 15 16 16 13 17 14 18 17 19 15 21 5 23 1 25
REMARK H PARENT 20 12 17 20 15 22 5 24 1 26
REMARK Flexibility Score: inf
ROOT
ATOM      1  C   UNL     1       1.689  14.163  17.713  1.00  0.00     0.079 C 
ATOM      2  C   UNL     1       1.076  13.377  18.888  1.00  0.00     0.164 C 
ATOM      3  C   UNL     1       2.190  12.727  19.734  1.00  0.00     0.232 C 
ATOM      4  O   UNL     1       2.999  11.896  18.903  1.00  0.00    -0.482 OA
ATOM      5  C   UNL     1       3.341  12.251  17.594  1.00  0.00     0.131 A 
ATOM      6  C   UNL     1       4.287  11.484  16.909  1.00  0.00     0.093 A 
ATOM      7  C   UNL     1       4.661  11.824  15.605  1.00  0.00     0.122 A 
ATOM      8  C   UNL     1       4.093  12.941  14.989  1.00  0.00     0.092 A 
ATOM      9  C   UNL     1       3.144  13.722  15.659  1.00  0.00     0.126 A 
ATOM     10  C   UNL     1       2.729  13.358  16.963  1.00  0.00     0.039 A 
ENDROOT
BRANCH   2  11
ATOM     11  O   UNL     1       0.261  14.215  19.670  1.00  0.00    -0.389 OA
ATOM     12  H   UNL     1       0.302  15.127  19.280  1.00  0.00     0.211 HD
ENDBRANCH   2  11
BRANCH   3  13
ATOM     13  C   UNL     1       1.610  11.909  20.863  1.00  0.00    -0.001 A 
ATOM     14  C   UNL     1       2.229  11.905  22.125  1.00  0.00     0.057 A 
ATOM     15  C   UNL     1       0.421  11.182  20.682  1.00  0.00     0.012 A 
ATOM     16  C   UNL     1       1.678  11.171  23.185  1.00  0.00     0.157 A 
ATOM     17  C   UNL     1      -0.127  10.450  21.737  1.00  0.00     0.050 A 
ATOM     18  C   UNL     1       0.500  10.440  22.991  1.00  0.00     0.157 A 
BRANCH  16  19
ATOM     19  O   UNL     1       2.297  11.164  24.434  1.00  0.00    -0.504 OA
ATOM     20  H   UNL     1       2.809  10.355  24.769  1.00  0.00     0.293 HD
ENDBRANCH  16  19
BRANCH  18  21
ATOM     21  O   UNL     1      -0.043   9.710  24.046  1.00  0.00    -0.504 OA
ATOM     22  H   UNL     1      -0.846   9.105  23.915  1.00  0.00     0.293 HD
ENDBRANCH  18  21
ENDBRANCH   3  13
BRANCH   9  23
ATOM     23  O   UNL     1       2.646  14.851  15.007  1.00  0.00    -0.507 OA
ATOM     24  H   UNL     1       1.730  15.240  15.189  1.00  0.00     0.293 HD
ENDBRANCH   9  23
BRANCH   7  25
ATOM     25  O   UNL     1       5.602  11.062  14.915  1.00  0.00    -0.508 OA
ATOM     26  H   UNL     1       5.725  10.074  15.104  1.00  0.00     0.293 HD
ENDBRANCH   7  25
TORSDOF 6
ENDMDL
MODEL 3
REMARK VINA RESULT:    -5.411      2.672      4.355
REMARK INTER + INTRA:          -6.894
REMARK INTER:                  -6.526
REMARK INTRA:                  -0.368
REMARK UNBOUND:                -0.376
REMARK SMILES Oc1cc(O)c2c(c1)O[C@H](c1ccc(O)c(O)c1)[C@@H](O)C2
REMARK SMILES IDX 21 1 19 2 10 3 9 4 7 5 8 6 2 7 3 8 4 9 6 10 20 11 11 13
REMARK SMILES IDX 18 14 12 15 16 16 13 17 14 18 17 19 15 21 5 23 1 25
REMARK H PARENT 20 12 17 20 15 22 5 24 1 26
REMARK Flexibility Score: inf
ROOT
ATOM      1  C   UNL     1      -0.073  10.923  23.272  1.00  0.00     0.079 C 
ATOM      2  C   UNL     1       1.112  11.121  22.308  1.00  0.00     0.164 C 
ATOM      3  C   UNL     1       1.647  12.564  22.408  1.00  0.00     0.232 C 
ATOM      4  O   UNL     1       0.589  13.486  22.148  1.00  0.00    -0.482 OA
ATOM      5  C   UNL     1      -0.717  13.276  22.601  1.00  0.00     0.131 A 
ATOM      6  C   UNL     1      -1.652  14.306  22.473  1.00  0.00     0.093 A 
ATOM      7  C   UNL     1      -2.962  14.131  22.932  1.00  0.00     0.122 A 
ATOM      8  C   UNL     1      -3.332  12.924  23.529  1.00  0.00     0.092 A 
ATOM      9  C   UNL     1      -2.409  11.880  23.666  1.00  0.00     0.126 A 
ATOM     10  C   UNL     1      -1.095  12.036  23.165  1.00  0.00     0.039 A 
ENDROOT
BRANCH   2  11
ATOM     11  O   UNL     1       2.124  10.179  22.569  1.00  0.00    -0.389 OA
ATOM     12  H   UNL     1       1.939   9.775  23.457  1.00  0.00     0.211 HD
ENDBRANCH   2  11
BRANCH   3  13
ATOM     13  C   UNL     1       2.777  12.796  21.434  1.00  0.00    -0.001 A 
ATOM     14  C   UNL     1       4.077  13.049  21.905  1.00  0.00     0.057 A 
ATOM     15  C   UNL     1       2.555  12.712  20.048  1.00  0.00     0.012 A 
ATOM     16  C   UNL     1       5.136  13.236  21.004  1.00  0.00     0.157 A 
ATOM     17  C   UNL     1       3.609  12.898  19.152  1.00  0.00     0.050 A 
ATOM     18  C   UNL     1       4.901  13.163  19.625  1.00  0.00     0.157 A 
BRANCH  16  19
ATOM     19  O   UNL     1       6.423  13.492  21.473  1.00  0.00    -0.504 OA
ATOM     20  H   UNL     1       6.606  14.232  22.142  1.00  0.00     0.293 HD
ENDBRANCH  16  19
BRANCH  18  21
ATOM     21  O   UNL     1       5.956  13.350  18.734  1.00  0.00    -0.504 OA
ATOM     22  H   UNL     1       6.909  13.110  18.982  1.00  0.00     0.293 HD
ENDBRANCH  18  21
ENDBRANCH   3  13
BRANCH   9  23
ATOM     23  O   UNL     1      -2.828  10.715  24.311  1.00  0.00    -0.507 OA
ATOM     24  H   UNL     1      -3.485  10.710  25.080  1.00  0.00     0.293 HD
ENDBRANCH   9  23
BRANCH   7  25
ATOM     25  O   UNL     1      -3.900  15.153  22.806  1.00  0.00    -0.508 OA
ATOM     26  H   UNL     1      -4.333  15.368  21.915  1.00  0.00     0.293 HD
ENDBRANCH   7  25
TORSDOF 6
ENDMDL
MODEL 4
REMARK VINA RESULT:    -5.258      1.545      6.546
REMARK INTER + INTRA:          -6.710
REMARK INTER:                  -6.384
REMARK INTRA:                  -0.325
REMARK UNBOUND:                -0.376
REMARK SMILES Oc1cc(O)c2c(c1)O[C@H](c1ccc(O)c(O)c1)[C@@H](O)C2
REMARK SMILES IDX 21 1 19 2 10 3 9 4 7 5 8 6 2 7 3 8 4 9 6 10 20 11 11 13
REMARK SMILES IDX 18 14 12 15 16 16 13 17 14 18 17 19 15 21 5 23 1 25
REMARK H PARENT 20 12 17 20 15 22 5 24 1 26
REMARK Flexibility Score: inf
ROOT
ATOM      1  C   UNL     1       3.729  12.737  20.720  1.00  0.00     0.079 C 
ATOM      2  C   UNL     1       2.506  12.621  21.649  1.00  0.00     0.164 C 
ATOM      3  C   UNL     1       1.417  11.748  20.992  1.00  0.00     0.232 C 
ATOM      4  O   UNL     1       1.069  12.293  19.720  1.00  0.00    -0.482 OA
ATOM      5  C   UNL     1       2.019  12.853  18.859  1.00  0.00     0.131 A 
ATOM      6  C   UNL     1       1.638  13.192  17.559  1.00  0.00     0.093 A 
ATOM      7  C   UNL     1       2.570  13.738  16.670  1.00  0.00     0.122 A 
ATOM      8  C   UNL     1       3.889  13.936  17.083  1.00  0.00     0.092 A 
ATOM      9  C   UNL     1       4.290  13.602  18.381  1.00  0.00     0.126 A 
ATOM     10  C   UNL     1       3.342  13.089  19.299  1.00  0.00     0.039 A 
ENDROOT
BRANCH   2  11
ATOM     11  O   UNL     1       2.885  12.111  22.904  1.00  0.00    -0.389 OA
ATOM     12  H   UNL     1       3.792  12.460  23.110  1.00  0.00     0.211 HD
ENDBRANCH   2  11
BRANCH   3  13
ATOM     13  C   UNL     1       0.187  11.663  21.864  1.00  0.00    -0.001 A 
ATOM     14  C   UNL     1      -0.360  10.411  22.195  1.00  0.00     0.057 A 
ATOM     15  C   UNL     1      -0.395  12.827  22.395  1.00  0.00     0.012 A 
ATOM     16  C   UNL     1      -1.485  10.325  23.028  1.00  0.00     0.157 A 
ATOM     17  C   UNL     1      -1.515  12.740  23.224  1.00  0.00     0.050 A 
ATOM     18  C   UNL     1      -2.065  11.491  23.542  1.00  0.00     0.157 A 
BRANCH  16  19
ATOM     19  O   UNL     1      -2.030   9.083  23.350  1.00  0.00    -0.504 OA
ATOM     20  H   UNL     1      -1.728   8.567  24.169  1.00  0.00     0.293 HD
ENDBRANCH  16  19
BRANCH  18  21
ATOM     21  O   UNL     1      -3.183  11.401  24.368  1.00  0.00    -0.504 OA
ATOM     22  H   UNL     1      -4.019  11.946  24.190  1.00  0.00     0.293 HD
ENDBRANCH  18  21
ENDBRANCH   3  13
BRANCH   9  23
ATOM     23  O   UNL     1       5.632  13.782  18.720  1.00  0.00    -0.507 OA
ATOM     24  H   UNL     1       6.198  14.542  18.366  1.00  0.00     0.293 HD
ENDBRANCH   9  23
BRANCH   7  25
ATOM     25  O   UNL     1       2.196  14.081  15.372  1.00  0.00    -0.508 OA
ATOM     26  H   UNL     1       2.873  14.419  14.698  1.00  0.00     0.293 HD
ENDBRANCH   7  25
TORSDOF 6
ENDMDL
MODEL 5
REMARK VINA RESULT:    -5.117      2.209      3.066
REMARK INTER + INTRA:          -6.540
REMARK INTER:                  -6.188
REMARK INTRA:                  -0.352
REMARK UNBOUND:                -0.376
REMARK SMILES Oc1cc(O)c2c(c1)O[C@H](c1ccc(O)c(O)c1)[C@@H](O)C2
REMARK SMILES IDX 21 1 19 2 10 3 9 4 7 5 8 6 2 7 3 8 4 9 6 10 20 11 11 13
REMARK SMILES IDX 18 14 12 15 16 16 13 17 14 18 17 19 15 21 5 23 1 25
REMARK H PARENT 20 12 17 20 15 22 5 24 1 26
REMARK Flexibility Score: inf
ROOT
ATOM      1  C   UNL     1       0.622  14.624  21.002  1.00  0.00     0.079 C 
ATOM      2  C   UNL     1       1.430  14.516  19.695  1.00  0.00     0.164 C 
ATOM      3  C   UNL     1       1.536  13.043  19.251  1.00  0.00     0.232 C 
ATOM      4  O   UNL     1       2.114  12.267  20.301  1.00  0.00    -0.482 OA
ATOM      5  C   UNL     1       1.816  12.490  21.649  1.00  0.00     0.131 A 
ATOM      6  C   UNL     1       2.269  11.574  22.602  1.00  0.00     0.093 A 
ATOM      7  C   UNL     1       1.973  11.762  23.957  1.00  0.00     0.122 A 
ATOM      8  C   UNL     1       1.214  12.864  24.355  1.00  0.00     0.092 A 
ATOM      9  C   UNL     1       0.751  13.791  23.414  1.00  0.00     0.126 A 
ATOM     10  C   UNL     1       1.083  13.631  22.048  1.00  0.00     0.039 A 
ENDROOT
BRANCH   2  11
ATOM     11  O   UNL     1       0.854  15.315  18.690  1.00  0.00    -0.389 OA
ATOM     12  H   UNL     1       0.001  15.679  19.046  1.00  0.00     0.211 HD
ENDBRANCH   2  11
BRANCH   3  13
ATOM     13  C   UNL     1       2.369  12.908  17.999  1.00  0.00    -0.001 A 
ATOM     14  C   UNL     1       3.769  13.012  18.066  1.00  0.00     0.057 A 
ATOM     15  C   UNL     1       1.761  12.628  16.763  1.00  0.00     0.012 A 
ATOM     16  C   UNL     1       4.549  12.858  16.911  1.00  0.00     0.157 A 
ATOM     17  C   UNL     1       2.538  12.476  15.613  1.00  0.00     0.050 A 
ATOM     18  C   UNL     1       3.933  12.592  15.682  1.00  0.00     0.157 A 
BRANCH  16  19
ATOM     19  O   UNL     1       5.937  12.967  16.978  1.00  0.00    -0.504 OA
ATOM     20  H   UNL     1       6.467  12.545  17.733  1.00  0.00     0.293 HD
ENDBRANCH  16  19
BRANCH  18  21
ATOM     21  O   UNL     1       4.712  12.442  14.537  1.00  0.00    -0.504 OA
ATOM     22  H   UNL     1       4.624  11.628  13.938  1.00  0.00     0.293 HD
ENDBRANCH  18  21
ENDBRANCH   3  13
BRANCH   9  23
ATOM     23  O   UNL     1      -0.041  14.847  23.869  1.00  0.00    -0.507 OA
ATOM     24  H   UNL     1      -1.032  14.922  23.679  1.00  0.00     0.293 HD
ENDBRANCH   9  23
BRANCH   7  25
ATOM     25  O   UNL     1       2.423  10.854  24.913  1.00  0.00    -0.508 OA
ATOM     26  H   UNL     1       3.411  10.659  25.035  1.00  0.00     0.293 HD
ENDBRANCH   7  25
TORSDOF 6
ENDMDL
MODEL 6
REMARK VINA RESULT:    -5.081      2.842      3.917
REMARK INTER + INTRA:          -6.497
REMARK INTER:                  -6.230
REMARK INTRA:                  -0.267
REMARK UNBOUND:                -0.376
REMARK SMILES Oc1cc(O)c2c(c1)O[C@H](c1ccc(O)c(O)c1)[C@@H](O)C2
REMARK SMILES IDX 21 1 19 2 10 3 9 4 7 5 8 6 2 7 3 8 4 9 6 10 20 11 11 13
REMARK SMILES IDX 18 14 12 15 16 16 13 17 14 18 17 19 15 21 5 23 1 25
REMARK H PARENT 20 12 17 20 15 22 5 24 1 26
REMARK Flexibility Score: inf
ROOT
ATOM      1  C   UNL     1      -0.347  14.061  21.823  1.00  0.00     0.079 C 
ATOM      2  C   UNL     1       1.138  14.092  21.414  1.00  0.00     0.164 C 
ATOM      3  C   UNL     1       1.494  12.831  20.601  1.00  0.00     0.232 C 
ATOM      4  O   UNL     1       1.175  11.666  21.360  1.00  0.00    -0.482 OA
ATOM      5  C   UNL     1       0.033  11.583  22.163  1.00  0.00     0.131 A 
ATOM      6  C   UNL     1      -0.313  10.352  22.724  1.00  0.00     0.093 A 
ATOM      7  C   UNL     1      -1.459  10.235  23.518  1.00  0.00     0.122 A 
ATOM      8  C   UNL     1      -2.264  11.354  23.743  1.00  0.00     0.092 A 
ATOM      9  C   UNL     1      -1.933  12.596  23.189  1.00  0.00     0.126 A 
ATOM     10  C   UNL     1      -0.753  12.730  22.420  1.00  0.00     0.039 A 
ENDROOT
BRANCH   2  11
ATOM     11  O   UNL     1       1.428  15.266  20.696  1.00  0.00    -0.389 OA
ATOM     12  H   UNL     1       1.447  16.019  21.343  1.00  0.00     0.211 HD
ENDBRANCH   2  11
BRANCH   3  13
ATOM     13  C   UNL     1       2.959  12.815  20.233  1.00  0.00    -0.001 A 
ATOM     14  C   UNL     1       3.930  13.181  21.181  1.00  0.00     0.057 A 
ATOM     15  C   UNL     1       3.372  12.387  18.960  1.00  0.00     0.012 A 
ATOM     16  C   UNL     1       5.294  13.139  20.854  1.00  0.00     0.157 A 
ATOM     17  C   UNL     1       4.729  12.347  18.634  1.00  0.00     0.050 A 
ATOM     18  C   UNL     1       5.694  12.724  19.579  1.00  0.00     0.157 A 
BRANCH  16  19
ATOM     19  O   UNL     1       6.255  13.508  21.794  1.00  0.00    -0.504 OA
ATOM     20  H   UNL     1       6.245  13.137  22.737  1.00  0.00     0.293 HD
ENDBRANCH  16  19
BRANCH  18  21
ATOM     21  O   UNL     1       7.049  12.686  19.258  1.00  0.00    -0.504 OA
ATOM     22  H   UNL     1       7.576  11.820  19.283  1.00  0.00     0.293 HD
ENDBRANCH  18  21
ENDBRANCH   3  13
BRANCH   9  23
ATOM     23  O   UNL     1      -2.802  13.666  23.413  1.00  0.00    -0.507 OA
ATOM     24  H   UNL     1      -2.564  14.466  23.985  1.00  0.00     0.293 HD
ENDBRANCH   9  23
BRANCH   7  25
ATOM     25  O   UNL     1      -1.809   9.011  24.083  1.00  0.00    -0.508 OA
ATOM     26  H   UNL     1      -2.544   8.436  23.687  1.00  0.00     0.293 HD
ENDBRANCH   7  25
TORSDOF 6
ENDMDL
MODEL 7
REMARK VINA RESULT:    -5.057     15.270     16.605
REMARK INTER + INTRA:          -6.468
REMARK INTER:                  -6.456
REMARK INTRA:                  -0.012
REMARK UNBOUND:                -0.376
REMARK SMILES Oc1cc(O)c2c(c1)O[C@H](c1ccc(O)c(O)c1)[C@@H](O)C2
REMARK SMILES IDX 21 1 19 2 10 3 9 4 7 5 8 6 2 7 3 8 4 9 6 10 20 11 11 13
REMARK SMILES IDX 18 14 12 15 16 16 13 17 14 18 17 19 15 21 5 23 1 25
REMARK H PARENT 20 12 17 20 15 22 5 24 1 26
REMARK Flexibility Score: inf
ROOT
ATOM      1  C   UNL     1      -0.795  -0.486   9.402  1.00  0.00     0.079 C 
ATOM      2  C   UNL     1       0.295   0.311   8.660  1.00  0.00     0.164 C 
ATOM      3  C   UNL     1       1.694  -0.199   9.059  1.00  0.00     0.232 C 
ATOM      4  O   UNL     1       1.847  -0.118  10.476  1.00  0.00    -0.482 OA
ATOM      5  C   UNL     1       0.804  -0.411  11.361  1.00  0.00     0.131 A 
ATOM      6  C   UNL     1       1.079  -0.494  12.728  1.00  0.00     0.093 A 
ATOM      7  C   UNL     1       0.059  -0.801  13.635  1.00  0.00     0.122 A 
ATOM      8  C   UNL     1      -1.236  -1.035  13.169  1.00  0.00     0.092 A 
ATOM      9  C   UNL     1      -1.531  -0.957  11.803  1.00  0.00     0.126 A 
ATOM     10  C   UNL     1      -0.513  -0.604  10.885  1.00  0.00     0.039 A 
ENDROOT
BRANCH   2  11
ATOM     11  O   UNL     1       0.099   0.238   7.269  1.00  0.00    -0.389 OA
ATOM     12  H   UNL     1       0.757  -0.412   6.905  1.00  0.00     0.211 HD
ENDBRANCH   2  11
BRANCH   3  13
ATOM     13  C   UNL     1       2.780   0.603   8.383  1.00  0.00    -0.001 A 
ATOM     14  C   UNL     1       2.507   1.890   7.890  1.00  0.00     0.057 A 
ATOM     15  C   UNL     1       4.087   0.095   8.283  1.00  0.00     0.012 A 
ATOM     16  C   UNL     1       3.520   2.651   7.287  1.00  0.00     0.157 A 
ATOM     17  C   UNL     1       5.095   0.852   7.682  1.00  0.00     0.050 A 
ATOM     18  C   UNL     1       4.815   2.130   7.180  1.00  0.00     0.157 A 
BRANCH  16  19
ATOM     19  O   UNL     1       3.245   3.925   6.793  1.00  0.00    -0.504 OA
ATOM     20  H   UNL     1       3.358   4.149   5.810  1.00  0.00     0.293 HD
ENDBRANCH  16  19
BRANCH  18  21
ATOM     21  O   UNL     1       5.818   2.889   6.579  1.00  0.00    -0.504 OA
ATOM     22  H   UNL     1       6.025   3.832   6.886  1.00  0.00     0.293 HD
ENDBRANCH  18  21
ENDBRANCH   3  13
BRANCH   9  23
ATOM     23  O   UNL     1      -2.834  -1.245  11.396  1.00  0.00    -0.507 OA
ATOM     24  H   UNL     1      -3.069  -2.015  10.782  1.00  0.00     0.293 HD
ENDBRANCH   9  23
BRANCH   7  25
ATOM     25  O   UNL     1       0.326  -0.884  15.000  1.00  0.00    -0.508 OA
ATOM     26  H   UNL     1      -0.273  -0.436  15.684  1.00  0.00     0.293 HD
ENDBRANCH   7  25
TORSDOF 6
ENDMDL
MODEL 8
REMARK VINA RESULT:    -4.983     15.453     18.102
REMARK INTER + INTRA:          -6.379
REMARK INTER:                  -6.051
REMARK INTRA:                  -0.327
REMARK UNBOUND:                -0.376
REMARK SMILES Oc1cc(O)c2c(c1)O[C@H](c1ccc(O)c(O)c1)[C@@H](O)C2
REMARK SMILES IDX 21 1 19 2 10 3 9 4 7 5 8 6 2 7 3 8 4 9 6 10 20 11 11 13
REMARK SMILES IDX 18 14 12 15 16 16 13 17 14 18 17 19 15 21 5 23 1 25
REMARK H PARENT 20 12 17 20 15 22 5 24 1 26
REMARK Flexibility Score: inf
ROOT
ATOM      1  C   UNL     1       3.287   0.362   6.943  1.00  0.00     0.079 C 
ATOM      2  C   UNL     1       2.583   0.037   8.274  1.00  0.00     0.164 C 
ATOM      3  C   UNL     1       1.079   0.360   8.176  1.00  0.00     0.232 C 
ATOM      4  O   UNL     1       0.906   1.727   7.803  1.00  0.00    -0.482 OA
ATOM      5  C   UNL     1       1.739   2.362   6.876  1.00  0.00     0.131 A 
ATOM      6  C   UNL     1       1.396   3.637   6.419  1.00  0.00     0.093 A 
ATOM      7  C   UNL     1       2.200   4.290   5.480  1.00  0.00     0.122 A 
ATOM      8  C   UNL     1       3.346   3.660   4.990  1.00  0.00     0.092 A 
ATOM      9  C   UNL     1       3.706   2.382   5.435  1.00  0.00     0.126 A 
ATOM     10  C   UNL     1       2.920   1.734   6.418  1.00  0.00     0.039 A 
ENDROOT
BRANCH   2  11
ATOM     11  O   UNL     1       2.798  -1.307   8.631  1.00  0.00    -0.389 OA
ATOM     12  H   UNL     1       2.156  -1.533   9.354  1.00  0.00     0.211 HD
ENDBRANCH   2  11
BRANCH   3  13
ATOM     13  C   UNL     1       0.378   0.098   9.488  1.00  0.00    -0.001 A 
ATOM     14  C   UNL     1      -0.772  -0.710   9.526  1.00  0.00     0.057 A 
ATOM     15  C   UNL     1       0.893   0.614  10.689  1.00  0.00     0.012 A 
ATOM     16  C   UNL     1      -1.410  -0.982  10.746  1.00  0.00     0.157 A 
ATOM     17  C   UNL     1       0.257   0.344  11.903  1.00  0.00     0.050 A 
ATOM     18  C   UNL     1      -0.896  -0.452  11.936  1.00  0.00     0.157 A 
BRANCH  16  19
ATOM     19  O   UNL     1      -2.553  -1.778  10.781  1.00  0.00    -0.504 OA
ATOM     20  H   UNL     1      -2.967  -2.073  11.658  1.00  0.00     0.293 HD
ENDBRANCH  16  19
BRANCH  18  21
ATOM     21  O   UNL     1      -1.534  -0.723  13.144  1.00  0.00    -0.504 OA
ATOM     22  H   UNL     1      -2.544  -0.692  13.230  1.00  0.00     0.293 HD
ENDBRANCH  18  21
ENDBRANCH   3  13
BRANCH   9  23
ATOM     23  O   UNL     1       4.838   1.787   4.875  1.00  0.00    -0.507 OA
ATOM     24  H   UNL     1       5.452   2.261   4.225  1.00  0.00     0.293 HD
ENDBRANCH   9  23
BRANCH   7  25
ATOM     25  O   UNL     1       1.866   5.563   5.022  1.00  0.00    -0.508 OA
ATOM     26  H   UNL     1       1.935   5.808   4.041  1.00  0.00     0.293 HD
ENDBRANCH   7  25
TORSDOF 6
ENDMDL
MODEL 9
REMARK VINA RESULT:    -4.942      2.186      2.918
REMARK INTER + INTRA:          -6.329
REMARK INTER:                  -5.971
REMARK INTRA:                  -0.359
REMARK UNBOUND:                -0.376
REMARK SMILES Oc1cc(O)c2c(c1)O[C@H](c1ccc(O)c(O)c1)[C@@H](O)C2
REMARK SMILES IDX 21 1 19 2 10 3 9 4 7 5 8 6 2 7 3 8 4 9 6 10 20 11 11 13
REMARK SMILES IDX 18 14 12 15 16 16 13 17 14 18 17 19 15 21 5 23 1 25
REMARK H PARENT 20 12 17 20 15 22 5 24 1 26
REMARK Flexibility Score: inf
ROOT
ATOM      1  C   UNL     1      -0.974  14.097  21.533  1.00  0.00     0.079 C 
ATOM      2  C   UNL     1       0.290  14.121  20.652  1.00  0.00     0.164 C 
ATOM      3  C   UNL     1       0.340  12.868  19.755  1.00  0.00     0.232 C 
ATOM      4  O   UNL     1       0.277  11.695  20.566  1.00  0.00    -0.482 OA
ATOM      5  C   UNL     1      -0.532  11.612  21.703  1.00  0.00     0.131 A 
ATOM      6  C   UNL     1      -0.687  10.376  22.336  1.00  0.00     0.093 A 
ATOM      7  C   UNL     1      -1.504  10.259  23.466  1.00  0.00     0.122 A 
ATOM      8  C   UNL     1      -2.174  11.381  23.957  1.00  0.00     0.092 A 
ATOM      9  C   UNL     1      -2.032  12.628  23.336  1.00  0.00     0.126 A 
ATOM     10  C   UNL     1      -1.173  12.762  22.219  1.00  0.00     0.039 A 
ENDROOT
BRANCH   2  11
ATOM     11  O   UNL     1       0.339  15.301  19.890  1.00  0.00    -0.389 OA
ATOM     12  H   UNL     1       0.163  16.064  20.501  1.00  0.00     0.211 HD
ENDBRANCH   2  11
BRANCH   3  13
ATOM     13  C   UNL     1       1.598  12.844  18.920  1.00  0.00    -0.001 A 
ATOM     14  C   UNL     1       1.529  13.045  17.531  1.00  0.00     0.057 A 
ATOM     15  C   UNL     1       2.854  12.672  19.526  1.00  0.00     0.012 A 
ATOM     16  C   UNL     1       2.697  13.054  16.755  1.00  0.00     0.157 A 
ATOM     17  C   UNL     1       4.017  12.680  18.753  1.00  0.00     0.050 A 
ATOM     18  C   UNL     1       3.943  12.868  17.366  1.00  0.00     0.157 A 
BRANCH  16  19
ATOM     19  O   UNL     1       2.626  13.247  15.376  1.00  0.00    -0.504 OA
ATOM     20  H   UNL     1       2.490  14.168  14.976  1.00  0.00     0.293 HD
ENDBRANCH  16  19
BRANCH  18  21
ATOM     21  O   UNL     1       5.101  12.876  16.591  1.00  0.00    -0.504 OA
ATOM     22  H   UNL     1       5.776  12.120  16.638  1.00  0.00     0.293 HD
ENDBRANCH  18  21
ENDBRANCH   3  13
BRANCH   9  23
ATOM     23  O   UNL     1      -2.763  13.702  23.847  1.00  0.00    -0.507 OA
ATOM     24  H   UNL     1      -2.617  14.661  23.560  1.00  0.00     0.293 HD
ENDBRANCH   9  23
BRANCH   7  25
ATOM     25  O   UNL     1      -1.661   9.030  24.103  1.00  0.00    -0.508 OA
ATOM     26  H   UNL     1      -1.737   8.963  25.111  1.00  0.00     0.293 HD
ENDBRANCH   7  25
TORSDOF 6
ENDMDL
