MODEL 1
REMARK VINA RESULT:    -5.296      0.000      0.000
REMARK INTER + INTRA:          -5.761
REMARK INTER:                  -5.761
REMARK INTRA:                   0.000
REMARK UNBOUND:                 0.000
REMARK SMILES Cc1cc(O)c2c(c1)C(=O)c1cc(O)cc(O)c1C2=O
REMARK SMILES IDX 1 1 2 2 8 3 7 4 6 5 4 6 3 7 19 8 20 9 18 10 11 11 9 12 10 13
REMARK SMILES IDX 12 14 13 15 15 16 16 17 5 18 17 20 14 22
REMARK H PARENT 5 19 17 21 14 23
REMARK Flexibility Score: inf
ROOT
ATOM      1  C   UNL     1      -1.195   3.773  -5.125  1.00  0.00     0.044 C 
ATOM      2  C   UNL     1       0.036   4.500  -5.580  1.00  0.00    -0.047 A 
ATOM      3  C   UNL     1       1.008   4.888  -4.652  1.00  0.00     0.016 A 
ATOM      4  C   UNL     1       2.151   5.593  -5.065  1.00  0.00     0.038 A 
ATOM      5  C   UNL     1       2.323   5.918  -6.429  1.00  0.00     0.076 A 
ATOM      6  C   UNL     1       1.294   5.596  -7.351  1.00  0.00     0.127 A 
ATOM      7  C   UNL     1       0.176   4.875  -6.921  1.00  0.00     0.050 A 
ATOM      8  C   UNL     1       3.609   6.532  -6.849  1.00  0.00     0.201 C 
ATOM      9  O   UNL     1       4.053   6.324  -8.010  1.00  0.00    -0.288 OA
ATOM     10  C   UNL     1       4.455   7.229  -5.847  1.00  0.00     0.076 A 
ATOM     11  C   UNL     1       4.279   6.906  -4.482  1.00  0.00     0.041 A 
ATOM     12  C   UNL     1       3.172   6.008  -4.074  1.00  0.00     0.194 C 
ATOM     13  O   UNL     1       3.088   5.615  -2.878  1.00  0.00    -0.289 OA
ATOM     14  C   UNL     1       5.150   7.440  -3.518  1.00  0.00     0.059 A 
ATOM     15  C   UNL     1       6.183   8.304  -3.897  1.00  0.00     0.120 A 
ATOM     16  C   UNL     1       6.334   8.657  -5.237  1.00  0.00     0.093 A 
ATOM     17  C   UNL     1       5.468   8.154  -6.213  1.00  0.00     0.131 A 
ENDROOT
BRANCH   6  18
ATOM     18  O   UNL     1       1.324   6.002  -8.687  1.00  0.00    -0.507 OA
ATOM     19  H   UNL     1       0.495   6.120  -9.254  1.00  0.00     0.293 HD
ENDBRANCH   6  18
BRANCH  17  20
ATOM     20  O   UNL     1       5.625   8.625  -7.519  1.00  0.00    -0.507 OA
ATOM     21  H   UNL     1       4.852   8.833  -8.135  1.00  0.00     0.293 HD
ENDBRANCH  17  20
BRANCH  15  22
ATOM     22  O   UNL     1       7.057   8.826  -2.946  1.00  0.00    -0.508 OA
ATOM     23  H   UNL     1       8.020   8.517  -2.886  1.00  0.00     0.293 HD
ENDBRANCH  15  22
TORSDOF 3
ENDMDL
MODEL 2
REMARK VINA RESULT:    -4.771      2.183      3.499
REMARK INTER + INTRA:          -5.189
REMARK INTER:                  -5.189
REMARK INTRA:                   0.000
REMARK UNBOUND:                 0.000
REMARK SMILES Cc1cc(O)c2c(c1)C(=O)c1cc(O)cc(O)c1C2=O
REMARK SMILES IDX 1 1 2 2 8 3 7 4 6 5 4 6 3 7 19 8 20 9 18 10 11 11 9 12 10 13
REMARK SMILES IDX 12 14 13 15 15 16 16 17 5 18 17 20 14 22
REMARK H PARENT 5 19 17 21 14 23
REMARK Flexibility Score: inf
ROOT
ATOM      1  C   UNL     1      -0.615   3.782  -4.749  1.00  0.00     0.044 C 
ATOM      2  C   UNL     1       0.161   5.063  -4.843  1.00  0.00    -0.047 A 
ATOM      3  C   UNL     1       1.120   5.232  -5.848  1.00  0.00     0.016 A 
ATOM      4  C   UNL     1       1.871   6.417  -5.928  1.00  0.00     0.038 A 
ATOM      5  C   UNL     1       1.659   7.450  -4.986  1.00  0.00     0.076 A 
ATOM      6  C   UNL     1       0.746   7.237  -3.921  1.00  0.00     0.127 A 
ATOM      7  C   UNL     1      -0.005   6.059  -3.874  1.00  0.00     0.050 A 
ATOM      8  C   UNL     1       2.363   8.742  -5.189  1.00  0.00     0.201 C 
ATOM      9  O   UNL     1       1.833   9.813  -4.792  1.00  0.00    -0.288 OA
ATOM     10  C   UNL     1       3.593   8.789  -6.023  1.00  0.00     0.076 A 
ATOM     11  C   UNL     1       3.804   7.753  -6.961  1.00  0.00     0.041 A 
ATOM     12  C   UNL     1       2.890   6.586  -6.990  1.00  0.00     0.194 C 
ATOM     13  O   UNL     1       2.998   5.724  -7.905  1.00  0.00    -0.289 OA
ATOM     14  C   UNL     1       4.880   7.833  -7.861  1.00  0.00     0.059 A 
ATOM     15  C   UNL     1       5.756   8.923  -7.824  1.00  0.00     0.120 A 
ATOM     16  C   UNL     1       5.574   9.925  -6.872  1.00  0.00     0.093 A 
ATOM     17  C   UNL     1       4.522   9.860  -5.953  1.00  0.00     0.131 A 
ENDROOT
BRANCH   6  18
ATOM     18  O   UNL     1       0.582   8.148  -2.875  1.00  0.00    -0.507 OA
ATOM     19  H   UNL     1      -0.193   8.794  -2.814  1.00  0.00     0.293 HD
ENDBRANCH   6  18
BRANCH  17  20
ATOM     20  O   UNL     1       4.459  10.853  -4.973  1.00  0.00    -0.507 OA
ATOM     21  H   UNL     1       4.872  10.760  -4.056  1.00  0.00     0.293 HD
ENDBRANCH  17  20
BRANCH  15  22
ATOM     22  O   UNL     1       6.817   9.012  -8.722  1.00  0.00    -0.508 OA
ATOM     23  H   UNL     1       7.281   9.893  -8.908  1.00  0.00     0.293 HD
ENDBRANCH  15  22
TORSDOF 3
ENDMDL
MODEL 3
REMARK VINA RESULT:    -4.728      1.858      6.356
REMARK INTER + INTRA:          -5.142
REMARK INTER:                  -5.142
REMARK INTRA:                   0.000
REMARK UNBOUND:                 0.000
REMARK SMILES Cc1cc(O)c2c(c1)C(=O)c1cc(O)cc(O)c1C2=O
REMARK SMILES IDX 1 1 2 2 8 3 7 4 6 5 4 6 3 7 19 8 20 9 18 10 11 11 9 12 10 13
REMARK SMILES IDX 12 14 13 15 15 16 16 17 5 18 17 20 14 22
REMARK H PARENT 5 19 17 21 14 23
REMARK Flexibility Score: inf
ROOT
ATOM      1  C   UNL     1       5.716   9.005  -7.764  1.00  0.00     0.044 C 
ATOM      2  C   UNL     1       4.728   8.316  -6.870  1.00  0.00    -0.047 A 
ATOM      3  C   UNL     1       3.889   7.321  -7.383  1.00  0.00     0.016 A 
ATOM      4  C   UNL     1       2.942   6.689  -6.559  1.00  0.00     0.038 A 
ATOM      5  C   UNL     1       2.832   7.060  -5.200  1.00  0.00     0.076 A 
ATOM      6  C   UNL     1       3.627   8.127  -4.709  1.00  0.00     0.127 A 
ATOM      7  C   UNL     1       4.577   8.727  -5.541  1.00  0.00     0.050 A 
ATOM      8  C   UNL     1       1.925   6.271  -4.327  1.00  0.00     0.201 C 
ATOM      9  O   UNL     1       2.186   6.148  -3.101  1.00  0.00    -0.288 OA
ATOM     10  C   UNL     1       0.825   5.477  -4.933  1.00  0.00     0.076 A 
ATOM     11  C   UNL     1       0.935   5.110  -6.293  1.00  0.00     0.041 A 
ATOM     12  C   UNL     1       2.051   5.642  -7.113  1.00  0.00     0.194 C 
ATOM     13  O   UNL     1       2.227   5.219  -8.288  1.00  0.00    -0.289 OA
ATOM     14  C   UNL     1      -0.014   4.246  -6.865  1.00  0.00     0.059 A 
ATOM     15  C   UNL     1      -1.079   3.759  -6.101  1.00  0.00     0.120 A 
ATOM     16  C   UNL     1      -1.214   4.151  -4.771  1.00  0.00     0.093 A 
ATOM     17  C   UNL     1      -0.293   5.025  -4.184  1.00  0.00     0.131 A 
ENDROOT
BRANCH   6  18
ATOM     18  O   UNL     1       3.481   8.645  -3.419  1.00  0.00    -0.507 OA
ATOM     19  H   UNL     1       3.679   9.606  -3.178  1.00  0.00     0.293 HD
ENDBRANCH   6  18
BRANCH  17  20
ATOM     20  O   UNL     1      -0.546   5.445  -2.875  1.00  0.00    -0.507 OA
ATOM     21  H   UNL     1      -0.534   4.825  -2.077  1.00  0.00     0.293 HD
ENDBRANCH  17  20
BRANCH  15  22
ATOM     22  O   UNL     1      -2.016   2.892  -6.661  1.00  0.00    -0.508 OA
ATOM     23  H   UNL     1      -1.902   2.522  -7.597  1.00  0.00     0.293 HD
ENDBRANCH  15  22
TORSDOF 3
ENDMDL
MODEL 4
REMARK VINA RESULT:    -4.698      4.807      5.959
REMARK INTER + INTRA:          -5.110
REMARK INTER:                  -5.110
REMARK INTRA:                   0.000
REMARK UNBOUND:                 0.000
REMARK SMILES Cc1cc(O)c2c(c1)C(=O)c1cc(O)cc(O)c1C2=O
REMARK SMILES IDX 1 1 2 2 8 3 7 4 6 5 4 6 3 7 19 8 20 9 18 10 11 11 9 12 10 13
REMARK SMILES IDX 12 14 13 15 15 16 16 17 5 18 17 20 14 22
REMARK H PARENT 5 19 17 21 14 23
REMARK Flexibility Score: inf
ROOT
ATOM      1  C   UNL     1      -1.428  14.104  -4.359  1.00  0.00     0.044 C 
ATOM      2  C   UNL     1      -0.794  12.745  -4.410  1.00  0.00    -0.047 A 
ATOM      3  C   UNL     1       0.376  12.542  -5.150  1.00  0.00     0.016 A 
ATOM      4  C   UNL     1       0.962  11.267  -5.226  1.00  0.00     0.038 A 
ATOM      5  C   UNL     1       0.367  10.177  -4.551  1.00  0.00     0.076 A 
ATOM      6  C   UNL     1      -0.864  10.373  -3.873  1.00  0.00     0.127 A 
ATOM      7  C   UNL     1      -1.417  11.654  -3.793  1.00  0.00     0.050 A 
ATOM      8  C   UNL     1       1.092   8.881  -4.533  1.00  0.00     0.201 C 
ATOM      9  O   UNL     1       0.955   8.101  -3.553  1.00  0.00    -0.288 OA
ATOM     10  C   UNL     1       2.116   8.593  -5.571  1.00  0.00     0.076 A 
ATOM     11  C   UNL     1       2.707   9.685  -6.246  1.00  0.00     0.041 A 
ATOM     12  C   UNL     1       2.197  11.058  -6.018  1.00  0.00     0.194 C 
ATOM     13  O   UNL     1       2.801  12.046  -6.519  1.00  0.00    -0.289 OA
ATOM     14  C   UNL     1       3.773   9.463  -7.134  1.00  0.00     0.059 A 
ATOM     15  C   UNL     1       4.244   8.167  -7.367  1.00  0.00     0.120 A 
ATOM     16  C   UNL     1       3.636   7.085  -6.734  1.00  0.00     0.093 A 
ATOM     17  C   UNL     1       2.561   7.277  -5.860  1.00  0.00     0.131 A 
ENDROOT
BRANCH   6  18
ATOM     18  O   UNL     1      -1.586   9.323  -3.300  1.00  0.00    -0.507 OA
ATOM     19  H   UNL     1      -2.041   9.384  -2.400  1.00  0.00     0.293 HD
ENDBRANCH   6  18
BRANCH  17  20
ATOM     20  O   UNL     1       1.945   6.138  -5.335  1.00  0.00    -0.507 OA
ATOM     21  H   UNL     1       0.944   6.012  -5.294  1.00  0.00     0.293 HD
ENDBRANCH  17  20
BRANCH  15  22
ATOM     22  O   UNL     1       5.309   7.945  -8.237  1.00  0.00    -0.508 OA
ATOM     23  H   UNL     1       5.606   8.650  -8.902  1.00  0.00     0.293 HD
ENDBRANCH  15  22
TORSDOF 3
ENDMDL
MODEL 5
REMARK VINA RESULT:    -4.659      3.997      4.644
REMARK INTER + INTRA:          -5.068
REMARK INTER:                  -5.068
REMARK INTRA:                   0.000
REMARK UNBOUND:                 0.000
REMARK SMILES Cc1cc(O)c2c(c1)C(=O)c1cc(O)cc(O)c1C2=O
REMARK SMILES IDX 1 1 2 2 8 3 7 4 6 5 4 6 3 7 19 8 20 9 18 10 11 11 9 12 10 13
REMARK SMILES IDX 12 14 13 15 15 16 16 17 5 18 17 20 14 22
REMARK H PARENT 5 19 17 21 14 23
REMARK Flexibility Score: inf
ROOT
ATOM      1  C   UNL     1       1.214   5.289  -6.114  1.00  0.00     0.044 C 
ATOM      2  C   UNL     1       2.016   6.552  -6.206  1.00  0.00    -0.047 A 
ATOM      3  C   UNL     1       1.593   7.705  -5.535  1.00  0.00     0.016 A 
ATOM      4  C   UNL     1       2.323   8.901  -5.637  1.00  0.00     0.038 A 
ATOM      5  C   UNL     1       3.495   8.946  -6.424  1.00  0.00     0.076 A 
ATOM      6  C   UNL     1       3.871   7.798  -7.168  1.00  0.00     0.127 A 
ATOM      7  C   UNL     1       3.142   6.613  -7.035  1.00  0.00     0.050 A 
ATOM      8  C   UNL     1       4.319  10.181  -6.390  1.00  0.00     0.201 C 
ATOM      9  O   UNL     1       5.565  10.108  -6.560  1.00  0.00    -0.288 OA
ATOM     10  C   UNL     1       3.704  11.467  -5.969  1.00  0.00     0.076 A 
ATOM     11  C   UNL     1       2.529  11.420  -5.184  1.00  0.00     0.041 A 
ATOM     12  C   UNL     1       1.863  10.120  -4.929  1.00  0.00     0.194 C 
ATOM     13  O   UNL     1       0.891  10.057  -4.128  1.00  0.00    -0.289 OA
ATOM     14  C   UNL     1       1.995  12.606  -4.653  1.00  0.00     0.059 A 
ATOM     15  C   UNL     1       2.609  13.836  -4.908  1.00  0.00     0.120 A 
ATOM     16  C   UNL     1       3.744  13.890  -5.715  1.00  0.00     0.093 A 
ATOM     17  C   UNL     1       4.284  12.726  -6.272  1.00  0.00     0.131 A 
ENDROOT
BRANCH   6  18
ATOM     18  O   UNL     1       4.935   7.801  -8.074  1.00  0.00    -0.507 OA
ATOM     19  H   UNL     1       5.813   8.270  -7.902  1.00  0.00     0.293 HD
ENDBRANCH   6  18
BRANCH  17  20
ATOM     20  O   UNL     1       5.366  12.870  -7.143  1.00  0.00    -0.507 OA
ATOM     21  H   UNL     1       5.518  12.279  -7.948  1.00  0.00     0.293 HD
ENDBRANCH  17  20
BRANCH  15  22
ATOM     22  O   UNL     1       2.090  15.013  -4.373  1.00  0.00    -0.508 OA
ATOM     23  H   UNL     1       2.322  15.920  -4.762  1.00  0.00     0.293 HD
ENDBRANCH  15  22
TORSDOF 3
ENDMDL
MODEL 6
REMARK VINA RESULT:    -4.655      1.649      3.567
REMARK INTER + INTRA:          -5.064
REMARK INTER:                  -5.064
REMARK INTRA:                   0.000
REMARK UNBOUND:                 0.000
REMARK SMILES Cc1cc(O)c2c(c1)C(=O)c1cc(O)cc(O)c1C2=O
REMARK SMILES IDX 1 1 2 2 8 3 7 4 6 5 4 6 3 7 19 8 20 9 18 10 11 11 9 12 10 13
REMARK SMILES IDX 12 14 13 15 15 16 16 17 5 18 17 20 14 22
REMARK H PARENT 5 19 17 21 14 23
REMARK Flexibility Score: inf
ROOT
ATOM      1  C   UNL     1      -1.877   2.621  -6.619  1.00  0.00     0.044 C 
ATOM      2  C   UNL     1      -0.981   3.709  -6.107  1.00  0.00    -0.047 A 
ATOM      3  C   UNL     1      -0.050   4.314  -6.958  1.00  0.00     0.016 A 
ATOM      4  C   UNL     1       0.812   5.316  -6.480  1.00  0.00     0.038 A 
ATOM      5  C   UNL     1       0.741   5.718  -5.127  1.00  0.00     0.076 A 
ATOM      6  C   UNL     1      -0.146   5.042  -4.251  1.00  0.00     0.127 A 
ATOM      7  C   UNL     1      -1.009   4.064  -4.753  1.00  0.00     0.050 A 
ATOM      8  C   UNL     1       1.563   6.878  -4.695  1.00  0.00     0.201 C 
ATOM      9  O   UNL     1       1.158   7.618  -3.759  1.00  0.00    -0.288 OA
ATOM     10  C   UNL     1       2.757   7.272  -5.487  1.00  0.00     0.076 A 
ATOM     11  C   UNL     1       2.827   6.866  -6.838  1.00  0.00     0.041 A 
ATOM     12  C   UNL     1       1.801   5.946  -7.386  1.00  0.00     0.194 C 
ATOM     13  O   UNL     1       1.786   5.682  -8.620  1.00  0.00    -0.289 OA
ATOM     14  C   UNL     1       3.869   7.332  -7.656  1.00  0.00     0.059 A 
ATOM     15  C   UNL     1       4.850   8.183  -7.138  1.00  0.00     0.120 A 
ATOM     16  C   UNL     1       4.807   8.553  -5.795  1.00  0.00     0.093 A 
ATOM     17  C   UNL     1       3.790   8.087  -4.955  1.00  0.00     0.131 A 
ENDROOT
BRANCH   6  18
ATOM     18  O   UNL     1      -0.178   5.284  -2.875  1.00  0.00    -0.507 OA
ATOM     19  H   UNL     1      -0.376   6.190  -2.472  1.00  0.00     0.293 HD
ENDBRANCH   6  18
BRANCH  17  20
ATOM     20  O   UNL     1       3.865   8.426  -3.602  1.00  0.00    -0.507 OA
ATOM     21  H   UNL     1       3.130   8.908  -3.105  1.00  0.00     0.293 HD
ENDBRANCH  17  20
BRANCH  15  22
ATOM     22  O   UNL     1       5.879   8.657  -7.949  1.00  0.00    -0.508 OA
ATOM     23  H   UNL     1       6.129   8.192  -8.814  1.00  0.00     0.293 HD
ENDBRANCH  15  22
TORSDOF 3
ENDMDL
MODEL 7
REMARK VINA RESULT:    -4.521      2.437      6.385
REMARK INTER + INTRA:          -4.918
REMARK INTER:                  -4.918
REMARK INTRA:                   0.000
REMARK UNBOUND:                 0.000
REMARK SMILES Cc1cc(O)c2c(c1)C(=O)c1cc(O)cc(O)c1C2=O
REMARK SMILES IDX 1 1 2 2 8 3 7 4 6 5 4 6 3 7 19 8 20 9 18 10 11 11 9 12 10 13
REMARK SMILES IDX 12 14 13 15 15 16 16 17 5 18 17 20 14 22
REMARK H PARENT 5 19 17 21 14 23
REMARK Flexibility Score: inf
ROOT
ATOM      1  C   UNL     1       6.366  12.637  -5.474  1.00  0.00     0.044 C 
ATOM      2  C   UNL     1       5.413  11.500  -5.257  1.00  0.00    -0.047 A 
ATOM      3  C   UNL     1       5.335  10.459  -6.189  1.00  0.00     0.016 A 
ATOM      4  C   UNL     1       4.425   9.404  -6.009  1.00  0.00     0.038 A 
ATOM      5  C   UNL     1       3.579   9.389  -4.878  1.00  0.00     0.076 A 
ATOM      6  C   UNL     1       3.604  10.489  -3.982  1.00  0.00     0.127 A 
ATOM      7  C   UNL     1       4.532  11.518  -4.170  1.00  0.00     0.050 A 
ATOM      8  C   UNL     1       2.738   8.187  -4.644  1.00  0.00     0.201 C 
ATOM      9  O   UNL     1       2.435   7.854  -3.468  1.00  0.00    -0.288 OA
ATOM     10  C   UNL     1       2.417   7.280  -5.777  1.00  0.00     0.076 A 
ATOM     11  C   UNL     1       3.263   7.299  -6.909  1.00  0.00     0.041 A 
ATOM     12  C   UNL     1       4.344   8.309  -7.005  1.00  0.00     0.194 C 
ATOM     13  O   UNL     1       5.179   8.250  -7.949  1.00  0.00    -0.289 OA
ATOM     14  C   UNL     1       3.074   6.363  -7.939  1.00  0.00     0.059 A 
ATOM     15  C   UNL     1       2.043   5.421  -7.861  1.00  0.00     0.120 A 
ATOM     16  C   UNL     1       1.181   5.427  -6.766  1.00  0.00     0.093 A 
ATOM     17  C   UNL     1       1.336   6.360  -5.736  1.00  0.00     0.131 A 
ENDROOT
BRANCH   6  18
ATOM     18  O   UNL     1       2.706  10.617  -2.919  1.00  0.00    -0.507 OA
ATOM     19  H   UNL     1       1.707  10.709  -3.041  1.00  0.00     0.293 HD
ENDBRANCH   6  18
BRANCH  17  20
ATOM     20  O   UNL     1       0.380   6.362  -4.718  1.00  0.00    -0.507 OA
ATOM     21  H   UNL     1       0.386   7.014  -3.946  1.00  0.00     0.293 HD
ENDBRANCH  17  20
BRANCH  15  22
ATOM     22  O   UNL     1       1.860   4.483  -8.875  1.00  0.00    -0.508 OA
ATOM     23  H   UNL     1       1.116   4.578  -9.556  1.00  0.00     0.293 HD
ENDBRANCH  15  22
TORSDOF 3
ENDMDL
MODEL 8
REMARK VINA RESULT:    -4.516      4.823      6.096
REMARK INTER + INTRA:          -4.912
REMARK INTER:                  -4.912
REMARK INTRA:                   0.000
REMARK UNBOUND:                 0.000
REMARK SMILES Cc1cc(O)c2c(c1)C(=O)c1cc(O)cc(O)c1C2=O
REMARK SMILES IDX 1 1 2 2 8 3 7 4 6 5 4 6 3 7 19 8 20 9 18 10 11 11 9 12 10 13
REMARK SMILES IDX 12 14 13 15 15 16 16 17 5 18 17 20 14 22
REMARK H PARENT 5 19 17 21 14 23
REMARK Flexibility Score: inf
ROOT
ATOM      1  C   UNL     1       0.106  14.968  -3.880  1.00  0.00     0.044 C 
ATOM      2  C   UNL     1       0.518  13.584  -4.285  1.00  0.00    -0.047 A 
ATOM      3  C   UNL     1       1.820  13.339  -4.734  1.00  0.00     0.016 A 
ATOM      4  C   UNL     1       2.207  12.052  -5.142  1.00  0.00     0.038 A 
ATOM      5  C   UNL     1       1.275  10.991  -5.102  1.00  0.00     0.076 A 
ATOM      6  C   UNL     1      -0.066  11.263  -4.726  1.00  0.00     0.127 A 
ATOM      7  C   UNL     1      -0.422  12.547  -4.304  1.00  0.00     0.050 A 
ATOM      8  C   UNL     1       1.759   9.618  -5.399  1.00  0.00     0.201 C 
ATOM      9  O   UNL     1       1.203   8.626  -4.855  1.00  0.00    -0.288 OA
ATOM     10  C   UNL     1       3.008   9.429  -6.181  1.00  0.00     0.076 A 
ATOM     11  C   UNL     1       3.937  10.493  -6.224  1.00  0.00     0.041 A 
ATOM     12  C   UNL     1       3.587  11.803  -5.624  1.00  0.00     0.194 C 
ATOM     13  O   UNL     1       4.457  12.714  -5.547  1.00  0.00    -0.289 OA
ATOM     14  C   UNL     1       5.188  10.307  -6.836  1.00  0.00     0.059 A 
ATOM     15  C   UNL     1       5.514   9.079  -7.421  1.00  0.00     0.120 A 
ATOM     16  C   UNL     1       4.584   8.040  -7.417  1.00  0.00     0.093 A 
ATOM     17  C   UNL     1       3.326   8.207  -6.830  1.00  0.00     0.131 A 
ENDROOT
BRANCH   6  18
ATOM     18  O   UNL     1      -1.077  10.302  -4.791  1.00  0.00    -0.507 OA
ATOM     19  H   UNL     1      -1.966  10.394  -4.318  1.00  0.00     0.293 HD
ENDBRANCH   6  18
BRANCH  17  20
ATOM     20  O   UNL     1       2.415   7.154  -6.946  1.00  0.00    -0.507 OA
ATOM     21  H   UNL     1       2.666   6.232  -7.275  1.00  0.00     0.293 HD
ENDBRANCH  17  20
BRANCH  15  22
ATOM     22  O   UNL     1       6.758   8.885  -8.019  1.00  0.00    -0.508 OA
ATOM     23  H   UNL     1       7.613   9.196  -7.574  1.00  0.00     0.293 HD
ENDBRANCH  15  22
TORSDOF 3
ENDMDL
MODEL 9
REMARK VINA RESULT:    -4.480      7.422      7.927
REMARK INTER + INTRA:          -4.873
REMARK INTER:                  -4.873
REMARK INTRA:                   0.000
REMARK UNBOUND:                 0.000
REMARK SMILES Cc1cc(O)c2c(c1)C(=O)c1cc(O)cc(O)c1C2=O
REMARK SMILES IDX 1 1 2 2 8 3 7 4 6 5 4 6 3 7 19 8 20 9 18 10 11 11 9 12 10 13
REMARK SMILES IDX 12 14 13 15 15 16 16 17 5 18 17 20 14 22
REMARK H PARENT 5 19 17 21 14 23
REMARK Flexibility Score: inf
ROOT
ATOM      1  C   UNL     1      -3.724  15.762  -2.875  1.00  0.00     0.044 C 
ATOM      2  C   UNL     1      -2.868  14.596  -3.270  1.00  0.00    -0.047 A 
ATOM      3  C   UNL     1      -1.554  14.802  -3.705  1.00  0.00     0.016 A 
ATOM      4  C   UNL     1      -0.753  13.718  -4.103  1.00  0.00     0.038 A 
ATOM      5  C   UNL     1      -1.276  12.406  -4.067  1.00  0.00     0.076 A 
ATOM      6  C   UNL     1      -2.634  12.213  -3.707  1.00  0.00     0.127 A 
ATOM      7  C   UNL     1      -3.405  13.304  -3.294  1.00  0.00     0.050 A 
ATOM      8  C   UNL     1      -0.356  11.275  -4.354  1.00  0.00     0.201 C 
ATOM      9  O   UNL     1      -0.553  10.155  -3.812  1.00  0.00    -0.288 OA
ATOM     10  C   UNL     1       0.892  11.516  -5.122  1.00  0.00     0.076 A 
ATOM     11  C   UNL     1       1.412  12.830  -5.160  1.00  0.00     0.041 A 
ATOM     12  C   UNL     1       0.635  13.947  -4.570  1.00  0.00     0.194 C 
ATOM     13  O   UNL     1       1.149  15.096  -4.487  1.00  0.00    -0.289 OA
ATOM     14  C   UNL     1       2.659  13.073  -5.759  1.00  0.00     0.059 A 
ATOM     15  C   UNL     1       3.385  12.025  -6.334  1.00  0.00     0.120 A 
ATOM     16  C   UNL     1       2.857  10.735  -6.336  1.00  0.00     0.093 A 
ATOM     17  C   UNL     1       1.609  10.471  -5.763  1.00  0.00     0.131 A 
ENDROOT
BRANCH   6  18
ATOM     18  O   UNL     1      -3.264  10.969  -3.779  1.00  0.00    -0.507 OA
ATOM     19  H   UNL     1      -2.776  10.106  -3.975  1.00  0.00     0.293 HD
ENDBRANCH   6  18
BRANCH  17  20
ATOM     20  O   UNL     1       1.106   9.173  -5.884  1.00  0.00    -0.507 OA
ATOM     21  H   UNL     1       1.051   8.521  -5.114  1.00  0.00     0.293 HD
ENDBRANCH  17  20
BRANCH  15  22
ATOM     22  O   UNL     1       4.628  12.260  -6.918  1.00  0.00    -0.508 OA
ATOM     23  H   UNL     1       4.759  12.991  -7.608  1.00  0.00     0.293 HD
ENDBRANCH  15  22
TORSDOF 3
ENDMDL
