MODEL 1
REMARK VINA RESULT:    -4.734      0.000      0.000
REMARK INTER + INTRA:         -11.613
REMARK INTER:                  -9.162
REMARK INTRA:                  -2.451
REMARK UNBOUND:                -2.451
REMARK SMILES CCCCCCCCCCCCCCCCCC(=O)[O-]
REMARK SMILES IDX 10 1 11 2 12 3 13 4 14 5 15 6 16 7 17 8 18 9 19 10 20 11
REMARK SMILES IDX 9 12 8 13 7 14 6 15 5 16 4 17 3 18 2 19 1 20
REMARK H PARENT
REMARK Flexibility Score: inf
ROOT
ATOM      1  C   UNL     1     -15.137   2.203  28.071  1.00  0.00     0.000 C 
ENDROOT
BRANCH   1   2
ATOM      2  C   UNL     1     -13.720   2.570  28.541  1.00  0.00     0.000 C 
BRANCH   2   3
ATOM      3  C   UNL     1     -13.448   4.081  28.470  1.00  0.00     0.000 C 
BRANCH   3   4
ATOM      4  C   UNL     1     -14.597   4.864  27.808  1.00  0.00     0.000 C 
BRANCH   4   5
ATOM      5  C   UNL     1     -15.296   5.819  28.799  1.00  0.00     0.000 C 
BRANCH   5   6
ATOM      6  C   UNL     1     -14.695   5.788  30.214  1.00  0.00     0.000 C 
BRANCH   6   7
ATOM      7  C   UNL     1     -15.186   6.945  31.099  1.00  0.00     0.006 C 
BRANCH   7   8
ATOM      8  C   UNL     1     -14.061   7.929  31.444  1.00  0.00     0.053 C 
BRANCH   8   9
ATOM      9  C   UNL     1     -14.590   9.297  31.749  1.00  0.00     0.041 C 
ATOM     10  O   UNL     1     -14.296   9.862  32.835  1.00  0.00    -0.550 OA
ATOM     11  O   UNL     1     -15.427   9.937  30.844  1.00  0.00    -0.550 OA
ENDBRANCH   8   9
ENDBRANCH   7   8
ENDBRANCH   6   7
ENDBRANCH   5   6
ENDBRANCH   4   5
ENDBRANCH   3   4
ENDBRANCH   2   3
ENDBRANCH   1   2
BRANCH   1  12
ATOM     12  C   UNL     1     -16.082   1.870  29.238  1.00  0.00     0.000 C 
BRANCH  12  13
ATOM     13  C   UNL     1     -15.336   1.663  30.568  1.00  0.00    -0.000 C 
BRANCH  13  14
ATOM     14  C   UNL     1     -15.888   2.564  31.695  1.00  0.00    -0.000 C 
BRANCH  14  15
ATOM     15  C   UNL     1     -17.083   3.434  31.261  1.00  0.00    -0.000 C 
BRANCH  15  16
ATOM     16  C   UNL     1     -18.344   3.288  32.133  1.00  0.00    -0.000 C 
BRANCH  16  17
ATOM     17  C   UNL     1     -18.578   1.874  32.698  1.00  0.00    -0.000 C 
BRANCH  17  18
ATOM     18  C   UNL     1     -19.692   1.113  31.959  1.00  0.00    -0.000 C 
BRANCH  18  19
ATOM     19  C   UNL     1     -19.161   0.308  30.763  1.00  0.00    -0.003 C 
ATOM     20  C   UNL     1     -18.142  -0.755  31.174  1.00  0.00     0.004 C 
ENDBRANCH  18  19
ENDBRANCH  17  18
ENDBRANCH  16  17
ENDBRANCH  15  16
ENDBRANCH  14  15
ENDBRANCH  13  14
ENDBRANCH  12  13
ENDBRANCH   1  12
TORSDOF 16
ENDMDL
MODEL 2
REMARK VINA RESULT:    -4.591     13.086     15.814
REMARK INTER + INTRA:         -11.337
REMARK INTER:                  -9.019
REMARK INTRA:                  -2.318
REMARK UNBOUND:                -2.451
REMARK SMILES CCCCCCCCCCCCCCCCCC(=O)[O-]
REMARK SMILES IDX 10 1 11 2 12 3 13 4 14 5 15 6 16 7 17 8 18 9 19 10 20 11
REMARK SMILES IDX 9 12 8 13 7 14 6 15 5 16 4 17 3 18 2 19 1 20
REMARK H PARENT
REMARK Flexibility Score: inf
ROOT
ATOM      1  C   UNL     1     -17.150  -5.214  17.860  1.00  0.00     0.000 C 
ENDROOT
BRANCH   1   2
ATOM      2  C   UNL     1     -16.465  -6.589  17.943  1.00  0.00     0.000 C 
BRANCH   2   3
ATOM      3  C   UNL     1     -15.178  -6.556  18.784  1.00  0.00     0.000 C 
BRANCH   3   4
ATOM      4  C   UNL     1     -15.303  -5.664  20.032  1.00  0.00     0.000 C 
BRANCH   4   5
ATOM      5  C   UNL     1     -14.933  -6.421  21.326  1.00  0.00     0.000 C 
BRANCH   5   6
ATOM      6  C   UNL     1     -15.923  -6.189  22.480  1.00  0.00     0.000 C 
BRANCH   6   7
ATOM      7  C   UNL     1     -16.781  -4.928  22.289  1.00  0.00     0.006 C 
BRANCH   7   8
ATOM      8  C   UNL     1     -18.281  -5.223  22.414  1.00  0.00     0.053 C 
BRANCH   8   9
ATOM      9  C   UNL     1     -18.905  -5.521  21.085  1.00  0.00     0.041 C 
ATOM     10  O   UNL     1     -19.526  -4.621  20.461  1.00  0.00    -0.550 OA
ATOM     11  O   UNL     1     -18.822  -6.799  20.548  1.00  0.00    -0.550 OA
ENDBRANCH   8   9
ENDBRANCH   7   8
ENDBRANCH   6   7
ENDBRANCH   5   6
ENDBRANCH   4   5
ENDBRANCH   3   4
ENDBRANCH   2   3
ENDBRANCH   1   2
BRANCH   1  12
ATOM     12  C   UNL     1     -17.112  -4.617  16.443  1.00  0.00     0.000 C 
BRANCH  12  13
ATOM     13  C   UNL     1     -16.061  -5.288  15.542  1.00  0.00    -0.000 C 
BRANCH  13  14
ATOM     14  C   UNL     1     -14.687  -4.588  15.624  1.00  0.00    -0.000 C 
BRANCH  14  15
ATOM     15  C   UNL     1     -14.746  -3.182  16.250  1.00  0.00    -0.000 C 
BRANCH  15  16
ATOM     16  C   UNL     1     -13.998  -3.036  17.589  1.00  0.00    -0.000 C 
BRANCH  16  17
ATOM     17  C   UNL     1     -14.581  -1.976  18.542  1.00  0.00    -0.000 C 
BRANCH  17  18
ATOM     18  C   UNL     1     -15.757  -1.200  17.924  1.00  0.00    -0.000 C 
BRANCH  18  19
ATOM     19  C   UNL     1     -15.405   0.266  17.629  1.00  0.00    -0.003 C 
ATOM     20  C   UNL     1     -14.983   0.491  16.178  1.00  0.00     0.004 C 
ENDBRANCH  18  19
ENDBRANCH  17  18
ENDBRANCH  16  17
ENDBRANCH  15  16
ENDBRANCH  14  15
ENDBRANCH  13  14
ENDBRANCH  12  13
ENDBRANCH   1  12
TORSDOF 16
ENDMDL
MODEL 3
REMARK VINA RESULT:    -4.591      3.759      8.054
REMARK INTER + INTRA:         -11.337
REMARK INTER:                  -8.941
REMARK INTRA:                  -2.396
REMARK UNBOUND:                -2.451
REMARK SMILES CCCCCCCCCCCCCCCCCC(=O)[O-]
REMARK SMILES IDX 10 1 11 2 12 3 13 4 14 5 15 6 16 7 17 8 18 9 19 10 20 11
REMARK SMILES IDX 9 12 8 13 7 14 6 15 5 16 4 17 3 18 2 19 1 20
REMARK H PARENT
REMARK Flexibility Score: inf
ROOT
ATOM      1  C   UNL     1     -14.731   9.473  31.881  1.00  0.00     0.000 C 
ENDROOT
BRANCH   1   2
ATOM      2  C   UNL     1     -16.139   9.276  32.466  1.00  0.00     0.000 C 
BRANCH   2   3
ATOM      3  C   UNL     1     -17.211   9.103  31.377  1.00  0.00     0.000 C 
BRANCH   3   4
ATOM      4  C   UNL     1     -17.644   7.637  31.194  1.00  0.00     0.000 C 
BRANCH   4   5
ATOM      5  C   UNL     1     -17.525   7.175  29.726  1.00  0.00     0.000 C 
BRANCH   5   6
ATOM      6  C   UNL     1     -16.888   5.785  29.567  1.00  0.00     0.000 C 
BRANCH   6   7
ATOM      7  C   UNL     1     -16.064   5.360  30.793  1.00  0.00     0.006 C 
BRANCH   7   8
ATOM      8  C   UNL     1     -15.405   3.988  30.602  1.00  0.00     0.053 C 
BRANCH   8   9
ATOM      9  C   UNL     1     -16.004   2.950  31.499  1.00  0.00     0.041 C 
ATOM     10  O   UNL     1     -15.322   1.956  31.862  1.00  0.00    -0.550 OA
ATOM     11  O   UNL     1     -17.324   3.067  31.915  1.00  0.00    -0.550 OA
ENDBRANCH   8   9
ENDBRANCH   7   8
ENDBRANCH   6   7
ENDBRANCH   5   6
ENDBRANCH   4   5
ENDBRANCH   3   4
ENDBRANCH   2   3
ENDBRANCH   1   2
BRANCH   1  12
ATOM     12  C   UNL     1     -14.024   8.141  31.577  1.00  0.00     0.000 C 
BRANCH  12  13
ATOM     13  C   UNL     1     -13.650   7.989  30.093  1.00  0.00    -0.000 C 
BRANCH  13  14
ATOM     14  C   UNL     1     -14.341   9.046  29.203  1.00  0.00    -0.000 C 
BRANCH  14  15
ATOM     15  C   UNL     1     -13.365   9.841  28.317  1.00  0.00    -0.000 C 
BRANCH  15  16
ATOM     16  C   UNL     1     -13.651  11.352  28.228  1.00  0.00    -0.000 C 
BRANCH  16  17
ATOM     17  C   UNL     1     -14.716  11.866  29.214  1.00  0.00    -0.000 C 
BRANCH  17  18
ATOM     18  C   UNL     1     -15.968  12.415  28.509  1.00  0.00    -0.000 C 
BRANCH  18  19
ATOM     19  C   UNL     1     -17.137  11.417  28.525  1.00  0.00    -0.003 C 
ATOM     20  C   UNL     1     -18.367  11.939  27.783  1.00  0.00     0.004 C 
ENDBRANCH  18  19
ENDBRANCH  17  18
ENDBRANCH  16  17
ENDBRANCH  15  16
ENDBRANCH  14  15
ENDBRANCH  13  14
ENDBRANCH  12  13
ENDBRANCH   1  12
TORSDOF 16
ENDMDL
MODEL 4
REMARK VINA RESULT:    -4.565     12.071     14.247
REMARK INTER + INTRA:         -11.286
REMARK INTER:                  -8.358
REMARK INTRA:                  -2.928
REMARK UNBOUND:                -2.451
REMARK SMILES CCCCCCCCCCCCCCCCCC(=O)[O-]
REMARK SMILES IDX 10 1 11 2 12 3 13 4 14 5 15 6 16 7 17 8 18 9 19 10 20 11
REMARK SMILES IDX 9 12 8 13 7 14 6 15 5 16 4 17 3 18 2 19 1 20
REMARK H PARENT
REMARK Flexibility Score: inf
ROOT
ATOM      1  C   UNL     1     -15.144  -5.794  20.079  1.00  0.00     0.000 C 
ENDROOT
BRANCH   1   2
ATOM      2  C   UNL     1     -15.499  -6.665  18.862  1.00  0.00     0.000 C 
BRANCH   2   3
ATOM      3  C   UNL     1     -14.688  -6.289  17.611  1.00  0.00     0.000 C 
BRANCH   3   4
ATOM      4  C   UNL     1     -15.571  -5.780  16.458  1.00  0.00     0.000 C 
BRANCH   4   5
ATOM      5  C   UNL     1     -15.297  -4.298  16.126  1.00  0.00     0.000 C 
BRANCH   5   6
ATOM      6  C   UNL     1     -14.240  -3.648  17.034  1.00  0.00     0.000 C 
BRANCH   6   7
ATOM      7  C   UNL     1     -14.714  -2.322  17.652  1.00  0.00     0.006 C 
BRANCH   7   8
ATOM      8  C   UNL     1     -14.460  -2.263  19.164  1.00  0.00     0.053 C 
BRANCH   8   9
ATOM      9  C   UNL     1     -14.915  -0.966  19.756  1.00  0.00     0.041 C 
ATOM     10  O   UNL     1     -14.993  -0.833  21.006  1.00  0.00    -0.550 OA
ATOM     11  O   UNL     1     -15.277   0.089  18.929  1.00  0.00    -0.550 OA
ENDBRANCH   8   9
ENDBRANCH   7   8
ENDBRANCH   6   7
ENDBRANCH   5   6
ENDBRANCH   4   5
ENDBRANCH   3   4
ENDBRANCH   2   3
ENDBRANCH   1   2
BRANCH   1  12
ATOM     12  C   UNL     1     -14.954  -6.619  21.363  1.00  0.00     0.000 C 
BRANCH  12  13
ATOM     13  C   UNL     1     -15.870  -6.158  22.510  1.00  0.00    -0.000 C 
BRANCH  13  14
ATOM     14  C   UNL     1     -16.506  -4.778  22.233  1.00  0.00    -0.000 C 
BRANCH  14  15
ATOM     15  C   UNL     1     -18.043  -4.776  22.329  1.00  0.00    -0.000 C 
BRANCH  15  16
ATOM     16  C   UNL     1     -18.715  -6.125  22.012  1.00  0.00    -0.000 C 
BRANCH  16  17
ATOM     17  C   UNL     1     -18.852  -6.442  20.511  1.00  0.00    -0.000 C 
BRANCH  17  18
ATOM     18  C   UNL     1     -19.478  -5.286  19.711  1.00  0.00    -0.000 C 
BRANCH  18  19
ATOM     19  C   UNL     1     -18.576  -4.807  18.564  1.00  0.00    -0.003 C 
ATOM     20  C   UNL     1     -17.968  -3.429  18.827  1.00  0.00     0.004 C 
ENDBRANCH  18  19
ENDBRANCH  17  18
ENDBRANCH  16  17
ENDBRANCH  15  16
ENDBRANCH  14  15
ENDBRANCH  13  14
ENDBRANCH  12  13
ENDBRANCH   1  12
TORSDOF 16
ENDMDL
MODEL 5
REMARK VINA RESULT:    -4.427     12.274     14.158
REMARK INTER + INTRA:         -11.019
REMARK INTER:                  -9.379
REMARK INTRA:                  -1.639
REMARK UNBOUND:                -2.451
REMARK SMILES CCCCCCCCCCCCCCCCCC(=O)[O-]
REMARK SMILES IDX 10 1 11 2 12 3 13 4 14 5 15 6 16 7 17 8 18 9 19 10 20 11
REMARK SMILES IDX 9 12 8 13 7 14 6 15 5 16 4 17 3 18 2 19 1 20
REMARK H PARENT
REMARK Flexibility Score: inf
ROOT
ATOM      1  C   UNL     1     -15.256  -6.336  17.649  1.00  0.00     0.000 C 
ENDROOT
BRANCH   1   2
ATOM      2  C   UNL     1     -16.251  -5.593  16.742  1.00  0.00     0.000 C 
BRANCH   2   3
ATOM      3  C   UNL     1     -15.882  -4.113  16.550  1.00  0.00     0.000 C 
BRANCH   3   4
ATOM      4  C   UNL     1     -14.375  -3.847  16.716  1.00  0.00     0.000 C 
BRANCH   4   5
ATOM      5  C   UNL     1     -14.094  -2.668  17.672  1.00  0.00     0.000 C 
BRANCH   5   6
ATOM      6  C   UNL     1     -15.340  -2.179  18.431  1.00  0.00     0.000 C 
BRANCH   6   7
ATOM      7  C   UNL     1     -15.473  -0.647  18.438  1.00  0.00     0.006 C 
BRANCH   7   8
ATOM      8  C   UNL     1     -16.621  -0.161  17.544  1.00  0.00     0.053 C 
BRANCH   8   9
ATOM      9  C   UNL     1     -16.135   0.733  16.447  1.00  0.00     0.041 C 
ATOM     10  O   UNL     1     -16.933   1.515  15.865  1.00  0.00    -0.550 OA
ATOM     11  O   UNL     1     -14.805   0.688  16.049  1.00  0.00    -0.550 OA
ENDBRANCH   8   9
ENDBRANCH   7   8
ENDBRANCH   6   7
ENDBRANCH   5   6
ENDBRANCH   4   5
ENDBRANCH   3   4
ENDBRANCH   2   3
ENDBRANCH   1   2
BRANCH   1  12
ATOM     12  C   UNL     1     -15.815  -6.588  19.060  1.00  0.00     0.000 C 
BRANCH  12  13
ATOM     13  C   UNL     1     -15.005  -5.877  20.158  1.00  0.00    -0.000 C 
BRANCH  13  14
ATOM     14  C   UNL     1     -14.943  -6.699  21.464  1.00  0.00    -0.000 C 
BRANCH  14  15
ATOM     15  C   UNL     1     -15.998  -6.283  22.506  1.00  0.00    -0.000 C 
BRANCH  15  16
ATOM     16  C   UNL     1     -16.592  -4.877  22.304  1.00  0.00    -0.000 C 
BRANCH  16  17
ATOM     17  C   UNL     1     -18.047  -4.857  21.798  1.00  0.00    -0.000 C 
BRANCH  17  18
ATOM     18  C   UNL     1     -18.905  -5.980  22.405  1.00  0.00    -0.000 C 
BRANCH  18  19
ATOM     19  C   UNL     1     -20.128  -5.442  23.163  1.00  0.00    -0.003 C 
ATOM     20  C   UNL     1     -19.920  -4.019  23.684  1.00  0.00     0.004 C 
ENDBRANCH  18  19
ENDBRANCH  17  18
ENDBRANCH  16  17
ENDBRANCH  15  16
ENDBRANCH  14  15
ENDBRANCH  13  14
ENDBRANCH  12  13
ENDBRANCH   1  12
TORSDOF 16
ENDMDL
MODEL 6
REMARK VINA RESULT:    -4.420      2.967      6.904
REMARK INTER + INTRA:         -11.006
REMARK INTER:                  -8.919
REMARK INTRA:                  -2.086
REMARK UNBOUND:                -2.451
REMARK SMILES CCCCCCCCCCCCCCCCCC(=O)[O-]
REMARK SMILES IDX 10 1 11 2 12 3 13 4 14 5 15 6 16 7 17 8 18 9 19 10 20 11
REMARK SMILES IDX 9 12 8 13 7 14 6 15 5 16 4 17 3 18 2 19 1 20
REMARK H PARENT
REMARK Flexibility Score: inf
ROOT
ATOM      1  C   UNL     1     -14.721   6.347  29.728  1.00  0.00     0.000 C 
ENDROOT
BRANCH   1   2
ATOM      2  C   UNL     1     -14.936   5.300  28.622  1.00  0.00     0.000 C 
BRANCH   2   3
ATOM      3  C   UNL     1     -13.640   4.562  28.249  1.00  0.00     0.000 C 
BRANCH   3   4
ATOM      4  C   UNL     1     -13.686   3.063  28.594  1.00  0.00     0.000 C 
BRANCH   4   5
ATOM      5  C   UNL     1     -15.070   2.631  29.123  1.00  0.00     0.000 C 
BRANCH   5   6
ATOM      6  C   UNL     1     -15.016   1.924  30.488  1.00  0.00     0.000 C 
BRANCH   6   7
ATOM      7  C   UNL     1     -15.937   2.573  31.535  1.00  0.00     0.006 C 
BRANCH   7   8
ATOM      8  C   UNL     1     -17.383   2.697  31.037  1.00  0.00     0.053 C 
BRANCH   8   9
ATOM      9  C   UNL     1     -18.344   2.923  32.162  1.00  0.00     0.041 C 
ATOM     10  O   UNL     1     -18.536   2.023  33.022  1.00  0.00    -0.550 OA
ATOM     11  O   UNL     1     -19.046   4.118  32.249  1.00  0.00    -0.550 OA
ENDBRANCH   8   9
ENDBRANCH   7   8
ENDBRANCH   6   7
ENDBRANCH   5   6
ENDBRANCH   4   5
ENDBRANCH   3   4
ENDBRANCH   2   3
ENDBRANCH   1   2
BRANCH   1  12
ATOM     12  C   UNL     1     -15.633   6.121  30.944  1.00  0.00     0.000 C 
BRANCH  12  13
ATOM     13  C   UNL     1     -17.051   6.682  30.740  1.00  0.00    -0.000 C 
BRANCH  13  14
ATOM     14  C   UNL     1     -17.083   8.225  30.789  1.00  0.00    -0.000 C 
BRANCH  14  15
ATOM     15  C   UNL     1     -16.883   8.802  32.204  1.00  0.00    -0.000 C 
BRANCH  15  16
ATOM     16  C   UNL     1     -15.800   9.891  32.314  1.00  0.00    -0.000 C 
BRANCH  16  17
ATOM     17  C   UNL     1     -14.800   9.928  31.143  1.00  0.00    -0.000 C 
BRANCH  17  18
ATOM     18  C   UNL     1     -14.836  11.256  30.368  1.00  0.00    -0.000 C 
BRANCH  18  19
ATOM     19  C   UNL     1     -14.289  11.119  28.939  1.00  0.00    -0.003 C 
ATOM     20  C   UNL     1     -13.863   9.690  28.605  1.00  0.00     0.004 C 
ENDBRANCH  18  19
ENDBRANCH  17  18
ENDBRANCH  16  17
ENDBRANCH  15  16
ENDBRANCH  14  15
ENDBRANCH  13  14
ENDBRANCH  12  13
ENDBRANCH   1  12
TORSDOF 16
ENDMDL
MODEL 7
REMARK VINA RESULT:    -4.416      3.109      6.916
REMARK INTER + INTRA:         -10.997
REMARK INTER:                  -9.209
REMARK INTRA:                  -1.788
REMARK UNBOUND:                -2.451
REMARK SMILES CCCCCCCCCCCCCCCCCC(=O)[O-]
REMARK SMILES IDX 10 1 11 2 12 3 13 4 14 5 15 6 16 7 17 8 18 9 19 10 20 11
REMARK SMILES IDX 9 12 8 13 7 14 6 15 5 16 4 17 3 18 2 19 1 20
REMARK H PARENT
REMARK Flexibility Score: inf
ROOT
ATOM      1  C   UNL     1     -14.001   6.721  29.041  1.00  0.00     0.000 C 
ENDROOT
BRANCH   1   2
ATOM      2  C   UNL     1     -13.667   5.579  28.067  1.00  0.00     0.000 C 
BRANCH   2   3
ATOM      3  C   UNL     1     -14.291   4.240  28.493  1.00  0.00     0.000 C 
BRANCH   3   4
ATOM      4  C   UNL     1     -13.282   3.077  28.469  1.00  0.00     0.000 C 
BRANCH   4   5
ATOM      5  C   UNL     1     -13.940   1.745  28.051  1.00  0.00     0.000 C 
BRANCH   5   6
ATOM      6  C   UNL     1     -13.352   0.516  28.765  1.00  0.00     0.000 C 
BRANCH   6   7
ATOM      7  C   UNL     1     -14.336  -0.128  29.755  1.00  0.00     0.006 C 
BRANCH   7   8
ATOM      8  C   UNL     1     -14.393   0.627  31.089  1.00  0.00     0.053 C 
BRANCH   8   9
ATOM      9  C   UNL     1     -15.637   1.451  31.212  1.00  0.00     0.041 C 
ATOM     10  O   UNL     1     -16.767   0.921  31.044  1.00  0.00    -0.550 OA
ATOM     11  O   UNL     1     -15.549   2.809  31.488  1.00  0.00    -0.550 OA
ENDBRANCH   8   9
ENDBRANCH   7   8
ENDBRANCH   6   7
ENDBRANCH   5   6
ENDBRANCH   4   5
ENDBRANCH   3   4
ENDBRANCH   2   3
ENDBRANCH   1   2
BRANCH   1  12
ATOM     12  C   UNL     1     -15.153   6.367  29.997  1.00  0.00     0.000 C 
BRANCH  12  13
ATOM     13  C   UNL     1     -14.889   6.821  31.443  1.00  0.00    -0.000 C 
BRANCH  13  14
ATOM     14  C   UNL     1     -13.941   8.038  31.511  1.00  0.00    -0.000 C 
BRANCH  14  15
ATOM     15  C   UNL     1     -14.415   9.137  32.481  1.00  0.00    -0.000 C 
BRANCH  15  16
ATOM     16  C   UNL     1     -14.968  10.406  31.805  1.00  0.00    -0.000 C 
BRANCH  16  17
ATOM     17  C   UNL     1     -14.970  10.368  30.265  1.00  0.00    -0.000 C 
BRANCH  17  18
ATOM     18  C   UNL     1     -16.389  10.342  29.671  1.00  0.00    -0.000 C 
BRANCH  18  19
ATOM     19  C   UNL     1     -17.314   9.354  30.397  1.00  0.00    -0.003 C 
ATOM     20  C   UNL     1     -18.420   8.809  29.494  1.00  0.00     0.004 C 
ENDBRANCH  18  19
ENDBRANCH  17  18
ENDBRANCH  16  17
ENDBRANCH  15  16
ENDBRANCH  14  15
ENDBRANCH  13  14
ENDBRANCH  12  13
ENDBRANCH   1  12
TORSDOF 16
ENDMDL
MODEL 8
REMARK VINA RESULT:    -4.407     11.802     14.338
REMARK INTER + INTRA:         -10.981
REMARK INTER:                  -8.648
REMARK INTRA:                  -2.333
REMARK UNBOUND:                -2.451
REMARK SMILES CCCCCCCCCCCCCCCCCC(=O)[O-]
REMARK SMILES IDX 10 1 11 2 12 3 13 4 14 5 15 6 16 7 17 8 18 9 19 10 20 11
REMARK SMILES IDX 9 12 8 13 7 14 6 15 5 16 4 17 3 18 2 19 1 20
REMARK H PARENT
REMARK Flexibility Score: inf
ROOT
ATOM      1  C   UNL     1     -16.651  -3.628  22.526  1.00  0.00     0.000 C 
ENDROOT
BRANCH   1   2
ATOM      2  C   UNL     1     -16.873  -2.600  21.403  1.00  0.00     0.000 C 
BRANCH   2   3
ATOM      3  C   UNL     1     -15.891  -1.419  21.484  1.00  0.00     0.000 C 
BRANCH   3   4
ATOM      4  C   UNL     1     -14.707  -1.560  20.510  1.00  0.00     0.000 C 
BRANCH   4   5
ATOM      5  C   UNL     1     -14.972  -2.622  19.422  1.00  0.00     0.000 C 
BRANCH   5   6
ATOM      6  C   UNL     1     -14.116  -2.437  18.158  1.00  0.00     0.000 C 
BRANCH   6   7
ATOM      7  C   UNL     1     -14.944  -2.022  16.930  1.00  0.00     0.006 C 
BRANCH   7   8
ATOM      8  C   UNL     1     -15.915  -0.877  17.246  1.00  0.00     0.053 C 
BRANCH   8   9
ATOM      9  C   UNL     1     -15.561   0.375  16.506  1.00  0.00     0.041 C 
ATOM     10  O   UNL     1     -14.354   0.694  16.341  1.00  0.00    -0.550 OA
ATOM     11  O   UNL     1     -16.563   1.204  16.018  1.00  0.00    -0.550 OA
ENDBRANCH   8   9
ENDBRANCH   7   8
ENDBRANCH   6   7
ENDBRANCH   5   6
ENDBRANCH   4   5
ENDBRANCH   3   4
ENDBRANCH   2   3
ENDBRANCH   1   2
BRANCH   1  12
ATOM     12  C   UNL     1     -16.952  -5.068  22.079  1.00  0.00     0.000 C 
BRANCH  12  13
ATOM     13  C   UNL     1     -15.871  -6.069  22.522  1.00  0.00    -0.000 C 
BRANCH  13  14
ATOM     14  C   UNL     1     -14.949  -6.490  21.357  1.00  0.00    -0.000 C 
BRANCH  14  15
ATOM     15  C   UNL     1     -15.704  -6.782  20.046  1.00  0.00    -0.000 C 
BRANCH  15  16
ATOM     16  C   UNL     1     -15.043  -6.214  18.776  1.00  0.00    -0.000 C 
BRANCH  16  17
ATOM     17  C   UNL     1     -16.018  -5.900  17.626  1.00  0.00    -0.000 C 
BRANCH  17  18
ATOM     18  C   UNL     1     -17.482  -6.210  17.983  1.00  0.00    -0.000 C 
BRANCH  18  19
ATOM     19  C   UNL     1     -18.336  -4.941  18.122  1.00  0.00    -0.003 C 
ATOM     20  C   UNL     1     -18.146  -3.971  16.955  1.00  0.00     0.004 C 
ENDBRANCH  18  19
ENDBRANCH  17  18
ENDBRANCH  16  17
ENDBRANCH  15  16
ENDBRANCH  14  15
ENDBRANCH  13  14
ENDBRANCH  12  13
ENDBRANCH   1  12
TORSDOF 16
ENDMDL
MODEL 9
REMARK VINA RESULT:    -4.403     12.467     15.290
REMARK INTER + INTRA:         -10.973
REMARK INTER:                  -7.938
REMARK INTRA:                  -3.035
REMARK UNBOUND:                -2.451
REMARK SMILES CCCCCCCCCCCCCCCCCC(=O)[O-]
REMARK SMILES IDX 10 1 11 2 12 3 13 4 14 5 15 6 16 7 17 8 18 9 19 10 20 11
REMARK SMILES IDX 9 12 8 13 7 14 6 15 5 16 4 17 3 18 2 19 1 20
REMARK H PARENT
REMARK Flexibility Score: inf
ROOT
ATOM      1  C   UNL     1     -17.410  -5.979  22.205  1.00  0.00     0.000 C 
ENDROOT
BRANCH   1   2
ATOM      2  C   UNL     1     -15.894  -6.096  22.437  1.00  0.00     0.000 C 
BRANCH   2   3
ATOM      3  C   UNL     1     -15.168  -6.767  21.260  1.00  0.00     0.000 C 
BRANCH   3   4
ATOM      4  C   UNL     1     -15.047  -5.847  20.031  1.00  0.00     0.000 C 
BRANCH   4   5
ATOM      5  C   UNL     1     -15.569  -6.523  18.745  1.00  0.00     0.000 C 
BRANCH   5   6
ATOM      6  C   UNL     1     -17.077  -6.329  18.516  1.00  0.00     0.000 C 
BRANCH   6   7
ATOM      7  C   UNL     1     -17.443  -4.887  18.127  1.00  0.00     0.006 C 
BRANCH   7   8
ATOM      8  C   UNL     1     -18.819  -4.473  18.664  1.00  0.00     0.053 C 
BRANCH   8   9
ATOM      9  C   UNL     1     -19.717  -3.976  17.574  1.00  0.00     0.041 C 
ATOM     10  O   UNL     1     -19.238  -3.655  16.455  1.00  0.00    -0.550 OA
ATOM     11  O   UNL     1     -21.081  -3.845  17.801  1.00  0.00    -0.550 OA
ENDBRANCH   8   9
ENDBRANCH   7   8
ENDBRANCH   6   7
ENDBRANCH   5   6
ENDBRANCH   4   5
ENDBRANCH   3   4
ENDBRANCH   2   3
ENDBRANCH   1   2
BRANCH   1  12
ATOM     12  C   UNL     1     -17.924  -4.538  22.362  1.00  0.00     0.000 C 
BRANCH  12  13
ATOM     13  C   UNL     1     -16.790  -3.498  22.368  1.00  0.00    -0.000 C 
BRANCH  13  14
ATOM     14  C   UNL     1     -16.751  -2.667  21.066  1.00  0.00    -0.000 C 
BRANCH  14  15
ATOM     15  C   UNL     1     -15.428  -1.905  20.859  1.00  0.00    -0.000 C 
BRANCH  15  16
ATOM     16  C   UNL     1     -14.729  -2.172  19.513  1.00  0.00    -0.000 C 
BRANCH  16  17
ATOM     17  C   UNL     1     -15.348  -1.441  18.307  1.00  0.00    -0.000 C 
BRANCH  17  18
ATOM     18  C   UNL     1     -15.084  -2.158  16.973  1.00  0.00    -0.000 C 
BRANCH  18  19
ATOM     19  C   UNL     1     -14.252  -3.438  17.147  1.00  0.00    -0.003 C 
ATOM     20  C   UNL     1     -14.409  -4.408  15.976  1.00  0.00     0.004 C 
ENDBRANCH  18  19
ENDBRANCH  17  18
ENDBRANCH  16  17
ENDBRANCH  15  16
ENDBRANCH  14  15
ENDBRANCH  13  14
ENDBRANCH  12  13
ENDBRANCH   1  12
TORSDOF 16
ENDMDL
