MODEL 1
REMARK VINA RESULT:    -3.956      0.000      0.000
REMARK INTER + INTRA:          -4.895
REMARK INTER:                  -4.650
REMARK INTRA:                  -0.245
REMARK UNBOUND:                -0.245
REMARK SMILES [NH3+][C@H](CO)C(=O)[O-]
REMARK SMILES IDX 3 1 2 2 1 3 5 7 6 8 7 9 4 10
REMARK H PARENT 1 4 1 5 1 6 4 11
REMARK Flexibility Score: inf
ROOT
ATOM      1  C   UNL     1      21.791 -35.142 -29.027  1.00  0.00     0.227 C 
ENDROOT
BRANCH   1   2
ATOM      2  C   UNL     1      23.318 -35.327 -28.965  1.00  0.00     0.253 C 
BRANCH   2   3
ATOM      3  N   UNL     1      23.984 -34.126 -28.442  1.00  0.00    -0.348 N 
ATOM      4  H   UNL     1      24.515 -33.631 -29.195  1.00  0.00     0.345 HD
ATOM      5  H   UNL     1      23.269 -33.473 -28.046  1.00  0.00     0.345 HD
ATOM      6  H   UNL     1      24.644 -34.393 -27.675  1.00  0.00     0.345 HD
ENDBRANCH   2   3
BRANCH   2   7
ATOM      7  C   UNL     1      23.681 -36.542 -28.152  1.00  0.00     0.102 C 
ATOM      8  O   UNL     1      23.615 -37.694 -28.656  1.00  0.00    -0.544 OA
ATOM      9  O   UNL     1      24.129 -36.392 -26.846  1.00  0.00    -0.544 OA
ENDBRANCH   2   7
ENDBRANCH   1   2
BRANCH   1  10
ATOM     10  O   UNL     1      21.121 -36.370 -28.903  1.00  0.00    -0.390 OA
ATOM     11  H   UNL     1      21.765 -37.010 -28.500  1.00  0.00     0.210 HD
ENDBRANCH   1  10
TORSDOF 4
ENDMDL
MODEL 2
REMARK VINA RESULT:    -3.861      1.742      2.769
REMARK INTER + INTRA:          -4.783
REMARK INTER:                  -4.768
REMARK INTRA:                  -0.015
REMARK UNBOUND:                -0.245
REMARK SMILES [NH3+][C@H](CO)C(=O)[O-]
REMARK SMILES IDX 3 1 2 2 1 3 5 7 6 8 7 9 4 10
REMARK H PARENT 1 4 1 5 1 6 4 11
REMARK Flexibility Score: inf
ROOT
ATOM      1  C   UNL     1      23.402 -34.868 -27.936  1.00  0.00     0.227 C 
ENDROOT
BRANCH   1   2
ATOM      2  C   UNL     1      22.182 -35.023 -28.863  1.00  0.00     0.253 C 
BRANCH   2   3
ATOM      3  N   UNL     1      22.243 -34.086 -29.992  1.00  0.00    -0.348 N 
ATOM      4  H   UNL     1      21.305 -33.668 -30.187  1.00  0.00     0.345 HD
ATOM      5  H   UNL     1      22.919 -33.318 -29.775  1.00  0.00     0.345 HD
ATOM      6  H   UNL     1      22.580 -34.586 -30.848  1.00  0.00     0.345 HD
ENDBRANCH   2   3
BRANCH   2   7
ATOM      7  C   UNL     1      22.051 -36.444 -29.346  1.00  0.00     0.102 C 
ATOM      8  O   UNL     1      22.645 -37.382 -28.751  1.00  0.00    -0.544 OA
ATOM      9  O   UNL     1      21.238 -36.732 -30.435  1.00  0.00    -0.544 OA
ENDBRANCH   2   7
ENDBRANCH   1   2
BRANCH   1  10
ATOM     10  O   UNL     1      24.228 -33.812 -28.349  1.00  0.00    -0.390 OA
ATOM     11  H   UNL     1      24.226 -33.141 -27.616  1.00  0.00     0.210 HD
ENDBRANCH   1  10
TORSDOF 4
ENDMDL
MODEL 3
REMARK VINA RESULT:    -3.847     17.508     18.088
REMARK INTER + INTRA:          -4.767
REMARK INTER:                  -4.529
REMARK INTRA:                  -0.238
REMARK UNBOUND:                -0.245
REMARK SMILES [NH3+][C@H](CO)C(=O)[O-]
REMARK SMILES IDX 3 1 2 2 1 3 5 7 6 8 7 9 4 10
REMARK H PARENT 1 4 1 5 1 6 4 11
REMARK Flexibility Score: inf
ROOT
ATOM      1  C   UNL     1      18.060 -19.716 -26.705  1.00  0.00     0.227 C 
ENDROOT
BRANCH   1   2
ATOM      2  C   UNL     1      16.611 -19.857 -26.203  1.00  0.00     0.253 C 
BRANCH   2   3
ATOM      3  N   UNL     1      16.229 -21.267 -26.054  1.00  0.00    -0.348 N 
ATOM      4  H   UNL     1      15.207 -21.402 -26.228  1.00  0.00     0.345 HD
ATOM      5  H   UNL     1      16.769 -21.851 -26.734  1.00  0.00     0.345 HD
ATOM      6  H   UNL     1      16.459 -21.596 -25.087  1.00  0.00     0.345 HD
ENDBRANCH   2   3
BRANCH   2   7
ATOM      7  C   UNL     1      16.414 -19.105 -24.912  1.00  0.00     0.102 C 
ATOM      8  O   UNL     1      16.135 -17.877 -24.921  1.00  0.00    -0.544 OA
ATOM      9  O   UNL     1      16.503 -19.777 -23.700  1.00  0.00    -0.544 OA
ENDBRANCH   2   7
ENDBRANCH   1   2
BRANCH   1  10
ATOM     10  O   UNL     1      18.472 -18.374 -26.712  1.00  0.00    -0.390 OA
ATOM     11  H   UNL     1      18.771 -18.169 -27.637  1.00  0.00     0.210 HD
ENDBRANCH   1  10
TORSDOF 4
ENDMDL
MODEL 4
REMARK VINA RESULT:    -3.836      2.233      2.370
REMARK INTER + INTRA:          -4.754
REMARK INTER:                  -4.366
REMARK INTRA:                  -0.388
REMARK UNBOUND:                -0.245
REMARK SMILES [NH3+][C@H](CO)C(=O)[O-]
REMARK SMILES IDX 3 1 2 2 1 3 5 7 6 8 7 9 4 10
REMARK H PARENT 1 4 1 5 1 6 4 11
REMARK Flexibility Score: inf
ROOT
ATOM      1  C   UNL     1      22.354 -34.810 -29.356  1.00  0.00     0.227 C 
ENDROOT
BRANCH   1   2
ATOM      2  C   UNL     1      21.868 -36.269 -29.273  1.00  0.00     0.253 C 
BRANCH   2   3
ATOM      3  N   UNL     1      21.017 -36.617 -30.418  1.00  0.00    -0.348 N 
ATOM      4  H   UNL     1      21.054 -37.643 -30.618  1.00  0.00     0.345 HD
ATOM      5  H   UNL     1      20.027 -36.347 -30.215  1.00  0.00     0.345 HD
ATOM      6  H   UNL     1      21.332 -36.090 -31.266  1.00  0.00     0.345 HD
ENDBRANCH   2   3
BRANCH   2   7
ATOM      7  C   UNL     1      23.032 -37.218 -29.157  1.00  0.00     0.102 C 
ATOM      8  O   UNL     1      23.559 -37.716 -30.187  1.00  0.00    -0.544 OA
ATOM      9  O   UNL     1      23.557 -37.519 -27.906  1.00  0.00    -0.544 OA
ENDBRANCH   2   7
ENDBRANCH   1   2
BRANCH   1  10
ATOM     10  O   UNL     1      23.756 -34.738 -29.379  1.00  0.00    -0.390 OA
ATOM     11  H   UNL     1      24.061 -34.761 -28.434  1.00  0.00     0.210 HD
ENDBRANCH   1  10
TORSDOF 4
ENDMDL
MODEL 5
REMARK VINA RESULT:    -3.811     16.272     17.017
REMARK INTER + INTRA:          -4.724
REMARK INTER:                  -4.498
REMARK INTRA:                  -0.226
REMARK UNBOUND:                -0.245
REMARK SMILES [NH3+][C@H](CO)C(=O)[O-]
REMARK SMILES IDX 3 1 2 2 1 3 5 7 6 8 7 9 4 10
REMARK H PARENT 1 4 1 5 1 6 4 11
REMARK Flexibility Score: inf
ROOT
ATOM      1  C   UNL     1      18.870 -19.357 -27.183  1.00  0.00     0.227 C 
ENDROOT
BRANCH   1   2
ATOM      2  C   UNL     1      17.666 -20.309 -27.301  1.00  0.00     0.253 C 
BRANCH   2   3
ATOM      3  N   UNL     1      18.053 -21.594 -27.899  1.00  0.00    -0.348 N 
ATOM      4  H   UNL     1      19.055 -21.817 -27.699  1.00  0.00     0.345 HD
ATOM      5  H   UNL     1      17.451 -22.357 -27.511  1.00  0.00     0.345 HD
ATOM      6  H   UNL     1      17.909 -21.559 -28.935  1.00  0.00     0.345 HD
ENDBRANCH   2   3
BRANCH   2   7
ATOM      7  C   UNL     1      17.009 -20.514 -25.960  1.00  0.00     0.102 C 
ATOM      8  O   UNL     1      17.039 -21.639 -25.396  1.00  0.00    -0.544 OA
ATOM      9  O   UNL     1      16.397 -19.444 -25.320  1.00  0.00    -0.544 OA
ENDBRANCH   2   7
ENDBRANCH   1   2
BRANCH   1  10
ATOM     10  O   UNL     1      18.478 -18.090 -26.723  1.00  0.00    -0.390 OA
ATOM     11  H   UNL     1      17.704 -17.809 -27.278  1.00  0.00     0.210 HD
ENDBRANCH   1  10
TORSDOF 4
ENDMDL
MODEL 6
REMARK VINA RESULT:    -3.766      2.269      3.243
REMARK INTER + INTRA:          -4.672
REMARK INTER:                  -4.445
REMARK INTRA:                  -0.228
REMARK UNBOUND:                -0.245
REMARK SMILES [NH3+][C@H](CO)C(=O)[O-]
REMARK SMILES IDX 3 1 2 2 1 3 5 7 6 8 7 9 4 10
REMARK H PARENT 1 4 1 5 1 6 4 11
REMARK Flexibility Score: inf
ROOT
ATOM      1  C   UNL     1      23.667 -35.409 -27.784  1.00  0.00     0.227 C 
ENDROOT
BRANCH   1   2
ATOM      2  C   UNL     1      23.146 -36.466 -28.775  1.00  0.00     0.253 C 
BRANCH   2   3
ATOM      3  N   UNL     1      22.994 -37.778 -28.131  1.00  0.00    -0.348 N 
ATOM      4  H   UNL     1      23.886 -38.322 -28.169  1.00  0.00     0.345 HD
ATOM      5  H   UNL     1      22.718 -37.648 -27.131  1.00  0.00     0.345 HD
ATOM      6  H   UNL     1      22.239 -38.322 -28.611  1.00  0.00     0.345 HD
ENDBRANCH   2   3
BRANCH   2   7
ATOM      7  C   UNL     1      21.851 -36.021 -29.405  1.00  0.00     0.102 C 
ATOM      8  O   UNL     1      21.275 -34.972 -29.013  1.00  0.00    -0.544 OA
ATOM      9  O   UNL     1      21.306 -36.750 -30.454  1.00  0.00    -0.544 OA
ENDBRANCH   2   7
ENDBRANCH   1   2
BRANCH   1  10
ATOM     10  O   UNL     1      24.060 -34.235 -28.447  1.00  0.00    -0.390 OA
ATOM     11  H   UNL     1      24.990 -34.040 -28.159  1.00  0.00     0.210 HD
ENDBRANCH   1  10
TORSDOF 4
ENDMDL
MODEL 7
REMARK VINA RESULT:    -3.673      1.737      2.190
REMARK INTER + INTRA:          -4.562
REMARK INTER:                  -4.358
REMARK INTRA:                  -0.204
REMARK UNBOUND:                -0.245
REMARK SMILES [NH3+][C@H](CO)C(=O)[O-]
REMARK SMILES IDX 3 1 2 2 1 3 5 7 6 8 7 9 4 10
REMARK H PARENT 1 4 1 5 1 6 4 11
REMARK Flexibility Score: inf
ROOT
ATOM      1  C   UNL     1      23.039 -35.098 -28.544  1.00  0.00     0.227 C 
ENDROOT
BRANCH   1   2
ATOM      2  C   UNL     1      23.927 -35.346 -27.310  1.00  0.00     0.253 C 
BRANCH   2   3
ATOM      3  N   UNL     1      23.374 -34.699 -26.112  1.00  0.00    -0.348 N 
ATOM      4  H   UNL     1      22.506 -35.183 -25.788  1.00  0.00     0.345 HD
ATOM      5  H   UNL     1      24.083 -34.721 -25.343  1.00  0.00     0.345 HD
ATOM      6  H   UNL     1      23.151 -33.698 -26.322  1.00  0.00     0.345 HD
ENDBRANCH   2   3
BRANCH   2   7
ATOM      7  C   UNL     1      24.130 -36.821 -27.081  1.00  0.00     0.102 C 
ATOM      8  O   UNL     1      24.578 -37.244 -25.983  1.00  0.00    -0.544 OA
ATOM      9  O   UNL     1      23.786 -37.728 -28.075  1.00  0.00    -0.544 OA
ENDBRANCH   2   7
ENDBRANCH   1   2
BRANCH   1  10
ATOM     10  O   UNL     1      23.793 -35.106 -29.727  1.00  0.00    -0.390 OA
ATOM     11  H   UNL     1      23.385 -34.432 -30.333  1.00  0.00     0.210 HD
ENDBRANCH   1  10
TORSDOF 4
ENDMDL
MODEL 8
REMARK VINA RESULT:    -3.643      2.094      2.134
REMARK INTER + INTRA:          -4.527
REMARK INTER:                  -4.292
REMARK INTRA:                  -0.235
REMARK UNBOUND:                -0.245
REMARK SMILES [NH3+][C@H](CO)C(=O)[O-]
REMARK SMILES IDX 3 1 2 2 1 3 5 7 6 8 7 9 4 10
REMARK H PARENT 1 4 1 5 1 6 4 11
REMARK Flexibility Score: inf
ROOT
ATOM      1  C   UNL     1      22.964 -34.719 -28.434  1.00  0.00     0.227 C 
ENDROOT
BRANCH   1   2
ATOM      2  C   UNL     1      23.327 -36.215 -28.409  1.00  0.00     0.253 C 
BRANCH   2   3
ATOM      3  N   UNL     1      24.039 -36.616 -29.630  1.00  0.00    -0.348 N 
ATOM      4  H   UNL     1      23.960 -35.882 -30.371  1.00  0.00     0.345 HD
ATOM      5  H   UNL     1      25.051 -36.770 -29.412  1.00  0.00     0.345 HD
ATOM      6  H   UNL     1      23.642 -37.514 -29.992  1.00  0.00     0.345 HD
ENDBRANCH   2   3
BRANCH   2   7
ATOM      7  C   UNL     1      24.131 -36.553 -27.180  1.00  0.00     0.102 C 
ATOM      8  O   UNL     1      24.848 -37.587 -27.147  1.00  0.00    -0.544 OA
ATOM      9  O   UNL     1      24.113 -35.698 -26.086  1.00  0.00    -0.544 OA
ENDBRANCH   2   7
ENDBRANCH   1   2
BRANCH   1  10
ATOM     10  O   UNL     1      24.113 -33.913 -28.419  1.00  0.00    -0.390 OA
ATOM     11  H   UNL     1      23.804 -32.972 -28.345  1.00  0.00     0.210 HD
ENDBRANCH   1  10
TORSDOF 4
ENDMDL
MODEL 9
REMARK VINA RESULT:    -3.567     10.176     10.999
REMARK INTER + INTRA:          -4.438
REMARK INTER:                  -4.116
REMARK INTRA:                  -0.321
REMARK UNBOUND:                -0.245
REMARK SMILES [NH3+][C@H](CO)C(=O)[O-]
REMARK SMILES IDX 3 1 2 2 1 3 5 7 6 8 7 9 4 10
REMARK H PARENT 1 4 1 5 1 6 4 11
REMARK Flexibility Score: inf
ROOT
ATOM      1  C   UNL     1      14.166 -28.038 -29.657  1.00  0.00     0.227 C 
ENDROOT
BRANCH   1   2
ATOM      2  C   UNL     1      15.322 -29.056 -29.640  1.00  0.00     0.253 C 
BRANCH   2   3
ATOM      3  N   UNL     1      14.822 -30.436 -29.598  1.00  0.00    -0.348 N 
ATOM      4  H   UNL     1      15.539 -31.086 -29.202  1.00  0.00     0.345 HD
ATOM      5  H   UNL     1      13.960 -30.479 -29.006  1.00  0.00     0.345 HD
ATOM      6  H   UNL     1      14.569 -30.750 -30.564  1.00  0.00     0.345 HD
ENDBRANCH   2   3
BRANCH   2   7
ATOM      7  C   UNL     1      16.237 -28.848 -30.819  1.00  0.00     0.102 C 
ATOM      8  O   UNL     1      17.390 -28.369 -30.659  1.00  0.00    -0.544 OA
ATOM      9  O   UNL     1      15.823 -29.224 -32.090  1.00  0.00    -0.544 OA
ENDBRANCH   2   7
ENDBRANCH   1   2
BRANCH   1  10
ATOM     10  O   UNL     1      14.491 -26.906 -30.421  1.00  0.00    -0.390 OA
ATOM     11  H   UNL     1      15.252 -26.459 -29.965  1.00  0.00     0.210 HD
ENDBRANCH   1  10
TORSDOF 4
ENDMDL
