MODEL 1
REMARK VINA RESULT:    -5.301      0.000      0.000
REMARK INTER + INTRA:          -9.381
REMARK INTER:                  -8.091
REMARK INTRA:                  -1.290
REMARK UNBOUND:                -1.290
REMARK SMILES CC(=O)CCC=C(C)CCC=C(C)CCC=C(C)C
REMARK SMILES IDX 10 1 11 2 12 3 13 4 14 5 15 6 16 7 18 8 17 9 19 10 9 11 7 12
REMARK SMILES IDX 6 13 8 14 5 15 4 16 2 17 3 18 1 19
REMARK H PARENT
REMARK Flexibility Score: inf
ROOT
ATOM      1  C   UNL     1      16.202  43.907  18.704  1.00  0.00     0.032 C 
ENDROOT
BRANCH   1   2
ATOM      2  C   UNL     1      15.452  44.568  19.835  1.00  0.00    -0.028 C 
ATOM      3  C   UNL     1      14.586  45.598  19.696  1.00  0.00    -0.077 C 
ATOM      4  C   UNL     1      13.946  46.166  20.936  1.00  0.00     0.039 C 
BRANCH   3   5
ATOM      5  C   UNL     1      14.176  46.156  18.348  1.00  0.00     0.034 C 
BRANCH   5   6
ATOM      6  C   UNL     1      12.754  45.711  17.990  1.00  0.00     0.032 C 
BRANCH   6   7
ATOM      7  C   UNL     1      11.816  46.893  17.965  1.00  0.00    -0.028 C 
ATOM      8  C   UNL     1       9.855  48.241  18.646  1.00  0.00     0.039 C 
ATOM      9  C   UNL     1      10.707  47.001  18.732  1.00  0.00    -0.080 C 
ATOM     10  C   UNL     1      10.257  45.894  19.653  1.00  0.00     0.039 C 
ENDBRANCH   6   7
ENDBRANCH   5   6
ENDBRANCH   3   5
ENDBRANCH   1   2
BRANCH   1  11
ATOM     11  C   UNL     1      17.672  43.649  19.069  1.00  0.00     0.034 C 
BRANCH  11  12
ATOM     12  C   UNL     1      17.896  43.583  20.570  1.00  0.00    -0.077 C 
ATOM     13  C   UNL     1      18.449  44.589  21.288  1.00  0.00    -0.028 C 
ATOM     14  C   UNL     1      17.476  42.337  21.310  1.00  0.00     0.039 C 
BRANCH  13  15
ATOM     15  C   UNL     1      18.951  45.901  20.729  1.00  0.00     0.035 C 
BRANCH  15  16
ATOM     16  C   UNL     1      17.912  47.016  20.906  1.00  0.00     0.079 C 
BRANCH  16  17
ATOM     17  C   UNL     1      18.502  48.379  20.655  1.00  0.00     0.130 C 
ATOM     18  O   UNL     1      18.339  48.919  19.571  1.00  0.00    -0.300 OA
ATOM     19  C   UNL     1      19.319  49.073  21.703  1.00  0.00     0.087 C 
ENDBRANCH  16  17
ENDBRANCH  15  16
ENDBRANCH  13  15
ENDBRANCH  11  12
ENDBRANCH   1  11
TORSDOF 9
ENDMDL
MODEL 2
REMARK VINA RESULT:    -5.253      2.292      6.952
REMARK INTER + INTRA:          -9.307
REMARK INTER:                  -7.459
REMARK INTRA:                  -1.847
REMARK UNBOUND:                -1.290
REMARK SMILES CC(=O)CCC=C(C)CCC=C(C)CCC=C(C)C
REMARK SMILES IDX 10 1 11 2 12 3 13 4 14 5 15 6 16 7 18 8 17 9 19 10 9 11 7 12
REMARK SMILES IDX 6 13 8 14 5 15 4 16 2 17 3 18 1 19
REMARK H PARENT
REMARK Flexibility Score: inf
ROOT
ATOM      1  C   UNL     1      17.075  46.084  20.977  1.00  0.00     0.032 C 
ENDROOT
BRANCH   1   2
ATOM      2  C   UNL     1      17.967  47.301  21.035  1.00  0.00    -0.028 C 
ATOM      3  C   UNL     1      19.268  47.328  20.667  1.00  0.00    -0.077 C 
ATOM      4  C   UNL     1      20.027  48.620  20.821  1.00  0.00     0.039 C 
BRANCH   3   5
ATOM      5  C   UNL     1      19.975  46.142  20.042  1.00  0.00     0.034 C 
BRANCH   5   6
ATOM      6  C   UNL     1      20.534  45.216  21.127  1.00  0.00     0.032 C 
BRANCH   6   7
ATOM      7  C   UNL     1      20.584  43.790  20.639  1.00  0.00    -0.028 C 
ATOM      8  C   UNL     1      19.902  41.413  20.517  1.00  0.00     0.039 C 
ATOM      9  C   UNL     1      19.786  42.800  21.098  1.00  0.00    -0.080 C 
ATOM     10  C   UNL     1      18.796  43.019  22.215  1.00  0.00     0.039 C 
ENDBRANCH   6   7
ENDBRANCH   5   6
ENDBRANCH   3   5
ENDBRANCH   1   2
BRANCH   1  11
ATOM     11  C   UNL     1      16.335  45.983  19.634  1.00  0.00     0.034 C 
BRANCH  11  12
ATOM     12  C   UNL     1      15.997  44.549  19.263  1.00  0.00    -0.077 C 
ATOM     13  C   UNL     1      14.750  44.029  19.351  1.00  0.00    -0.028 C 
ATOM     14  C   UNL     1      17.101  43.653  18.760  1.00  0.00     0.039 C 
BRANCH  13  15
ATOM     15  C   UNL     1      13.522  44.757  19.849  1.00  0.00     0.035 C 
BRANCH  15  16
ATOM     16  C   UNL     1      12.430  44.808  18.772  1.00  0.00     0.079 C 
BRANCH  16  17
ATOM     17  C   UNL     1      12.272  46.191  18.196  1.00  0.00     0.130 C 
ATOM     18  O   UNL     1      11.353  46.902  18.574  1.00  0.00    -0.300 OA
ATOM     19  C   UNL     1      13.205  46.698  17.138  1.00  0.00     0.087 C 
ENDBRANCH  16  17
ENDBRANCH  15  16
ENDBRANCH  13  15
ENDBRANCH  11  12
ENDBRANCH   1  11
TORSDOF 9
ENDMDL
MODEL 3
REMARK VINA RESULT:    -5.229      1.441      2.188
REMARK INTER + INTRA:          -9.270
REMARK INTER:                  -8.223
REMARK INTRA:                  -1.048
REMARK UNBOUND:                -1.290
REMARK SMILES CC(=O)CCC=C(C)CCC=C(C)CCC=C(C)C
REMARK SMILES IDX 10 1 11 2 12 3 13 4 14 5 15 6 16 7 18 8 17 9 19 10 9 11 7 12
REMARK SMILES IDX 6 13 8 14 5 15 4 16 2 17 3 18 1 19
REMARK H PARENT
REMARK Flexibility Score: inf
ROOT
ATOM      1  C   UNL     1      16.872  45.942  19.651  1.00  0.00     0.032 C 
ENDROOT
BRANCH   1   2
ATOM      2  C   UNL     1      15.852  44.832  19.726  1.00  0.00    -0.028 C 
ATOM      3  C   UNL     1      14.561  44.935  19.335  1.00  0.00    -0.077 C 
ATOM      4  C   UNL     1      13.663  43.738  19.511  1.00  0.00     0.039 C 
BRANCH   3   5
ATOM      5  C   UNL     1      13.997  46.172  18.665  1.00  0.00     0.034 C 
BRANCH   5   6
ATOM      6  C   UNL     1      12.708  45.834  17.909  1.00  0.00     0.032 C 
BRANCH   6   7
ATOM      7  C   UNL     1      11.745  46.995  17.949  1.00  0.00    -0.028 C 
ATOM      8  C   UNL     1       9.768  48.271  18.716  1.00  0.00     0.039 C 
ATOM      9  C   UNL     1      10.646  47.047  18.735  1.00  0.00    -0.080 C 
ATOM     10  C   UNL     1      10.233  45.892  19.613  1.00  0.00     0.039 C 
ENDBRANCH   6   7
ENDBRANCH   5   6
ENDBRANCH   3   5
ENDBRANCH   1   2
BRANCH   1  11
ATOM     11  C   UNL     1      17.712  46.031  20.934  1.00  0.00     0.034 C 
BRANCH  11  12
ATOM     12  C   UNL     1      19.201  45.887  20.665  1.00  0.00    -0.077 C 
ATOM     13  C   UNL     1      20.085  46.904  20.791  1.00  0.00    -0.028 C 
ATOM     14  C   UNL     1      19.732  44.539  20.243  1.00  0.00     0.039 C 
BRANCH  13  15
ATOM     15  C   UNL     1      19.747  48.326  21.180  1.00  0.00     0.035 C 
BRANCH  15  16
ATOM     16  C   UNL     1      20.432  49.336  20.250  1.00  0.00     0.079 C 
BRANCH  16  17
ATOM     17  C   UNL     1      19.509  49.810  19.157  1.00  0.00     0.130 C 
ATOM     18  O   UNL     1      18.357  49.407  19.121  1.00  0.00    -0.300 OA
ATOM     19  C   UNL     1      19.993  50.745  18.090  1.00  0.00     0.087 C 
ENDBRANCH  16  17
ENDBRANCH  15  16
ENDBRANCH  13  15
ENDBRANCH  11  12
ENDBRANCH   1  11
TORSDOF 9
ENDMDL
MODEL 4
REMARK VINA RESULT:    -5.219      2.303      4.066
REMARK INTER + INTRA:          -9.255
REMARK INTER:                  -7.474
REMARK INTRA:                  -1.781
REMARK UNBOUND:                -1.290
REMARK SMILES CC(=O)CCC=C(C)CCC=C(C)CCC=C(C)C
REMARK SMILES IDX 10 1 11 2 12 3 13 4 14 5 15 6 16 7 18 8 17 9 19 10 9 11 7 12
REMARK SMILES IDX 6 13 8 14 5 15 4 16 2 17 3 18 1 19
REMARK H PARENT
REMARK Flexibility Score: inf
ROOT
ATOM      1  C   UNL     1      16.920  46.750  20.901  1.00  0.00     0.032 C 
ENDROOT
BRANCH   1   2
ATOM      2  C   UNL     1      16.718  45.371  20.322  1.00  0.00    -0.028 C 
ATOM      3  C   UNL     1      15.573  44.654  20.403  1.00  0.00    -0.077 C 
ATOM      4  C   UNL     1      15.550  43.275  19.798  1.00  0.00     0.039 C 
BRANCH   3   5
ATOM      5  C   UNL     1      14.297  45.202  21.009  1.00  0.00     0.034 C 
BRANCH   5   6
ATOM      6  C   UNL     1      13.155  45.160  19.989  1.00  0.00     0.032 C 
BRANCH   6   7
ATOM      7  C   UNL     1      13.319  46.249  18.958  1.00  0.00    -0.028 C 
ATOM      8  C   UNL     1      13.559  47.197  16.684  1.00  0.00     0.039 C 
ATOM      9  C   UNL     1      13.427  46.029  17.628  1.00  0.00    -0.080 C 
ATOM     10  C   UNL     1      13.466  44.638  17.045  1.00  0.00     0.039 C 
ENDBRANCH   6   7
ENDBRANCH   5   6
ENDBRANCH   3   5
ENDBRANCH   1   2
BRANCH   1  11
ATOM     11  C   UNL     1      17.928  47.571  20.082  1.00  0.00     0.034 C 
BRANCH  11  12
ATOM     12  C   UNL     1      19.209  47.853  20.850  1.00  0.00    -0.077 C 
ATOM     13  C   UNL     1      20.245  46.986  20.919  1.00  0.00    -0.028 C 
ATOM     14  C   UNL     1      19.344  49.173  21.569  1.00  0.00     0.039 C 
BRANCH  13  15
ATOM     15  C   UNL     1      20.292  45.612  20.288  1.00  0.00     0.035 C 
BRANCH  15  16
ATOM     16  C   UNL     1      20.624  44.533  21.327  1.00  0.00     0.079 C 
BRANCH  16  17
ATOM     17  C   UNL     1      19.530  43.503  21.438  1.00  0.00     0.130 C 
ATOM     18  O   UNL     1      18.921  43.379  22.489  1.00  0.00    -0.300 OA
ATOM     19  C   UNL     1      19.200  42.601  20.287  1.00  0.00     0.087 C 
ENDBRANCH  16  17
ENDBRANCH  15  16
ENDBRANCH  13  15
ENDBRANCH  11  12
ENDBRANCH   1  11
TORSDOF 9
ENDMDL
MODEL 5
REMARK VINA RESULT:    -5.179      2.411      3.818
REMARK INTER + INTRA:          -9.193
REMARK INTER:                  -7.147
REMARK INTRA:                  -2.046
REMARK UNBOUND:                -1.290
REMARK SMILES CC(=O)CCC=C(C)CCC=C(C)CCC=C(C)C
REMARK SMILES IDX 10 1 11 2 12 3 13 4 14 5 15 6 16 7 18 8 17 9 19 10 9 11 7 12
REMARK SMILES IDX 6 13 8 14 5 15 4 16 2 17 3 18 1 19
REMARK H PARENT
REMARK Flexibility Score: inf
ROOT
ATOM      1  C   UNL     1      17.419  42.990  18.645  1.00  0.00     0.032 C 
ENDROOT
BRANCH   1   2
ATOM      2  C   UNL     1      17.746  44.198  19.490  1.00  0.00    -0.028 C 
ATOM      3  C   UNL     1      16.849  44.903  20.217  1.00  0.00    -0.077 C 
ATOM      4  C   UNL     1      17.337  46.108  20.979  1.00  0.00     0.039 C 
BRANCH   3   5
ATOM      5  C   UNL     1      15.396  44.496  20.356  1.00  0.00     0.034 C 
BRANCH   5   6
ATOM      6  C   UNL     1      14.475  45.693  20.098  1.00  0.00     0.032 C 
BRANCH   6   7
ATOM      7  C   UNL     1      14.503  46.084  18.641  1.00  0.00    -0.028 C 
ATOM      8  C   UNL     1      13.568  46.884  16.493  1.00  0.00     0.039 C 
ATOM      9  C   UNL     1      13.419  46.488  17.940  1.00  0.00    -0.080 C 
ATOM     10  C   UNL     1      12.037  46.518  18.545  1.00  0.00     0.039 C 
ENDBRANCH   6   7
ENDBRANCH   5   6
ENDBRANCH   3   5
ENDBRANCH   1   2
BRANCH   1  11
ATOM     11  C   UNL     1      17.955  41.694  19.273  1.00  0.00     0.034 C 
BRANCH  11  12
ATOM     12  C   UNL     1      17.040  41.151  20.358  1.00  0.00    -0.077 C 
ATOM     13  C   UNL     1      17.418  41.005  21.650  1.00  0.00    -0.028 C 
ATOM     14  C   UNL     1      15.631  40.760  19.987  1.00  0.00     0.039 C 
BRANCH  13  15
ATOM     15  C   UNL     1      18.786  41.319  22.212  1.00  0.00     0.035 C 
BRANCH  15  16
ATOM     16  C   UNL     1      18.877  42.780  22.672  1.00  0.00     0.079 C 
BRANCH  16  17
ATOM     17  C   UNL     1      20.294  43.292  22.641  1.00  0.00     0.130 C 
ATOM     18  O   UNL     1      21.084  42.937  23.503  1.00  0.00    -0.300 OA
ATOM     19  C   UNL     1      20.741  44.262  21.589  1.00  0.00     0.087 C 
ENDBRANCH  16  17
ENDBRANCH  15  16
ENDBRANCH  13  15
ENDBRANCH  11  12
ENDBRANCH   1  11
TORSDOF 9
ENDMDL
MODEL 6
REMARK VINA RESULT:    -5.135      2.528      6.818
REMARK INTER + INTRA:          -9.127
REMARK INTER:                  -7.077
REMARK INTRA:                  -2.050
REMARK UNBOUND:                -1.290
REMARK SMILES CC(=O)CCC=C(C)CCC=C(C)CCC=C(C)C
REMARK SMILES IDX 10 1 11 2 12 3 13 4 14 5 15 6 16 7 18 8 17 9 19 10 9 11 7 12
REMARK SMILES IDX 6 13 8 14 5 15 4 16 2 17 3 18 1 19
REMARK H PARENT
REMARK Flexibility Score: inf
ROOT
ATOM      1  C   UNL     1      17.038  43.762  18.920  1.00  0.00     0.032 C 
ENDROOT
BRANCH   1   2
ATOM      2  C   UNL     1      16.461  42.616  19.716  1.00  0.00    -0.028 C 
ATOM      3  C   UNL     1      17.003  41.379  19.802  1.00  0.00    -0.077 C 
ATOM      4  C   UNL     1      16.280  40.337  20.614  1.00  0.00     0.039 C 
BRANCH   3   5
ATOM      5  C   UNL     1      18.337  41.017  19.181  1.00  0.00     0.034 C 
BRANCH   5   6
ATOM      6  C   UNL     1      19.446  41.032  20.238  1.00  0.00     0.032 C 
BRANCH   6   7
ATOM      7  C   UNL     1      20.084  42.397  20.325  1.00  0.00    -0.028 C 
ATOM      8  C   UNL     1      20.618  44.585  21.351  1.00  0.00     0.039 C 
ATOM      9  C   UNL     1      19.908  43.256  21.354  1.00  0.00    -0.080 C 
ATOM     10  C   UNL     1      18.981  42.951  22.505  1.00  0.00     0.039 C 
ENDBRANCH   6   7
ENDBRANCH   5   6
ENDBRANCH   3   5
ENDBRANCH   1   2
BRANCH   1  11
ATOM     11  C   UNL     1      16.064  44.947  18.840  1.00  0.00     0.034 C 
BRANCH  11  12
ATOM     12  C   UNL     1      16.022  45.754  20.128  1.00  0.00    -0.077 C 
ATOM     13  C   UNL     1      14.912  45.883  20.892  1.00  0.00    -0.028 C 
ATOM     14  C   UNL     1      17.281  46.443  20.590  1.00  0.00     0.039 C 
BRANCH  13  15
ATOM     15  C   UNL     1      13.555  45.289  20.589  1.00  0.00     0.035 C 
BRANCH  15  16
ATOM     16  C   UNL     1      12.682  46.271  19.796  1.00  0.00     0.079 C 
BRANCH  16  17
ATOM     17  C   UNL     1      12.630  45.921  18.332  1.00  0.00     0.130 C 
ATOM     18  O   UNL     1      12.366  44.777  17.992  1.00  0.00    -0.300 OA
ATOM     19  C   UNL     1      12.934  46.947  17.282  1.00  0.00     0.087 C 
ENDBRANCH  16  17
ENDBRANCH  15  16
ENDBRANCH  13  15
ENDBRANCH  11  12
ENDBRANCH   1  11
TORSDOF 9
ENDMDL
MODEL 7
REMARK VINA RESULT:    -5.095      2.606      6.902
REMARK INTER + INTRA:          -9.066
REMARK INTER:                  -7.352
REMARK INTRA:                  -1.714
REMARK UNBOUND:                -1.290
REMARK SMILES CC(=O)CCC=C(C)CCC=C(C)CCC=C(C)C
REMARK SMILES IDX 10 1 11 2 12 3 13 4 14 5 15 6 16 7 18 8 17 9 19 10 9 11 7 12
REMARK SMILES IDX 6 13 8 14 5 15 4 16 2 17 3 18 1 19
REMARK H PARENT
REMARK Flexibility Score: inf
ROOT
ATOM      1  C   UNL     1      17.190  44.436  19.132  1.00  0.00     0.032 C 
ENDROOT
BRANCH   1   2
ATOM      2  C   UNL     1      17.609  43.876  20.470  1.00  0.00    -0.028 C 
ATOM      3  C   UNL     1      18.858  43.947  20.985  1.00  0.00    -0.077 C 
ATOM      4  C   UNL     1      19.117  43.305  22.322  1.00  0.00     0.039 C 
BRANCH   3   5
ATOM      5  C   UNL     1      19.987  44.703  20.312  1.00  0.00     0.034 C 
BRANCH   5   6
ATOM      6  C   UNL     1      20.270  46.016  21.050  1.00  0.00     0.032 C 
BRANCH   6   7
ATOM      7  C   UNL     1      19.919  47.201  20.186  1.00  0.00    -0.028 C 
ATOM      8  C   UNL     1      18.532  49.091  19.390  1.00  0.00     0.039 C 
ATOM      9  C   UNL     1      18.768  47.904  20.289  1.00  0.00    -0.080 C 
ATOM     10  C   UNL     1      17.674  47.515  21.252  1.00  0.00     0.039 C 
ENDBRANCH   6   7
ENDBRANCH   5   6
ENDBRANCH   3   5
ENDBRANCH   1   2
BRANCH   1  11
ATOM     11  C   UNL     1      15.669  44.359  18.933  1.00  0.00     0.034 C 
BRANCH  11  12
ATOM     12  C   UNL     1      15.045  45.723  18.687  1.00  0.00    -0.077 C 
ATOM     13  C   UNL     1      13.768  46.030  19.014  1.00  0.00    -0.028 C 
ATOM     14  C   UNL     1      15.889  46.800  18.053  1.00  0.00     0.039 C 
BRANCH  13  15
ATOM     15  C   UNL     1      12.762  45.086  19.634  1.00  0.00     0.035 C 
BRANCH  15  16
ATOM     16  C   UNL     1      11.512  44.948  18.755  1.00  0.00     0.079 C 
BRANCH  16  17
ATOM     17  C   UNL     1      10.245  45.007  19.567  1.00  0.00     0.130 C 
ATOM     18  O   UNL     1       9.492  45.961  19.443  1.00  0.00    -0.300 OA
ATOM     19  C   UNL     1       9.908  43.929  20.553  1.00  0.00     0.087 C 
ENDBRANCH  16  17
ENDBRANCH  15  16
ENDBRANCH  13  15
ENDBRANCH  11  12
ENDBRANCH   1  11
TORSDOF 9
ENDMDL
MODEL 8
REMARK VINA RESULT:    -5.046     10.185     12.838
REMARK INTER + INTRA:          -8.991
REMARK INTER:                  -6.323
REMARK INTRA:                  -2.668
REMARK UNBOUND:                -1.290
REMARK SMILES CC(=O)CCC=C(C)CCC=C(C)CCC=C(C)C
REMARK SMILES IDX 10 1 11 2 12 3 13 4 14 5 15 6 16 7 18 8 17 9 19 10 9 11 7 12
REMARK SMILES IDX 6 13 8 14 5 15 4 16 2 17 3 18 1 19
REMARK H PARENT
REMARK Flexibility Score: inf
ROOT
ATOM      1  C   UNL     1      13.226  38.243  27.231  1.00  0.00     0.032 C 
ENDROOT
BRANCH   1   2
ATOM      2  C   UNL     1      13.217  39.738  27.444  1.00  0.00    -0.028 C 
ATOM      3  C   UNL     1      13.826  40.380  28.467  1.00  0.00    -0.077 C 
ATOM      4  C   UNL     1      13.690  41.878  28.552  1.00  0.00     0.039 C 
BRANCH   3   5
ATOM      5  C   UNL     1      14.694  39.672  29.488  1.00  0.00     0.034 C 
BRANCH   5   6
ATOM      6  C   UNL     1      15.879  40.555  29.892  1.00  0.00     0.032 C 
BRANCH   6   7
ATOM      7  C   UNL     1      16.996  40.445  28.884  1.00  0.00    -0.028 C 
ATOM      8  C   UNL     1      19.018  39.466  27.843  1.00  0.00     0.039 C 
ATOM      9  C   UNL     1      17.964  39.501  28.920  1.00  0.00    -0.080 C 
ATOM     10  C   UNL     1      18.059  38.492  30.038  1.00  0.00     0.039 C 
ENDBRANCH   6   7
ENDBRANCH   5   6
ENDBRANCH   3   5
ENDBRANCH   1   2
BRANCH   1  11
ATOM     11  C   UNL     1      14.005  37.852  25.966  1.00  0.00     0.034 C 
BRANCH  11  12
ATOM     12  C   UNL     1      15.509  37.972  26.148  1.00  0.00    -0.077 C 
ATOM     13  C   UNL     1      16.263  37.034  26.768  1.00  0.00    -0.028 C 
ATOM     14  C   UNL     1      16.208  39.193  25.605  1.00  0.00     0.039 C 
BRANCH  13  15
ATOM     15  C   UNL     1      15.748  35.758  27.395  1.00  0.00     0.035 C 
BRANCH  15  16
ATOM     16  C   UNL     1      15.564  35.917  28.910  1.00  0.00     0.079 C 
BRANCH  16  17
ATOM     17  C   UNL     1      14.456  35.042  29.436  1.00  0.00     0.130 C 
ATOM     18  O   UNL     1      14.640  34.372  30.441  1.00  0.00    -0.300 OA
ATOM     19  C   UNL     1      13.139  34.952  28.725  1.00  0.00     0.087 C 
ENDBRANCH  16  17
ENDBRANCH  15  16
ENDBRANCH  13  15
ENDBRANCH  11  12
ENDBRANCH   1  11
TORSDOF 9
ENDMDL
MODEL 9
REMARK VINA RESULT:    -4.975      3.779      6.354
REMARK INTER + INTRA:          -8.882
REMARK INTER:                  -6.985
REMARK INTRA:                  -1.897
REMARK UNBOUND:                -1.290
REMARK SMILES CC(=O)CCC=C(C)CCC=C(C)CCC=C(C)C
REMARK SMILES IDX 10 1 11 2 12 3 13 4 14 5 15 6 16 7 18 8 17 9 19 10 9 11 7 12
REMARK SMILES IDX 6 13 8 14 5 15 4 16 2 17 3 18 1 19
REMARK H PARENT
REMARK Flexibility Score: inf
ROOT
ATOM      1  C   UNL     1      17.042  44.832  19.734  1.00  0.00     0.032 C 
ENDROOT
BRANCH   1   2
ATOM      2  C   UNL     1      17.670  43.607  19.113  1.00  0.00    -0.028 C 
ATOM      3  C   UNL     1      17.632  42.362  19.641  1.00  0.00    -0.077 C 
ATOM      4  C   UNL     1      18.342  41.254  18.909  1.00  0.00     0.039 C 
BRANCH   3   5
ATOM      5  C   UNL     1      16.852  42.020  20.895  1.00  0.00     0.034 C 
BRANCH   5   6
ATOM      6  C   UNL     1      17.694  41.148  21.832  1.00  0.00     0.032 C 
BRANCH   6   7
ATOM      7  C   UNL     1      18.585  42.003  22.699  1.00  0.00    -0.028 C 
ATOM      8  C   UNL     1      20.729  42.898  23.552  1.00  0.00     0.039 C 
ATOM      9  C   UNL     1      19.936  41.979  22.659  1.00  0.00    -0.080 C 
ATOM     10  C   UNL     1      20.696  41.023  21.772  1.00  0.00     0.039 C 
ENDBRANCH   6   7
ENDBRANCH   5   6
ENDBRANCH   3   5
ENDBRANCH   1   2
BRANCH   1  11
ATOM     11  C   UNL     1      17.832  45.319  20.959  1.00  0.00     0.034 C 
BRANCH  11  12
ATOM     12  C   UNL     1      19.182  45.907  20.584  1.00  0.00    -0.077 C 
ATOM     13  C   UNL     1      19.371  47.215  20.289  1.00  0.00    -0.028 C 
ATOM     14  C   UNL     1      20.382  44.994  20.543  1.00  0.00     0.039 C 
BRANCH  13  15
ATOM     15  C   UNL     1      18.296  48.278  20.254  1.00  0.00     0.035 C 
BRANCH  15  16
ATOM     16  C   UNL     1      18.404  49.220  21.460  1.00  0.00     0.079 C 
BRANCH  16  17
ATOM     17  C   UNL     1      19.678  50.024  21.433  1.00  0.00     0.130 C 
ATOM     18  O   UNL     1      20.440  49.982  22.387  1.00  0.00    -0.300 OA
ATOM     19  C   UNL     1      20.009  50.906  20.266  1.00  0.00     0.087 C 
ENDBRANCH  16  17
ENDBRANCH  15  16
ENDBRANCH  13  15
ENDBRANCH  11  12
ENDBRANCH   1  11
TORSDOF 9
ENDMDL
