MODEL 1
REMARK VINA RESULT:    -6.028      0.000      0.000
REMARK INTER + INTRA:          -6.626
REMARK INTER:                  -6.556
REMARK INTRA:                  -0.070
REMARK UNBOUND:                -0.070
REMARK SMILES C[C@@H]1[C@@H](C)CC[C@@]2(C(=O)[O-])CC[C@]3(C)C(=CC[C@@H]4[C@@]5(C)CC[C@H](O)C(C)(C)[C@@H]5CC[C@@]43C)[C@@H]12
REMARK SMILES IDX 7 1 6 2 11 3 33 4 5 5 12 6 15 7 2 8 3 9 13 10 16 11 1 12
REMARK SMILES IDX 4 13 14 14 31 15 17 16 18 17 30 18 32 19 19 20 29 21 28 22
REMARK SMILES IDX 21 23 20 24 25 25 22 26 23 27 26 28 27 29 8 30 9 31 10 32
REMARK SMILES IDX 24 33
REMARK H PARENT 24 34
REMARK Flexibility Score: inf
ROOT
ATOM      1  C   UNL     1      27.822  35.852  22.881  1.00  0.00     0.017 C 
ATOM      2  C   UNL     1      26.307  35.494  22.727  1.00  0.00     0.014 C 
ATOM      3  C   UNL     1      28.119  36.034  24.389  1.00  0.00     0.014 C 
ATOM      4  C   UNL     1      28.779  34.761  22.227  1.00  0.00     0.030 C 
ATOM      5  C   UNL     1      25.916  35.134  21.302  1.00  0.00     0.004 C 
ATOM      6  C   UNL     1      28.224  34.696  25.134  1.00  0.00     0.013 C 
ATOM      7  C   UNL     1      29.447  33.720  23.167  1.00  0.00    -0.063 C 
ATOM      8  C   UNL     1      28.218  34.136  20.879  1.00  0.00    -0.003 C 
ATOM      9  C   UNL     1      26.682  33.904  20.823  1.00  0.00    -0.011 C 
ATOM     10  C   UNL     1      29.463  33.856  24.698  1.00  0.00    -0.006 C 
ATOM     11  C   UNL     1      30.368  32.893  22.620  1.00  0.00    -0.027 C 
ATOM     12  C   UNL     1      28.677  34.974  19.662  1.00  0.00     0.008 C 
ATOM     13  C   UNL     1      26.249  32.615  21.551  1.00  0.00     0.008 C 
ATOM     14  C   UNL     1      30.728  34.687  25.113  1.00  0.00     0.017 C 
ATOM     15  C   UNL     1      29.502  32.386  25.385  1.00  0.00    -0.020 C 
ATOM     16  C   UNL     1      31.296  32.071  23.451  1.00  0.00     0.032 C 
ATOM     17  C   UNL     1      30.583  31.428  24.673  1.00  0.00     0.006 C 
ATOM     18  C   UNL     1      28.084  31.738  25.341  1.00  0.00     0.008 C 
ATOM     19  C   UNL     1      29.854  32.533  26.908  1.00  0.00     0.012 C 
ATOM     20  C   UNL     1      30.156  29.922  24.360  1.00  0.00    -0.025 C 
ATOM     21  C   UNL     1      27.975  30.243  25.701  1.00  0.00     0.005 C 
ATOM     22  C   UNL     1      29.280  29.417  25.557  1.00  0.00     0.003 C 
ATOM     23  C   UNL     1      31.475  29.053  24.212  1.00  0.00     0.010 C 
ATOM     24  C   UNL     1      29.355  29.822  23.018  1.00  0.00     0.012 C 
ATOM     25  C   UNL     1      29.066  27.837  25.704  1.00  0.00    -0.006 C 
ATOM     26  C   UNL     1      31.548  27.813  25.105  1.00  0.00     0.033 C 
ATOM     27  C   UNL     1      30.237  27.027  25.050  1.00  0.00     0.120 C 
ATOM     28  C   UNL     1      29.036  27.496  27.221  1.00  0.00     0.014 C 
ATOM     29  C   UNL     1      27.711  27.332  25.129  1.00  0.00     0.014 C 
ENDROOT
BRANCH   1  30
ATOM     30  C   UNL     1      28.077  37.222  22.237  1.00  0.00     0.048 C 
ATOM     31  O   UNL     1      29.224  37.548  21.830  1.00  0.00    -0.550 OA
ATOM     32  O   UNL     1      27.017  38.084  21.964  1.00  0.00    -0.550 OA
ENDBRANCH   1  30
BRANCH  27  33
ATOM     33  O   UNL     1      29.944  26.684  23.718  1.00  0.00    -0.393 OA
ATOM     34  H   UNL     1      29.300  25.928  23.745  1.00  0.00     0.210 HD
ENDBRANCH  27  33
TORSDOF 2
ENDMDL
MODEL 2
REMARK VINA RESULT:    -5.656      1.468      7.586
REMARK INTER + INTRA:          -6.222
REMARK INTER:                  -6.077
REMARK INTRA:                  -0.146
REMARK UNBOUND:                -0.070
REMARK SMILES C[C@@H]1[C@@H](C)CC[C@@]2(C(=O)[O-])CC[C@]3(C)C(=CC[C@@H]4[C@@]5(C)CC[C@H](O)C(C)(C)[C@@H]5CC[C@@]43C)[C@@H]12
REMARK SMILES IDX 7 1 6 2 11 3 33 4 5 5 12 6 15 7 2 8 3 9 13 10 16 11 1 12
REMARK SMILES IDX 4 13 14 14 31 15 17 16 18 17 30 18 32 19 19 20 29 21 28 22
REMARK SMILES IDX 21 23 20 24 25 25 22 26 23 27 26 28 27 29 8 30 9 31 10 32
REMARK SMILES IDX 24 33
REMARK H PARENT 24 34
REMARK Flexibility Score: inf
ROOT
ATOM      1  C   UNL     1      30.263  28.711  24.739  1.00  0.00     0.017 C 
ATOM      2  C   UNL     1      28.834  28.106  24.945  1.00  0.00     0.014 C 
ATOM      3  C   UNL     1      30.587  28.662  23.225  1.00  0.00     0.014 C 
ATOM      4  C   UNL     1      30.392  30.189  25.314  1.00  0.00     0.030 C 
ATOM      5  C   UNL     1      28.328  28.237  26.373  1.00  0.00     0.004 C 
ATOM      6  C   UNL     1      29.864  29.760  22.433  1.00  0.00     0.013 C 
ATOM      7  C   UNL     1      30.295  31.372  24.313  1.00  0.00    -0.063 C 
ATOM      8  C   UNL     1      29.590  30.428  26.664  1.00  0.00    -0.003 C 
ATOM      9  C   UNL     1      28.219  29.705  26.778  1.00  0.00    -0.011 C 
ATOM     10  C   UNL     1      30.366  31.193  22.787  1.00  0.00    -0.006 C 
ATOM     11  C   UNL     1      30.552  32.612  24.791  1.00  0.00    -0.027 C 
ATOM     12  C   UNL     1      30.476  30.091  27.886  1.00  0.00     0.008 C 
ATOM     13  C   UNL     1      27.092  30.445  26.028  1.00  0.00     0.008 C 
ATOM     14  C   UNL     1      31.870  31.255  22.345  1.00  0.00     0.017 C 
ATOM     15  C   UNL     1      29.511  32.360  22.051  1.00  0.00    -0.020 C 
ATOM     16  C   UNL     1      30.795  33.780  23.895  1.00  0.00     0.032 C 
ATOM     17  C   UNL     1      29.821  33.809  22.684  1.00  0.00     0.006 C 
ATOM     18  C   UNL     1      27.988  32.041  22.135  1.00  0.00     0.008 C 
ATOM     19  C   UNL     1      29.859  32.372  20.520  1.00  0.00     0.012 C 
ATOM     20  C   UNL     1      28.586  34.781  22.965  1.00  0.00    -0.025 C 
ATOM     21  C   UNL     1      27.004  33.158  21.731  1.00  0.00     0.005 C 
ATOM     22  C   UNL     1      27.564  34.604  21.791  1.00  0.00     0.003 C 
ATOM     23  C   UNL     1      29.131  36.269  23.027  1.00  0.00     0.010 C 
ATOM     24  C   UNL     1      27.904  34.456  24.336  1.00  0.00     0.012 C 
ATOM     25  C   UNL     1      26.449  35.737  21.601  1.00  0.00    -0.006 C 
ATOM     26  C   UNL     1      28.438  37.262  22.092  1.00  0.00     0.033 C 
ATOM     27  C   UNL     1      26.918  37.117  22.177  1.00  0.00     0.120 C 
ATOM     28  C   UNL     1      26.200  35.914  20.077  1.00  0.00     0.014 C 
ATOM     29  C   UNL     1      25.069  35.368  22.218  1.00  0.00     0.014 C 
ENDROOT
BRANCH   1  30
ATOM     30  C   UNL     1      31.293  27.795  25.415  1.00  0.00     0.048 C 
ATOM     31  O   UNL     1      31.096  26.554  25.516  1.00  0.00    -0.550 OA
ATOM     32  O   UNL     1      32.532  28.295  25.812  1.00  0.00    -0.550 OA
ENDBRANCH   1  30
BRANCH  27  33
ATOM     33  O   UNL     1      26.499  37.289  23.509  1.00  0.00    -0.393 OA
ATOM     34  H   UNL     1      25.866  36.549  23.714  1.00  0.00     0.210 HD
ENDBRANCH  27  33
TORSDOF 2
ENDMDL
MODEL 3
REMARK VINA RESULT:    -5.631      3.779      7.341
REMARK INTER + INTRA:          -6.194
REMARK INTER:                  -6.050
REMARK INTRA:                  -0.145
REMARK UNBOUND:                -0.070
REMARK SMILES C[C@@H]1[C@@H](C)CC[C@@]2(C(=O)[O-])CC[C@]3(C)C(=CC[C@@H]4[C@@]5(C)CC[C@H](O)C(C)(C)[C@@H]5CC[C@@]43C)[C@@H]12
REMARK SMILES IDX 7 1 6 2 11 3 33 4 5 5 12 6 15 7 2 8 3 9 13 10 16 11 1 12
REMARK SMILES IDX 4 13 14 14 31 15 17 16 18 17 30 18 32 19 19 20 29 21 28 22
REMARK SMILES IDX 21 23 20 24 25 25 22 26 23 27 26 28 27 29 8 30 9 31 10 32
REMARK SMILES IDX 24 33
REMARK H PARENT 24 34
REMARK Flexibility Score: inf
ROOT
ATOM      1  C   UNL     1      29.389  36.519  28.793  1.00  0.00     0.017 C 
ATOM      2  C   UNL     1      27.889  36.594  29.230  1.00  0.00     0.014 C 
ATOM      3  C   UNL     1      29.733  35.034  28.519  1.00  0.00     0.014 C 
ATOM      4  C   UNL     1      29.706  37.432  27.528  1.00  0.00     0.030 C 
ATOM      5  C   UNL     1      27.377  38.018  29.379  1.00  0.00     0.004 C 
ATOM      6  C   UNL     1      29.180  34.540  27.176  1.00  0.00     0.013 C 
ATOM      7  C   UNL     1      29.789  36.747  26.137  1.00  0.00    -0.063 C 
ATOM      8  C   UNL     1      28.917  38.811  27.515  1.00  0.00    -0.003 C 
ATOM      9  C   UNL     1      27.459  38.766  28.051  1.00  0.00    -0.011 C 
ATOM     10  C   UNL     1      29.864  35.223  25.951  1.00  0.00    -0.006 C 
ATOM     11  C   UNL     1      30.201  37.507  25.095  1.00  0.00    -0.027 C 
ATOM     12  C   UNL     1      29.726  39.904  28.253  1.00  0.00     0.008 C 
ATOM     13  C   UNL     1      26.457  38.233  27.007  1.00  0.00     0.008 C 
ATOM     14  C   UNL     1      31.371  34.788  25.989  1.00  0.00     0.017 C 
ATOM     15  C   UNL     1      29.189  34.801  24.536  1.00  0.00    -0.020 C 
ATOM     16  C   UNL     1      30.616  36.915  23.790  1.00  0.00     0.032 C 
ATOM     17  C   UNL     1      29.679  35.761  23.339  1.00  0.00     0.006 C 
ATOM     18  C   UNL     1      27.635  34.828  24.656  1.00  0.00     0.008 C 
ATOM     19  C   UNL     1      29.564  33.314  24.203  1.00  0.00     0.012 C 
ATOM     20  C   UNL     1      28.581  36.285  22.305  1.00  0.00    -0.025 C 
ATOM     21  C   UNL     1      26.819  34.718  23.353  1.00  0.00     0.005 C 
ATOM     22  C   UNL     1      27.567  35.118  22.054  1.00  0.00     0.003 C 
ATOM     23  C   UNL     1      29.320  36.697  20.963  1.00  0.00     0.010 C 
ATOM     24  C   UNL     1      27.835  37.547  22.855  1.00  0.00     0.012 C 
ATOM     25  C   UNL     1      26.620  35.223  20.768  1.00  0.00    -0.006 C 
ATOM     26  C   UNL     1      28.786  36.039  19.690  1.00  0.00     0.033 C 
ATOM     27  C   UNL     1      27.259  36.108  19.644  1.00  0.00     0.120 C 
ATOM     28  C   UNL     1      26.426  33.790  20.197  1.00  0.00     0.014 C 
ATOM     29  C   UNL     1      25.190  35.751  21.084  1.00  0.00     0.014 C 
ENDROOT
BRANCH   1  30
ATOM     30  C   UNL     1      30.273  36.941  29.975  1.00  0.00     0.048 C 
ATOM     31  O   UNL     1      29.905  36.748  31.165  1.00  0.00    -0.550 OA
ATOM     32  O   UNL     1      31.563  37.421  29.759  1.00  0.00    -0.550 OA
ENDBRANCH   1  30
BRANCH  27  33
ATOM     33  O   UNL     1      26.841  37.447  19.743  1.00  0.00    -0.393 OA
ATOM     34  H   UNL     1      27.322  37.956  19.037  1.00  0.00     0.210 HD
ENDBRANCH  27  33
TORSDOF 2
ENDMDL
MODEL 4
REMARK VINA RESULT:    -5.420      1.904      7.399
REMARK INTER + INTRA:          -5.965
REMARK INTER:                  -5.821
REMARK INTRA:                  -0.144
REMARK UNBOUND:                -0.070
REMARK SMILES C[C@@H]1[C@@H](C)CC[C@@]2(C(=O)[O-])CC[C@]3(C)C(=CC[C@@H]4[C@@]5(C)CC[C@H](O)C(C)(C)[C@@H]5CC[C@@]43C)[C@@H]12
REMARK SMILES IDX 7 1 6 2 11 3 33 4 5 5 12 6 15 7 2 8 3 9 13 10 16 11 1 12
REMARK SMILES IDX 4 13 14 14 31 15 17 16 18 17 30 18 32 19 19 20 29 21 28 22
REMARK SMILES IDX 21 23 20 24 25 25 22 26 23 27 26 28 27 29 8 30 9 31 10 32
REMARK SMILES IDX 24 33
REMARK H PARENT 24 34
REMARK Flexibility Score: inf
ROOT
ATOM      1  C   UNL     1      30.947  29.646  26.460  1.00  0.00     0.017 C 
ATOM      2  C   UNL     1      31.843  28.922  25.401  1.00  0.00     0.014 C 
ATOM      3  C   UNL     1      31.671  30.946  26.889  1.00  0.00     0.014 C 
ATOM      4  C   UNL     1      29.481  29.948  25.919  1.00  0.00     0.030 C 
ATOM      5  C   UNL     1      31.175  27.707  24.778  1.00  0.00     0.004 C 
ATOM      6  C   UNL     1      31.555  32.058  25.838  1.00  0.00     0.013 C 
ATOM      7  C   UNL     1      29.171  31.384  25.415  1.00  0.00    -0.063 C 
ATOM      8  C   UNL     1      28.888  28.804  24.989  1.00  0.00    -0.003 C 
ATOM      9  C   UNL     1      29.901  28.107  24.038  1.00  0.00    -0.011 C 
ATOM     10  C   UNL     1      30.097  32.585  25.670  1.00  0.00    -0.006 C 
ATOM     11  C   UNL     1      27.886  31.665  25.096  1.00  0.00    -0.027 C 
ATOM     12  C   UNL     1      28.139  27.751  25.839  1.00  0.00     0.008 C 
ATOM     13  C   UNL     1      30.188  28.931  22.767  1.00  0.00     0.008 C 
ATOM     14  C   UNL     1      29.704  33.238  27.041  1.00  0.00     0.017 C 
ATOM     15  C   UNL     1      29.951  33.664  24.466  1.00  0.00    -0.020 C 
ATOM     16  C   UNL     1      27.399  33.062  24.899  1.00  0.00     0.032 C 
ATOM     17  C   UNL     1      28.406  33.932  24.097  1.00  0.00     0.006 C 
ATOM     18  C   UNL     1      30.736  33.175  23.211  1.00  0.00     0.008 C 
ATOM     19  C   UNL     1      30.630  35.013  24.892  1.00  0.00     0.012 C 
ATOM     20  C   UNL     1      28.008  33.992  22.551  1.00  0.00    -0.025 C 
ATOM     21  C   UNL     1      30.500  33.928  21.887  1.00  0.00     0.005 C 
ATOM     22  C   UNL     1      29.168  34.717  21.788  1.00  0.00     0.003 C 
ATOM     23  C   UNL     1      26.648  34.800  22.422  1.00  0.00     0.010 C 
ATOM     24  C   UNL     1      27.779  32.559  21.964  1.00  0.00     0.012 C 
ATOM     25  C   UNL     1      28.854  35.276  20.321  1.00  0.00    -0.006 C 
ATOM     26  C   UNL     1      26.676  35.983  21.452  1.00  0.00     0.033 C 
ATOM     27  C   UNL     1      27.330  35.583  20.128  1.00  0.00     0.120 C 
ATOM     28  C   UNL     1      29.638  36.606  20.138  1.00  0.00     0.014 C 
ATOM     29  C   UNL     1      29.336  34.338  19.176  1.00  0.00     0.014 C 
ENDROOT
BRANCH   1  30
ATOM     30  C   UNL     1      30.868  28.776  27.722  1.00  0.00     0.048 C 
ATOM     31  O   UNL     1      31.828  28.034  28.064  1.00  0.00    -0.550 OA
ATOM     32  O   UNL     1      29.788  28.890  28.595  1.00  0.00    -0.550 OA
ENDBRANCH   1  30
BRANCH  27  33
ATOM     33  O   UNL     1      26.649  34.484  19.576  1.00  0.00    -0.393 OA
ATOM     34  H   UNL     1      27.120  34.239  18.735  1.00  0.00     0.210 HD
ENDBRANCH  27  33
TORSDOF 2
ENDMDL
MODEL 5
REMARK VINA RESULT:    -5.403      2.541      6.970
REMARK INTER + INTRA:          -5.947
REMARK INTER:                  -5.804
REMARK INTRA:                  -0.143
REMARK UNBOUND:                -0.070
REMARK SMILES C[C@@H]1[C@@H](C)CC[C@@]2(C(=O)[O-])CC[C@]3(C)C(=CC[C@@H]4[C@@]5(C)CC[C@H](O)C(C)(C)[C@@H]5CC[C@@]43C)[C@@H]12
REMARK SMILES IDX 7 1 6 2 11 3 33 4 5 5 12 6 15 7 2 8 3 9 13 10 16 11 1 12
REMARK SMILES IDX 4 13 14 14 31 15 17 16 18 17 30 18 32 19 19 20 29 21 28 22
REMARK SMILES IDX 21 23 20 24 25 25 22 26 23 27 26 28 27 29 8 30 9 31 10 32
REMARK SMILES IDX 24 33
REMARK H PARENT 24 34
REMARK Flexibility Score: inf
ROOT
ATOM      1  C   UNL     1      29.070  30.614  27.679  1.00  0.00     0.017 C 
ATOM      2  C   UNL     1      30.001  29.416  27.299  1.00  0.00     0.014 C 
ATOM      3  C   UNL     1      29.969  31.830  28.013  1.00  0.00     0.014 C 
ATOM      4  C   UNL     1      28.021  30.963  26.534  1.00  0.00     0.030 C 
ATOM      5  C   UNL     1      29.240  28.199  26.796  1.00  0.00     0.004 C 
ATOM      6  C   UNL     1      30.540  32.501  26.757  1.00  0.00     0.013 C 
ATOM      7  C   UNL     1      28.336  32.160  25.596  1.00  0.00    -0.063 C 
ATOM      8  C   UNL     1      27.448  29.691  25.774  1.00  0.00    -0.003 C 
ATOM      9  C   UNL     1      28.457  28.534  25.529  1.00  0.00    -0.011 C 
ATOM     10  C   UNL     1      29.444  33.187  25.884  1.00  0.00    -0.006 C 
ATOM     11  C   UNL     1      27.372  32.536  24.725  1.00  0.00    -0.027 C 
ATOM     12  C   UNL     1      26.185  29.157  26.490  1.00  0.00     0.008 C 
ATOM     13  C   UNL     1      29.375  28.792  24.316  1.00  0.00     0.008 C 
ATOM     14  C   UNL     1      28.841  34.341  26.760  1.00  0.00     0.017 C 
ATOM     15  C   UNL     1      30.028  33.780  24.491  1.00  0.00    -0.020 C 
ATOM     16  C   UNL     1      27.417  33.836  23.995  1.00  0.00     0.032 C 
ATOM     17  C   UNL     1      28.842  34.172  23.473  1.00  0.00     0.006 C 
ATOM     18  C   UNL     1      30.993  32.748  23.833  1.00  0.00     0.008 C 
ATOM     19  C   UNL     1      30.902  35.049  24.791  1.00  0.00     0.012 C 
ATOM     20  C   UNL     1      29.005  33.755  21.940  1.00  0.00    -0.025 C 
ATOM     21  C   UNL     1      31.437  33.015  22.381  1.00  0.00     0.005 C 
ATOM     22  C   UNL     1      30.511  33.943  21.552  1.00  0.00     0.003 C 
ATOM     23  C   UNL     1      28.069  34.694  21.069  1.00  0.00     0.010 C 
ATOM     24  C   UNL     1      28.561  32.272  21.703  1.00  0.00     0.012 C 
ATOM     25  C   UNL     1      30.873  33.996  19.994  1.00  0.00    -0.006 C 
ATOM     26  C   UNL     1      28.764  35.434  19.924  1.00  0.00     0.033 C 
ATOM     27  C   UNL     1      29.661  34.483  19.129  1.00  0.00     0.120 C 
ATOM     28  C   UNL     1      32.034  35.013  19.806  1.00  0.00     0.014 C 
ATOM     29  C   UNL     1      31.396  32.645  19.426  1.00  0.00     0.014 C 
ENDROOT
BRANCH   1  30
ATOM     30  C   UNL     1      28.328  30.274  28.980  1.00  0.00     0.048 C 
ATOM     31  O   UNL     1      28.862  29.553  29.865  1.00  0.00    -0.550 OA
ATOM     32  O   UNL     1      27.102  30.868  29.273  1.00  0.00    -0.550 OA
ENDBRANCH   1  30
BRANCH  27  33
ATOM     33  O   UNL     1      28.900  33.400  18.653  1.00  0.00    -0.393 OA
ATOM     34  H   UNL     1      29.302  32.572  19.029  1.00  0.00     0.210 HD
ENDBRANCH  27  33
TORSDOF 2
ENDMDL
MODEL 6
REMARK VINA RESULT:    -5.373      3.316      6.919
REMARK INTER + INTRA:          -5.914
REMARK INTER:                  -5.821
REMARK INTRA:                  -0.093
REMARK UNBOUND:                -0.070
REMARK SMILES C[C@@H]1[C@@H](C)CC[C@@]2(C(=O)[O-])CC[C@]3(C)C(=CC[C@@H]4[C@@]5(C)CC[C@H](O)C(C)(C)[C@@H]5CC[C@@]43C)[C@@H]12
REMARK SMILES IDX 7 1 6 2 11 3 33 4 5 5 12 6 15 7 2 8 3 9 13 10 16 11 1 12
REMARK SMILES IDX 4 13 14 14 31 15 17 16 18 17 30 18 32 19 19 20 29 21 28 22
REMARK SMILES IDX 21 23 20 24 25 25 22 26 23 27 26 28 27 29 8 30 9 31 10 32
REMARK SMILES IDX 24 33
REMARK H PARENT 24 34
REMARK Flexibility Score: inf
ROOT
ATOM      1  C   UNL     1      30.378  32.094  19.777  1.00  0.00     0.017 C 
ATOM      2  C   UNL     1      31.846  31.965  20.304  1.00  0.00     0.014 C 
ATOM      3  C   UNL     1      29.478  31.182  20.646  1.00  0.00     0.014 C 
ATOM      4  C   UNL     1      29.856  33.598  19.777  1.00  0.00     0.030 C 
ATOM      5  C   UNL     1      32.811  32.932  19.635  1.00  0.00     0.004 C 
ATOM      6  C   UNL     1      29.177  31.792  22.022  1.00  0.00     0.013 C 
ATOM      7  C   UNL     1      28.942  34.052  20.948  1.00  0.00    -0.063 C 
ATOM      8  C   UNL     1      30.964  34.665  19.381  1.00  0.00    -0.003 C 
ATOM      9  C   UNL     1      32.401  34.379  19.900  1.00  0.00    -0.011 C 
ATOM     10  C   UNL     1      28.291  33.072  21.937  1.00  0.00    -0.006 C 
ATOM     11  C   UNL     1      28.389  35.284  20.860  1.00  0.00    -0.027 C 
ATOM     12  C   UNL     1      30.982  34.884  17.850  1.00  0.00     0.008 C 
ATOM     13  C   UNL     1      32.594  34.789  21.374  1.00  0.00     0.008 C 
ATOM     14  C   UNL     1      26.909  32.614  21.353  1.00  0.00     0.017 C 
ATOM     15  C   UNL     1      28.085  33.793  23.378  1.00  0.00    -0.020 C 
ATOM     16  C   UNL     1      27.267  35.721  21.741  1.00  0.00     0.032 C 
ATOM     17  C   UNL     1      27.464  35.270  23.215  1.00  0.00     0.006 C 
ATOM     18  C   UNL     1      29.440  33.851  24.145  1.00  0.00     0.008 C 
ATOM     19  C   UNL     1      27.131  32.917  24.265  1.00  0.00     0.012 C 
ATOM     20  C   UNL     1      28.093  36.445  24.095  1.00  0.00    -0.025 C 
ATOM     21  C   UNL     1      29.504  34.731  25.409  1.00  0.00     0.005 C 
ATOM     22  C   UNL     1      28.437  35.854  25.504  1.00  0.00     0.003 C 
ATOM     23  C   UNL     1      27.018  37.607  24.212  1.00  0.00     0.010 C 
ATOM     24  C   UNL     1      29.377  37.037  23.423  1.00  0.00     0.012 C 
ATOM     25  C   UNL     1      28.690  36.887  26.700  1.00  0.00    -0.006 C 
ATOM     26  C   UNL     1      26.679  38.047  25.637  1.00  0.00     0.033 C 
ATOM     27  C   UNL     1      27.953  38.248  26.460  1.00  0.00     0.120 C 
ATOM     28  C   UNL     1      28.122  36.259  28.004  1.00  0.00     0.014 C 
ATOM     29  C   UNL     1      30.195  37.164  26.983  1.00  0.00     0.014 C 
ENDROOT
BRANCH   1  30
ATOM     30  C   UNL     1      30.307  31.517  18.356  1.00  0.00     0.048 C 
ATOM     31  O   UNL     1      30.922  30.460  18.050  1.00  0.00    -0.550 OA
ATOM     32  O   UNL     1      29.452  32.074  17.407  1.00  0.00    -0.550 OA
ENDBRANCH   1  30
BRANCH  27  33
ATOM     33  O   UNL     1      28.789  39.181  25.819  1.00  0.00    -0.393 OA
ATOM     34  H   UNL     1      28.234  39.982  25.620  1.00  0.00     0.210 HD
ENDBRANCH  27  33
TORSDOF 2
ENDMDL
MODEL 7
REMARK VINA RESULT:    -5.351      1.847      2.464
REMARK INTER + INTRA:          -5.890
REMARK INTER:                  -5.749
REMARK INTRA:                  -0.141
REMARK UNBOUND:                -0.070
REMARK SMILES C[C@@H]1[C@@H](C)CC[C@@]2(C(=O)[O-])CC[C@]3(C)C(=CC[C@@H]4[C@@]5(C)CC[C@H](O)C(C)(C)[C@@H]5CC[C@@]43C)[C@@H]12
REMARK SMILES IDX 7 1 6 2 11 3 33 4 5 5 12 6 15 7 2 8 3 9 13 10 16 11 1 12
REMARK SMILES IDX 4 13 14 14 31 15 17 16 18 17 30 18 32 19 19 20 29 21 28 22
REMARK SMILES IDX 21 23 20 24 25 25 22 26 23 27 26 28 27 29 8 30 9 31 10 32
REMARK SMILES IDX 24 33
REMARK H PARENT 24 34
REMARK Flexibility Score: inf
ROOT
ATOM      1  C   UNL     1      27.956  36.083  22.180  1.00  0.00     0.017 C 
ATOM      2  C   UNL     1      26.477  36.157  22.686  1.00  0.00     0.014 C 
ATOM      3  C   UNL     1      28.836  36.902  23.156  1.00  0.00     0.014 C 
ATOM      4  C   UNL     1      28.481  34.587  22.039  1.00  0.00     0.030 C 
ATOM      5  C   UNL     1      25.529  35.263  21.903  1.00  0.00     0.004 C 
ATOM      6  C   UNL     1      29.109  36.156  24.469  1.00  0.00     0.013 C 
ATOM      7  C   UNL     1      29.372  34.016  23.176  1.00  0.00    -0.063 C 
ATOM      8  C   UNL     1      27.385  33.565  21.513  1.00  0.00    -0.003 C 
ATOM      9  C   UNL     1      25.937  33.797  22.028  1.00  0.00    -0.011 C 
ATOM     10  C   UNL     1      30.000  34.891  24.273  1.00  0.00    -0.006 C 
ATOM     11  C   UNL     1      29.930  32.800  22.975  1.00  0.00    -0.027 C 
ATOM     12  C   UNL     1      27.399  33.502  19.968  1.00  0.00     0.008 C 
ATOM     13  C   UNL     1      25.714  33.239  23.449  1.00  0.00     0.008 C 
ATOM     14  C   UNL     1      31.392  35.406  23.767  1.00  0.00     0.017 C 
ATOM     15  C   UNL     1      30.178  34.028  25.637  1.00  0.00    -0.020 C 
ATOM     16  C   UNL     1      31.034  32.276  23.831  1.00  0.00     0.032 C 
ATOM     17  C   UNL     1      30.806  32.575  25.339  1.00  0.00     0.006 C 
ATOM     18  C   UNL     1      28.807  33.892  26.366  1.00  0.00     0.008 C 
ATOM     19  C   UNL     1      31.111  34.809  26.628  1.00  0.00     0.012 C 
ATOM     20  C   UNL     1      30.162  31.317  26.082  1.00  0.00    -0.025 C 
ATOM     21  C   UNL     1      28.719  32.888  27.533  1.00  0.00     0.005 C 
ATOM     22  C   UNL     1      29.786  31.762  27.536  1.00  0.00     0.003 C 
ATOM     23  C   UNL     1      31.237  30.150  26.102  1.00  0.00     0.010 C 
ATOM     24  C   UNL     1      28.894  30.795  25.326  1.00  0.00     0.012 C 
ATOM     25  C   UNL     1      29.512  30.612  28.615  1.00  0.00    -0.006 C 
ATOM     26  C   UNL     1      31.547  29.567  27.482  1.00  0.00     0.033 C 
ATOM     27  C   UNL     1      30.257  29.283  28.253  1.00  0.00     0.120 C 
ATOM     28  C   UNL     1      30.051  31.105  29.988  1.00  0.00     0.014 C 
ATOM     29  C   UNL     1      28.001  30.308  28.836  1.00  0.00     0.014 C 
ENDROOT
BRANCH   1  30
ATOM     30  C   UNL     1      28.055  36.801  20.826  1.00  0.00     0.048 C 
ATOM     31  O   UNL     1      27.257  37.727  20.520  1.00  0.00    -0.550 OA
ATOM     32  O   UNL     1      29.115  36.537  19.961  1.00  0.00    -0.550 OA
ENDBRANCH   1  30
BRANCH  27  33
ATOM     33  O   UNL     1      29.437  28.420  27.504  1.00  0.00    -0.393 OA
ATOM     34  H   UNL     1      28.868  28.990  26.921  1.00  0.00     0.210 HD
ENDBRANCH  27  33
TORSDOF 2
ENDMDL
MODEL 8
REMARK VINA RESULT:    -5.330      1.981      3.796
REMARK INTER + INTRA:          -5.867
REMARK INTER:                  -5.726
REMARK INTRA:                  -0.141
REMARK UNBOUND:                -0.070
REMARK SMILES C[C@@H]1[C@@H](C)CC[C@@]2(C(=O)[O-])CC[C@]3(C)C(=CC[C@@H]4[C@@]5(C)CC[C@H](O)C(C)(C)[C@@H]5CC[C@@]43C)[C@@H]12
REMARK SMILES IDX 7 1 6 2 11 3 33 4 5 5 12 6 15 7 2 8 3 9 13 10 16 11 1 12
REMARK SMILES IDX 4 13 14 14 31 15 17 16 18 17 30 18 32 19 19 20 29 21 28 22
REMARK SMILES IDX 21 23 20 24 25 25 22 26 23 27 26 28 27 29 8 30 9 31 10 32
REMARK SMILES IDX 24 33
REMARK H PARENT 24 34
REMARK Flexibility Score: inf
ROOT
ATOM      1  C   UNL     1      28.065  36.103  20.988  1.00  0.00     0.017 C 
ATOM      2  C   UNL     1      28.400  36.991  22.232  1.00  0.00     0.014 C 
ATOM      3  C   UNL     1      29.338  36.006  20.114  1.00  0.00     0.014 C 
ATOM      4  C   UNL     1      27.526  34.661  21.393  1.00  0.00     0.030 C 
ATOM      5  C   UNL     1      27.277  37.040  23.256  1.00  0.00     0.004 C 
ATOM      6  C   UNL     1      30.377  35.035  20.692  1.00  0.00     0.013 C 
ATOM      7  C   UNL     1      28.522  33.470  21.344  1.00  0.00    -0.063 C 
ATOM      8  C   UNL     1      26.590  34.658  22.677  1.00  0.00    -0.003 C 
ATOM      9  C   UNL     1      26.987  35.646  23.809  1.00  0.00    -0.011 C 
ATOM     10  C   UNL     1      29.899  33.551  20.667  1.00  0.00    -0.006 C 
ATOM     11  C   UNL     1      28.017  32.231  21.548  1.00  0.00    -0.027 C 
ATOM     12  C   UNL     1      25.114  34.875  22.270  1.00  0.00     0.008 C 
ATOM     13  C   UNL     1      28.130  35.109  24.694  1.00  0.00     0.008 C 
ATOM     14  C   UNL     1      29.737  33.166  19.155  1.00  0.00     0.017 C 
ATOM     15  C   UNL     1      30.939  32.542  21.399  1.00  0.00    -0.020 C 
ATOM     16  C   UNL     1      28.786  30.993  21.230  1.00  0.00     0.032 C 
ATOM     17  C   UNL     1      30.277  31.096  21.656  1.00  0.00     0.006 C 
ATOM     18  C   UNL     1      31.432  33.164  22.741  1.00  0.00     0.008 C 
ATOM     19  C   UNL     1      32.221  32.380  20.509  1.00  0.00     0.012 C 
ATOM     20  C   UNL     1      30.515  30.408  23.077  1.00  0.00    -0.025 C 
ATOM     21  C   UNL     1      32.212  32.248  23.705  1.00  0.00     0.005 C 
ATOM     22  C   UNL     1      31.985  30.724  23.520  1.00  0.00     0.003 C 
ATOM     23  C   UNL     1      30.293  28.845  22.915  1.00  0.00     0.010 C 
ATOM     24  C   UNL     1      29.498  30.934  24.145  1.00  0.00     0.012 C 
ATOM     25  C   UNL     1      32.616  29.829  24.687  1.00  0.00    -0.006 C 
ATOM     26  C   UNL     1      31.449  27.964  23.390  1.00  0.00     0.033 C 
ATOM     27  C   UNL     1      31.945  28.415  24.765  1.00  0.00     0.120 C 
ATOM     28  C   UNL     1      34.125  29.626  24.372  1.00  0.00     0.014 C 
ATOM     29  C   UNL     1      32.562  30.499  26.090  1.00  0.00     0.014 C 
ENDROOT
BRANCH   1  30
ATOM     30  C   UNL     1      27.021  36.827  20.127  1.00  0.00     0.048 C 
ATOM     31  O   UNL     1      27.003  38.085  20.045  1.00  0.00    -0.550 OA
ATOM     32  O   UNL     1      26.155  36.106  19.307  1.00  0.00    -0.550 OA
ENDBRANCH   1  30
BRANCH  27  33
ATOM     33  O   UNL     1      30.878  28.401  25.682  1.00  0.00    -0.393 OA
ATOM     34  H   UNL     1      31.199  28.847  26.510  1.00  0.00     0.210 HD
ENDBRANCH  27  33
TORSDOF 2
ENDMDL
MODEL 9
REMARK VINA RESULT:    -5.234      2.036      7.598
REMARK INTER + INTRA:          -5.763
REMARK INTER:                  -5.617
REMARK INTRA:                  -0.146
REMARK UNBOUND:                -0.070
REMARK SMILES C[C@@H]1[C@@H](C)CC[C@@]2(C(=O)[O-])CC[C@]3(C)C(=CC[C@@H]4[C@@]5(C)CC[C@H](O)C(C)(C)[C@@H]5CC[C@@]43C)[C@@H]12
REMARK SMILES IDX 7 1 6 2 11 3 33 4 5 5 12 6 15 7 2 8 3 9 13 10 16 11 1 12
REMARK SMILES IDX 4 13 14 14 31 15 17 16 18 17 30 18 32 19 19 20 29 21 28 22
REMARK SMILES IDX 21 23 20 24 25 25 22 26 23 27 26 28 27 29 8 30 9 31 10 32
REMARK SMILES IDX 24 33
REMARK H PARENT 24 34
REMARK Flexibility Score: inf
ROOT
ATOM      1  C   UNL     1      31.539  28.588  26.508  1.00  0.00     0.017 C 
ATOM      2  C   UNL     1      30.824  27.402  25.778  1.00  0.00     0.014 C 
ATOM      3  C   UNL     1      32.595  29.176  25.541  1.00  0.00     0.014 C 
ATOM      4  C   UNL     1      30.520  29.705  27.005  1.00  0.00     0.030 C 
ATOM      5  C   UNL     1      29.652  26.834  26.562  1.00  0.00     0.004 C 
ATOM      6  C   UNL     1      31.969  30.053  24.448  1.00  0.00     0.013 C 
ATOM      7  C   UNL     1      30.366  30.988  26.144  1.00  0.00    -0.063 C 
ATOM      8  C   UNL     1      29.140  29.127  27.540  1.00  0.00    -0.003 C 
ATOM      9  C   UNL     1      28.576  27.896  26.777  1.00  0.00    -0.011 C 
ATOM     10  C   UNL     1      31.335  31.362  25.010  1.00  0.00    -0.006 C 
ATOM     11  C   UNL     1      29.610  31.989  26.651  1.00  0.00    -0.027 C 
ATOM     12  C   UNL     1      29.231  28.822  29.054  1.00  0.00     0.008 C 
ATOM     13  C   UNL     1      27.857  28.284  25.469  1.00  0.00     0.008 C 
ATOM     14  C   UNL     1      32.516  32.198  25.616  1.00  0.00     0.017 C 
ATOM     15  C   UNL     1      30.556  32.224  23.876  1.00  0.00    -0.020 C 
ATOM     16  C   UNL     1      29.629  33.370  26.087  1.00  0.00     0.032 C 
ATOM     17  C   UNL     1      29.639  33.373  24.533  1.00  0.00     0.006 C 
ATOM     18  C   UNL     1      29.694  31.278  22.985  1.00  0.00     0.008 C 
ATOM     19  C   UNL     1      31.605  32.878  22.909  1.00  0.00     0.012 C 
ATOM     20  C   UNL     1      28.166  33.577  23.950  1.00  0.00    -0.025 C 
ATOM     21  C   UNL     1      28.679  31.934  22.028  1.00  0.00     0.005 C 
ATOM     22  C   UNL     1      28.235  33.374  22.398  1.00  0.00     0.003 C 
ATOM     23  C   UNL     1      27.689  35.046  24.312  1.00  0.00     0.010 C 
ATOM     24  C   UNL     1      27.155  32.567  24.589  1.00  0.00     0.012 C 
ATOM     25  C   UNL     1      27.009  33.918  21.525  1.00  0.00    -0.006 C 
ATOM     26  C   UNL     1      27.216  35.893  23.130  1.00  0.00     0.033 C 
ATOM     27  C   UNL     1      26.262  35.096  22.239  1.00  0.00     0.120 C 
ATOM     28  C   UNL     1      27.579  34.456  20.182  1.00  0.00     0.014 C 
ATOM     29  C   UNL     1      25.978  32.819  21.138  1.00  0.00     0.014 C 
ENDROOT
BRANCH   1  30
ATOM     30  C   UNL     1      32.329  28.034  27.702  1.00  0.00     0.048 C 
ATOM     31  O   UNL     1      32.810  26.869  27.680  1.00  0.00    -0.550 OA
ATOM     32  O   UNL     1      32.649  28.854  28.781  1.00  0.00    -0.550 OA
ENDBRANCH   1  30
BRANCH  27  33
ATOM     33  O   UNL     1      25.177  34.630  23.003  1.00  0.00    -0.393 OA
ATOM     34  H   UNL     1      25.207  35.108  23.874  1.00  0.00     0.210 HD
ENDBRANCH  27  33
TORSDOF 2
ENDMDL
