MODEL 1
REMARK VINA RESULT:    -3.695      0.000      0.000
REMARK INTER + INTRA:          -4.113
REMARK INTER:                  -3.911
REMARK INTRA:                  -0.202
REMARK UNBOUND:                -0.202
REMARK SMILES CC1=CC[C@@]23[C@@H]([C@@H]12)[C@H](C(C)C)CC[C@@H]3C
REMARK SMILES IDX 15 1 14 2 13 3 12 4 8 5 6 6 5 7 7 8 2 9 3 10 4 11 1 12 9 13
REMARK SMILES IDX 10 14 11 15
REMARK H PARENT
REMARK Flexibility Score: inf
ROOT
ATOM      1  C   UNL     1       6.647   9.026  15.004  1.00  0.00     0.008 C 
ATOM      2  C   UNL     1       5.264   8.388  14.780  1.00  0.00    -0.007 C 
ATOM      3  C   UNL     1       4.146   9.423  15.039  1.00  0.00     0.004 C 
ATOM      4  C   UNL     1       3.965  10.376  13.858  1.00  0.00     0.004 C 
ATOM      5  C   UNL     1       3.454   9.622  12.612  1.00  0.00    -0.004 C 
ATOM      6  C   UNL     1       4.333   8.390  12.269  1.00  0.00     0.007 C 
ATOM      7  C   UNL     1       5.189   7.742  13.368  1.00  0.00    -0.013 C 
ATOM      8  C   UNL     1       3.856   7.110  12.971  1.00  0.00     0.025 C 
ATOM      9  C   UNL     1       4.234   5.830  12.307  1.00  0.00    -0.073 C 
ATOM     10  C   UNL     1       5.543   5.631  12.284  1.00  0.00    -0.027 C 
ATOM     11  C   UNL     1       6.283   6.751  12.927  1.00  0.00     0.035 C 
ATOM     12  C   UNL     1       3.241   4.875  11.720  1.00  0.00     0.039 C 
ENDROOT
BRANCH   5  13
ATOM     13  C   UNL     1       3.299  10.541  11.363  1.00  0.00    -0.014 C 
ATOM     14  C   UNL     1       1.831  10.695  10.935  1.00  0.00     0.007 C 
ATOM     15  C   UNL     1       3.951  11.925  11.531  1.00  0.00     0.007 C 
ENDBRANCH   5  13
TORSDOF 1
ENDMDL
MODEL 2
REMARK VINA RESULT:    -1.664      1.097      4.438
REMARK INTER + INTRA:          -1.963
REMARK INTER:                  -1.676
REMARK INTRA:                  -0.287
REMARK UNBOUND:                -0.202
REMARK SMILES CC1=CC[C@@]23[C@@H]([C@@H]12)[C@H](C(C)C)CC[C@@H]3C
REMARK SMILES IDX 15 1 14 2 13 3 12 4 8 5 6 6 5 7 7 8 2 9 3 10 4 11 1 12 9 13
REMARK SMILES IDX 10 14 11 15
REMARK H PARENT
REMARK Flexibility Score: inf
ROOT
ATOM      1  C   UNL     1       4.379   8.536  16.576  1.00  0.00     0.008 C 
ATOM      2  C   UNL     1       4.956   9.166  15.294  1.00  0.00    -0.007 C 
ATOM      3  C   UNL     1       6.350   8.576  14.986  1.00  0.00     0.004 C 
ATOM      4  C   UNL     1       6.254   7.195  14.337  1.00  0.00     0.004 C 
ATOM      5  C   UNL     1       5.602   7.284  12.941  1.00  0.00    -0.004 C 
ATOM      6  C   UNL     1       4.244   8.034  12.974  1.00  0.00     0.007 C 
ATOM      7  C   UNL     1       3.950   9.016  14.119  1.00  0.00    -0.013 C 
ATOM      8  C   UNL     1       4.399   9.546  12.758  1.00  0.00     0.025 C 
ATOM      9  C   UNL     1       3.201  10.249  12.218  1.00  0.00    -0.073 C 
ATOM     10  C   UNL     1       2.170  10.218  13.049  1.00  0.00    -0.027 C 
ATOM     11  C   UNL     1       2.492   9.482  14.301  1.00  0.00     0.035 C 
ATOM     12  C   UNL     1       3.162  10.910  10.875  1.00  0.00     0.039 C 
ENDROOT
BRANCH   5  13
ATOM     13  C   UNL     1       5.435   5.894  12.255  1.00  0.00    -0.014 C 
ATOM     14  C   UNL     1       6.476   4.876  12.748  1.00  0.00     0.007 C 
ATOM     15  C   UNL     1       4.017   5.309  12.385  1.00  0.00     0.007 C 
ENDBRANCH   5  13
TORSDOF 1
ENDMDL
