MODEL 1
REMARK VINA RESULT:    -3.942      0.000      0.000
REMARK INTER + INTRA:          -5.115
REMARK INTER:                  -5.325
REMARK INTRA:                   0.210
REMARK UNBOUND:                 0.210
REMARK SMILES O=C[C@H](O)[C@@H](O)[C@H](O)CO
REMARK SMILES IDX 7 1 9 2 10 3 5 5 3 6 2 7 1 8 4 9 6 11 8 13
REMARK H PARENT 10 4 4 10 6 12 8 14
REMARK Flexibility Score: inf
ROOT
ATOM      1  C   UNL     1      -5.199  -1.822   1.616  1.00  0.00     0.171 C 
ENDROOT
BRANCH   1   2
ATOM      2  C   UNL     1      -5.007  -2.799   0.440  1.00  0.00     0.190 C 
BRANCH   2   3
ATOM      3  O   UNL     1      -4.979  -2.109  -0.780  1.00  0.00    -0.394 OA
ATOM      4  H   UNL     1      -4.043  -1.808  -0.921  1.00  0.00     0.210 HD
ENDBRANCH   2   3
ENDBRANCH   1   2
BRANCH   1   5
ATOM      5  C   UNL     1      -4.297  -0.565   1.497  1.00  0.00     0.181 C 
BRANCH   5   6
ATOM      6  C   UNL     1      -3.894  -0.001   2.885  1.00  0.00     0.209 C 
BRANCH   6   7
ATOM      7  C   UNL     1      -2.414  -0.125   3.144  1.00  0.00     0.258 C 
ATOM      8  O   UNL     1      -1.618   0.615   2.588  1.00  0.00    -0.300 OA
ENDBRANCH   6   7
BRANCH   6   9
ATOM      9  O   UNL     1      -4.614  -0.634   3.914  1.00  0.00    -0.383 OA
ATOM     10  H   UNL     1      -4.198  -0.376   4.778  1.00  0.00     0.211 HD
ENDBRANCH   6   9
ENDBRANCH   5   6
BRANCH   5  11
ATOM     11  O   UNL     1      -3.137  -0.889   0.770  1.00  0.00    -0.387 OA
ATOM     12  H   UNL     1      -2.984  -0.155   0.119  1.00  0.00     0.211 HD
ENDBRANCH   5  11
ENDBRANCH   1   5
BRANCH   1  13
ATOM     13  O   UNL     1      -4.988  -2.486   2.838  1.00  0.00    -0.388 OA
ATOM     14  H   UNL     1      -5.263  -3.432   2.720  1.00  0.00     0.211 HD
ENDBRANCH   1  13
TORSDOF 8
ENDMDL
MODEL 2
REMARK VINA RESULT:    -3.871      0.835      3.669
REMARK INTER + INTRA:          -5.019
REMARK INTER:                  -4.323
REMARK INTRA:                  -0.696
REMARK UNBOUND:                 0.210
REMARK SMILES O=C[C@H](O)[C@@H](O)[C@H](O)CO
REMARK SMILES IDX 7 1 9 2 10 3 5 5 3 6 2 7 1 8 4 9 6 11 8 13
REMARK H PARENT 10 4 4 10 6 12 8 14
REMARK Flexibility Score: inf
ROOT
ATOM      1  C   UNL     1      -3.433  -0.649   3.253  1.00  0.00     0.171 C 
ENDROOT
BRANCH   1   2
ATOM      2  C   UNL     1      -2.189   0.201   3.573  1.00  0.00     0.190 C 
BRANCH   2   3
ATOM      3  O   UNL     1      -1.500   0.535   2.398  1.00  0.00    -0.394 OA
ATOM      4  H   UNL     1      -1.490   1.526   2.340  1.00  0.00     0.210 HD
ENDBRANCH   2   3
ENDBRANCH   1   2
BRANCH   1   5
ATOM      5  C   UNL     1      -3.650  -0.833   1.727  1.00  0.00     0.181 C 
BRANCH   5   6
ATOM      6  C   UNL     1      -4.510  -2.085   1.405  1.00  0.00     0.209 C 
BRANCH   6   7
ATOM      7  C   UNL     1      -5.294  -1.926   0.128  1.00  0.00     0.258 C 
ATOM      8  O   UNL     1      -4.724  -1.770  -0.941  1.00  0.00    -0.300 OA
ENDBRANCH   6   7
BRANCH   6   9
ATOM      9  O   UNL     1      -5.381  -2.383   2.468  1.00  0.00    -0.383 OA
ATOM     10  H   UNL     1      -5.482  -1.561   3.016  1.00  0.00     0.211 HD
ENDBRANCH   6   9
ENDBRANCH   5   6
BRANCH   5  11
ATOM     11  O   UNL     1      -4.278   0.311   1.203  1.00  0.00    -0.387 OA
ATOM     12  H   UNL     1      -5.256   0.140   1.214  1.00  0.00     0.211 HD
ENDBRANCH   5  11
ENDBRANCH   1   5
BRANCH   1  13
ATOM     13  O   UNL     1      -4.571  -0.095   3.865  1.00  0.00    -0.388 OA
ATOM     14  H   UNL     1      -4.454  -0.173   4.848  1.00  0.00     0.211 HD
ENDBRANCH   1  13
TORSDOF 8
ENDMDL
MODEL 3
REMARK VINA RESULT:    -3.768      0.972      3.960
REMARK INTER + INTRA:          -4.879
REMARK INTER:                  -4.883
REMARK INTRA:                   0.004
REMARK UNBOUND:                 0.210
REMARK SMILES O=C[C@H](O)[C@@H](O)[C@H](O)CO
REMARK SMILES IDX 7 1 9 2 10 3 5 5 3 6 2 7 1 8 4 9 6 11 8 13
REMARK H PARENT 10 4 4 10 6 12 8 14
REMARK Flexibility Score: inf
ROOT
ATOM      1  C   UNL     1      -3.505  -0.128   2.254  1.00  0.00     0.171 C 
ENDROOT
BRANCH   1   2
ATOM      2  C   UNL     1      -2.666  -0.129   3.546  1.00  0.00     0.190 C 
BRANCH   2   3
ATOM      3  O   UNL     1      -1.391   0.405   3.310  1.00  0.00    -0.394 OA
ATOM      4  H   UNL     1      -1.139   0.922   4.120  1.00  0.00     0.210 HD
ENDBRANCH   2   3
ENDBRANCH   1   2
BRANCH   1   5
ATOM      5  C   UNL     1      -4.781  -1.004   2.374  1.00  0.00     0.181 C 
BRANCH   5   6
ATOM      6  C   UNL     1      -4.861  -2.077   1.256  1.00  0.00     0.209 C 
BRANCH   6   7
ATOM      7  C   UNL     1      -5.288  -1.493  -0.066  1.00  0.00     0.258 C 
ATOM      8  O   UNL     1      -4.583  -1.607  -1.057  1.00  0.00    -0.300 OA
ENDBRANCH   6   7
BRANCH   6   9
ATOM      9  O   UNL     1      -5.731  -3.120   1.621  1.00  0.00    -0.383 OA
ATOM     10  H   UNL     1      -6.660  -2.777   1.554  1.00  0.00     0.211 HD
ENDBRANCH   6   9
ENDBRANCH   5   6
BRANCH   5  11
ATOM     11  O   UNL     1      -4.797  -1.637   3.631  1.00  0.00    -0.387 OA
ATOM     12  H   UNL     1      -4.208  -1.110   4.231  1.00  0.00     0.211 HD
ENDBRANCH   5  11
ENDBRANCH   1   5
BRANCH   1  13
ATOM     13  O   UNL     1      -2.715  -0.528   1.161  1.00  0.00    -0.388 OA
ATOM     14  H   UNL     1      -2.869  -1.498   1.015  1.00  0.00     0.211 HD
ENDBRANCH   1  13
TORSDOF 8
ENDMDL
MODEL 4
REMARK VINA RESULT:    -2.785      1.353      4.068
REMARK INTER + INTRA:          -3.552
REMARK INTER:                  -3.384
REMARK INTRA:                  -0.168
REMARK UNBOUND:                 0.210
REMARK SMILES O=C[C@H](O)[C@@H](O)[C@H](O)CO
REMARK SMILES IDX 7 1 9 2 10 3 5 5 3 6 2 7 1 8 4 9 6 11 8 13
REMARK H PARENT 10 4 4 10 6 12 8 14
REMARK Flexibility Score: inf
ROOT
ATOM      1  C   UNL     1      -2.284   0.457   2.633  1.00  0.00     0.171 C 
ENDROOT
BRANCH   1   2
ATOM      2  C   UNL     1      -1.481   0.233   3.928  1.00  0.00     0.190 C 
BRANCH   2   3
ATOM      3  O   UNL     1      -0.103   0.315   3.678  1.00  0.00    -0.394 OA
ATOM      4  H   UNL     1       0.005   0.475   2.704  1.00  0.00     0.210 HD
ENDBRANCH   2   3
ENDBRANCH   1   2
BRANCH   1   5
ATOM      5  C   UNL     1      -3.000  -0.832   2.147  1.00  0.00     0.181 C 
BRANCH   5   6
ATOM      6  C   UNL     1      -4.217  -1.196   3.039  1.00  0.00     0.209 C 
BRANCH   6   7
ATOM      7  C   UNL     1      -5.332  -1.833   2.250  1.00  0.00     0.258 C 
ATOM      8  O   UNL     1      -5.117  -2.793   1.527  1.00  0.00    -0.300 OA
ENDBRANCH   6   7
BRANCH   6   9
ATOM      9  O   UNL     1      -4.699  -0.064   3.719  1.00  0.00    -0.383 OA
ATOM     10  H   UNL     1      -4.705   0.695   3.079  1.00  0.00     0.211 HD
ENDBRANCH   6   9
ENDBRANCH   5   6
BRANCH   5  11
ATOM     11  O   UNL     1      -3.430  -0.655   0.820  1.00  0.00    -0.387 OA
ATOM     12  H   UNL     1      -2.656  -0.857   0.231  1.00  0.00     0.211 HD
ENDBRANCH   5  11
ENDBRANCH   1   5
BRANCH   1  13
ATOM     13  O   UNL     1      -1.452   0.986   1.630  1.00  0.00    -0.388 OA
ATOM     14  H   UNL     1      -0.888   1.689   2.045  1.00  0.00     0.211 HD
ENDBRANCH   1  13
TORSDOF 8
ENDMDL
MODEL 5
REMARK VINA RESULT:    -2.698      1.269      3.892
REMARK INTER + INTRA:          -3.434
REMARK INTER:                  -4.287
REMARK INTRA:                   0.853
REMARK UNBOUND:                 0.210
REMARK SMILES O=C[C@H](O)[C@@H](O)[C@H](O)CO
REMARK SMILES IDX 7 1 9 2 10 3 5 5 3 6 2 7 1 8 4 9 6 11 8 13
REMARK H PARENT 10 4 4 10 6 12 8 14
REMARK Flexibility Score: inf
ROOT
ATOM      1  C   UNL     1      -4.252  -1.564   2.698  1.00  0.00     0.171 C 
ENDROOT
BRANCH   1   2
ATOM      2  C   UNL     1      -3.494  -0.229   2.570  1.00  0.00     0.190 C 
BRANCH   2   3
ATOM      3  O   UNL     1      -2.893   0.119   3.787  1.00  0.00    -0.394 OA
ATOM      4  H   UNL     1      -3.627   0.299   4.432  1.00  0.00     0.210 HD
ENDBRANCH   2   3
ENDBRANCH   1   2
BRANCH   1   5
ATOM      5  C   UNL     1      -5.324  -1.748   1.590  1.00  0.00     0.181 C 
BRANCH   5   6
ATOM      6  C   UNL     1      -4.873  -1.144   0.234  1.00  0.00     0.209 C 
BRANCH   6   7
ATOM      7  C   UNL     1      -5.270  -2.007  -0.936  1.00  0.00     0.258 C 
ATOM      8  O   UNL     1      -4.738  -3.090  -1.124  1.00  0.00    -0.300 OA
ENDBRANCH   6   7
BRANCH   6   9
ATOM      9  O   UNL     1      -3.483  -0.926   0.218  1.00  0.00    -0.383 OA
ATOM     10  H   UNL     1      -3.120  -1.221   1.094  1.00  0.00     0.211 HD
ENDBRANCH   6   9
ENDBRANCH   5   6
BRANCH   5  11
ATOM     11  O   UNL     1      -5.595  -3.118   1.424  1.00  0.00    -0.387 OA
ATOM     12  H   UNL     1      -5.385  -3.565   2.285  1.00  0.00     0.211 HD
ENDBRANCH   5  11
ENDBRANCH   1   5
BRANCH   1  13
ATOM     13  O   UNL     1      -4.820  -1.679   3.980  1.00  0.00    -0.388 OA
ATOM     14  H   UNL     1      -5.663  -2.197   3.892  1.00  0.00     0.211 HD
ENDBRANCH   1  13
TORSDOF 8
ENDMDL
MODEL 6
REMARK VINA RESULT:    -2.510      1.221      4.078
REMARK INTER + INTRA:          -3.180
REMARK INTER:                  -3.110
REMARK INTRA:                  -0.070
REMARK UNBOUND:                 0.210
REMARK SMILES O=C[C@H](O)[C@@H](O)[C@H](O)CO
REMARK SMILES IDX 7 1 9 2 10 3 5 5 3 6 2 7 1 8 4 9 6 11 8 13
REMARK H PARENT 10 4 4 10 6 12 8 14
REMARK Flexibility Score: inf
ROOT
ATOM      1  C   UNL     1      -2.395  -0.163   3.498  1.00  0.00     0.171 C 
ENDROOT
BRANCH   1   2
ATOM      2  C   UNL     1      -1.253   0.319   2.585  1.00  0.00     0.190 C 
BRANCH   2   3
ATOM      3  O   UNL     1      -0.021   0.250   3.252  1.00  0.00    -0.394 OA
ATOM      4  H   UNL     1       0.666   0.028   2.569  1.00  0.00     0.210 HD
ENDBRANCH   2   3
ENDBRANCH   1   2
BRANCH   1   5
ATOM      5  C   UNL     1      -3.776  -0.130   2.790  1.00  0.00     0.181 C 
BRANCH   5   6
ATOM      6  C   UNL     1      -4.039  -1.416   1.961  1.00  0.00     0.209 C 
BRANCH   6   7
ATOM      7  C   UNL     1      -4.364  -1.110   0.521  1.00  0.00     0.258 C 
ATOM      8  O   UNL     1      -4.672  -2.003  -0.253  1.00  0.00    -0.300 OA
ENDBRANCH   6   7
BRANCH   6   9
ATOM      9  O   UNL     1      -5.071  -2.181   2.532  1.00  0.00    -0.383 OA
ATOM     10  H   UNL     1      -5.620  -2.550   1.792  1.00  0.00     0.211 HD
ENDBRANCH   6   9
ENDBRANCH   5   6
BRANCH   5  11
ATOM     11  O   UNL     1      -4.792   0.020   3.752  1.00  0.00    -0.387 OA
ATOM     12  H   UNL     1      -4.495   0.727   4.383  1.00  0.00     0.211 HD
ENDBRANCH   5  11
ENDBRANCH   1   5
BRANCH   1  13
ATOM     13  O   UNL     1      -2.416   0.587   4.687  1.00  0.00    -0.388 OA
ATOM     14  H   UNL     1      -3.360   0.827   4.878  1.00  0.00     0.211 HD
ENDBRANCH   1  13
TORSDOF 8
ENDMDL
MODEL 7
REMARK VINA RESULT:    -2.489      1.013      1.809
REMARK INTER + INTRA:          -3.151
REMARK INTER:                  -2.671
REMARK INTRA:                  -0.480
REMARK UNBOUND:                 0.210
REMARK SMILES O=C[C@H](O)[C@@H](O)[C@H](O)CO
REMARK SMILES IDX 7 1 9 2 10 3 5 5 3 6 2 7 1 8 4 9 6 11 8 13
REMARK H PARENT 10 4 4 10 6 12 8 14
REMARK Flexibility Score: inf
ROOT
ATOM      1  C   UNL     1      -4.119  -1.410   1.145  1.00  0.00     0.171 C 
ENDROOT
BRANCH   1   2
ATOM      2  C   UNL     1      -5.186  -2.521   1.146  1.00  0.00     0.190 C 
BRANCH   2   3
ATOM      3  O   UNL     1      -5.276  -3.122   2.410  1.00  0.00    -0.394 OA
ATOM      4  H   UNL     1      -6.236  -3.314   2.572  1.00  0.00     0.210 HD
ENDBRANCH   2   3
ENDBRANCH   1   2
BRANCH   1   5
ATOM      5  C   UNL     1      -4.515  -0.205   2.039  1.00  0.00     0.181 C 
BRANCH   5   6
ATOM      6  C   UNL     1      -3.789  -0.229   3.410  1.00  0.00     0.209 C 
BRANCH   6   7
ATOM      7  C   UNL     1      -2.289  -0.188   3.262  1.00  0.00     0.258 C 
ATOM      8  O   UNL     1      -1.750   0.687   2.602  1.00  0.00    -0.300 OA
ENDBRANCH   6   7
BRANCH   6   9
ATOM      9  O   UNL     1      -4.164  -1.359   4.158  1.00  0.00    -0.383 OA
ATOM     10  H   UNL     1      -3.343  -1.737   4.568  1.00  0.00     0.211 HD
ENDBRANCH   6   9
ENDBRANCH   5   6
BRANCH   5  11
ATOM     11  O   UNL     1      -4.208   0.994   1.369  1.00  0.00    -0.387 OA
ATOM     12  H   UNL     1      -4.496   0.885   0.425  1.00  0.00     0.211 HD
ENDBRANCH   5  11
ENDBRANCH   1   5
BRANCH   1  13
ATOM     13  O   UNL     1      -3.847  -1.000  -0.172  1.00  0.00    -0.388 OA
ATOM     14  H   UNL     1      -4.313  -0.136  -0.322  1.00  0.00     0.211 HD
ENDBRANCH   1  13
TORSDOF 8
ENDMDL
MODEL 8
REMARK VINA RESULT:    -2.376      1.334      2.318
REMARK INTER + INTRA:          -3.000
REMARK INTER:                  -4.343
REMARK INTRA:                   1.344
REMARK UNBOUND:                 0.210
REMARK SMILES O=C[C@H](O)[C@@H](O)[C@H](O)CO
REMARK SMILES IDX 7 1 9 2 10 3 5 5 3 6 2 7 1 8 4 9 6 11 8 13
REMARK H PARENT 10 4 4 10 6 12 8 14
REMARK Flexibility Score: inf
ROOT
ATOM      1  C   UNL     1      -4.142  -2.035   0.092  1.00  0.00     0.171 C 
ENDROOT
BRANCH   1   2
ATOM      2  C   UNL     1      -5.072  -1.868  -1.125  1.00  0.00     0.190 C 
BRANCH   2   3
ATOM      3  O   UNL     1      -5.902  -0.749  -0.966  1.00  0.00    -0.394 OA
ATOM      4  H   UNL     1      -5.728  -0.386  -0.058  1.00  0.00     0.210 HD
ENDBRANCH   2   3
ENDBRANCH   1   2
BRANCH   1   5
ATOM      5  C   UNL     1      -4.869  -2.657   1.314  1.00  0.00     0.181 C 
BRANCH   5   6
ATOM      6  C   UNL     1      -4.971  -1.662   2.501  1.00  0.00     0.209 C 
BRANCH   6   7
ATOM      7  C   UNL     1      -3.842  -0.664   2.508  1.00  0.00     0.258 C 
ATOM      8  O   UNL     1      -3.461  -0.158   3.552  1.00  0.00    -0.300 OA
ENDBRANCH   6   7
BRANCH   6   9
ATOM      9  O   UNL     1      -5.012  -2.346   3.729  1.00  0.00    -0.383 OA
ATOM     10  H   UNL     1      -5.166  -1.675   4.444  1.00  0.00     0.211 HD
ENDBRANCH   6   9
ENDBRANCH   5   6
BRANCH   5  11
ATOM     11  O   UNL     1      -6.161  -3.062   0.933  1.00  0.00    -0.387 OA
ATOM     12  H   UNL     1      -6.778  -2.803   1.666  1.00  0.00     0.211 HD
ENDBRANCH   5  11
ENDBRANCH   1   5
BRANCH   1  13
ATOM     13  O   UNL     1      -3.551  -0.803   0.424  1.00  0.00    -0.388 OA
ATOM     14  H   UNL     1      -3.700  -0.647   1.392  1.00  0.00     0.211 HD
ENDBRANCH   1  13
TORSDOF 8
ENDMDL
MODEL 9
REMARK VINA RESULT:    -1.017      1.205      2.422
REMARK INTER + INTRA:          -1.163
REMARK INTER:                  -1.638
REMARK INTRA:                   0.475
REMARK UNBOUND:                 0.210
REMARK SMILES O=C[C@H](O)[C@@H](O)[C@H](O)CO
REMARK SMILES IDX 7 1 9 2 10 3 5 5 3 6 2 7 1 8 4 9 6 11 8 13
REMARK H PARENT 10 4 4 10 6 12 8 14
REMARK Flexibility Score: inf
ROOT
ATOM      1  C   UNL     1      -3.948  -1.234   0.985  1.00  0.00     0.171 C 
ENDROOT
BRANCH   1   2
ATOM      2  C   UNL     1      -5.472  -1.409   0.845  1.00  0.00     0.190 C 
BRANCH   2   3
ATOM      3  O   UNL     1      -5.799  -2.753   0.614  1.00  0.00    -0.394 OA
ATOM      4  H   UNL     1      -6.078  -3.136   1.487  1.00  0.00     0.210 HD
ENDBRANCH   2   3
ENDBRANCH   1   2
BRANCH   1   5
ATOM      5  C   UNL     1      -3.568  -0.140   2.018  1.00  0.00     0.181 C 
BRANCH   5   6
ATOM      6  C   UNL     1      -3.946  -0.548   3.467  1.00  0.00     0.209 C 
BRANCH   6   7
ATOM      7  C   UNL     1      -4.102  -2.040   3.618  1.00  0.00     0.258 C 
ATOM      8  O   UNL     1      -5.208  -2.558   3.598  1.00  0.00    -0.300 OA
ENDBRANCH   6   7
BRANCH   6   9
ATOM      9  O   UNL     1      -5.123   0.100   3.882  1.00  0.00    -0.383 OA
ATOM     10  H   UNL     1      -4.919   1.068   3.975  1.00  0.00     0.211 HD
ENDBRANCH   6   9
ENDBRANCH   5   6
BRANCH   5  11
ATOM     11  O   UNL     1      -2.185   0.108   1.949  1.00  0.00    -0.387 OA
ATOM     12  H   UNL     1      -1.726  -0.767   2.042  1.00  0.00     0.211 HD
ENDBRANCH   5  11
ENDBRANCH   1   5
BRANCH   1  13
ATOM     13  O   UNL     1      -3.372  -0.970  -0.271  1.00  0.00    -0.388 OA
ATOM     14  H   UNL     1      -2.601  -0.362  -0.128  1.00  0.00     0.211 HD
ENDBRANCH   1  13
TORSDOF 8
ENDMDL
