MODEL 1
REMARK VINA RESULT:    -3.493      0.000      0.000
REMARK INTER + INTRA:          -5.016
REMARK INTER:                  -4.718
REMARK INTRA:                  -0.299
REMARK UNBOUND:                -0.299
REMARK SMILES CCCCCCC=CC(=O)[O-]
REMARK SMILES IDX 5 1 6 2 7 3 8 4 9 5 10 6 11 7 4 8 3 9 2 10 1 11
REMARK H PARENT
REMARK Flexibility Score: inf
ROOT
ATOM      1  C   UNL     1       8.296   0.166  46.194  1.00  0.00     0.004 C 
ENDROOT
BRANCH   1   2
ATOM      2  C   UNL     1       8.071   1.001  44.923  1.00  0.00     0.027 C 
BRANCH   2   3
ATOM      3  C   UNL     1       6.655   0.874  44.430  1.00  0.00    -0.025 C 
ATOM      4  C   UNL     1       5.759   1.869  44.337  1.00  0.00     0.020 C 
BRANCH   4   5
ATOM      5  C   UNL     1       5.967   3.282  44.724  1.00  0.00     0.064 C 
ATOM      6  O   UNL     1       5.657   3.644  45.888  1.00  0.00    -0.545 OA
ATOM      7  O   UNL     1       6.509   4.218  43.853  1.00  0.00    -0.545 OA
ENDBRANCH   4   5
ENDBRANCH   2   3
ENDBRANCH   1   2
BRANCH   1   8
ATOM      8  C   UNL     1       9.584  -0.670  46.132  1.00  0.00     0.000 C 
BRANCH   8   9
ATOM      9  C   UNL     1      10.615  -0.096  45.146  1.00  0.00    -0.000 C 
BRANCH   9  10
ATOM     10  C   UNL     1      12.062  -0.407  45.559  1.00  0.00    -0.003 C 
ATOM     11  C   UNL     1      12.961  -0.740  44.368  1.00  0.00     0.004 C 
ENDBRANCH   9  10
ENDBRANCH   8   9
ENDBRANCH   1   8
TORSDOF 6
ENDMDL
MODEL 2
REMARK VINA RESULT:    -3.416      0.960      1.259
REMARK INTER + INTRA:          -4.913
REMARK INTER:                  -4.654
REMARK INTRA:                  -0.259
REMARK UNBOUND:                -0.299
REMARK SMILES CCCCCCC=CC(=O)[O-]
REMARK SMILES IDX 5 1 6 2 7 3 8 4 9 5 10 6 11 7 4 8 3 9 2 10 1 11
REMARK H PARENT
REMARK Flexibility Score: inf
ROOT
ATOM      1  C   UNL     1       9.620   0.824  46.372  1.00  0.00     0.004 C 
ENDROOT
BRANCH   1   2
ATOM      2  C   UNL     1       8.350   1.526  45.865  1.00  0.00     0.027 C 
BRANCH   2   3
ATOM      3  C   UNL     1       7.436   0.559  45.163  1.00  0.00    -0.025 C 
ATOM      4  C   UNL     1       6.280   0.867  44.553  1.00  0.00     0.020 C 
BRANCH   4   5
ATOM      5  C   UNL     1       5.655   2.205  44.471  1.00  0.00     0.064 C 
ATOM      6  O   UNL     1       4.779   2.519  45.319  1.00  0.00    -0.545 OA
ATOM      7  O   UNL     1       6.013   3.134  43.504  1.00  0.00    -0.545 OA
ENDBRANCH   4   5
ENDBRANCH   2   3
ENDBRANCH   1   2
BRANCH   1   8
ATOM      8  C   UNL     1      10.266  -0.074  45.305  1.00  0.00     0.000 C 
BRANCH   8   9
ATOM      9  C   UNL     1      11.784  -0.229  45.503  1.00  0.00    -0.000 C 
BRANCH   9  10
ATOM     10  C   UNL     1      12.495  -0.721  44.232  1.00  0.00    -0.003 C 
ATOM     11  C   UNL     1      14.019  -0.657  44.343  1.00  0.00     0.004 C 
ENDBRANCH   9  10
ENDBRANCH   8   9
ENDBRANCH   1   8
TORSDOF 6
ENDMDL
MODEL 3
REMARK VINA RESULT:    -3.397     10.467     11.854
REMARK INTER + INTRA:          -4.887
REMARK INTER:                  -4.241
REMARK INTRA:                  -0.646
REMARK UNBOUND:                -0.299
REMARK SMILES CCCCCCC=CC(=O)[O-]
REMARK SMILES IDX 5 1 6 2 7 3 8 4 9 5 10 6 11 7 4 8 3 9 2 10 1 11
REMARK H PARENT
REMARK Flexibility Score: inf
ROOT
ATOM      1  C   UNL     1      15.378   3.403  36.776  1.00  0.00     0.004 C 
ENDROOT
BRANCH   1   2
ATOM      2  C   UNL     1      15.859   2.231  35.905  1.00  0.00     0.027 C 
BRANCH   2   3
ATOM      3  C   UNL     1      15.318   0.920  36.410  1.00  0.00    -0.025 C 
ATOM      4  C   UNL     1      15.029  -0.155  35.659  1.00  0.00     0.020 C 
BRANCH   4   5
ATOM      5  C   UNL     1      15.152  -0.264  34.189  1.00  0.00     0.064 C 
ATOM      6  O   UNL     1      16.282  -0.502  33.690  1.00  0.00    -0.545 OA
ATOM      7  O   UNL     1      14.061  -0.131  33.340  1.00  0.00    -0.545 OA
ENDBRANCH   4   5
ENDBRANCH   2   3
ENDBRANCH   1   2
BRANCH   1   8
ATOM      8  C   UNL     1      14.676   2.938  38.062  1.00  0.00     0.000 C 
BRANCH   8   9
ATOM      9  C   UNL     1      15.517   3.200  39.323  1.00  0.00    -0.000 C 
BRANCH   9  10
ATOM     10  C   UNL     1      16.049   1.904  39.956  1.00  0.00    -0.003 C 
ATOM     11  C   UNL     1      17.450   1.537  39.468  1.00  0.00     0.004 C 
ENDBRANCH   9  10
ENDBRANCH   8   9
ENDBRANCH   1   8
TORSDOF 6
ENDMDL
MODEL 4
REMARK VINA RESULT:    -3.373     10.075     11.636
REMARK INTER + INTRA:          -4.855
REMARK INTER:                  -4.301
REMARK INTRA:                  -0.554
REMARK UNBOUND:                -0.299
REMARK SMILES CCCCCCC=CC(=O)[O-]
REMARK SMILES IDX 5 1 6 2 7 3 8 4 9 5 10 6 11 7 4 8 3 9 2 10 1 11
REMARK H PARENT
REMARK Flexibility Score: inf
ROOT
ATOM      1  C   UNL     1      14.760   0.760  37.939  1.00  0.00     0.004 C 
ENDROOT
BRANCH   1   2
ATOM      2  C   UNL     1      14.364   2.229  38.165  1.00  0.00     0.027 C 
BRANCH   2   3
ATOM      3  C   UNL     1      15.575   3.089  38.407  1.00  0.00    -0.025 C 
ATOM      4  C   UNL     1      16.109   3.962  37.538  1.00  0.00     0.020 C 
BRANCH   4   5
ATOM      5  C   UNL     1      15.640   4.235  36.162  1.00  0.00     0.064 C 
ATOM      6  O   UNL     1      16.006   3.470  35.232  1.00  0.00    -0.545 OA
ATOM      7  O   UNL     1      14.795   5.295  35.862  1.00  0.00    -0.545 OA
ENDBRANCH   4   5
ENDBRANCH   2   3
ENDBRANCH   1   2
BRANCH   1   8
ATOM      8  C   UNL     1      14.666   0.343  36.463  1.00  0.00     0.000 C 
BRANCH   8   9
ATOM      9  C   UNL     1      16.011  -0.148  35.900  1.00  0.00    -0.000 C 
BRANCH   9  10
ATOM     10  C   UNL     1      16.026  -0.192  34.364  1.00  0.00    -0.003 C 
ATOM     11  C   UNL     1      14.623  -0.170  33.756  1.00  0.00     0.004 C 
ENDBRANCH   9  10
ENDBRANCH   8   9
ENDBRANCH   1   8
TORSDOF 6
ENDMDL
MODEL 5
REMARK VINA RESULT:    -3.327     10.216     11.107
REMARK INTER + INTRA:          -4.793
REMARK INTER:                  -4.488
REMARK INTRA:                  -0.305
REMARK UNBOUND:                -0.299
REMARK SMILES CCCCCCC=CC(=O)[O-]
REMARK SMILES IDX 5 1 6 2 7 3 8 4 9 5 10 6 11 7 4 8 3 9 2 10 1 11
REMARK H PARENT
REMARK Flexibility Score: inf
ROOT
ATOM      1  C   UNL     1       7.999  12.428  42.270  1.00  0.00     0.004 C 
ENDROOT
BRANCH   1   2
ATOM      2  C   UNL     1       6.794  12.156  41.356  1.00  0.00     0.027 C 
BRANCH   2   3
ATOM      3  C   UNL     1       7.228  11.558  40.045  1.00  0.00    -0.025 C 
ATOM      4  C   UNL     1       6.483  10.773  39.250  1.00  0.00     0.020 C 
BRANCH   4   5
ATOM      5  C   UNL     1       5.102  10.312  39.510  1.00  0.00     0.064 C 
ATOM      6  O   UNL     1       4.925   9.307  40.246  1.00  0.00    -0.545 OA
ATOM      7  O   UNL     1       3.991  10.961  38.986  1.00  0.00    -0.545 OA
ENDBRANCH   4   5
ENDBRANCH   2   3
ENDBRANCH   1   2
BRANCH   1   8
ATOM      8  C   UNL     1       9.324  11.935  41.667  1.00  0.00     0.000 C 
BRANCH   8   9
ATOM      9  C   UNL     1      10.514  12.116  42.624  1.00  0.00    -0.000 C 
BRANCH   9  10
ATOM     10  C   UNL     1      10.972  10.790  43.252  1.00  0.00    -0.003 C 
ATOM     11  C   UNL     1      12.476  10.556  43.115  1.00  0.00     0.004 C 
ENDBRANCH   9  10
ENDBRANCH   8   9
ENDBRANCH   1   8
TORSDOF 6
ENDMDL
MODEL 6
REMARK VINA RESULT:    -3.281     10.224     12.550
REMARK INTER + INTRA:          -4.730
REMARK INTER:                  -4.009
REMARK INTRA:                  -0.721
REMARK UNBOUND:                -0.299
REMARK SMILES CCCCCCC=CC(=O)[O-]
REMARK SMILES IDX 5 1 6 2 7 3 8 4 9 5 10 6 11 7 4 8 3 9 2 10 1 11
REMARK H PARENT
REMARK Flexibility Score: inf
ROOT
ATOM      1  C   UNL     1      15.647  -0.414  33.625  1.00  0.00     0.004 C 
ENDROOT
BRANCH   1   2
ATOM      2  C   UNL     1      14.992  -0.034  34.963  1.00  0.00     0.027 C 
BRANCH   2   3
ATOM      3  C   UNL     1      15.985  -0.094  36.093  1.00  0.00    -0.025 C 
ATOM      4  C   UNL     1      15.797   0.381  37.335  1.00  0.00     0.020 C 
BRANCH   4   5
ATOM      5  C   UNL     1      14.596   1.084  37.838  1.00  0.00     0.064 C 
ATOM      6  O   UNL     1      14.607   2.341  37.892  1.00  0.00    -0.545 OA
ATOM      7  O   UNL     1      13.451   0.406  38.234  1.00  0.00    -0.545 OA
ENDBRANCH   4   5
ENDBRANCH   2   3
ENDBRANCH   1   2
BRANCH   1   8
ATOM      8  C   UNL     1      16.656   0.639  33.140  1.00  0.00     0.000 C 
BRANCH   8   9
ATOM      9  C   UNL     1      16.014   2.022  32.936  1.00  0.00    -0.000 C 
BRANCH   9  10
ATOM     10  C   UNL     1      16.789   3.141  33.649  1.00  0.00    -0.003 C 
ATOM     11  C   UNL     1      16.215   3.477  35.026  1.00  0.00     0.004 C 
ENDBRANCH   9  10
ENDBRANCH   8   9
ENDBRANCH   1   8
TORSDOF 6
ENDMDL
MODEL 7
REMARK VINA RESULT:    -3.273      9.599     11.725
REMARK INTER + INTRA:          -4.719
REMARK INTER:                  -4.330
REMARK INTRA:                  -0.390
REMARK UNBOUND:                -0.299
REMARK SMILES CCCCCCC=CC(=O)[O-]
REMARK SMILES IDX 5 1 6 2 7 3 8 4 9 5 10 6 11 7 4 8 3 9 2 10 1 11
REMARK H PARENT
REMARK Flexibility Score: inf
ROOT
ATOM      1  C   UNL     1      16.186  -0.355  36.134  1.00  0.00     0.004 C 
ENDROOT
BRANCH   1   2
ATOM      2  C   UNL     1      16.039   0.373  37.480  1.00  0.00     0.027 C 
BRANCH   2   3
ATOM      3  C   UNL     1      14.608   0.764  37.735  1.00  0.00    -0.025 C 
ATOM      4  C   UNL     1      14.175   1.982  38.096  1.00  0.00     0.020 C 
BRANCH   4   5
ATOM      5  C   UNL     1      15.011   3.177  38.346  1.00  0.00     0.064 C 
ATOM      6  O   UNL     1      15.328   3.460  39.530  1.00  0.00    -0.545 OA
ATOM      7  O   UNL     1      15.474   3.987  37.318  1.00  0.00    -0.545 OA
ENDBRANCH   4   5
ENDBRANCH   2   3
ENDBRANCH   1   2
BRANCH   1   8
ATOM      8  C   UNL     1      15.050  -0.022  35.153  1.00  0.00     0.000 C 
BRANCH   8   9
ATOM      9  C   UNL     1      15.366  -0.458  33.712  1.00  0.00    -0.000 C 
BRANCH   9  10
ATOM     10  C   UNL     1      16.789  -0.071  33.279  1.00  0.00    -0.003 C 
ATOM     11  C   UNL     1      17.636  -1.279  32.877  1.00  0.00     0.004 C 
ENDBRANCH   9  10
ENDBRANCH   8   9
ENDBRANCH   1   8
TORSDOF 6
ENDMDL
MODEL 8
REMARK VINA RESULT:    -3.269     10.529     12.234
REMARK INTER + INTRA:          -4.714
REMARK INTER:                  -4.043
REMARK INTRA:                  -0.670
REMARK UNBOUND:                -0.299
REMARK SMILES CCCCCCC=CC(=O)[O-]
REMARK SMILES IDX 5 1 6 2 7 3 8 4 9 5 10 6 11 7 4 8 3 9 2 10 1 11
REMARK H PARENT
REMARK Flexibility Score: inf
ROOT
ATOM      1  C   UNL     1      14.588   1.013  38.137  1.00  0.00     0.004 C 
ENDROOT
BRANCH   1   2
ATOM      2  C   UNL     1      14.437   0.497  36.697  1.00  0.00     0.027 C 
BRANCH   2   3
ATOM      3  C   UNL     1      15.733  -0.070  36.182  1.00  0.00    -0.025 C 
ATOM      4  C   UNL     1      16.106  -0.145  34.895  1.00  0.00     0.020 C 
BRANCH   4   5
ATOM      5  C   UNL     1      15.314   0.284  33.721  1.00  0.00     0.064 C 
ATOM      6  O   UNL     1      14.293  -0.379  33.402  1.00  0.00    -0.545 OA
ATOM      7  O   UNL     1      15.647   1.403  32.970  1.00  0.00    -0.545 OA
ENDBRANCH   4   5
ENDBRANCH   2   3
ENDBRANCH   1   2
BRANCH   1   8
ATOM      8  C   UNL     1      14.354   2.528  38.251  1.00  0.00     0.000 C 
BRANCH   8   9
ATOM      9  C   UNL     1      15.606   3.348  37.896  1.00  0.00    -0.000 C 
BRANCH   9  10
ATOM     10  C   UNL     1      15.499   4.020  36.518  1.00  0.00    -0.003 C 
ATOM     11  C   UNL     1      16.583   3.554  35.545  1.00  0.00     0.004 C 
ENDBRANCH   9  10
ENDBRANCH   8   9
ENDBRANCH   1   8
TORSDOF 6
ENDMDL
MODEL 9
REMARK VINA RESULT:    -3.262      3.796      6.180
REMARK INTER + INTRA:          -4.704
REMARK INTER:                  -4.356
REMARK INTRA:                  -0.348
REMARK UNBOUND:                -0.299
REMARK SMILES CCCCCCC=CC(=O)[O-]
REMARK SMILES IDX 5 1 6 2 7 3 8 4 9 5 10 6 11 7 4 8 3 9 2 10 1 11
REMARK H PARENT
REMARK Flexibility Score: inf
ROOT
ATOM      1  C   UNL     1       8.282   0.690  46.451  1.00  0.00     0.004 C 
ENDROOT
BRANCH   1   2
ATOM      2  C   UNL     1       9.196  -0.486  46.069  1.00  0.00     0.027 C 
BRANCH   2   3
ATOM      3  C   UNL     1      10.352  -0.025  45.222  1.00  0.00    -0.025 C 
ATOM      4  C   UNL     1      11.626  -0.431  45.338  1.00  0.00     0.020 C 
BRANCH   4   5
ATOM      5  C   UNL     1      12.160  -1.386  46.333  1.00  0.00     0.064 C 
ATOM      6  O   UNL     1      12.449  -2.553  45.962  1.00  0.00    -0.545 OA
ATOM      7  O   UNL     1      12.373  -1.034  47.660  1.00  0.00    -0.545 OA
ENDBRANCH   4   5
ENDBRANCH   2   3
ENDBRANCH   1   2
BRANCH   1   8
ATOM      8  C   UNL     1       7.967   1.607  45.259  1.00  0.00     0.000 C 
BRANCH   8   9
ATOM      9  C   UNL     1       6.771   1.109  44.430  1.00  0.00    -0.000 C 
BRANCH   9  10
ATOM     10  C   UNL     1       5.808   2.244  44.046  1.00  0.00    -0.003 C 
ATOM     11  C   UNL     1       6.444   3.629  44.169  1.00  0.00     0.004 C 
ENDBRANCH   9  10
ENDBRANCH   8   9
ENDBRANCH   1   8
TORSDOF 6
ENDMDL
