MODEL 1
REMARK VINA RESULT:    -5.953      0.000      0.000
REMARK INTER + INTRA:          -8.523
REMARK INTER:                  -7.520
REMARK INTRA:                  -1.003
REMARK UNBOUND:                -1.003
REMARK SMILES O=C(C=Cc1ccc(O)cc1)c1ccc(O)cc1O
REMARK SMILES IDX 4 1 3 2 5 3 6 4 7 5 8 6 11 7 10 8 9 9 2 11 1 12 12 13 18 14
REMARK SMILES IDX 13 15 17 16 14 17 15 18 19 19 16 21
REMARK H PARENT 9 10 19 20 16 22
REMARK Flexibility Score: inf
ROOT
ATOM      1  C   UNL     1     131.503 -41.962  31.361  1.00  0.00     0.012 C 
ATOM      2  C   UNL     1     131.432 -42.219  30.046  1.00  0.00     0.053 C 
ENDROOT
BRANCH   1   3
ATOM      3  C   UNL     1     130.893 -40.804  32.043  1.00  0.00    -0.025 A 
ATOM      4  C   UNL     1     131.557 -39.567  32.106  1.00  0.00     0.012 A 
ATOM      5  C   UNL     1     130.941 -38.466  32.710  1.00  0.00     0.047 A 
ATOM      6  C   UNL     1     129.651 -38.582  33.234  1.00  0.00     0.115 A 
ATOM      7  C   UNL     1     129.587 -40.908  32.543  1.00  0.00     0.012 A 
ATOM      8  C   UNL     1     128.972 -39.807  33.146  1.00  0.00     0.047 A 
BRANCH   6   9
ATOM      9  O   UNL     1     129.049 -37.479  33.835  1.00  0.00    -0.508 OA
ATOM     10  H   UNL     1     128.345 -36.932  33.353  1.00  0.00     0.293 HD
ENDBRANCH   6   9
ENDBRANCH   1   3
BRANCH   2  11
ATOM     11  C   UNL     1     130.883 -41.306  29.013  1.00  0.00     0.189 C 
ATOM     12  O   UNL     1     131.509 -41.098  27.938  1.00  0.00    -0.289 OA
BRANCH  11  13
ATOM     13  C   UNL     1     129.588 -40.624  29.218  1.00  0.00     0.064 A 
ATOM     14  C   UNL     1     129.469 -39.219  29.166  1.00  0.00     0.130 A 
ATOM     15  C   UNL     1     128.451 -41.399  29.504  1.00  0.00     0.020 A 
ATOM     16  C   UNL     1     128.216 -38.617  29.355  1.00  0.00     0.093 A 
ATOM     17  C   UNL     1     127.208 -40.791  29.697  1.00  0.00     0.047 A 
ATOM     18  C   UNL     1     127.086 -39.401  29.618  1.00  0.00     0.119 A 
BRANCH  14  19
ATOM     19  O   UNL     1     130.594 -38.422  28.956  1.00  0.00    -0.507 OA
ATOM     20  H   UNL     1     131.248 -38.217  29.703  1.00  0.00     0.293 HD
ENDBRANCH  14  19
BRANCH  18  21
ATOM     21  O   UNL     1     125.839 -38.809  29.809  1.00  0.00    -0.508 OA
ATOM     22  H   UNL     1     125.439 -38.183  29.120  1.00  0.00     0.293 HD
ENDBRANCH  18  21
ENDBRANCH  11  13
ENDBRANCH   2  11
TORSDOF 6
ENDMDL
MODEL 2
REMARK VINA RESULT:    -5.926      1.320      3.978
REMARK INTER + INTRA:          -8.488
REMARK INTER:                  -7.166
REMARK INTRA:                  -1.322
REMARK UNBOUND:                -1.003
REMARK SMILES O=C(C=Cc1ccc(O)cc1)c1ccc(O)cc1O
REMARK SMILES IDX 4 1 3 2 5 3 6 4 7 5 8 6 11 7 10 8 9 9 2 11 1 12 12 13 18 14
REMARK SMILES IDX 13 15 17 16 14 17 15 18 19 19 16 21
REMARK H PARENT 9 10 19 20 16 22
REMARK Flexibility Score: inf
ROOT
ATOM      1  C   UNL     1     129.855 -41.787  28.272  1.00  0.00     0.012 C 
ATOM      2  C   UNL     1     131.170 -41.561  28.422  1.00  0.00     0.053 C 
ENDROOT
BRANCH   1   3
ATOM      3  C   UNL     1     128.773 -40.953  28.830  1.00  0.00    -0.025 A 
ATOM      4  C   UNL     1     128.061 -41.358  29.973  1.00  0.00     0.012 A 
ATOM      5  C   UNL     1     127.075 -40.530  30.518  1.00  0.00     0.047 A 
ATOM      6  C   UNL     1     126.805 -39.284  29.944  1.00  0.00     0.115 A 
ATOM      7  C   UNL     1     128.521 -39.690  28.275  1.00  0.00     0.012 A 
ATOM      8  C   UNL     1     127.533 -38.864  28.821  1.00  0.00     0.047 A 
BRANCH   6   9
ATOM      9  O   UNL     1     125.819 -38.470  30.496  1.00  0.00    -0.508 OA
ATOM     10  H   UNL     1     124.855 -38.519  30.185  1.00  0.00     0.293 HD
ENDBRANCH   6   9
ENDBRANCH   1   3
BRANCH   2  11
ATOM     11  C   UNL     1     131.778 -40.542  29.313  1.00  0.00     0.189 C 
ATOM     12  O   UNL     1     132.690 -39.781  28.892  1.00  0.00    -0.289 OA
BRANCH  11  13
ATOM     13  C   UNL     1     131.323 -40.394  30.711  1.00  0.00     0.064 A 
ATOM     14  C   UNL     1     130.825 -39.169  31.206  1.00  0.00     0.130 A 
ATOM     15  C   UNL     1     131.418 -41.496  31.577  1.00  0.00     0.020 A 
ATOM     16  C   UNL     1     130.392 -39.080  32.537  1.00  0.00     0.093 A 
ATOM     17  C   UNL     1     130.991 -41.396  32.903  1.00  0.00     0.047 A 
ATOM     18  C   UNL     1     130.473 -40.191  33.385  1.00  0.00     0.119 A 
BRANCH  14  19
ATOM     19  O   UNL     1     130.786 -38.040  30.389  1.00  0.00    -0.507 OA
ATOM     20  H   UNL     1     130.248 -38.023  29.530  1.00  0.00     0.293 HD
ENDBRANCH  14  19
BRANCH  18  21
ATOM     21  O   UNL     1     130.047 -40.107  34.710  1.00  0.00    -0.508 OA
ATOM     22  H   UNL     1     130.640 -39.716  35.432  1.00  0.00     0.293 HD
ENDBRANCH  18  21
ENDBRANCH  11  13
ENDBRANCH   2  11
TORSDOF 6
ENDMDL
MODEL 3
REMARK VINA RESULT:    -5.823      1.589      2.333
REMARK INTER + INTRA:          -8.358
REMARK INTER:                  -7.009
REMARK INTRA:                  -1.349
REMARK UNBOUND:                -1.003
REMARK SMILES O=C(C=Cc1ccc(O)cc1)c1ccc(O)cc1O
REMARK SMILES IDX 4 1 3 2 5 3 6 4 7 5 8 6 11 7 10 8 9 9 2 11 1 12 12 13 18 14
REMARK SMILES IDX 13 15 17 16 14 17 15 18 19 19 16 21
REMARK H PARENT 9 10 19 20 16 22
REMARK Flexibility Score: inf
ROOT
ATOM      1  C   UNL     1     132.558 -38.882  30.798  1.00  0.00     0.012 C 
ATOM      2  C   UNL     1     132.406 -39.338  29.545  1.00  0.00     0.053 C 
ENDROOT
BRANCH   1   3
ATOM      3  C   UNL     1     131.828 -39.374  31.983  1.00  0.00    -0.025 A 
ATOM      4  C   UNL     1     130.708 -38.685  32.482  1.00  0.00     0.012 A 
ATOM      5  C   UNL     1     129.997 -39.193  33.574  1.00  0.00     0.047 A 
ATOM      6  C   UNL     1     130.381 -40.403  34.162  1.00  0.00     0.115 A 
ATOM      7  C   UNL     1     132.191 -40.601  32.556  1.00  0.00     0.012 A 
ATOM      8  C   UNL     1     131.479 -41.108  33.648  1.00  0.00     0.047 A 
BRANCH   6   9
ATOM      9  O   UNL     1     129.666 -40.897  35.249  1.00  0.00    -0.508 OA
ATOM     10  H   UNL     1     130.114 -41.079  36.140  1.00  0.00     0.293 HD
ENDBRANCH   6   9
ENDBRANCH   1   3
BRANCH   2  11
ATOM     11  C   UNL     1     131.362 -40.288  29.088  1.00  0.00     0.189 C 
ATOM     12  O   UNL     1     131.676 -41.353  28.491  1.00  0.00    -0.289 OA
BRANCH  11  13
ATOM     13  C   UNL     1     129.931 -40.010  29.329  1.00  0.00     0.064 A 
ATOM     14  C   UNL     1     129.100 -40.924  30.013  1.00  0.00     0.130 A 
ATOM     15  C   UNL     1     129.378 -38.816  28.837  1.00  0.00     0.020 A 
ATOM     16  C   UNL     1     127.749 -40.610  30.230  1.00  0.00     0.093 A 
ATOM     17  C   UNL     1     128.031 -38.515  29.052  1.00  0.00     0.047 A 
ATOM     18  C   UNL     1     127.215 -39.407  29.752  1.00  0.00     0.119 A 
BRANCH  14  19
ATOM     19  O   UNL     1     129.603 -42.148  30.449  1.00  0.00    -0.507 OA
ATOM     20  H   UNL     1     129.633 -42.959  29.841  1.00  0.00     0.293 HD
ENDBRANCH  14  19
BRANCH  18  21
ATOM     21  O   UNL     1     125.874 -39.092  29.962  1.00  0.00    -0.508 OA
ATOM     22  H   UNL     1     125.139 -39.770  29.800  1.00  0.00     0.293 HD
ENDBRANCH  18  21
ENDBRANCH  11  13
ENDBRANCH   2  11
TORSDOF 6
ENDMDL
MODEL 4
REMARK VINA RESULT:    -5.763      2.608      5.378
REMARK INTER + INTRA:          -8.282
REMARK INTER:                  -7.356
REMARK INTRA:                  -0.926
REMARK UNBOUND:                -1.003
REMARK SMILES O=C(C=Cc1ccc(O)cc1)c1ccc(O)cc1O
REMARK SMILES IDX 4 1 3 2 5 3 6 4 7 5 8 6 11 7 10 8 9 9 2 11 1 12 12 13 18 14
REMARK SMILES IDX 13 15 17 16 14 17 15 18 19 19 16 21
REMARK H PARENT 9 10 19 20 16 22
REMARK Flexibility Score: inf
ROOT
ATOM      1  C   UNL     1     130.450 -41.676  30.022  1.00  0.00     0.012 C 
ATOM      2  C   UNL     1     131.508 -41.515  30.831  1.00  0.00     0.053 C 
ENDROOT
BRANCH   1   3
ATOM      3  C   UNL     1     129.216 -40.865  30.051  1.00  0.00    -0.025 A 
ATOM      4  C   UNL     1     128.221 -41.095  31.017  1.00  0.00     0.012 A 
ATOM      5  C   UNL     1     127.083 -40.283  31.063  1.00  0.00     0.047 A 
ATOM      6  C   UNL     1     126.939 -39.222  30.164  1.00  0.00     0.115 A 
ATOM      7  C   UNL     1     129.082 -39.782  29.171  1.00  0.00     0.012 A 
ATOM      8  C   UNL     1     127.944 -38.971  29.218  1.00  0.00     0.047 A 
BRANCH   6   9
ATOM      9  O   UNL     1     125.800 -38.422  30.219  1.00  0.00    -0.508 OA
ATOM     10  H   UNL     1     125.863 -37.418  30.344  1.00  0.00     0.293 HD
ENDBRANCH   6   9
ENDBRANCH   1   3
BRANCH   2  11
ATOM     11  C   UNL     1     131.567 -40.618  32.012  1.00  0.00     0.189 C 
ATOM     12  O   UNL     1     131.623 -39.367  31.868  1.00  0.00    -0.289 OA
BRANCH  11  13
ATOM     13  C   UNL     1     131.556 -41.172  33.382  1.00  0.00     0.064 A 
ATOM     14  C   UNL     1     130.596 -40.776  34.337  1.00  0.00     0.130 A 
ATOM     15  C   UNL     1     132.550 -42.095  33.749  1.00  0.00     0.020 A 
ATOM     16  C   UNL     1     130.617 -41.339  35.623  1.00  0.00     0.093 A 
ATOM     17  C   UNL     1     132.568 -42.645  35.033  1.00  0.00     0.047 A 
ATOM     18  C   UNL     1     131.601 -42.274  35.971  1.00  0.00     0.119 A 
BRANCH  14  19
ATOM     19  O   UNL     1     129.643 -39.808  34.023  1.00  0.00    -0.507 OA
ATOM     20  H   UNL     1     128.649 -40.001  34.084  1.00  0.00     0.293 HD
ENDBRANCH  14  19
BRANCH  18  21
ATOM     21  O   UNL     1     131.628 -42.834  37.246  1.00  0.00    -0.508 OA
ATOM     22  H   UNL     1     131.971 -43.775  37.403  1.00  0.00     0.293 HD
ENDBRANCH  18  21
ENDBRANCH  11  13
ENDBRANCH   2  11
TORSDOF 6
ENDMDL
MODEL 5
REMARK VINA RESULT:    -5.734      1.489      4.176
REMARK INTER + INTRA:          -8.245
REMARK INTER:                  -7.307
REMARK INTRA:                  -0.939
REMARK UNBOUND:                -1.003
REMARK SMILES O=C(C=Cc1ccc(O)cc1)c1ccc(O)cc1O
REMARK SMILES IDX 4 1 3 2 5 3 6 4 7 5 8 6 11 7 10 8 9 9 2 11 1 12 12 13 18 14
REMARK SMILES IDX 13 15 17 16 14 17 15 18 19 19 16 21
REMARK H PARENT 9 10 19 20 16 22
REMARK Flexibility Score: inf
ROOT
ATOM      1  C   UNL     1     130.826 -41.198  28.611  1.00  0.00     0.012 C 
ATOM      2  C   UNL     1     131.714 -41.640  29.516  1.00  0.00     0.053 C 
ENDROOT
BRANCH   1   3
ATOM      3  C   UNL     1     129.511 -40.603  28.920  1.00  0.00    -0.025 A 
ATOM      4  C   UNL     1     128.411 -41.411  29.258  1.00  0.00     0.012 A 
ATOM      5  C   UNL     1     127.187 -40.827  29.599  1.00  0.00     0.047 A 
ATOM      6  C   UNL     1     127.055 -39.435  29.627  1.00  0.00     0.115 A 
ATOM      7  C   UNL     1     129.383 -39.208  28.979  1.00  0.00     0.012 A 
ATOM      8  C   UNL     1     128.158 -38.625  29.319  1.00  0.00     0.047 A 
BRANCH   6   9
ATOM      9  O   UNL     1     125.830 -38.866  29.966  1.00  0.00    -0.508 OA
ATOM     10  H   UNL     1     125.102 -39.406  30.420  1.00  0.00     0.293 HD
ENDBRANCH   6   9
ENDBRANCH   1   3
BRANCH   2  11
ATOM     11  C   UNL     1     131.471 -41.774  30.974  1.00  0.00     0.189 C 
ATOM     12  O   UNL     1     131.826 -42.813  31.593  1.00  0.00    -0.289 OA
BRANCH  11  13
ATOM     13  C   UNL     1     130.812 -40.691  31.733  1.00  0.00     0.064 A 
ATOM     14  C   UNL     1     129.630 -40.911  32.472  1.00  0.00     0.130 A 
ATOM     15  C   UNL     1     131.365 -39.399  31.691  1.00  0.00     0.020 A 
ATOM     16  C   UNL     1     129.048 -39.854  33.188  1.00  0.00     0.093 A 
ATOM     17  C   UNL     1     130.775 -38.351  32.402  1.00  0.00     0.047 A 
ATOM     18  C   UNL     1     129.620 -38.576  33.155  1.00  0.00     0.119 A 
BRANCH  14  19
ATOM     19  O   UNL     1     129.020 -42.165  32.473  1.00  0.00    -0.507 OA
ATOM     20  H   UNL     1     128.448 -42.478  31.697  1.00  0.00     0.293 HD
ENDBRANCH  14  19
BRANCH  18  21
ATOM     21  O   UNL     1     129.044 -37.522  33.862  1.00  0.00    -0.508 OA
ATOM     22  H   UNL     1     129.427 -37.207  34.746  1.00  0.00     0.293 HD
ENDBRANCH  18  21
ENDBRANCH  11  13
ENDBRANCH   2  11
TORSDOF 6
ENDMDL
MODEL 6
REMARK VINA RESULT:    -5.686      1.209      3.894
REMARK INTER + INTRA:          -8.185
REMARK INTER:                  -7.460
REMARK INTRA:                  -0.725
REMARK UNBOUND:                -1.003
REMARK SMILES O=C(C=Cc1ccc(O)cc1)c1ccc(O)cc1O
REMARK SMILES IDX 4 1 3 2 5 3 6 4 7 5 8 6 11 7 10 8 9 9 2 11 1 12 12 13 18 14
REMARK SMILES IDX 13 15 17 16 14 17 15 18 19 19 16 21
REMARK H PARENT 9 10 19 20 16 22
REMARK Flexibility Score: inf
ROOT
ATOM      1  C   UNL     1     130.790 -41.199  28.656  1.00  0.00     0.012 C 
ATOM      2  C   UNL     1     131.699 -41.591  29.563  1.00  0.00     0.053 C 
ENDROOT
BRANCH   1   3
ATOM      3  C   UNL     1     129.475 -40.603  28.962  1.00  0.00    -0.025 A 
ATOM      4  C   UNL     1     128.385 -41.407  29.339  1.00  0.00     0.012 A 
ATOM      5  C   UNL     1     127.160 -40.820  29.676  1.00  0.00     0.047 A 
ATOM      6  C   UNL     1     127.020 -39.430  29.663  1.00  0.00     0.115 A 
ATOM      7  C   UNL     1     129.338 -39.208  28.980  1.00  0.00     0.012 A 
ATOM      8  C   UNL     1     128.113 -38.623  29.317  1.00  0.00     0.047 A 
BRANCH   6   9
ATOM      9  O   UNL     1     125.795 -38.858  29.999  1.00  0.00    -0.508 OA
ATOM     10  H   UNL     1     125.111 -39.358  30.557  1.00  0.00     0.293 HD
ENDBRANCH   6   9
ENDBRANCH   1   3
BRANCH   2  11
ATOM     11  C   UNL     1     131.484 -41.661  31.030  1.00  0.00     0.189 C 
ATOM     12  O   UNL     1     131.865 -42.666  31.689  1.00  0.00    -0.289 OA
BRANCH  11  13
ATOM     13  C   UNL     1     130.825 -40.553  31.751  1.00  0.00     0.064 A 
ATOM     14  C   UNL     1     131.375 -39.253  31.781  1.00  0.00     0.130 A 
ATOM     15  C   UNL     1     129.633 -40.810  32.449  1.00  0.00     0.020 A 
ATOM     16  C   UNL     1     130.706 -38.229  32.468  1.00  0.00     0.093 A 
ATOM     17  C   UNL     1     128.978 -39.785  33.137  1.00  0.00     0.047 A 
ATOM     18  C   UNL     1     129.508 -38.493  33.144  1.00  0.00     0.119 A 
BRANCH  14  19
ATOM     19  O   UNL     1     132.593 -38.986  31.158  1.00  0.00    -0.507 OA
ATOM     20  H   UNL     1     133.390 -39.605  31.259  1.00  0.00     0.293 HD
ENDBRANCH  14  19
BRANCH  18  21
ATOM     21  O   UNL     1     128.841 -37.480  33.830  1.00  0.00    -0.508 OA
ATOM     22  H   UNL     1     128.659 -37.546  34.824  1.00  0.00     0.293 HD
ENDBRANCH  18  21
ENDBRANCH  11  13
ENDBRANCH   2  11
TORSDOF 6
ENDMDL
MODEL 7
REMARK VINA RESULT:    -5.563      1.850      2.480
REMARK INTER + INTRA:          -8.030
REMARK INTER:                  -7.269
REMARK INTRA:                  -0.761
REMARK UNBOUND:                -1.003
REMARK SMILES O=C(C=Cc1ccc(O)cc1)c1ccc(O)cc1O
REMARK SMILES IDX 4 1 3 2 5 3 6 4 7 5 8 6 11 7 10 8 9 9 2 11 1 12 12 13 18 14
REMARK SMILES IDX 13 15 17 16 14 17 15 18 19 19 16 21
REMARK H PARENT 9 10 19 20 16 22
REMARK Flexibility Score: inf
ROOT
ATOM      1  C   UNL     1     131.167 -38.833  29.965  1.00  0.00     0.012 C 
ATOM      2  C   UNL     1     130.566 -39.383  28.898  1.00  0.00     0.053 C 
ENDROOT
BRANCH   1   3
ATOM      3  C   UNL     1     131.029 -39.296  31.360  1.00  0.00    -0.025 A 
ATOM      4  C   UNL     1     130.197 -38.620  32.270  1.00  0.00     0.012 A 
ATOM      5  C   UNL     1     130.038 -39.104  33.572  1.00  0.00     0.047 A 
ATOM      6  C   UNL     1     130.688 -40.276  33.972  1.00  0.00     0.115 A 
ATOM      7  C   UNL     1     131.655 -40.487  31.755  1.00  0.00     0.012 A 
ATOM      8  C   UNL     1     131.495 -40.969  33.058  1.00  0.00     0.047 A 
BRANCH   6   9
ATOM      9  O   UNL     1     130.523 -40.745  35.272  1.00  0.00    -0.508 OA
ATOM     10  H   UNL     1     129.641 -41.133  35.588  1.00  0.00     0.293 HD
ENDBRANCH   6   9
ENDBRANCH   1   3
BRANCH   2  11
ATOM     11  C   UNL     1     129.523 -40.438  28.940  1.00  0.00     0.189 C 
ATOM     12  O   UNL     1     129.531 -41.385  28.107  1.00  0.00    -0.289 OA
BRANCH  11  13
ATOM     13  C   UNL     1     128.455 -40.405  29.960  1.00  0.00     0.064 A 
ATOM     14  C   UNL     1     127.497 -39.370  30.002  1.00  0.00     0.130 A 
ATOM     15  C   UNL     1     128.415 -41.418  30.934  1.00  0.00     0.020 A 
ATOM     16  C   UNL     1     126.493 -39.388  30.983  1.00  0.00     0.093 A 
ATOM     17  C   UNL     1     127.415 -41.424  31.910  1.00  0.00     0.047 A 
ATOM     18  C   UNL     1     126.451 -40.414  31.935  1.00  0.00     0.119 A 
BRANCH  14  19
ATOM     19  O   UNL     1     127.556 -38.314  29.094  1.00  0.00    -0.507 OA
ATOM     20  H   UNL     1     126.737 -37.760  28.867  1.00  0.00     0.293 HD
ENDBRANCH  14  19
BRANCH  18  21
ATOM     21  O   UNL     1     125.458 -40.436  32.912  1.00  0.00    -0.508 OA
ATOM     22  H   UNL     1     125.651 -40.166  33.869  1.00  0.00     0.293 HD
ENDBRANCH  18  21
ENDBRANCH  11  13
ENDBRANCH   2  11
TORSDOF 6
ENDMDL
MODEL 8
REMARK VINA RESULT:    -5.481      2.216      4.544
REMARK INTER + INTRA:          -7.926
REMARK INTER:                  -6.926
REMARK INTRA:                  -1.000
REMARK UNBOUND:                -1.003
REMARK SMILES O=C(C=Cc1ccc(O)cc1)c1ccc(O)cc1O
REMARK SMILES IDX 4 1 3 2 5 3 6 4 7 5 8 6 11 7 10 8 9 9 2 11 1 12 12 13 18 14
REMARK SMILES IDX 13 15 17 16 14 17 15 18 19 19 16 21
REMARK H PARENT 9 10 19 20 16 22
REMARK Flexibility Score: inf
ROOT
ATOM      1  C   UNL     1     127.389 -39.180  29.410  1.00  0.00     0.012 C 
ATOM      2  C   UNL     1     128.701 -38.993  29.197  1.00  0.00     0.053 C 
ENDROOT
BRANCH   1   3
ATOM      3  C   UNL     1     126.804 -40.140  30.367  1.00  0.00    -0.025 A 
ATOM      4  C   UNL     1     126.614 -41.488  30.017  1.00  0.00     0.012 A 
ATOM      5  C   UNL     1     126.108 -42.395  30.954  1.00  0.00     0.047 A 
ATOM      6  C   UNL     1     125.808 -41.971  32.252  1.00  0.00     0.115 A 
ATOM      7  C   UNL     1     126.531 -39.726  31.679  1.00  0.00     0.012 A 
ATOM      8  C   UNL     1     126.024 -40.633  32.614  1.00  0.00     0.047 A 
BRANCH   6   9
ATOM      9  O   UNL     1     125.303 -42.883  33.175  1.00  0.00    -0.508 OA
ATOM     10  H   UNL     1     124.531 -43.499  32.944  1.00  0.00     0.293 HD
ENDBRANCH   6   9
ENDBRANCH   1   3
BRANCH   2  11
ATOM     11  C   UNL     1     129.796 -39.829  29.748  1.00  0.00     0.189 C 
ATOM     12  O   UNL     1     130.642 -40.367  28.984  1.00  0.00    -0.289 OA
BRANCH  11  13
ATOM     13  C   UNL     1     129.922 -40.044  31.204  1.00  0.00     0.064 A 
ATOM     14  C   UNL     1     130.138 -38.974  32.099  1.00  0.00     0.130 A 
ATOM     15  C   UNL     1     129.856 -41.355  31.705  1.00  0.00     0.020 A 
ATOM     16  C   UNL     1     130.239 -39.225  33.476  1.00  0.00     0.093 A 
ATOM     17  C   UNL     1     129.964 -41.597  33.078  1.00  0.00     0.047 A 
ATOM     18  C   UNL     1     130.150 -40.534  33.966  1.00  0.00     0.119 A 
BRANCH  14  19
ATOM     19  O   UNL     1     130.280 -37.671  31.623  1.00  0.00    -0.507 OA
ATOM     20  H   UNL     1     130.797 -37.468  30.775  1.00  0.00     0.293 HD
ENDBRANCH  14  19
BRANCH  18  21
ATOM     21  O   UNL     1     130.252 -40.791  35.332  1.00  0.00    -0.508 OA
ATOM     22  H   UNL     1     130.681 -41.640  35.680  1.00  0.00     0.293 HD
ENDBRANCH  18  21
ENDBRANCH  11  13
ENDBRANCH   2  11
TORSDOF 6
ENDMDL
MODEL 9
REMARK VINA RESULT:    -5.428      2.357      3.359
REMARK INTER + INTRA:          -7.859
REMARK INTER:                  -6.450
REMARK INTRA:                  -1.409
REMARK UNBOUND:                -1.003
REMARK SMILES O=C(C=Cc1ccc(O)cc1)c1ccc(O)cc1O
REMARK SMILES IDX 4 1 3 2 5 3 6 4 7 5 8 6 11 7 10 8 9 9 2 11 1 12 12 13 18 14
REMARK SMILES IDX 13 15 17 16 14 17 15 18 19 19 16 21
REMARK H PARENT 9 10 19 20 16 22
REMARK Flexibility Score: inf
ROOT
ATOM      1  C   UNL     1     130.204 -40.656  29.732  1.00  0.00     0.012 C 
ATOM      2  C   UNL     1     129.102 -40.353  29.027  1.00  0.00     0.053 C 
ENDROOT
BRANCH   1   3
ATOM      3  C   UNL     1     130.292 -40.710  31.204  1.00  0.00    -0.025 A 
ATOM      4  C   UNL     1     130.544 -39.551  31.958  1.00  0.00     0.012 A 
ATOM      5  C   UNL     1     130.572 -39.611  33.355  1.00  0.00     0.047 A 
ATOM      6  C   UNL     1     130.325 -40.820  34.012  1.00  0.00     0.115 A 
ATOM      7  C   UNL     1     130.015 -41.914  31.868  1.00  0.00     0.012 A 
ATOM      8  C   UNL     1     130.043 -41.973  33.264  1.00  0.00     0.047 A 
BRANCH   6   9
ATOM      9  O   UNL     1     130.358 -40.867  35.404  1.00  0.00    -0.508 OA
ATOM     10  H   UNL     1     131.223 -40.749  35.918  1.00  0.00     0.293 HD
ENDBRANCH   6   9
ENDBRANCH   1   3
BRANCH   2  11
ATOM     11  C   UNL     1     127.825 -39.848  29.590  1.00  0.00     0.189 C 
ATOM     12  O   UNL     1     127.392 -38.706  29.279  1.00  0.00    -0.289 OA
BRANCH  11  13
ATOM     13  C   UNL     1     127.031 -40.675  30.522  1.00  0.00     0.064 A 
ATOM     14  C   UNL     1     126.685 -40.220  31.812  1.00  0.00     0.130 A 
ATOM     15  C   UNL     1     126.637 -41.963  30.120  1.00  0.00     0.020 A 
ATOM     16  C   UNL     1     125.918 -41.036  32.657  1.00  0.00     0.093 A 
ATOM     17  C   UNL     1     125.879 -42.771  30.971  1.00  0.00     0.047 A 
ATOM     18  C   UNL     1     125.514 -42.309  32.238  1.00  0.00     0.119 A 
BRANCH  14  19
ATOM     19  O   UNL     1     127.124 -38.976  32.264  1.00  0.00    -0.507 OA
ATOM     20  H   UNL     1     126.600 -38.128  32.079  1.00  0.00     0.293 HD
ENDBRANCH  14  19
BRANCH  18  21
ATOM     21  O   UNL     1     124.754 -43.125  33.074  1.00  0.00    -0.508 OA
ATOM     22  H   UNL     1     123.756 -43.237  32.940  1.00  0.00     0.293 HD
ENDBRANCH  18  21
ENDBRANCH  11  13
ENDBRANCH   2  11
TORSDOF 6
ENDMDL
