MODEL 1
REMARK VINA RESULT:    -3.661      0.000      0.000
REMARK INTER + INTRA:          -6.114
REMARK INTER:                  -5.373
REMARK INTRA:                  -0.740
REMARK UNBOUND:                -0.740
REMARK SMILES O=C([O-])CCCCCCCC(=O)[O-]
REMARK SMILES IDX 7 1 6 2 5 3 4 4 2 5 1 6 3 7 8 8 9 9 10 10 11 11 12 12 13 13
REMARK H PARENT
REMARK Flexibility Score: inf
ROOT
ATOM      1  C   UNL     1       9.308   5.836  51.290  1.00  0.00     0.000 C 
ENDROOT
BRANCH   1   2
ATOM      2  C   UNL     1       7.941   5.153  51.173  1.00  0.00     0.000 C 
BRANCH   2   3
ATOM      3  C   UNL     1       7.633   4.318  52.421  1.00  0.00     0.006 C 
BRANCH   3   4
ATOM      4  C   UNL     1       8.527   4.732  53.594  1.00  0.00     0.053 C 
BRANCH   4   5
ATOM      5  C   UNL     1       7.734   4.798  54.860  1.00  0.00     0.041 C 
ATOM      6  O   UNL     1       8.272   5.201  55.924  1.00  0.00    -0.550 OA
ATOM      7  O   UNL     1       6.386   4.463  54.853  1.00  0.00    -0.550 OA
ENDBRANCH   4   5
ENDBRANCH   3   4
ENDBRANCH   2   3
ENDBRANCH   1   2
BRANCH   1   8
ATOM      8  C   UNL     1      10.068   5.780  49.959  1.00  0.00     0.000 C 
BRANCH   8   9
ATOM      9  C   UNL     1      11.106   4.651  49.965  1.00  0.00     0.006 C 
BRANCH   9  10
ATOM     10  C   UNL     1      11.517   4.291  51.395  1.00  0.00     0.053 C 
BRANCH  10  11
ATOM     11  C   UNL     1      11.263   2.842  51.663  1.00  0.00     0.041 C 
ATOM     12  O   UNL     1      10.280   2.261  51.130  1.00  0.00    -0.550 OA
ATOM     13  O   UNL     1      12.138   2.118  52.463  1.00  0.00    -0.550 OA
ENDBRANCH  10  11
ENDBRANCH   9  10
ENDBRANCH   8   9
ENDBRANCH   1   8
TORSDOF 8
ENDMDL
MODEL 2
REMARK VINA RESULT:    -3.597      2.085      2.659
REMARK INTER + INTRA:          -6.020
REMARK INTER:                  -5.418
REMARK INTRA:                  -0.601
REMARK UNBOUND:                -0.740
REMARK SMILES O=C([O-])CCCCCCCC(=O)[O-]
REMARK SMILES IDX 7 1 6 2 5 3 4 4 2 5 1 6 3 7 8 8 9 9 10 10 11 11 12 12 13 13
REMARK H PARENT
REMARK Flexibility Score: inf
ROOT
ATOM      1  C   UNL     1       9.697   5.631  53.047  1.00  0.00     0.000 C 
ENDROOT
BRANCH   1   2
ATOM      2  C   UNL     1       8.529   4.878  53.693  1.00  0.00     0.000 C 
BRANCH   2   3
ATOM      3  C   UNL     1       7.893   3.894  52.703  1.00  0.00     0.006 C 
BRANCH   3   4
ATOM      4  C   UNL     1       6.365   3.926  52.802  1.00  0.00     0.053 C 
BRANCH   4   5
ATOM      5  C   UNL     1       5.764   4.347  51.498  1.00  0.00     0.041 C 
ATOM      6  O   UNL     1       4.890   3.632  50.943  1.00  0.00    -0.550 OA
ATOM      7  O   UNL     1       6.133   5.556  50.922  1.00  0.00    -0.550 OA
ENDBRANCH   4   5
ENDBRANCH   3   4
ENDBRANCH   2   3
ENDBRANCH   1   2
BRANCH   1   8
ATOM      8  C   UNL     1       9.634   5.540  51.518  1.00  0.00     0.000 C 
BRANCH   8   9
ATOM      9  C   UNL     1      10.986   5.109  50.936  1.00  0.00     0.006 C 
BRANCH   9  10
ATOM     10  C   UNL     1      11.790   4.297  51.956  1.00  0.00     0.053 C 
BRANCH  10  11
ATOM     11  C   UNL     1      11.555   2.833  51.760  1.00  0.00     0.041 C 
ATOM     12  O   UNL     1      10.799   2.430  50.837  1.00  0.00    -0.550 OA
ATOM     13  O   UNL     1      12.209   1.910  52.567  1.00  0.00    -0.550 OA
ENDBRANCH  10  11
ENDBRANCH   9  10
ENDBRANCH   8   9
ENDBRANCH   1   8
TORSDOF 8
ENDMDL
MODEL 3
REMARK VINA RESULT:    -3.551      2.995      5.644
REMARK INTER + INTRA:          -5.952
REMARK INTER:                  -5.360
REMARK INTRA:                  -0.591
REMARK UNBOUND:                -0.740
REMARK SMILES O=C([O-])CCCCCCCC(=O)[O-]
REMARK SMILES IDX 7 1 6 2 5 3 4 4 2 5 1 6 3 7 8 8 9 9 10 10 11 11 12 12 13 13
REMARK H PARENT
REMARK Flexibility Score: inf
ROOT
ATOM      1  C   UNL     1       6.631   4.152  53.450  1.00  0.00     0.000 C 
ENDROOT
BRANCH   1   2
ATOM      2  C   UNL     1       8.116   4.484  53.631  1.00  0.00     0.000 C 
BRANCH   2   3
ATOM      3  C   UNL     1       8.940   3.997  52.433  1.00  0.00     0.006 C 
BRANCH   3   4
ATOM      4  C   UNL     1       9.498   5.178  51.634  1.00  0.00     0.053 C 
BRANCH   4   5
ATOM      5  C   UNL     1      10.884   5.512  52.089  1.00  0.00     0.041 C 
ATOM      6  O   UNL     1      11.088   6.527  52.804  1.00  0.00    -0.550 OA
ATOM      7  O   UNL     1      11.942   4.673  51.764  1.00  0.00    -0.550 OA
ENDBRANCH   4   5
ENDBRANCH   3   4
ENDBRANCH   2   3
ENDBRANCH   1   2
BRANCH   1   8
ATOM      8  C   UNL     1       6.417   3.214  52.256  1.00  0.00     0.000 C 
BRANCH   8   9
ATOM      9  C   UNL     1       5.353   3.771  51.302  1.00  0.00     0.006 C 
BRANCH   9  10
ATOM     10  C   UNL     1       5.582   5.262  51.034  1.00  0.00     0.053 C 
BRANCH  10  11
ATOM     11  C   UNL     1       4.278   5.992  50.991  1.00  0.00     0.041 C 
ATOM     12  O   UNL     1       3.193   5.354  51.042  1.00  0.00    -0.550 OA
ATOM     13  O   UNL     1       4.259   7.380  50.942  1.00  0.00    -0.550 OA
ENDBRANCH  10  11
ENDBRANCH   9  10
ENDBRANCH   8   9
ENDBRANCH   1   8
TORSDOF 8
ENDMDL
MODEL 4
REMARK VINA RESULT:    -3.514      2.823      3.860
REMARK INTER + INTRA:          -5.897
REMARK INTER:                  -5.491
REMARK INTRA:                  -0.406
REMARK UNBOUND:                -0.740
REMARK SMILES O=C([O-])CCCCCCCC(=O)[O-]
REMARK SMILES IDX 7 1 6 2 5 3 4 4 2 5 1 6 3 7 8 8 9 9 10 10 11 11 12 12 13 13
REMARK H PARENT
REMARK Flexibility Score: inf
ROOT
ATOM      1  C   UNL     1       7.267   4.179  53.004  1.00  0.00     0.000 C 
ENDROOT
BRANCH   1   2
ATOM      2  C   UNL     1       6.575   3.099  52.164  1.00  0.00     0.000 C 
BRANCH   2   3
ATOM      3  C   UNL     1       5.401   3.686  51.372  1.00  0.00     0.006 C 
BRANCH   3   4
ATOM      4  C   UNL     1       5.588   5.189  51.143  1.00  0.00     0.053 C 
BRANCH   4   5
ATOM      5  C   UNL     1       4.261   5.872  51.036  1.00  0.00     0.041 C 
ATOM      6  O   UNL     1       3.197   5.203  51.102  1.00  0.00    -0.550 OA
ATOM      7  O   UNL     1       4.200   7.253  50.914  1.00  0.00    -0.550 OA
ENDBRANCH   4   5
ENDBRANCH   3   4
ENDBRANCH   2   3
ENDBRANCH   1   2
BRANCH   1   8
ATOM      8  C   UNL     1       8.788   4.136  52.813  1.00  0.00     0.000 C 
BRANCH   8   9
ATOM      9  C   UNL     1       9.276   5.346  52.007  1.00  0.00     0.006 C 
BRANCH   9  10
ATOM     10  C   UNL     1      10.723   5.697  52.366  1.00  0.00     0.053 C 
BRANCH  10  11
ATOM     11  C   UNL     1      11.676   4.902  51.532  1.00  0.00     0.041 C 
ATOM     12  O   UNL     1      12.190   3.847  51.989  1.00  0.00    -0.550 OA
ATOM     13  O   UNL     1      11.960   5.299  50.231  1.00  0.00    -0.550 OA
ENDBRANCH  10  11
ENDBRANCH   9  10
ENDBRANCH   8   9
ENDBRANCH   1   8
TORSDOF 8
ENDMDL
MODEL 5
REMARK VINA RESULT:    -3.464      2.283      5.340
REMARK INTER + INTRA:          -5.824
REMARK INTER:                  -5.326
REMARK INTRA:                  -0.498
REMARK UNBOUND:                -0.740
REMARK SMILES O=C([O-])CCCCCCCC(=O)[O-]
REMARK SMILES IDX 7 1 6 2 5 3 4 4 2 5 1 6 3 7 8 8 9 9 10 10 11 11 12 12 13 13
REMARK H PARENT
REMARK Flexibility Score: inf
ROOT
ATOM      1  C   UNL     1       8.716   5.339  52.187  1.00  0.00     0.000 C 
ENDROOT
BRANCH   1   2
ATOM      2  C   UNL     1      10.166   5.577  52.624  1.00  0.00     0.000 C 
BRANCH   2   3
ATOM      3  C   UNL     1      11.142   5.283  51.479  1.00  0.00     0.006 C 
BRANCH   3   4
ATOM      4  C   UNL     1      12.084   4.132  51.842  1.00  0.00     0.053 C 
BRANCH   4   5
ATOM      5  C   UNL     1      11.394   2.816  51.668  1.00  0.00     0.041 C 
ATOM      6  O   UNL     1      11.592   1.884  52.490  1.00  0.00    -0.550 OA
ATOM      7  O   UNL     1      10.495   2.636  50.625  1.00  0.00    -0.550 OA
ENDBRANCH   4   5
ENDBRANCH   3   4
ENDBRANCH   2   3
ENDBRANCH   1   2
BRANCH   1   8
ATOM      8  C   UNL     1       8.052   4.256  53.047  1.00  0.00     0.000 C 
BRANCH   8   9
ATOM      9  C   UNL     1       6.787   3.715  52.370  1.00  0.00     0.006 C 
BRANCH   9  10
ATOM     10  C   UNL     1       6.345   4.627  51.221  1.00  0.00     0.053 C 
BRANCH  10  11
ATOM     11  C   UNL     1       4.871   4.869  51.284  1.00  0.00     0.041 C 
ATOM     12  O   UNL     1       4.070   3.898  51.334  1.00  0.00    -0.550 OA
ATOM     13  O   UNL     1       4.381   6.168  51.335  1.00  0.00    -0.550 OA
ENDBRANCH  10  11
ENDBRANCH   9  10
ENDBRANCH   8   9
ENDBRANCH   1   8
TORSDOF 8
ENDMDL
MODEL 6
REMARK VINA RESULT:    -3.433      1.530      5.078
REMARK INTER + INTRA:          -5.779
REMARK INTER:                  -5.198
REMARK INTRA:                  -0.580
REMARK UNBOUND:                -0.740
REMARK SMILES O=C([O-])CCCCCCCC(=O)[O-]
REMARK SMILES IDX 7 1 6 2 5 3 4 4 2 5 1 6 3 7 8 8 9 9 10 10 11 11 12 12 13 13
REMARK H PARENT
REMARK Flexibility Score: inf
ROOT
ATOM      1  C   UNL     1       8.302   4.940  50.634  1.00  0.00     0.000 C 
ENDROOT
BRANCH   1   2
ATOM      2  C   UNL     1       8.887   6.355  50.549  1.00  0.00     0.000 C 
BRANCH   2   3
ATOM      3  C   UNL     1      10.356   6.318  50.113  1.00  0.00     0.006 C 
BRANCH   3   4
ATOM      4  C   UNL     1      11.288   6.239  51.326  1.00  0.00     0.053 C 
BRANCH   4   5
ATOM      5  C   UNL     1      12.308   5.161  51.134  1.00  0.00     0.041 C 
ATOM      6  O   UNL     1      12.109   4.010  51.604  1.00  0.00    -0.550 OA
ATOM      7  O   UNL     1      13.455   5.414  50.394  1.00  0.00    -0.550 OA
ENDBRANCH   4   5
ENDBRANCH   3   4
ENDBRANCH   2   3
ENDBRANCH   1   2
BRANCH   1   8
ATOM      8  C   UNL     1       7.581   4.721  51.969  1.00  0.00     0.000 C 
BRANCH   8   9
ATOM      9  C   UNL     1       8.557   4.240  53.050  1.00  0.00     0.006 C 
BRANCH   9  10
ATOM     10  C   UNL     1       8.703   5.284  54.161  1.00  0.00     0.053 C 
BRANCH  10  11
ATOM     11  C   UNL     1       7.868   4.909  55.344  1.00  0.00     0.041 C 
ATOM     12  O   UNL     1       8.361   4.936  56.502  1.00  0.00    -0.550 OA
ATOM     13  O   UNL     1       6.530   4.577  55.173  1.00  0.00    -0.550 OA
ENDBRANCH  10  11
ENDBRANCH   9  10
ENDBRANCH   8   9
ENDBRANCH   1   8
TORSDOF 8
ENDMDL
MODEL 7
REMARK VINA RESULT:    -3.331      1.762      4.858
REMARK INTER + INTRA:          -5.629
REMARK INTER:                  -5.028
REMARK INTRA:                  -0.602
REMARK UNBOUND:                -0.740
REMARK SMILES O=C([O-])CCCCCCCC(=O)[O-]
REMARK SMILES IDX 7 1 6 2 5 3 4 4 2 5 1 6 3 7 8 8 9 9 10 10 11 11 12 12 13 13
REMARK H PARENT
REMARK Flexibility Score: inf
ROOT
ATOM      1  C   UNL     1       7.876   2.911  50.523  1.00  0.00     0.000 C 
ENDROOT
BRANCH   1   2
ATOM      2  C   UNL     1       9.254   2.263  50.701  1.00  0.00     0.000 C 
BRANCH   2   3
ATOM      3  C   UNL     1      10.339   3.068  49.975  1.00  0.00     0.006 C 
BRANCH   3   4
ATOM      4  C   UNL     1      10.253   4.554  50.333  1.00  0.00     0.053 C 
BRANCH   4   5
ATOM      5  C   UNL     1      11.236   4.893  51.408  1.00  0.00     0.041 C 
ATOM      6  O   UNL     1      12.204   4.125  51.646  1.00  0.00    -0.550 OA
ATOM      7  O   UNL     1      11.110   6.082  52.114  1.00  0.00    -0.550 OA
ENDBRANCH   4   5
ENDBRANCH   3   4
ENDBRANCH   2   3
ENDBRANCH   1   2
BRANCH   1   8
ATOM      8  C   UNL     1       7.053   2.818  51.814  1.00  0.00     0.000 C 
BRANCH   8   9
ATOM      9  C   UNL     1       6.932   4.189  52.490  1.00  0.00     0.006 C 
BRANCH   9  10
ATOM     10  C   UNL     1       8.156   4.481  53.362  1.00  0.00     0.053 C 
BRANCH  10  11
ATOM     11  C   UNL     1       7.733   4.888  54.738  1.00  0.00     0.041 C 
ATOM     12  O   UNL     1       8.516   5.544  55.474  1.00  0.00    -0.550 OA
ATOM     13  O   UNL     1       6.455   4.584  55.191  1.00  0.00    -0.550 OA
ENDBRANCH  10  11
ENDBRANCH   9  10
ENDBRANCH   8   9
ENDBRANCH   1   8
TORSDOF 8
ENDMDL
MODEL 8
REMARK VINA RESULT:    -3.272      2.016      4.714
REMARK INTER + INTRA:          -5.542
REMARK INTER:                  -4.974
REMARK INTRA:                  -0.568
REMARK UNBOUND:                -0.740
REMARK SMILES O=C([O-])CCCCCCCC(=O)[O-]
REMARK SMILES IDX 7 1 6 2 5 3 4 4 2 5 1 6 3 7 8 8 9 9 10 10 11 11 12 12 13 13
REMARK H PARENT
REMARK Flexibility Score: inf
ROOT
ATOM      1  C   UNL     1      10.324   5.970  52.757  1.00  0.00     0.000 C 
ENDROOT
BRANCH   1   2
ATOM      2  C   UNL     1      11.280   5.984  51.558  1.00  0.00     0.000 C 
BRANCH   2   3
ATOM      3  C   UNL     1      12.116   4.701  51.505  1.00  0.00     0.006 C 
BRANCH   3   4
ATOM      4  C   UNL     1      11.491   3.677  50.553  1.00  0.00     0.053 C 
BRANCH   4   5
ATOM      5  C   UNL     1      11.022   2.475  51.310  1.00  0.00     0.041 C 
ATOM      6  O   UNL     1      11.696   2.032  52.276  1.00  0.00    -0.550 OA
ATOM      7  O   UNL     1       9.814   1.875  50.980  1.00  0.00    -0.550 OA
ENDBRANCH   4   5
ENDBRANCH   3   4
ENDBRANCH   2   3
ENDBRANCH   1   2
BRANCH   1   8
ATOM      8  C   UNL     1       8.937   5.460  52.350  1.00  0.00     0.000 C 
BRANCH   8   9
ATOM      9  C   UNL     1       8.494   4.296  53.245  1.00  0.00     0.006 C 
BRANCH   9  10
ATOM     10  C   UNL     1       6.980   4.325  53.475  1.00  0.00     0.053 C 
BRANCH  10  11
ATOM     11  C   UNL     1       6.262   3.745  52.299  1.00  0.00     0.041 C 
ATOM     12  O   UNL     1       5.325   4.384  51.751  1.00  0.00    -0.550 OA
ATOM     13  O   UNL     1       6.657   2.520  51.777  1.00  0.00    -0.550 OA
ENDBRANCH  10  11
ENDBRANCH   9  10
ENDBRANCH   8   9
ENDBRANCH   1   8
TORSDOF 8
ENDMDL
MODEL 9
REMARK VINA RESULT:    -3.230      1.043      4.532
REMARK INTER + INTRA:          -5.481
REMARK INTER:                  -4.872
REMARK INTRA:                  -0.609
REMARK UNBOUND:                -0.740
REMARK SMILES O=C([O-])CCCCCCCC(=O)[O-]
REMARK SMILES IDX 7 1 6 2 5 3 4 4 2 5 1 6 3 7 8 8 9 9 10 10 11 11 12 12 13 13
REMARK H PARENT
REMARK Flexibility Score: inf
ROOT
ATOM      1  C   UNL     1       8.558   5.879  50.045  1.00  0.00     0.000 C 
ENDROOT
BRANCH   1   2
ATOM      2  C   UNL     1       9.556   6.150  51.177  1.00  0.00     0.000 C 
BRANCH   2   3
ATOM      3  C   UNL     1      10.984   5.792  50.750  1.00  0.00     0.006 C 
BRANCH   3   4
ATOM      4  C   UNL     1      11.656   4.885  51.785  1.00  0.00     0.053 C 
BRANCH   4   5
ATOM      5  C   UNL     1      11.411   3.446  51.458  1.00  0.00     0.041 C 
ATOM      6  O   UNL     1      11.669   2.551  52.305  1.00  0.00    -0.550 OA
ATOM      7  O   UNL     1      10.852   3.097  50.236  1.00  0.00    -0.550 OA
ENDBRANCH   4   5
ENDBRANCH   3   4
ENDBRANCH   2   3
ENDBRANCH   1   2
BRANCH   1   8
ATOM      8  C   UNL     1       7.376   5.039  50.542  1.00  0.00     0.000 C 
BRANCH   8   9
ATOM      9  C   UNL     1       7.798   4.124  51.698  1.00  0.00     0.006 C 
BRANCH   9  10
ATOM     10  C   UNL     1       6.721   4.082  52.786  1.00  0.00     0.053 C 
BRANCH  10  11
ATOM     11  C   UNL     1       7.282   4.539  54.095  1.00  0.00     0.041 C 
ATOM     12  O   UNL     1       6.581   4.484  55.139  1.00  0.00    -0.550 OA
ATOM     13  O   UNL     1       8.597   4.981  54.171  1.00  0.00    -0.550 OA
ENDBRANCH  10  11
ENDBRANCH   9  10
ENDBRANCH   8   9
ENDBRANCH   1   8
TORSDOF 8
ENDMDL
