MODEL 1
REMARK VINA RESULT:    -6.471      0.000      0.000
REMARK INTER + INTRA:          -7.630
REMARK INTER:                  -7.417
REMARK INTRA:                  -0.213
REMARK UNBOUND:                -0.213
REMARK SMILES O=c1c(-c2ccc(O)cc2)coc2c(O)c(O)ccc12
REMARK SMILES IDX 3 1 11 2 12 3 13 4 20 5 2 6 1 7 19 8 18 9 16 10 14 11 4 12
REMARK SMILES IDX 5 13 6 14 7 15 10 16 9 17 8 18 15 20 17 22
REMARK H PARENT 8 19 15 21 17 23
REMARK Flexibility Score: inf
ROOT
ATOM      1  C   UNL     1     -22.573  64.281   2.377  1.00  0.00     0.065 A 
ATOM      2  C   UNL     1     -22.263  65.498   1.752  1.00  0.00     0.208 A 
ATOM      3  O   UNL     1     -22.533  66.657   2.341  1.00  0.00    -0.459 OA
ATOM      4  C   UNL     1     -23.104  66.743   3.538  1.00  0.00     0.183 A 
ATOM      5  C   UNL     1     -23.457  65.567   4.240  1.00  0.00     0.069 A 
ATOM      6  C   UNL     1     -23.190  64.323   3.641  1.00  0.00     0.200 A 
ATOM      7  O   UNL     1     -23.518  63.253   4.225  1.00  0.00    -0.288 OA
ATOM      8  C   UNL     1     -24.065  65.672   5.504  1.00  0.00     0.020 A 
ATOM      9  C   UNL     1     -24.315  66.928   6.060  1.00  0.00     0.051 A 
ATOM     10  C   UNL     1     -23.965  68.093   5.367  1.00  0.00     0.161 A 
ATOM     11  C   UNL     1     -23.360  68.004   4.106  1.00  0.00     0.201 A 
ENDROOT
BRANCH   1  12
ATOM     12  C   UNL     1     -22.254  62.998   1.700  1.00  0.00    -0.011 A 
ATOM     13  C   UNL     1     -20.932  62.521   1.675  1.00  0.00     0.013 A 
ATOM     14  C   UNL     1     -20.630  61.308   1.047  1.00  0.00     0.047 A 
ATOM     15  C   UNL     1     -21.643  60.557   0.442  1.00  0.00     0.115 A 
ATOM     16  C   UNL     1     -23.269  62.234   1.096  1.00  0.00     0.013 A 
ATOM     17  C   UNL     1     -22.964  61.023   0.470  1.00  0.00     0.047 A 
BRANCH  15  18
ATOM     18  O   UNL     1     -21.328  59.351  -0.180  1.00  0.00    -0.508 OA
ATOM     19  H   UNL     1     -21.004  58.551   0.350  1.00  0.00     0.293 HD
ENDBRANCH  15  18
ENDBRANCH   1  12
BRANCH  11  20
ATOM     20  O   UNL     1     -23.020  69.177   3.431  1.00  0.00    -0.502 OA
ATOM     21  H   UNL     1     -22.931  69.213   2.423  1.00  0.00     0.293 HD
ENDBRANCH  11  20
BRANCH  10  22
ATOM     22  O   UNL     1     -24.216  69.345   5.925  1.00  0.00    -0.504 OA
ATOM     23  H   UNL     1     -24.178  69.498   6.926  1.00  0.00     0.293 HD
ENDBRANCH  10  22
TORSDOF 4
ENDMDL
MODEL 2
REMARK VINA RESULT:    -6.351      0.990      2.104
REMARK INTER + INTRA:          -7.492
REMARK INTER:                  -7.249
REMARK INTRA:                  -0.243
REMARK UNBOUND:                -0.213
REMARK SMILES O=c1c(-c2ccc(O)cc2)coc2c(O)c(O)ccc12
REMARK SMILES IDX 3 1 11 2 12 3 13 4 20 5 2 6 1 7 19 8 18 9 16 10 14 11 4 12
REMARK SMILES IDX 5 13 6 14 7 15 10 16 9 17 8 18 15 20 17 22
REMARK H PARENT 8 19 15 21 17 23
REMARK Flexibility Score: inf
ROOT
ATOM      1  C   UNL     1     -22.725  64.193   2.768  1.00  0.00     0.065 A 
ATOM      2  C   UNL     1     -23.236  63.999   4.059  1.00  0.00     0.208 A 
ATOM      3  O   UNL     1     -23.560  65.032   4.828  1.00  0.00    -0.459 OA
ATOM      4  C   UNL     1     -23.424  66.295   4.436  1.00  0.00     0.183 A 
ATOM      5  C   UNL     1     -22.910  66.586   3.150  1.00  0.00     0.069 A 
ATOM      6  C   UNL     1     -22.552  65.514   2.313  1.00  0.00     0.200 A 
ATOM      7  O   UNL     1     -22.063  65.736   1.171  1.00  0.00    -0.288 OA
ATOM      8  C   UNL     1     -22.768  67.926   2.749  1.00  0.00     0.020 A 
ATOM      9  C   UNL     1     -23.132  68.960   3.614  1.00  0.00     0.051 A 
ATOM     10  C   UNL     1     -23.643  68.673   4.886  1.00  0.00     0.161 A 
ATOM     11  C   UNL     1     -23.789  67.343   5.300  1.00  0.00     0.201 A 
ENDROOT
BRANCH   1  12
ATOM     12  C   UNL     1     -22.377  63.021   1.925  1.00  0.00    -0.011 A 
ATOM     13  C   UNL     1     -21.039  62.601   1.814  1.00  0.00     0.013 A 
ATOM     14  C   UNL     1     -20.709  61.492   1.028  1.00  0.00     0.047 A 
ATOM     15  C   UNL     1     -21.708  60.788   0.349  1.00  0.00     0.115 A 
ATOM     16  C   UNL     1     -23.377  62.304   1.245  1.00  0.00     0.013 A 
ATOM     17  C   UNL     1     -23.044  61.196   0.461  1.00  0.00     0.047 A 
BRANCH  15  18
ATOM     18  O   UNL     1     -21.365  59.685  -0.430  1.00  0.00    -0.508 OA
ATOM     19  H   UNL     1     -21.234  58.768  -0.021  1.00  0.00     0.293 HD
ENDBRANCH  15  18
ENDBRANCH   1  12
BRANCH  11  20
ATOM     20  O   UNL     1     -24.298  67.079   6.572  1.00  0.00    -0.502 OA
ATOM     21  H   UNL     1     -25.228  66.704   6.714  1.00  0.00     0.293 HD
ENDBRANCH  11  20
BRANCH  10  22
ATOM     22  O   UNL     1     -24.006  69.708   5.747  1.00  0.00    -0.504 OA
ATOM     23  H   UNL     1     -24.977  69.915   5.948  1.00  0.00     0.293 HD
ENDBRANCH  10  22
TORSDOF 4
ENDMDL
MODEL 3
REMARK VINA RESULT:    -6.341      0.996      2.369
REMARK INTER + INTRA:          -7.480
REMARK INTER:                  -7.245
REMARK INTRA:                  -0.235
REMARK UNBOUND:                -0.213
REMARK SMILES O=c1c(-c2ccc(O)cc2)coc2c(O)c(O)ccc12
REMARK SMILES IDX 3 1 11 2 12 3 13 4 20 5 2 6 1 7 19 8 18 9 16 10 14 11 4 12
REMARK SMILES IDX 5 13 6 14 7 15 10 16 9 17 8 18 15 20 17 22
REMARK H PARENT 8 19 15 21 17 23
REMARK Flexibility Score: inf
ROOT
ATOM      1  C   UNL     1     -22.724  64.196   2.805  1.00  0.00     0.065 A 
ATOM      2  C   UNL     1     -23.275  64.012   4.082  1.00  0.00     0.208 A 
ATOM      3  O   UNL     1     -23.600  65.050   4.842  1.00  0.00    -0.459 OA
ATOM      4  C   UNL     1     -23.428  66.310   4.456  1.00  0.00     0.183 A 
ATOM      5  C   UNL     1     -22.873  66.592   3.186  1.00  0.00     0.069 A 
ATOM      6  C   UNL     1     -22.513  65.514   2.357  1.00  0.00     0.200 A 
ATOM      7  O   UNL     1     -21.988  65.728   1.230  1.00  0.00    -0.288 OA
ATOM      8  C   UNL     1     -22.694  67.930   2.790  1.00  0.00     0.020 A 
ATOM      9  C   UNL     1     -23.062  68.970   3.646  1.00  0.00     0.051 A 
ATOM     10  C   UNL     1     -23.613  68.692   4.903  1.00  0.00     0.161 A 
ATOM     11  C   UNL     1     -23.797  67.364   5.311  1.00  0.00     0.201 A 
ENDROOT
BRANCH   1  12
ATOM     12  C   UNL     1     -22.375  63.019   1.971  1.00  0.00    -0.011 A 
ATOM     13  C   UNL     1     -23.376  62.336   1.257  1.00  0.00     0.013 A 
ATOM     14  C   UNL     1     -23.050  61.231   0.463  1.00  0.00     0.047 A 
ATOM     15  C   UNL     1     -21.723  60.800   0.367  1.00  0.00     0.115 A 
ATOM     16  C   UNL     1     -21.042  62.584   1.864  1.00  0.00     0.013 A 
ATOM     17  C   UNL     1     -20.719  61.481   1.069  1.00  0.00     0.047 A 
BRANCH  15  18
ATOM     18  O   UNL     1     -21.413  59.699  -0.428  1.00  0.00    -0.508 OA
ATOM     19  H   UNL     1     -20.886  58.915  -0.063  1.00  0.00     0.293 HD
ENDBRANCH  15  18
ENDBRANCH   1  12
BRANCH  11  20
ATOM     20  O   UNL     1     -24.347  67.109   6.568  1.00  0.00    -0.502 OA
ATOM     21  H   UNL     1     -23.772  66.967   7.390  1.00  0.00     0.293 HD
ENDBRANCH  11  20
BRANCH  10  22
ATOM     22  O   UNL     1     -23.980  69.733   5.755  1.00  0.00    -0.504 OA
ATOM     23  H   UNL     1     -24.019  69.608   6.760  1.00  0.00     0.293 HD
ENDBRANCH  10  22
TORSDOF 4
ENDMDL
MODEL 4
REMARK VINA RESULT:    -6.150      6.967     10.521
REMARK INTER + INTRA:          -7.262
REMARK INTER:                  -7.027
REMARK INTRA:                  -0.234
REMARK UNBOUND:                -0.213
REMARK SMILES O=c1c(-c2ccc(O)cc2)coc2c(O)c(O)ccc12
REMARK SMILES IDX 3 1 11 2 12 3 13 4 20 5 2 6 1 7 19 8 18 9 16 10 14 11 4 12
REMARK SMILES IDX 5 13 6 14 7 15 10 16 9 17 8 18 15 20 17 22
REMARK H PARENT 8 19 15 21 17 23
REMARK Flexibility Score: inf
ROOT
ATOM      1  C   UNL     1     -18.697  57.831   1.787  1.00  0.00     0.065 A 
ATOM      2  C   UNL     1     -18.562  57.783   3.182  1.00  0.00     0.208 A 
ATOM      3  O   UNL     1     -18.854  56.678   3.858  1.00  0.00    -0.459 OA
ATOM      4  C   UNL     1     -19.286  55.565   3.273  1.00  0.00     0.183 A 
ATOM      5  C   UNL     1     -19.458  55.525   1.869  1.00  0.00     0.069 A 
ATOM      6  C   UNL     1     -19.162  56.680   1.124  1.00  0.00     0.200 A 
ATOM      7  O   UNL     1     -19.332  56.690  -0.127  1.00  0.00    -0.288 OA
ATOM      8  C   UNL     1     -19.920  54.343   1.263  1.00  0.00     0.020 A 
ATOM      9  C   UNL     1     -20.204  53.219   2.041  1.00  0.00     0.051 A 
ATOM     10  C   UNL     1     -20.033  53.258   3.431  1.00  0.00     0.161 A 
ATOM     11  C   UNL     1     -19.575  54.429   4.050  1.00  0.00     0.201 A 
ENDROOT
BRANCH   1  12
ATOM     12  C   UNL     1     -18.357  59.076   1.053  1.00  0.00    -0.011 A 
ATOM     13  C   UNL     1     -19.230  60.178   1.085  1.00  0.00     0.013 A 
ATOM     14  C   UNL     1     -18.909  61.356   0.401  1.00  0.00     0.047 A 
ATOM     15  C   UNL     1     -17.712  61.449  -0.316  1.00  0.00     0.115 A 
ATOM     16  C   UNL     1     -17.151  59.180   0.335  1.00  0.00     0.013 A 
ATOM     17  C   UNL     1     -16.833  60.358  -0.346  1.00  0.00     0.047 A 
BRANCH  15  18
ATOM     18  O   UNL     1     -17.405  62.628  -0.992  1.00  0.00    -0.508 OA
ATOM     19  H   UNL     1     -17.124  62.622  -1.964  1.00  0.00     0.293 HD
ENDBRANCH  15  18
ENDBRANCH   1  12
BRANCH  11  20
ATOM     20  O   UNL     1     -19.412  54.447   5.435  1.00  0.00    -0.502 OA
ATOM     21  H   UNL     1     -19.529  53.616   6.003  1.00  0.00     0.293 HD
ENDBRANCH  11  20
BRANCH  10  22
ATOM     22  O   UNL     1     -20.318  52.135   4.205  1.00  0.00    -0.504 OA
ATOM     23  H   UNL     1     -20.620  51.263   3.786  1.00  0.00     0.293 HD
ENDBRANCH  10  22
TORSDOF 4
ENDMDL
MODEL 5
REMARK VINA RESULT:    -6.097      9.832     10.730
REMARK INTER + INTRA:          -7.201
REMARK INTER:                  -7.430
REMARK INTRA:                   0.229
REMARK UNBOUND:                -0.213
REMARK SMILES O=c1c(-c2ccc(O)cc2)coc2c(O)c(O)ccc12
REMARK SMILES IDX 3 1 11 2 12 3 13 4 20 5 2 6 1 7 19 8 18 9 16 10 14 11 4 12
REMARK SMILES IDX 5 13 6 14 7 15 10 16 9 17 8 18 15 20 17 22
REMARK H PARENT 8 19 15 21 17 23
REMARK Flexibility Score: inf
ROOT
ATOM      1  C   UNL     1     -20.169  55.495   3.221  1.00  0.00     0.065 A 
ATOM      2  C   UNL     1     -19.885  55.382   4.590  1.00  0.00     0.208 A 
ATOM      3  O   UNL     1     -20.802  54.944   5.444  1.00  0.00    -0.459 OA
ATOM      4  C   UNL     1     -22.027  54.589   5.069  1.00  0.00     0.183 A 
ATOM      5  C   UNL     1     -22.404  54.675   3.709  1.00  0.00     0.069 A 
ATOM      6  C   UNL     1     -21.458  55.141   2.779  1.00  0.00     0.200 A 
ATOM      7  O   UNL     1     -21.769  55.259   1.562  1.00  0.00    -0.288 OA
ATOM      8  C   UNL     1     -23.705  54.300   3.327  1.00  0.00     0.020 A 
ATOM      9  C   UNL     1     -24.615  53.845   4.284  1.00  0.00     0.051 A 
ATOM     10  C   UNL     1     -24.241  53.758   5.631  1.00  0.00     0.161 A 
ATOM     11  C   UNL     1     -22.950  54.130   6.027  1.00  0.00     0.201 A 
ENDROOT
BRANCH   1  12
ATOM     12  C   UNL     1     -19.124  55.981   2.285  1.00  0.00    -0.011 A 
ATOM     13  C   UNL     1     -18.223  56.982   2.688  1.00  0.00     0.013 A 
ATOM     14  C   UNL     1     -17.232  57.437   1.812  1.00  0.00     0.047 A 
ATOM     15  C   UNL     1     -17.126  56.894   0.528  1.00  0.00     0.115 A 
ATOM     16  C   UNL     1     -19.007  55.435   0.994  1.00  0.00     0.013 A 
ATOM     17  C   UNL     1     -18.015  55.890   0.121  1.00  0.00     0.047 A 
BRANCH  15  18
ATOM     18  O   UNL     1     -16.134  57.356  -0.335  1.00  0.00    -0.508 OA
ATOM     19  H   UNL     1     -15.363  56.764  -0.620  1.00  0.00     0.293 HD
ENDBRANCH  15  18
ENDBRANCH   1  12
BRANCH  11  20
ATOM     20  O   UNL     1     -22.599  54.037   7.374  1.00  0.00    -0.502 OA
ATOM     21  H   UNL     1     -21.939  54.673   7.805  1.00  0.00     0.293 HD
ENDBRANCH  11  20
BRANCH  10  22
ATOM     22  O   UNL     1     -25.152  53.304   6.584  1.00  0.00    -0.504 OA
ATOM     23  H   UNL     1     -24.846  52.849   7.436  1.00  0.00     0.293 HD
ENDBRANCH  10  22
TORSDOF 4
ENDMDL
MODEL 6
REMARK VINA RESULT:    -6.003      9.453     12.330
REMARK INTER + INTRA:          -7.093
REMARK INTER:                  -7.217
REMARK INTRA:                   0.125
REMARK UNBOUND:                -0.213
REMARK SMILES O=c1c(-c2ccc(O)cc2)coc2c(O)c(O)ccc12
REMARK SMILES IDX 3 1 11 2 12 3 13 4 20 5 2 6 1 7 19 8 18 9 16 10 14 11 4 12
REMARK SMILES IDX 5 13 6 14 7 15 10 16 9 17 8 18 15 20 17 22
REMARK H PARENT 8 19 15 21 17 23
REMARK Flexibility Score: inf
ROOT
ATOM      1  C   UNL     1     -20.499  54.604   3.249  1.00  0.00     0.065 A 
ATOM      2  C   UNL     1     -21.561  55.070   4.036  1.00  0.00     0.208 A 
ATOM      3  O   UNL     1     -22.453  54.230   4.547  1.00  0.00    -0.459 OA
ATOM      4  C   UNL     1     -22.403  52.916   4.350  1.00  0.00     0.183 A 
ATOM      5  C   UNL     1     -21.369  52.357   3.564  1.00  0.00     0.069 A 
ATOM      6  C   UNL     1     -20.411  53.221   3.004  1.00  0.00     0.200 A 
ATOM      7  O   UNL     1     -19.491  52.761   2.272  1.00  0.00    -0.288 OA
ATOM      8  C   UNL     1     -21.329  50.966   3.361  1.00  0.00     0.020 A 
ATOM      9  C   UNL     1     -22.303  50.145   3.933  1.00  0.00     0.051 A 
ATOM     10  C   UNL     1     -23.326  50.697   4.713  1.00  0.00     0.161 A 
ATOM     11  C   UNL     1     -23.380  52.081   4.924  1.00  0.00     0.201 A 
ENDROOT
BRANCH   1  12
ATOM     12  C   UNL     1     -19.510  55.564   2.695  1.00  0.00    -0.011 A 
ATOM     13  C   UNL     1     -19.145  55.500   1.338  1.00  0.00     0.013 A 
ATOM     14  C   UNL     1     -18.221  56.408   0.811  1.00  0.00     0.047 A 
ATOM     15  C   UNL     1     -17.655  57.391   1.628  1.00  0.00     0.115 A 
ATOM     16  C   UNL     1     -18.943  56.560   3.509  1.00  0.00     0.013 A 
ATOM     17  C   UNL     1     -18.020  57.466   2.979  1.00  0.00     0.047 A 
BRANCH  15  18
ATOM     18  O   UNL     1     -16.736  58.289   1.090  1.00  0.00    -0.508 OA
ATOM     19  H   UNL     1     -17.016  59.213   0.783  1.00  0.00     0.293 HD
ENDBRANCH  15  18
ENDBRANCH   1  12
BRANCH  11  20
ATOM     20  O   UNL     1     -24.408  52.612   5.703  1.00  0.00    -0.502 OA
ATOM     21  H   UNL     1     -25.256  52.987   5.296  1.00  0.00     0.293 HD
ENDBRANCH  11  20
BRANCH  10  22
ATOM     22  O   UNL     1     -24.297  49.875   5.284  1.00  0.00    -0.504 OA
ATOM     23  H   UNL     1     -24.137  49.395   6.162  1.00  0.00     0.293 HD
ENDBRANCH  10  22
TORSDOF 4
ENDMDL
MODEL 7
REMARK VINA RESULT:    -5.930      9.470     12.122
REMARK INTER + INTRA:          -7.010
REMARK INTER:                  -6.737
REMARK INTRA:                  -0.273
REMARK UNBOUND:                -0.213
REMARK SMILES O=c1c(-c2ccc(O)cc2)coc2c(O)c(O)ccc12
REMARK SMILES IDX 3 1 11 2 12 3 13 4 20 5 2 6 1 7 19 8 18 9 16 10 14 11 4 12
REMARK SMILES IDX 5 13 6 14 7 15 10 16 9 17 8 18 15 20 17 22
REMARK H PARENT 8 19 15 21 17 23
REMARK Flexibility Score: inf
ROOT
ATOM      1  C   UNL     1     -21.347  54.198   3.469  1.00  0.00     0.065 A 
ATOM      2  C   UNL     1     -21.082  53.052   4.233  1.00  0.00     0.208 A 
ATOM      3  O   UNL     1     -22.053  52.203   4.550  1.00  0.00    -0.459 OA
ATOM      4  C   UNL     1     -23.317  52.378   4.176  1.00  0.00     0.183 A 
ATOM      5  C   UNL     1     -23.677  53.510   3.408  1.00  0.00     0.069 A 
ATOM      6  C   UNL     1     -22.674  54.431   3.059  1.00  0.00     0.200 A 
ATOM      7  O   UNL     1     -22.964  55.468   2.401  1.00  0.00    -0.288 OA
ATOM      8  C   UNL     1     -25.018  53.685   3.022  1.00  0.00     0.020 A 
ATOM      9  C   UNL     1     -25.984  52.747   3.393  1.00  0.00     0.051 A 
ATOM     10  C   UNL     1     -25.627  51.625   4.151  1.00  0.00     0.161 A 
ATOM     11  C   UNL     1     -24.295  51.438   4.545  1.00  0.00     0.201 A 
ENDROOT
BRANCH   1  12
ATOM     12  C   UNL     1     -20.243  55.128   3.121  1.00  0.00    -0.011 A 
ATOM     13  C   UNL     1     -19.819  56.100   4.044  1.00  0.00     0.013 A 
ATOM     14  C   UNL     1     -18.773  56.972   3.723  1.00  0.00     0.047 A 
ATOM     15  C   UNL     1     -18.137  56.881   2.481  1.00  0.00     0.115 A 
ATOM     16  C   UNL     1     -19.594  55.037   1.877  1.00  0.00     0.013 A 
ATOM     17  C   UNL     1     -18.550  55.910   1.559  1.00  0.00     0.047 A 
BRANCH  15  18
ATOM     18  O   UNL     1     -17.097  57.756   2.174  1.00  0.00    -0.508 OA
ATOM     19  H   UNL     1     -17.094  58.712   2.508  1.00  0.00     0.293 HD
ENDBRANCH  15  18
ENDBRANCH   1  12
BRANCH  11  20
ATOM     20  O   UNL     1     -23.961  50.314   5.301  1.00  0.00    -0.502 OA
ATOM     21  H   UNL     1     -23.235  49.668   5.017  1.00  0.00     0.293 HD
ENDBRANCH  11  20
BRANCH  10  22
ATOM     22  O   UNL     1     -26.593  50.690   4.520  1.00  0.00    -0.504 OA
ATOM     23  H   UNL     1     -26.370  49.904   5.119  1.00  0.00     0.293 HD
ENDBRANCH  10  22
TORSDOF 4
ENDMDL
MODEL 8
REMARK VINA RESULT:    -5.878      6.866     10.316
REMARK INTER + INTRA:          -6.950
REMARK INTER:                  -6.727
REMARK INTRA:                  -0.223
REMARK UNBOUND:                -0.213
REMARK SMILES O=c1c(-c2ccc(O)cc2)coc2c(O)c(O)ccc12
REMARK SMILES IDX 3 1 11 2 12 3 13 4 20 5 2 6 1 7 19 8 18 9 16 10 14 11 4 12
REMARK SMILES IDX 5 13 6 14 7 15 10 16 9 17 8 18 15 20 17 22
REMARK H PARENT 8 19 15 21 17 23
REMARK Flexibility Score: inf
ROOT
ATOM      1  C   UNL     1     -18.803  57.776   1.261  1.00  0.00     0.065 A 
ATOM      2  C   UNL     1     -19.100  56.711   0.399  1.00  0.00     0.208 A 
ATOM      3  O   UNL     1     -19.432  55.517   0.877  1.00  0.00    -0.459 OA
ATOM      4  C   UNL     1     -19.503  55.255   2.178  1.00  0.00     0.183 A 
ATOM      5  C   UNL     1     -19.214  56.268   3.122  1.00  0.00     0.069 A 
ATOM      6  C   UNL     1     -18.854  57.542   2.648  1.00  0.00     0.200 A 
ATOM      7  O   UNL     1     -18.561  58.462   3.461  1.00  0.00    -0.288 OA
ATOM      8  C   UNL     1     -19.289  55.975   4.495  1.00  0.00     0.020 A 
ATOM      9  C   UNL     1     -19.648  54.695   4.922  1.00  0.00     0.051 A 
ATOM     10  C   UNL     1     -19.935  53.691   3.988  1.00  0.00     0.161 A 
ATOM     11  C   UNL     1     -19.863  53.967   2.617  1.00  0.00     0.201 A 
ENDROOT
BRANCH   1  12
ATOM     12  C   UNL     1     -18.442  59.104   0.702  1.00  0.00    -0.011 A 
ATOM     13  C   UNL     1     -19.372  60.158   0.726  1.00  0.00     0.013 A 
ATOM     14  C   UNL     1     -19.032  61.413   0.208  1.00  0.00     0.047 A 
ATOM     15  C   UNL     1     -17.761  61.630  -0.333  1.00  0.00     0.115 A 
ATOM     16  C   UNL     1     -17.163  59.331   0.163  1.00  0.00     0.013 A 
ATOM     17  C   UNL     1     -16.827  60.586  -0.353  1.00  0.00     0.047 A 
BRANCH  15  18
ATOM     18  O   UNL     1     -17.436  62.884  -0.845  1.00  0.00    -0.508 OA
ATOM     19  H   UNL     1     -18.151  63.533  -1.149  1.00  0.00     0.293 HD
ENDBRANCH  15  18
ENDBRANCH   1  12
BRANCH  11  20
ATOM     20  O   UNL     1     -20.153  52.953   1.703  1.00  0.00    -0.502 OA
ATOM     21  H   UNL     1     -19.427  52.411   1.251  1.00  0.00     0.293 HD
ENDBRANCH  11  20
BRANCH  10  22
ATOM     22  O   UNL     1     -20.293  52.414   4.417  1.00  0.00    -0.504 OA
ATOM     23  H   UNL     1     -20.362  51.637   3.771  1.00  0.00     0.293 HD
ENDBRANCH  10  22
TORSDOF 4
ENDMDL
MODEL 9
REMARK VINA RESULT:    -5.705      9.280     11.438
REMARK INTER + INTRA:          -6.751
REMARK INTER:                  -6.721
REMARK INTRA:                  -0.030
REMARK UNBOUND:                -0.213
REMARK SMILES O=c1c(-c2ccc(O)cc2)coc2c(O)c(O)ccc12
REMARK SMILES IDX 3 1 11 2 12 3 13 4 20 5 2 6 1 7 19 8 18 9 16 10 14 11 4 12
REMARK SMILES IDX 5 13 6 14 7 15 10 16 9 17 8 18 15 20 17 22
REMARK H PARENT 8 19 15 21 17 23
REMARK Flexibility Score: inf
ROOT
ATOM      1  C   UNL     1     -20.843  54.081   3.604  1.00  0.00     0.065 A 
ATOM      2  C   UNL     1     -20.425  55.007   4.570  1.00  0.00     0.208 A 
ATOM      3  O   UNL     1     -19.598  55.997   4.255  1.00  0.00    -0.459 OA
ATOM      4  C   UNL     1     -19.118  56.174   3.028  1.00  0.00     0.183 A 
ATOM      5  C   UNL     1     -19.481  55.284   1.991  1.00  0.00     0.069 A 
ATOM      6  C   UNL     1     -20.352  54.221   2.292  1.00  0.00     0.200 A 
ATOM      7  O   UNL     1     -20.674  53.390   1.399  1.00  0.00    -0.288 OA
ATOM      8  C   UNL     1     -18.964  55.480   0.698  1.00  0.00     0.020 A 
ATOM      9  C   UNL     1     -18.099  56.547   0.442  1.00  0.00     0.051 A 
ATOM     10  C   UNL     1     -17.740  57.430   1.469  1.00  0.00     0.161 A 
ATOM     11  C   UNL     1     -18.247  57.246   2.762  1.00  0.00     0.201 A 
ENDROOT
BRANCH   1  12
ATOM     12  C   UNL     1     -21.774  52.987   3.980  1.00  0.00    -0.011 A 
ATOM     13  C   UNL     1     -23.045  53.287   4.502  1.00  0.00     0.013 A 
ATOM     14  C   UNL     1     -23.928  52.259   4.849  1.00  0.00     0.047 A 
ATOM     15  C   UNL     1     -23.556  50.923   4.674  1.00  0.00     0.115 A 
ATOM     16  C   UNL     1     -21.410  51.640   3.800  1.00  0.00     0.013 A 
ATOM     17  C   UNL     1     -22.295  50.616   4.147  1.00  0.00     0.047 A 
BRANCH  15  18
ATOM     18  O   UNL     1     -24.446  49.909   5.024  1.00  0.00    -0.508 OA
ATOM     19  H   UNL     1     -24.511  49.053   4.486  1.00  0.00     0.293 HD
ENDBRANCH  15  18
ENDBRANCH   1  12
BRANCH  11  20
ATOM     20  O   UNL     1     -17.876  58.136   3.770  1.00  0.00    -0.502 OA
ATOM     21  H   UNL     1     -18.559  58.632   4.330  1.00  0.00     0.293 HD
ENDBRANCH  11  20
BRANCH  10  22
ATOM     22  O   UNL     1     -16.878  58.493   1.211  1.00  0.00    -0.504 OA
ATOM     23  H   UNL     1     -17.028  59.122   0.430  1.00  0.00     0.293 HD
ENDBRANCH  10  22
TORSDOF 4
ENDMDL
