MODEL 1
REMARK VINA RESULT:    -4.042      0.000      0.000
REMARK INTER + INTRA:          -3.976
REMARK INTER:                  -4.987
REMARK INTRA:                   1.011
REMARK UNBOUND:                 1.011
REMARK SMILES C=C1[C@@H]2CC[C@H]3[C@@H]2C(C)(C)CCC[C@@]13C
REMARK SMILES IDX 14 1 6 2 7 3 3 4 2 5 1 6 4 7 5 8 15 9 8 10 9 11 10 12 11 13
REMARK SMILES IDX 13 15 12 16
REMARK H PARENT
REMARK Flexibility Score: 80.00
ROOT
ATOM      1  C   UNL     1     168.107 163.394 199.195  1.00  0.00    -0.008 C 
ATOM      2  C   UNL     1     167.258 162.163 199.697  1.00  0.00     0.003 C 
ATOM      3  C   UNL     1     165.804 162.687 199.749  1.00  0.00     0.006 C 
ATOM      4  C   UNL     1     166.160 163.907 200.589  1.00  0.00     0.019 C 
ATOM      5  C   UNL     1     167.283 164.511 199.794  1.00  0.00    -0.068 C 
ATOM      6  C   UNL     1     167.553 165.822 199.731  1.00  0.00     0.009 C 
ATOM      7  C   UNL     1     166.802 163.231 201.823  1.00  0.00     0.008 C 
ATOM      8  C   UNL     1     167.475 161.972 201.223  1.00  0.00     0.005 C 
ATOM      9  C   UNL     1     169.552 163.441 199.763  1.00  0.00     0.016 C 
ENDROOT
BRANCH   3  10
ATOM     10  C   UNL     1     164.977 162.893 198.423  1.00  0.00    -0.032 C 
ATOM     11  C   UNL     1     164.503 161.502 197.923  1.00  0.00     0.011 C 
ATOM     12  C   UNL     1     163.699 163.704 198.752  1.00  0.00     0.011 C 
BRANCH  10  13
ATOM     13  C   UNL     1     165.713 163.644 197.279  1.00  0.00     0.007 CG0
ATOM     14  G   UNL     1     167.019 162.990 196.827  1.00  0.00     0.000 G0
ENDBRANCH  10  13
ENDBRANCH   3  10
BRANCH   1  15
ATOM     15  C   UNL     1     168.223 163.488 197.646  1.00  0.00     0.011 C 
BRANCH  15  16
ATOM     16  C   UNL     1     167.026 163.006 196.829  1.00  0.00     0.001 CG0
ATOM     17  G   UNL     1     165.707 163.641 197.270  1.00  0.00     0.000 G0
ENDBRANCH  15  16
ENDBRANCH   1  15
TORSDOF 0
ENDMDL
MODEL 2
REMARK VINA RESULT:    -4.039      4.327      6.505
REMARK INTER + INTRA:          -3.972
REMARK INTER:                  -4.983
REMARK INTRA:                   1.011
REMARK UNBOUND:                 1.011
REMARK SMILES C=C1[C@@H]2CC[C@H]3[C@@H]2C(C)(C)CCC[C@@]13C
REMARK SMILES IDX 14 1 6 2 7 3 3 4 2 5 1 6 4 7 5 8 15 9 8 10 9 11 10 12 11 13
REMARK SMILES IDX 13 15 12 16
REMARK H PARENT
REMARK Flexibility Score: 80.00
ROOT
ATOM      1  C   UNL     1     163.866 168.574 199.154  1.00  0.00    -0.008 C 
ATOM      2  C   UNL     1     164.730 169.783 199.682  1.00  0.00     0.003 C 
ATOM      3  C   UNL     1     166.178 169.242 199.720  1.00  0.00     0.006 C 
ATOM      4  C   UNL     1     165.809 168.007 200.533  1.00  0.00     0.019 C 
ATOM      5  C   UNL     1     164.679 167.434 199.726  1.00  0.00    -0.068 C 
ATOM      6  C   UNL     1     164.394 166.128 199.634  1.00  0.00     0.009 C 
ATOM      7  C   UNL     1     165.177 168.663 201.783  1.00  0.00     0.008 C 
ATOM      8  C   UNL     1     164.516 169.943 201.212  1.00  0.00     0.005 C 
ATOM      9  C   UNL     1     162.421 168.530 199.722  1.00  0.00     0.016 C 
ENDROOT
BRANCH   3  10
ATOM     10  C   UNL     1     167.001 169.056 198.389  1.00  0.00    -0.032 C 
ATOM     11  C   UNL     1     167.491 170.453 197.919  1.00  0.00     0.011 C 
ATOM     12  C   UNL     1     168.270 168.224 198.698  1.00  0.00     0.011 C 
BRANCH  10  13
ATOM     13  C   UNL     1     166.256 168.340 197.229  1.00  0.00     0.007 CG0
ATOM     14  G   UNL     1     164.946 169.007 196.808  1.00  0.00     0.000 G0
ENDBRANCH  10  13
ENDBRANCH   3  10
BRANCH   1  15
ATOM     15  C   UNL     1     163.748 168.516 197.603  1.00  0.00     0.011 C 
BRANCH  15  16
ATOM     16  C   UNL     1     164.949 169.003 196.795  1.00  0.00     0.001 CG0
ATOM     17  G   UNL     1     166.262 168.346 197.223  1.00  0.00     0.000 G0
ENDBRANCH  15  16
ENDBRANCH   1  15
TORSDOF 0
ENDMDL
MODEL 3
REMARK VINA RESULT:    -4.005      2.594      4.190
REMARK INTER + INTRA:          -3.930
REMARK INTER:                  -4.952
REMARK INTRA:                   1.022
REMARK UNBOUND:                 1.011
REMARK SMILES C=C1[C@@H]2CC[C@H]3[C@@H]2C(C)(C)CCC[C@@]13C
REMARK SMILES IDX 14 1 6 2 7 3 3 4 2 5 1 6 4 7 5 8 15 9 8 10 9 11 10 12 11 13
REMARK SMILES IDX 13 15 12 16
REMARK H PARENT
REMARK Flexibility Score: 80.00
ROOT
ATOM      1  C   UNL     1     167.533 165.229 199.377  1.00  0.00    -0.008 C 
ATOM      2  C   UNL     1     167.366 163.670 199.554  1.00  0.00     0.003 C 
ATOM      3  C   UNL     1     168.155 163.337 200.842  1.00  0.00     0.006 C 
ATOM      4  C   UNL     1     169.425 164.034 200.372  1.00  0.00     0.019 C 
ATOM      5  C   UNL     1     168.907 165.391 199.987  1.00  0.00    -0.068 C 
ATOM      6  C   UNL     1     169.608 166.529 200.078  1.00  0.00     0.009 C 
ATOM      7  C   UNL     1     169.703 163.273 199.055  1.00  0.00     0.008 C 
ATOM      8  C   UNL     1     168.282 162.933 198.540  1.00  0.00     0.005 C 
ATOM      9  C   UNL     1     167.552 165.700 197.897  1.00  0.00     0.016 C 
ENDROOT
BRANCH   3  10
ATOM     10  C   UNL     1     167.569 163.700 202.260  1.00  0.00    -0.032 C 
ATOM     11  C   UNL     1     166.462 162.669 202.608  1.00  0.00     0.011 C 
ATOM     12  C   UNL     1     168.684 163.527 203.320  1.00  0.00     0.011 C 
BRANCH  10  13
ATOM     13  C   UNL     1     167.014 165.143 202.410  1.00  0.00     0.007 CG0
ATOM     14  G   UNL     1     165.908 165.506 201.419  1.00  0.00     0.000 G0
ENDBRANCH  10  13
ENDBRANCH   3  10
BRANCH   1  15
ATOM     15  C   UNL     1     166.441 166.064 200.107  1.00  0.00     0.011 C 
BRANCH  15  16
ATOM     16  C   UNL     1     165.909 165.511 201.427  1.00  0.00     0.001 CG0
ATOM     17  G   UNL     1     167.019 165.145 202.413  1.00  0.00     0.000 G0
ENDBRANCH  15  16
ENDBRANCH   1  15
TORSDOF 0
ENDMDL
MODEL 4
REMARK VINA RESULT:    -3.930      4.092      6.191
REMARK INTER + INTRA:          -3.838
REMARK INTER:                  -4.860
REMARK INTRA:                   1.022
REMARK UNBOUND:                 1.011
REMARK SMILES C=C1[C@@H]2CC[C@H]3[C@@H]2C(C)(C)CCC[C@@]13C
REMARK SMILES IDX 14 1 6 2 7 3 3 4 2 5 1 6 4 7 5 8 15 9 8 10 9 11 10 12 11 13
REMARK SMILES IDX 13 15 12 16
REMARK H PARENT
REMARK Flexibility Score: 80.00
ROOT
ATOM      1  C   UNL     1     164.343 166.619 199.137  1.00  0.00    -0.008 C 
ATOM      2  C   UNL     1     164.631 168.159 199.322  1.00  0.00     0.003 C 
ATOM      3  C   UNL     1     164.009 168.512 200.692  1.00  0.00     0.006 C 
ATOM      4  C   UNL     1     162.652 167.909 200.352  1.00  0.00     0.019 C 
ATOM      5  C   UNL     1     163.035 166.531 199.890  1.00  0.00    -0.068 C 
ATOM      6  C   UNL     1     162.272 165.439 200.037  1.00  0.00     0.009 C 
ATOM      7  C   UNL     1     162.286 168.717 199.086  1.00  0.00     0.008 C 
ATOM      8  C   UNL     1     163.662 168.978 198.426  1.00  0.00     0.005 C 
ATOM      9  C   UNL     1     164.134 166.186 197.660  1.00  0.00     0.016 C 
ENDROOT
BRANCH   3  10
ATOM     10  C   UNL     1     164.718 168.078 202.032  1.00  0.00    -0.032 C 
ATOM     11  C   UNL     1     165.925 169.024 202.273  1.00  0.00     0.011 C 
ATOM     12  C   UNL     1     163.739 168.301 203.211  1.00  0.00     0.011 C 
BRANCH  10  13
ATOM     13  C   UNL     1     165.185 166.598 202.099  1.00  0.00     0.007 CG0
ATOM     14  G   UNL     1     166.160 166.188 200.995  1.00  0.00     0.000 G0
ENDBRANCH  10  13
ENDBRANCH   3  10
BRANCH   1  15
ATOM     15  C   UNL     1     165.448 165.698 199.730  1.00  0.00     0.011 C 
BRANCH  15  16
ATOM     16  C   UNL     1     166.153 166.183 200.996  1.00  0.00     0.001 CG0
ATOM     17  G   UNL     1     165.180 166.603 202.097  1.00  0.00     0.000 G0
ENDBRANCH  15  16
ENDBRANCH   1  15
TORSDOF 0
ENDMDL
MODEL 5
REMARK VINA RESULT:    -3.903      3.867      5.814
REMARK INTER + INTRA:          -3.805
REMARK INTER:                  -4.827
REMARK INTRA:                   1.022
REMARK UNBOUND:                 1.011
REMARK SMILES C=C1[C@@H]2CC[C@H]3[C@@H]2C(C)(C)CCC[C@@]13C
REMARK SMILES IDX 14 1 6 2 7 3 3 4 2 5 1 6 4 7 5 8 15 9 8 10 9 11 10 12 11 13
REMARK SMILES IDX 13 15 12 16
REMARK H PARENT
REMARK Flexibility Score: 80.00
ROOT
ATOM      1  C   UNL     1     164.577 168.423 200.505  1.00  0.00    -0.008 C 
ATOM      2  C   UNL     1     163.073 167.956 200.585  1.00  0.00     0.003 C 
ATOM      3  C   UNL     1     163.060 166.563 199.914  1.00  0.00     0.006 C 
ATOM      4  C   UNL     1     163.761 167.047 198.651  1.00  0.00     0.019 C 
ATOM      5  C   UNL     1     164.970 167.738 199.216  1.00  0.00    -0.068 C 
ATOM      6  C   UNL     1     166.160 167.813 198.604  1.00  0.00     0.009 C 
ATOM      7  C   UNL     1     162.789 168.157 198.188  1.00  0.00     0.008 C 
ATOM      8  C   UNL     1     162.237 168.718 199.522  1.00  0.00     0.005 C 
ATOM      9  C   UNL     1     164.757 169.959 200.364  1.00  0.00     0.016 C 
ENDROOT
BRANCH   3  10
ATOM     10  C   UNL     1     163.635 165.303 200.666  1.00  0.00    -0.032 C 
ATOM     11  C   UNL     1     162.600 164.857 201.734  1.00  0.00     0.011 C 
ATOM     12  C   UNL     1     163.763 164.134 199.659  1.00  0.00     0.011 C 
BRANCH  10  13
ATOM     13  C   UNL     1     165.028 165.491 201.328  1.00  0.00     0.007 CG0
ATOM     14  G   UNL     1     165.097 166.620 202.356  1.00  0.00     0.000 G0
ENDBRANCH  10  13
ENDBRANCH   3  10
BRANCH   1  15
ATOM     15  C   UNL     1     165.441 167.973 201.719  1.00  0.00     0.011 C 
BRANCH  15  16
ATOM     16  C   UNL     1     165.105 166.622 202.349  1.00  0.00     0.001 CG0
ATOM     17  G   UNL     1     165.026 165.489 201.325  1.00  0.00     0.000 G0
ENDBRANCH  15  16
ENDBRANCH   1  15
TORSDOF 0
ENDMDL
MODEL 6
REMARK VINA RESULT:    -3.887      1.677      4.216
REMARK INTER + INTRA:          -3.785
REMARK INTER:                  -4.801
REMARK INTRA:                   1.016
REMARK UNBOUND:                 1.011
REMARK SMILES C=C1[C@@H]2CC[C@H]3[C@@H]2C(C)(C)CCC[C@@]13C
REMARK SMILES IDX 14 1 6 2 7 3 3 4 2 5 1 6 4 7 5 8 15 9 8 10 9 11 10 12 11 13
REMARK SMILES IDX 13 15 12 16
REMARK H PARENT
REMARK Flexibility Score: 80.00
ROOT
ATOM      1  C   UNL     1     164.161 163.753 198.955  1.00  0.00    -0.008 C 
ATOM      2  C   UNL     1     164.799 162.315 199.083  1.00  0.00     0.003 C 
ATOM      3  C   UNL     1     166.312 162.538 198.856  1.00  0.00     0.006 C 
ATOM      4  C   UNL     1     166.114 163.295 197.549  1.00  0.00     0.019 C 
ATOM      5  C   UNL     1     165.122 164.350 197.953  1.00  0.00    -0.068 C 
ATOM      6  C   UNL     1     165.054 165.576 197.417  1.00  0.00     0.009 C 
ATOM      7  C   UNL     1     165.336 162.245 196.723  1.00  0.00     0.008 C 
ATOM      8  C   UNL     1     164.502 161.501 197.795  1.00  0.00     0.005 C 
ATOM      9  C   UNL     1     162.721 163.757 198.375  1.00  0.00     0.016 C 
ENDROOT
BRANCH   3  10
ATOM     10  C   UNL     1     167.206 163.186 199.981  1.00  0.00    -0.032 C 
ATOM     11  C   UNL     1     167.477 162.111 201.068  1.00  0.00     0.011 C 
ATOM     12  C   UNL     1     168.582 163.557 199.375  1.00  0.00     0.011 C 
BRANCH  10  13
ATOM     13  C   UNL     1     166.635 164.471 200.640  1.00  0.00     0.007 CG0
ATOM     14  G   UNL     1     165.257 164.299 201.280  1.00  0.00     0.000 G0
ENDBRANCH  10  13
ENDBRANCH   3  10
BRANCH   1  15
ATOM     15  C   UNL     1     164.115 164.541 200.296  1.00  0.00     0.011 C 
BRANCH  15  16
ATOM     16  C   UNL     1     165.260 164.309 201.280  1.00  0.00     0.001 CG0
ATOM     17  G   UNL     1     166.639 164.466 200.638  1.00  0.00     0.000 G0
ENDBRANCH  15  16
ENDBRANCH   1  15
TORSDOF 0
ENDMDL
MODEL 7
REMARK VINA RESULT:    -3.848      4.125      6.058
REMARK INTER + INTRA:          -3.736
REMARK INTER:                  -4.758
REMARK INTRA:                   1.022
REMARK UNBOUND:                 1.011
REMARK SMILES C=C1[C@@H]2CC[C@H]3[C@@H]2C(C)(C)CCC[C@@]13C
REMARK SMILES IDX 14 1 6 2 7 3 3 4 2 5 1 6 4 7 5 8 15 9 8 10 9 11 10 12 11 13
REMARK SMILES IDX 13 15 12 16
REMARK H PARENT
REMARK Flexibility Score: 80.00
ROOT
ATOM      1  C   UNL     1     167.618 167.787 199.188  1.00  0.00    -0.008 C 
ATOM      2  C   UNL     1     167.326 169.285 199.586  1.00  0.00     0.003 C 
ATOM      3  C   UNL     1     165.833 169.496 199.243  1.00  0.00     0.006 C 
ATOM      4  C   UNL     1     165.976 168.980 197.817  1.00  0.00     0.019 C 
ATOM      5  C   UNL     1     166.648 167.654 198.036  1.00  0.00    -0.068 C 
ATOM      6  C   UNL     1     166.480 166.577 197.257  1.00  0.00     0.009 C 
ATOM      7  C   UNL     1     167.056 169.942 197.270  1.00  0.00     0.008 C 
ATOM      8  C   UNL     1     167.931 170.233 198.515  1.00  0.00     0.005 C 
ATOM      9  C   UNL     1     169.068 167.535 198.690  1.00  0.00     0.016 C 
ENDROOT
BRANCH   3  10
ATOM     10  C   UNL     1     164.704 168.888 200.161  1.00  0.00    -0.032 C 
ATOM     11  C   UNL     1     164.591 169.762 201.439  1.00  0.00     0.011 C 
ATOM     12  C   UNL     1     163.346 169.001 199.426  1.00  0.00     0.011 C 
BRANCH  10  13
ATOM     13  C   UNL     1     164.888 167.396 200.555  1.00  0.00     0.007 CG0
ATOM     14  G   UNL     1     166.198 167.086 201.278  1.00  0.00     0.000 G0
ENDBRANCH  10  13
ENDBRANCH   3  10
BRANCH   1  15
ATOM     15  C   UNL     1     167.345 166.768 200.333  1.00  0.00     0.011 C 
BRANCH  15  16
ATOM     16  C   UNL     1     166.190 167.081 201.282  1.00  0.00     0.001 CG0
ATOM     17  G   UNL     1     164.886 167.401 200.551  1.00  0.00     0.000 G0
ENDBRANCH  15  16
ENDBRANCH   1  15
TORSDOF 0
ENDMDL
MODEL 8
REMARK VINA RESULT:    -3.841      2.275      3.931
REMARK INTER + INTRA:          -3.728
REMARK INTER:                  -4.751
REMARK INTRA:                   1.022
REMARK UNBOUND:                 1.011
REMARK SMILES C=C1[C@@H]2CC[C@H]3[C@@H]2C(C)(C)CCC[C@@]13C
REMARK SMILES IDX 14 1 6 2 7 3 3 4 2 5 1 6 4 7 5 8 15 9 8 10 9 11 10 12 11 13
REMARK SMILES IDX 13 15 12 16
REMARK H PARENT
REMARK Flexibility Score: 80.00
ROOT
ATOM      1  C   UNL     1     165.923 163.890 198.953  1.00  0.00    -0.008 C 
ATOM      2  C   UNL     1     164.430 164.176 198.532  1.00  0.00     0.003 C 
ATOM      3  C   UNL     1     163.620 164.028 199.841  1.00  0.00     0.006 C 
ATOM      4  C   UNL     1     164.191 162.653 200.165  1.00  0.00     0.019 C 
ATOM      5  C   UNL     1     165.669 162.905 200.071  1.00  0.00    -0.068 C 
ATOM      6  C   UNL     1     166.598 162.266 200.796  1.00  0.00     0.009 C 
ATOM      7  C   UNL     1     163.791 161.868 198.895  1.00  0.00     0.008 C 
ATOM      8  C   UNL     1     163.858 162.943 197.781  1.00  0.00     0.005 C 
ATOM      9  C   UNL     1     166.777 163.220 197.841  1.00  0.00     0.016 C 
ENDROOT
BRANCH   3  10
ATOM     10  C   UNL     1     163.669 165.151 200.947  1.00  0.00    -0.032 C 
ATOM     11  C   UNL     1     162.789 166.339 200.475  1.00  0.00     0.011 C 
ATOM     12  C   UNL     1     163.017 164.605 202.242  1.00  0.00     0.011 C 
BRANCH  10  13
ATOM     13  C   UNL     1     165.086 165.660 201.328  1.00  0.00     0.007 CG0
ATOM     14  G   UNL     1     165.895 166.223 200.159  1.00  0.00     0.000 G0
ENDBRANCH  10  13
ENDBRANCH   3  10
BRANCH   1  15
ATOM     15  C   UNL     1     166.697 165.156 199.422  1.00  0.00     0.011 C 
BRANCH  15  16
ATOM     16  C   UNL     1     165.897 166.225 200.163  1.00  0.00     0.001 CG0
ATOM     17  G   UNL     1     165.092 165.664 201.335  1.00  0.00     0.000 G0
ENDBRANCH  15  16
ENDBRANCH   1  15
TORSDOF 0
ENDMDL
MODEL 9
REMARK VINA RESULT:    -3.822      1.902      4.053
REMARK INTER + INTRA:          -3.705
REMARK INTER:                  -4.727
REMARK INTRA:                   1.023
REMARK UNBOUND:                 1.011
REMARK SMILES C=C1[C@@H]2CC[C@H]3[C@@H]2C(C)(C)CCC[C@@]13C
REMARK SMILES IDX 14 1 6 2 7 3 3 4 2 5 1 6 4 7 5 8 15 9 8 10 9 11 10 12 11 13
REMARK SMILES IDX 13 15 12 16
REMARK H PARENT
REMARK Flexibility Score: 80.00
ROOT
ATOM      1  C   UNL     1     166.841 163.793 199.466  1.00  0.00    -0.008 C 
ATOM      2  C   UNL     1     167.900 164.489 200.405  1.00  0.00     0.003 C 
ATOM      3  C   UNL     1     168.692 165.431 199.470  1.00  0.00     0.006 C 
ATOM      4  C   UNL     1     169.005 164.338 198.457  1.00  0.00     0.019 C 
ATOM      5  C   UNL     1     167.640 163.773 198.182  1.00  0.00    -0.068 C 
ATOM      6  C   UNL     1     167.255 163.244 197.013  1.00  0.00     0.009 C 
ATOM      7  C   UNL     1     169.739 163.314 199.354  1.00  0.00     0.008 C 
ATOM      8  C   UNL     1     169.044 163.489 200.727  1.00  0.00     0.005 C 
ATOM      9  C   UNL     1     166.479 162.342 199.886  1.00  0.00     0.016 C 
ENDROOT
BRANCH   3  10
ATOM     10  C   UNL     1     168.053 166.779 198.960  1.00  0.00    -0.032 C 
ATOM     11  C   UNL     1     168.096 167.809 200.121  1.00  0.00     0.011 C 
ATOM     12  C   UNL     1     168.938 167.354 197.826  1.00  0.00     0.011 C 
BRANCH  10  13
ATOM     13  C   UNL     1     166.608 166.672 198.402  1.00  0.00     0.007 CG0
ATOM     14  G   UNL     1     165.586 166.104 199.387  1.00  0.00     0.000 G0
ENDBRANCH  10  13
ENDBRANCH   3  10
BRANCH   1  15
ATOM     15  C   UNL     1     165.503 164.577 199.337  1.00  0.00     0.011 C 
BRANCH  15  16
ATOM     16  C   UNL     1     165.584 166.102 199.384  1.00  0.00     0.001 CG0
ATOM     17  G   UNL     1     166.608 166.676 198.405  1.00  0.00     0.000 G0
ENDBRANCH  15  16
ENDBRANCH   1  15
TORSDOF 0
ENDMDL
