MODEL 1
REMARK VINA RESULT:    18.608      0.000      0.000
REMARK INTER + INTRA:          20.042
REMARK INTER:                  20.240
REMARK INTRA:                  -0.197
REMARK UNBOUND:                -0.197
REMARK SMILES CC1=CCC[C@]2(C)CC[C@@H](C(C)(C)O)C[C@@H]12
REMARK SMILES IDX 11 1 12 2 13 3 10 4 1 5 2 6 3 7 16 8 4 9 6 10 15 11 5 12
REMARK SMILES IDX 7 13 8 14 9 15 14 16
REMARK H PARENT 14 17
REMARK Flexibility Score: inf
ROOT
ATOM      1  C   UNL     1     -33.250  24.860   5.669  1.00  0.00     0.062 C 
ATOM      2  C   UNL     1     -33.214  26.387   5.412  1.00  0.00     0.042 C 
ATOM      3  C   UNL     1     -32.077  24.531   6.618  1.00  0.00     0.042 C 
ENDROOT
BRANCH   1   4
ATOM      4  C   UNL     1     -34.616  24.407   6.317  1.00  0.00     0.021 C 
ATOM      5  C   UNL     1     -38.018  23.372   3.546  1.00  0.00     0.039 C 
ATOM      6  C   UNL     1     -38.007  22.885   4.977  1.00  0.00    -0.074 C 
ATOM      7  C   UNL     1     -39.051  22.150   5.424  1.00  0.00    -0.028 C 
ATOM      8  C   UNL     1     -36.938  23.370   5.956  1.00  0.00     0.021 C 
ATOM      9  C   UNL     1     -39.124  21.551   6.811  1.00  0.00     0.028 C 
ATOM     10  C   UNL     1     -36.693  22.335   7.091  1.00  0.00    -0.026 C 
ATOM     11  C   UNL     1     -35.614  23.808   5.288  1.00  0.00     0.015 C 
ATOM     12  C   UNL     1     -38.057  22.082   7.783  1.00  0.00     0.011 C 
ATOM     13  C   UNL     1     -36.122  20.988   6.564  1.00  0.00     0.012 C 
ATOM     14  C   UNL     1     -35.717  22.951   8.125  1.00  0.00     0.008 C 
ATOM     15  C   UNL     1     -34.396  23.425   7.497  1.00  0.00     0.007 C 
ENDBRANCH   1   4
BRANCH   1  16
ATOM     16  O   UNL     1     -33.017  24.171   4.462  1.00  0.00    -0.390 OA
ATOM     17  H   UNL     1     -32.819  24.836   3.754  1.00  0.00     0.211 HD
ENDBRANCH   1  16
TORSDOF 2
ENDMDL
