MODEL 1
REMARK VINA RESULT:    -3.918      0.000      0.000
REMARK INTER + INTRA:          -4.033
REMARK INTER:                  -4.033
REMARK INTRA:                   0.000
REMARK UNBOUND:                 0.000
REMARK SMILES CC1(C)[C@H]2CC[C@](C)(C2)[C@H]1O
REMARK SMILES IDX 1 1 2 2 4 3 5 4 6 5 7 6 9 7 10 8 8 9 3 10 11 11
REMARK H PARENT 11 12
REMARK Flexibility Score: inf
ROOT
ATOM      1  C   UNL     1     118.651 115.058 112.264  1.00  0.00     0.014 C 
ATOM      2  C   UNL     1     118.294 116.019 113.429  1.00  0.00    -0.006 C 
ATOM      3  C   UNL     1     119.206 117.293 113.482  1.00  0.00    -0.002 C 
ATOM      4  C   UNL     1     119.307 117.965 112.097  1.00  0.00     0.005 C 
ATOM      5  C   UNL     1     117.885 118.505 111.877  1.00  0.00     0.010 C 
ATOM      6  C   UNL     1     117.183 118.173 113.216  1.00  0.00    -0.006 C 
ATOM      7  C   UNL     1     118.326 118.304 114.198  1.00  0.00     0.013 C 
ATOM      8  C   UNL     1     116.870 116.658 113.302  1.00  0.00     0.126 C 
ATOM      9  C   UNL     1     115.984 119.075 113.529  1.00  0.00     0.014 C 
ATOM     10  C   UNL     1     118.424 115.216 114.745  1.00  0.00     0.014 C 
ENDROOT
BRANCH   8  11
ATOM     11  O   UNL     1     116.152 116.220 112.174  1.00  0.00    -0.392 OA
ATOM     12  H   UNL     1     115.953 115.259 112.324  1.00  0.00     0.211 HD
ENDBRANCH   8  11
TORSDOF 1
ENDMDL
MODEL 2
REMARK VINA RESULT:    -3.891      2.330      4.344
REMARK INTER + INTRA:          -4.004
REMARK INTER:                  -4.004
REMARK INTRA:                   0.000
REMARK UNBOUND:                 0.000
REMARK SMILES CC1(C)[C@H]2CC[C@](C)(C2)[C@H]1O
REMARK SMILES IDX 1 1 2 2 4 3 5 4 6 5 7 6 9 7 10 8 8 9 3 10 11 11
REMARK H PARENT 11 12
REMARK Flexibility Score: inf
ROOT
ATOM      1  C   UNL     1     114.685 117.978 112.142  1.00  0.00     0.014 C 
ATOM      2  C   UNL     1     114.961 117.043 113.349  1.00  0.00    -0.006 C 
ATOM      3  C   UNL     1     114.073 115.750 113.344  1.00  0.00    -0.002 C 
ATOM      4  C   UNL     1     114.105 115.056 111.967  1.00  0.00     0.005 C 
ATOM      5  C   UNL     1     115.551 114.544 111.877  1.00  0.00     0.010 C 
ATOM      6  C   UNL     1     116.130 114.910 113.266  1.00  0.00    -0.006 C 
ATOM      7  C   UNL     1     114.910 114.769 114.149  1.00  0.00     0.013 C 
ATOM      8  C   UNL     1     116.404 116.433 113.353  1.00  0.00     0.126 C 
ATOM      9  C   UNL     1     117.315 114.039 113.694  1.00  0.00     0.014 C 
ATOM     10  C   UNL     1     114.703 117.862 114.636  1.00  0.00     0.014 C 
ENDROOT
BRANCH   8  11
ATOM     11  O   UNL     1     117.206 116.870 112.284  1.00  0.00    -0.392 OA
ATOM     12  H   UNL     1     117.397 117.830 112.451  1.00  0.00     0.211 HD
ENDBRANCH   8  11
TORSDOF 1
ENDMDL
MODEL 3
REMARK VINA RESULT:    -3.881      1.606      3.092
REMARK INTER + INTRA:          -3.994
REMARK INTER:                  -3.994
REMARK INTRA:                   0.000
REMARK UNBOUND:                 0.000
REMARK SMILES CC1(C)[C@H]2CC[C@](C)(C2)[C@H]1O
REMARK SMILES IDX 1 1 2 2 4 3 5 4 6 5 7 6 9 7 10 8 8 9 3 10 11 11
REMARK H PARENT 11 12
REMARK Flexibility Score: inf
ROOT
ATOM      1  C   UNL     1     118.189 118.571 112.465  1.00  0.00     0.014 C 
ATOM      2  C   UNL     1     117.154 118.267 113.580  1.00  0.00    -0.006 C 
ATOM      3  C   UNL     1     115.862 119.149 113.482  1.00  0.00    -0.002 C 
ATOM      4  C   UNL     1     115.289 119.143 112.050  1.00  0.00     0.005 C 
ATOM      5  C   UNL     1     114.795 117.697 111.888  1.00  0.00     0.010 C 
ATOM      6  C   UNL     1     115.044 117.092 113.291  1.00  0.00    -0.006 C 
ATOM      7  C   UNL     1     114.820 118.293 114.183  1.00  0.00     0.013 C 
ATOM      8  C   UNL     1     116.555 116.822 113.504  1.00  0.00     0.126 C 
ATOM      9  C   UNL     1     114.145 115.894 113.618  1.00  0.00     0.014 C 
ATOM     10  C   UNL     1     117.858 118.502 114.939  1.00  0.00     0.014 C 
ENDROOT
BRANCH   8  11
ATOM     11  O   UNL     1     117.087 116.043 112.460  1.00  0.00    -0.392 OA
ATOM     12  H   UNL     1     118.006 115.793 112.738  1.00  0.00     0.211 HD
ENDBRANCH   8  11
TORSDOF 1
ENDMDL
MODEL 4
REMARK VINA RESULT:    -3.870      1.625      2.919
REMARK INTER + INTRA:          -3.983
REMARK INTER:                  -3.983
REMARK INTRA:                   0.000
REMARK UNBOUND:                 0.000
REMARK SMILES CC1(C)[C@H]2CC[C@](C)(C2)[C@H]1O
REMARK SMILES IDX 1 1 2 2 4 3 5 4 6 5 7 6 9 7 10 8 8 9 3 10 11 11
REMARK H PARENT 11 12
REMARK Flexibility Score: inf
ROOT
ATOM      1  C   UNL     1     116.535 118.889 111.875  1.00  0.00     0.014 C 
ATOM      2  C   UNL     1     116.980 117.533 112.484  1.00  0.00    -0.006 C 
ATOM      3  C   UNL     1     118.346 117.017 111.912  1.00  0.00    -0.002 C 
ATOM      4  C   UNL     1     119.419 118.125 111.947  1.00  0.00     0.005 C 
ATOM      5  C   UNL     1     119.665 118.313 113.452  1.00  0.00     0.010 C 
ATOM      6  C   UNL     1     118.784 117.207 114.083  1.00  0.00    -0.006 C 
ATOM      7  C   UNL     1     118.859 116.123 113.030  1.00  0.00     0.013 C 
ATOM      8  C   UNL     1     117.288 117.604 114.017  1.00  0.00     0.126 C 
ATOM      9  C   UNL     1     119.250 116.760 115.473  1.00  0.00     0.014 C 
ATOM     10  C   UNL     1     115.859 116.506 112.192  1.00  0.00     0.014 C 
ENDROOT
BRANCH   8  11
ATOM     11  O   UNL     1     117.071 118.875 114.580  1.00  0.00    -0.392 OA
ATOM     12  H   UNL     1     116.285 119.258 114.111  1.00  0.00     0.211 HD
ENDBRANCH   8  11
TORSDOF 1
ENDMDL
MODEL 5
REMARK VINA RESULT:    -3.860      1.522      2.824
REMARK INTER + INTRA:          -3.973
REMARK INTER:                  -3.973
REMARK INTRA:                   0.000
REMARK UNBOUND:                 0.000
REMARK SMILES CC1(C)[C@H]2CC[C@](C)(C2)[C@H]1O
REMARK SMILES IDX 1 1 2 2 4 3 5 4 6 5 7 6 9 7 10 8 8 9 3 10 11 11
REMARK H PARENT 11 12
REMARK Flexibility Score: inf
ROOT
ATOM      1  C   UNL     1     115.474 117.258 111.929  1.00  0.00     0.014 C 
ATOM      2  C   UNL     1     116.393 117.359 113.175  1.00  0.00    -0.006 C 
ATOM      3  C   UNL     1     117.284 116.087 113.391  1.00  0.00    -0.002 C 
ATOM      4  C   UNL     1     118.004 115.682 112.088  1.00  0.00     0.005 C 
ATOM      5  C   UNL     1     119.000 116.832 111.878  1.00  0.00     0.010 C 
ATOM      6  C   UNL     1     118.803 117.691 113.151  1.00  0.00    -0.006 C 
ATOM      7  C   UNL     1     118.462 116.635 114.179  1.00  0.00     0.013 C 
ATOM      8  C   UNL     1     117.475 118.486 113.068  1.00  0.00     0.126 C 
ATOM      9  C   UNL     1     120.019 118.549 113.516  1.00  0.00     0.014 C 
ATOM     10  C   UNL     1     115.480 117.585 114.404  1.00  0.00     0.014 C 
ENDROOT
BRANCH   8  11
ATOM     11  O   UNL     1     117.399 119.231 111.877  1.00  0.00    -0.392 OA
ATOM     12  H   UNL     1     117.284 120.179 112.147  1.00  0.00     0.211 HD
ENDBRANCH   8  11
TORSDOF 1
ENDMDL
MODEL 6
REMARK VINA RESULT:    -3.856      1.760      2.078
REMARK INTER + INTRA:          -3.969
REMARK INTER:                  -3.969
REMARK INTRA:                   0.000
REMARK UNBOUND:                 0.000
REMARK SMILES CC1(C)[C@H]2CC[C@](C)(C2)[C@H]1O
REMARK SMILES IDX 1 1 2 2 4 3 5 4 6 5 7 6 9 7 10 8 8 9 3 10 11 11
REMARK H PARENT 11 12
REMARK Flexibility Score: inf
ROOT
ATOM      1  C   UNL     1     118.413 113.395 112.788  1.00  0.00     0.014 C 
ATOM      2  C   UNL     1     117.588 114.316 113.725  1.00  0.00    -0.006 C 
ATOM      3  C   UNL     1     118.196 115.754 113.870  1.00  0.00    -0.002 C 
ATOM      4  C   UNL     1     118.525 116.363 112.491  1.00  0.00     0.005 C 
ATOM      5  C   UNL     1     117.135 116.581 111.875  1.00  0.00     0.010 C 
ATOM      6  C   UNL     1     116.183 116.176 113.027  1.00  0.00    -0.006 C 
ATOM      7  C   UNL     1     116.984 116.592 114.242  1.00  0.00     0.013 C 
ATOM      8  C   UNL     1     116.152 114.635 113.187  1.00  0.00     0.126 C 
ATOM      9  C   UNL     1     114.796 116.821 112.942  1.00  0.00     0.014 C 
ATOM     10  C   UNL     1     117.519 113.624 115.108  1.00  0.00     0.014 C 
ENDROOT
BRANCH   8  11
ATOM     11  O   UNL     1     115.851 114.000 111.968  1.00  0.00    -0.392 OA
ATOM     12  H   UNL     1     114.910 114.234 111.756  1.00  0.00     0.211 HD
ENDBRANCH   8  11
TORSDOF 1
ENDMDL
MODEL 7
REMARK VINA RESULT:    -3.852      0.994      3.258
REMARK INTER + INTRA:          -3.965
REMARK INTER:                  -3.965
REMARK INTRA:                   0.000
REMARK UNBOUND:                 0.000
REMARK SMILES CC1(C)[C@H]2CC[C@](C)(C2)[C@H]1O
REMARK SMILES IDX 1 1 2 2 4 3 5 4 6 5 7 6 9 7 10 8 8 9 3 10 11 11
REMARK H PARENT 11 12
REMARK Flexibility Score: inf
ROOT
ATOM      1  C   UNL     1     116.369 118.899 114.341  1.00  0.00     0.014 C 
ATOM      2  C   UNL     1     117.112 118.417 113.067  1.00  0.00    -0.006 C 
ATOM      3  C   UNL     1     118.670 118.576 113.162  1.00  0.00    -0.002 C 
ATOM      4  C   UNL     1     119.211 117.995 114.485  1.00  0.00     0.005 C 
ATOM      5  C   UNL     1     118.976 116.486 114.314  1.00  0.00     0.010 C 
ATOM      6  C   UNL     1     118.437 116.386 112.867  1.00  0.00    -0.006 C 
ATOM      7  C   UNL     1     119.172 117.521 112.190  1.00  0.00     0.013 C 
ATOM      8  C   UNL     1     116.970 116.881 112.800  1.00  0.00     0.126 C 
ATOM      9  C   UNL     1     118.662 115.018 112.214  1.00  0.00     0.014 C 
ATOM     10  C   UNL     1     116.565 119.238 111.875  1.00  0.00     0.014 C 
ENDROOT
BRANCH   8  11
ATOM     11  O   UNL     1     116.163 116.215 113.742  1.00  0.00    -0.392 OA
ATOM     12  H   UNL     1     116.216 116.744 114.580  1.00  0.00     0.211 HD
ENDBRANCH   8  11
TORSDOF 1
ENDMDL
MODEL 8
REMARK VINA RESULT:    -3.846      2.443      3.598
REMARK INTER + INTRA:          -3.959
REMARK INTER:                  -3.959
REMARK INTRA:                   0.000
REMARK UNBOUND:                 0.000
REMARK SMILES CC1(C)[C@H]2CC[C@](C)(C2)[C@H]1O
REMARK SMILES IDX 1 1 2 2 4 3 5 4 6 5 7 6 9 7 10 8 8 9 3 10 11 11
REMARK H PARENT 11 12
REMARK Flexibility Score: inf
ROOT
ATOM      1  C   UNL     1     113.290 114.750 112.995  1.00  0.00     0.014 C 
ATOM      2  C   UNL     1     114.281 115.610 113.822  1.00  0.00    -0.006 C 
ATOM      3  C   UNL     1     115.691 114.943 113.986  1.00  0.00    -0.002 C 
ATOM      4  C   UNL     1     116.237 114.451 112.630  1.00  0.00     0.005 C 
ATOM      5  C   UNL     1     116.505 115.762 111.875  1.00  0.00     0.010 C 
ATOM      6  C   UNL     1     116.186 116.840 112.940  1.00  0.00    -0.006 C 
ATOM      7  C   UNL     1     116.601 116.139 114.214  1.00  0.00     0.013 C 
ATOM      8  C   UNL     1     114.655 116.969 113.138  1.00  0.00     0.126 C 
ATOM      9  C   UNL     1     116.898 118.176 112.702  1.00  0.00     0.014 C 
ATOM     10  C   UNL     1     113.639 115.848 115.210  1.00  0.00     0.014 C 
ENDROOT
BRANCH   8  11
ATOM     11  O   UNL     1     113.997 117.186 111.913  1.00  0.00    -0.392 OA
ATOM     12  H   UNL     1     113.309 116.475 111.835  1.00  0.00     0.211 HD
ENDBRANCH   8  11
TORSDOF 1
ENDMDL
MODEL 9
REMARK VINA RESULT:    -3.840      1.857      3.623
REMARK INTER + INTRA:          -3.953
REMARK INTER:                  -3.953
REMARK INTRA:                   0.000
REMARK UNBOUND:                 0.000
REMARK SMILES CC1(C)[C@H]2CC[C@](C)(C2)[C@H]1O
REMARK SMILES IDX 1 1 2 2 4 3 5 4 6 5 7 6 9 7 10 8 8 9 3 10 11 11
REMARK H PARENT 11 12
REMARK Flexibility Score: inf
ROOT
ATOM      1  C   UNL     1     114.259 116.369 114.378  1.00  0.00     0.014 C 
ATOM      2  C   UNL     1     114.857 117.138 113.170  1.00  0.00    -0.006 C 
ATOM      3  C   UNL     1     114.726 118.695 113.302  1.00  0.00    -0.002 C 
ATOM      4  C   UNL     1     115.213 119.181 114.683  1.00  0.00     0.005 C 
ATOM      5  C   UNL     1     116.725 118.914 114.623  1.00  0.00     0.010 C 
ATOM      6  C   UNL     1     116.927 118.416 113.172  1.00  0.00    -0.006 C 
ATOM      7  C   UNL     1     115.865 119.200 112.432  1.00  0.00     0.013 C 
ATOM      8  C   UNL     1     116.406 116.965 113.020  1.00  0.00     0.126 C 
ATOM      9  C   UNL     1     118.347 118.627 112.635  1.00  0.00     0.014 C 
ATOM     10  C   UNL     1     114.120 116.647 111.900  1.00  0.00     0.014 C 
ENDROOT
BRANCH   8  11
ATOM     11  O   UNL     1     116.976 116.113 113.984  1.00  0.00    -0.392 OA
ATOM     12  H   UNL     1     117.445 116.700 114.633  1.00  0.00     0.211 HD
ENDBRANCH   8  11
TORSDOF 1
ENDMDL
