MODEL 1
REMARK VINA RESULT:    -3.783      0.000      0.000
REMARK INTER + INTRA:          -5.018
REMARK INTER:                  -4.889
REMARK INTRA:                  -0.130
REMARK UNBOUND:                -0.130
REMARK SMILES CCCCCCC(=O)[O-]
REMARK SMILES IDX 5 1 6 2 7 3 8 4 9 5 4 6 3 7 2 8 1 9
REMARK H PARENT
REMARK Flexibility Score: inf
ROOT
ATOM      1  C   UNL     1      22.268  21.819  34.916  1.00  0.00     0.006 C 
ENDROOT
BRANCH   1   2
ATOM      2  C   UNL     1      22.716  22.230  36.326  1.00  0.00     0.053 C 
BRANCH   2   3
ATOM      3  C   UNL     1      24.076  21.696  36.653  1.00  0.00     0.041 C 
ATOM      4  O   UNL     1      25.098  22.190  36.109  1.00  0.00    -0.550 OA
ATOM      5  O   UNL     1      24.212  20.629  37.532  1.00  0.00    -0.550 OA
ENDBRANCH   2   3
ENDBRANCH   1   2
BRANCH   1   6
ATOM      6  C   UNL     1      20.750  21.586  34.834  1.00  0.00     0.000 C 
BRANCH   6   7
ATOM      7  C   UNL     1      20.341  20.723  33.627  1.00  0.00    -0.000 C 
BRANCH   7   8
ATOM      8  C   UNL     1      19.451  21.437  32.595  1.00  0.00    -0.003 C 
ATOM      9  C   UNL     1      19.741  22.935  32.489  1.00  0.00     0.004 C 
ENDBRANCH   7   8
ENDBRANCH   6   7
ENDBRANCH   1   6
TORSDOF 5
ENDMDL
MODEL 2
REMARK VINA RESULT:    -3.727     11.077     12.007
REMARK INTER + INTRA:          -4.947
REMARK INTER:                  -4.841
REMARK INTRA:                  -0.106
REMARK UNBOUND:                -0.130
REMARK SMILES CCCCCCC(=O)[O-]
REMARK SMILES IDX 5 1 6 2 7 3 8 4 9 5 4 6 3 7 2 8 1 9
REMARK H PARENT
REMARK Flexibility Score: inf
ROOT
ATOM      1  C   UNL     1      11.363  21.848  38.604  1.00  0.00     0.006 C 
ENDROOT
BRANCH   1   2
ATOM      2  C   UNL     1      10.533  22.758  39.520  1.00  0.00     0.053 C 
BRANCH   2   3
ATOM      3  C   UNL     1       9.780  21.971  40.549  1.00  0.00     0.041 C 
ATOM      4  O   UNL     1       9.799  20.713  40.522  1.00  0.00    -0.550 OA
ATOM      5  O   UNL     1       9.030  22.629  41.516  1.00  0.00    -0.550 OA
ENDBRANCH   2   3
ENDBRANCH   1   2
BRANCH   1   6
ATOM      6  C   UNL     1      11.126  22.153  37.115  1.00  0.00     0.000 C 
BRANCH   6   7
ATOM      7  C   UNL     1      12.433  22.248  36.309  1.00  0.00    -0.000 C 
BRANCH   7   8
ATOM      8  C   UNL     1      12.344  21.712  34.869  1.00  0.00    -0.003 C 
ATOM      9  C   UNL     1      13.153  20.431  34.657  1.00  0.00     0.004 C 
ENDBRANCH   7   8
ENDBRANCH   6   7
ENDBRANCH   1   6
TORSDOF 5
ENDMDL
MODEL 3
REMARK VINA RESULT:    -3.702     13.535     14.028
REMARK INTER + INTRA:          -4.914
REMARK INTER:                  -4.820
REMARK INTRA:                  -0.094
REMARK UNBOUND:                -0.130
REMARK SMILES CCCCCCC(=O)[O-]
REMARK SMILES IDX 5 1 6 2 7 3 8 4 9 5 4 6 3 7 2 8 1 9
REMARK H PARENT
REMARK Flexibility Score: inf
ROOT
ATOM      1  C   UNL     1      17.363  22.940  47.308  1.00  0.00     0.006 C 
ENDROOT
BRANCH   1   2
ATOM      2  C   UNL     1      18.472  23.791  47.945  1.00  0.00     0.053 C 
BRANCH   2   3
ATOM      3  C   UNL     1      19.493  22.942  48.638  1.00  0.00     0.041 C 
ATOM      4  O   UNL     1      20.567  23.453  49.050  1.00  0.00    -0.550 OA
ATOM      5  O   UNL     1      19.272  21.580  48.796  1.00  0.00    -0.550 OA
ENDBRANCH   2   3
ENDBRANCH   1   2
BRANCH   1   6
ATOM      6  C   UNL     1      15.978  23.261  47.894  1.00  0.00     0.000 C 
BRANCH   6   7
ATOM      7  C   UNL     1      14.828  22.934  46.924  1.00  0.00    -0.000 C 
BRANCH   7   8
ATOM      8  C   UNL     1      13.417  23.078  47.523  1.00  0.00    -0.003 C 
ATOM      9  C   UNL     1      12.581  24.155  46.831  1.00  0.00     0.004 C 
ENDBRANCH   7   8
ENDBRANCH   6   7
ENDBRANCH   1   6
TORSDOF 5
ENDMDL
MODEL 4
REMARK VINA RESULT:    -3.691     14.051     14.912
REMARK INTER + INTRA:          -4.900
REMARK INTER:                  -4.804
REMARK INTRA:                  -0.096
REMARK UNBOUND:                -0.130
REMARK SMILES CCCCCCC(=O)[O-]
REMARK SMILES IDX 5 1 6 2 7 3 8 4 9 5 4 6 3 7 2 8 1 9
REMARK H PARENT
REMARK Flexibility Score: inf
ROOT
ATOM      1  C   UNL     1      15.908  23.314  47.693  1.00  0.00     0.006 C 
ENDROOT
BRANCH   1   2
ATOM      2  C   UNL     1      15.027  22.592  46.665  1.00  0.00     0.053 C 
BRANCH   2   3
ATOM      3  C   UNL     1      13.602  22.505  47.120  1.00  0.00     0.041 C 
ATOM      4  O   UNL     1      13.160  23.313  47.978  1.00  0.00    -0.550 OA
ATOM      5  O   UNL     1      12.773  21.507  46.622  1.00  0.00    -0.550 OA
ENDBRANCH   2   3
ENDBRANCH   1   2
BRANCH   1   6
ATOM      6  C   UNL     1      17.404  23.199  47.357  1.00  0.00     0.000 C 
BRANCH   6   7
ATOM      7  C   UNL     1      18.167  22.282  48.330  1.00  0.00    -0.000 C 
BRANCH   7   8
ATOM      8  C   UNL     1      19.701  22.388  48.250  1.00  0.00    -0.003 C 
ATOM      9  C   UNL     1      20.247  23.655  48.910  1.00  0.00     0.004 C 
ENDBRANCH   7   8
ENDBRANCH   6   7
ENDBRANCH   1   6
TORSDOF 5
ENDMDL
MODEL 5
REMARK VINA RESULT:    -3.683      8.670      9.590
REMARK INTER + INTRA:          -4.890
REMARK INTER:                  -4.525
REMARK INTRA:                  -0.364
REMARK UNBOUND:                -0.130
REMARK SMILES CCCCCCC(=O)[O-]
REMARK SMILES IDX 5 1 6 2 7 3 8 4 9 5 4 6 3 7 2 8 1 9
REMARK H PARENT
REMARK Flexibility Score: inf
ROOT
ATOM      1  C   UNL     1      22.779  13.551  35.026  1.00  0.00     0.006 C 
ENDROOT
BRANCH   1   2
ATOM      2  C   UNL     1      22.746  13.675  36.556  1.00  0.00     0.053 C 
BRANCH   2   3
ATOM      3  C   UNL     1      21.571  14.480  37.021  1.00  0.00     0.041 C 
ATOM      4  O   UNL     1      20.403  14.026  36.897  1.00  0.00    -0.550 OA
ATOM      5  O   UNL     1      21.764  15.746  37.558  1.00  0.00    -0.550 OA
ENDBRANCH   2   3
ENDBRANCH   1   2
BRANCH   1   6
ATOM      6  C   UNL     1      22.406  12.136  34.552  1.00  0.00     0.000 C 
BRANCH   6   7
ATOM      7  C   UNL     1      22.969  11.031  35.464  1.00  0.00    -0.000 C 
BRANCH   7   8
ATOM      8  C   UNL     1      21.919  10.050  36.014  1.00  0.00    -0.003 C 
ATOM      9  C   UNL     1      20.502  10.626  36.009  1.00  0.00     0.004 C 
ENDBRANCH   7   8
ENDBRANCH   6   7
ENDBRANCH   1   6
TORSDOF 5
ENDMDL
MODEL 6
REMARK VINA RESULT:    -3.668      3.428      5.440
REMARK INTER + INTRA:          -4.870
REMARK INTER:                  -4.771
REMARK INTRA:                  -0.099
REMARK UNBOUND:                -0.130
REMARK SMILES CCCCCCC(=O)[O-]
REMARK SMILES IDX 5 1 6 2 7 3 8 4 9 5 4 6 3 7 2 8 1 9
REMARK H PARENT
REMARK Flexibility Score: inf
ROOT
ATOM      1  C   UNL     1      20.815  21.890  34.808  1.00  0.00     0.006 C 
ENDROOT
BRANCH   1   2
ATOM      2  C   UNL     1      20.297  21.257  33.509  1.00  0.00     0.053 C 
BRANCH   2   3
ATOM      3  C   UNL     1      19.584  22.256  32.651  1.00  0.00     0.041 C 
ATOM      4  O   UNL     1      20.094  23.388  32.439  1.00  0.00    -0.550 OA
ATOM      5  O   UNL     1      18.340  21.950  32.114  1.00  0.00    -0.550 OA
ENDBRANCH   2   3
ENDBRANCH   1   2
BRANCH   1   6
ATOM      6  C   UNL     1      22.350  21.845  34.902  1.00  0.00     0.000 C 
BRANCH   6   7
ATOM      7  C   UNL     1      22.878  22.315  36.270  1.00  0.00    -0.000 C 
BRANCH   7   8
ATOM      8  C   UNL     1      24.292  21.819  36.621  1.00  0.00    -0.003 C 
ATOM      9  C   UNL     1      25.314  22.951  36.729  1.00  0.00     0.004 C 
ENDBRANCH   7   8
ENDBRANCH   6   7
ENDBRANCH   1   6
TORSDOF 5
ENDMDL
MODEL 7
REMARK VINA RESULT:    -3.634     10.971     11.881
REMARK INTER + INTRA:          -4.826
REMARK INTER:                  -4.712
REMARK INTRA:                  -0.115
REMARK UNBOUND:                -0.130
REMARK SMILES CCCCCCC(=O)[O-]
REMARK SMILES IDX 5 1 6 2 7 3 8 4 9 5 4 6 3 7 2 8 1 9
REMARK H PARENT
REMARK Flexibility Score: inf
ROOT
ATOM      1  C   UNL     1      12.002  21.875  37.951  1.00  0.00     0.006 C 
ENDROOT
BRANCH   1   2
ATOM      2  C   UNL     1      11.594  22.217  36.511  1.00  0.00     0.053 C 
BRANCH   2   3
ATOM      3  C   UNL     1      12.416  21.466  35.509  1.00  0.00     0.041 C 
ATOM      4  O   UNL     1      12.300  21.714  34.281  1.00  0.00    -0.550 OA
ATOM      5  O   UNL     1      13.285  20.467  35.931  1.00  0.00    -0.550 OA
ENDBRANCH   2   3
ENDBRANCH   1   2
BRANCH   1   6
ATOM      6  C   UNL     1      11.050  22.497  38.987  1.00  0.00     0.000 C 
BRANCH   6   7
ATOM      7  C   UNL     1      10.259  21.443  39.782  1.00  0.00    -0.000 C 
BRANCH   7   8
ATOM      8  C   UNL     1       9.431  22.004  40.952  1.00  0.00    -0.003 C 
ATOM      9  C   UNL     1       9.079  23.483  40.780  1.00  0.00     0.004 C 
ENDBRANCH   7   8
ENDBRANCH   6   7
ENDBRANCH   1   6
TORSDOF 5
ENDMDL
MODEL 8
REMARK VINA RESULT:    -3.576     15.357     16.406
REMARK INTER + INTRA:          -4.751
REMARK INTER:                  -4.398
REMARK INTRA:                  -0.353
REMARK UNBOUND:                -0.130
REMARK SMILES CCCCCCC(=O)[O-]
REMARK SMILES IDX 5 1 6 2 7 3 8 4 9 5 4 6 3 7 2 8 1 9
REMARK H PARENT
REMARK Flexibility Score: inf
ROOT
ATOM      1  C   UNL     1      16.174  15.099  49.136  1.00  0.00     0.006 C 
ENDROOT
BRANCH   1   2
ATOM      2  C   UNL     1      15.643  14.864  47.715  1.00  0.00     0.053 C 
BRANCH   2   3
ATOM      3  C   UNL     1      16.433  15.625  46.695  1.00  0.00     0.041 C 
ATOM      4  O   UNL     1      17.563  15.208  46.329  1.00  0.00    -0.550 OA
ATOM      5  O   UNL     1      15.936  16.814  46.176  1.00  0.00    -0.550 OA
ENDBRANCH   2   3
ENDBRANCH   1   2
BRANCH   1   6
ATOM      6  C   UNL     1      16.949  13.884  49.674  1.00  0.00     0.000 C 
BRANCH   6   7
ATOM      7  C   UNL     1      16.245  12.548  49.379  1.00  0.00    -0.000 C 
BRANCH   7   8
ATOM      8  C   UNL     1      17.068  11.556  48.537  1.00  0.00    -0.003 C 
ATOM      9  C   UNL     1      18.338  12.178  47.954  1.00  0.00     0.004 C 
ENDBRANCH   7   8
ENDBRANCH   6   7
ENDBRANCH   1   6
TORSDOF 5
ENDMDL
MODEL 9
REMARK VINA RESULT:    -3.445     13.874     14.861
REMARK INTER + INTRA:          -4.582
REMARK INTER:                  -4.443
REMARK INTRA:                  -0.138
REMARK UNBOUND:                -0.130
REMARK SMILES CCCCCCC(=O)[O-]
REMARK SMILES IDX 5 1 6 2 7 3 8 4 9 5 4 6 3 7 2 8 1 9
REMARK H PARENT
REMARK Flexibility Score: inf
ROOT
ATOM      1  C   UNL     1      11.200  22.662  43.761  1.00  0.00     0.006 C 
ENDROOT
BRANCH   1   2
ATOM      2  C   UNL     1      11.418  22.952  42.269  1.00  0.00     0.053 C 
BRANCH   2   3
ATOM      3  C   UNL     1      10.146  22.823  41.488  1.00  0.00     0.041 C 
ATOM      4  O   UNL     1       9.034  22.900  42.073  1.00  0.00    -0.550 OA
ATOM      5  O   UNL     1      10.190  22.583  40.121  1.00  0.00    -0.550 OA
ENDBRANCH   2   3
ENDBRANCH   1   2
BRANCH   1   6
ATOM      6  C   UNL     1      12.465  22.932  44.594  1.00  0.00     0.000 C 
BRANCH   6   7
ATOM      7  C   UNL     1      12.582  22.007  45.819  1.00  0.00    -0.000 C 
BRANCH   7   8
ATOM      8  C   UNL     1      12.828  22.733  47.154  1.00  0.00    -0.003 C 
ATOM      9  C   UNL     1      12.431  24.209  47.115  1.00  0.00     0.004 C 
ENDBRANCH   7   8
ENDBRANCH   6   7
ENDBRANCH   1   6
TORSDOF 5
ENDMDL
