MODEL 1
REMARK VINA RESULT:     0.000      0.000      0.000
REMARK INTER + INTRA:          -3.710
REMARK INTER:                   0.000
REMARK INTRA:                  -3.710
REMARK UNBOUND:                -3.710
REMARK SMILES CCCCCCCCC=CCCCCCCCC(=O)[O-]
REMARK SMILES IDX 10 1 9 2 11 3 12 4 13 5 14 6 15 7 16 8 17 9 18 10 19 11
REMARK SMILES IDX 20 12 8 13 7 14 6 15 5 16 4 17 3 18 2 19 1 20
REMARK H PARENT
REMARK Flexibility Score: inf
ROOT
ATOM      1  C   UNL     1     178.382 183.393 189.841  1.00  0.00    -0.031 C 
ATOM      2  C   UNL     1     179.647 183.682 190.185  1.00  0.00    -0.031 C 
ENDROOT
BRANCH   1   3
ATOM      3  C   UNL     1     177.267 184.379 190.051  1.00  0.00     0.027 C 
BRANCH   3   4
ATOM      4  C   UNL     1     175.898 183.727 189.800  1.00  0.00     0.004 C 
BRANCH   4   5
ATOM      5  C   UNL     1     176.020 182.399 189.023  1.00  0.00     0.000 C 
BRANCH   5   6
ATOM      6  C   UNL     1     175.454 181.187 189.781  1.00  0.00     0.000 C 
BRANCH   6   7
ATOM      7  C   UNL     1     176.550 180.232 190.284  1.00  0.00     0.000 C 
BRANCH   7   8
ATOM      8  C   UNL     1     176.568 180.106 191.819  1.00  0.00     0.006 C 
BRANCH   8   9
ATOM      9  C   UNL     1     177.636 180.968 192.511  1.00  0.00     0.053 C 
BRANCH   9  10
ATOM     10  C   UNL     1     177.060 182.232 193.072  1.00  0.00     0.041 C 
ATOM     11  O   UNL     1     175.811 182.377 193.154  1.00  0.00    -0.550 OA
ATOM     12  O   UNL     1     177.900 183.263 193.472  1.00  0.00    -0.550 OA
ENDBRANCH   9  10
ENDBRANCH   8   9
ENDBRANCH   7   8
ENDBRANCH   6   7
ENDBRANCH   5   6
ENDBRANCH   4   5
ENDBRANCH   3   4
ENDBRANCH   1   3
BRANCH   2  13
ATOM     13  C   UNL     1     180.762 182.694 189.982  1.00  0.00     0.027 C 
BRANCH  13  14
ATOM     14  C   UNL     1     180.219 181.267 189.839  1.00  0.00     0.004 C 
BRANCH  14  15
ATOM     15  C   UNL     1     180.451 180.731 188.420  1.00  0.00     0.000 C 
BRANCH  15  16
ATOM     16  C   UNL     1     179.141 180.472 187.654  1.00  0.00     0.000 C 
BRANCH  16  17
ATOM     17  C   UNL     1     178.767 181.550 186.620  1.00  0.00    -0.000 C 
BRANCH  17  18
ATOM     18  C   UNL     1     179.925 182.510 186.309  1.00  0.00    -0.000 C 
BRANCH  18  19
ATOM     19  C   UNL     1     179.461 183.969 186.377  1.00  0.00    -0.003 C 
ATOM     20  C   UNL     1     177.944 184.073 186.243  1.00  0.00     0.004 C 
ENDBRANCH  18  19
ENDBRANCH  17  18
ENDBRANCH  16  17
ENDBRANCH  15  16
ENDBRANCH  14  15
ENDBRANCH  13  14
ENDBRANCH   2  13
TORSDOF 15
ENDMDL
MODEL 2
REMARK VINA RESULT:     0.001      6.810      9.682
REMARK INTER + INTRA:          -3.708
REMARK INTER:                   0.000
REMARK INTRA:                  -3.708
REMARK UNBOUND:                -3.710
REMARK SMILES CCCCCCCCC=CCCCCCCCC(=O)[O-]
REMARK SMILES IDX 10 1 9 2 11 3 12 4 13 5 14 6 15 7 16 8 17 9 18 10 19 11
REMARK SMILES IDX 20 12 8 13 7 14 6 15 5 16 4 17 3 18 2 19 1 20
REMARK H PARENT
REMARK Flexibility Score: inf
ROOT
ATOM      1  C   UNL     1     178.008 190.001 187.084  1.00  0.00    -0.031 C 
ATOM      2  C   UNL     1     177.035 190.723 186.509  1.00  0.00    -0.031 C 
ENDROOT
BRANCH   1   3
ATOM      3  C   UNL     1     178.693 190.465 188.339  1.00  0.00     0.027 C 
BRANCH   3   4
ATOM      4  C   UNL     1     180.139 189.951 188.403  1.00  0.00     0.004 C 
BRANCH   4   5
ATOM      5  C   UNL     1     180.440 188.921 187.293  1.00  0.00     0.000 C 
BRANCH   5   6
ATOM      6  C   UNL     1     181.567 189.353 186.340  1.00  0.00     0.000 C 
BRANCH   6   7
ATOM      7  C   UNL     1     181.050 189.751 184.947  1.00  0.00     0.000 C 
BRANCH   7   8
ATOM      8  C   UNL     1     181.317 191.231 184.615  1.00  0.00     0.006 C 
BRANCH   8   9
ATOM      9  C   UNL     1     180.103 192.152 184.816  1.00  0.00     0.053 C 
BRANCH   9  10
ATOM     10  C   UNL     1     180.192 192.929 186.093  1.00  0.00     0.041 C 
ATOM     11  O   UNL     1     179.210 193.612 186.489  1.00  0.00    -0.550 OA
ATOM     12  O   UNL     1     181.370 192.927 186.829  1.00  0.00    -0.550 OA
ENDBRANCH   9  10
ENDBRANCH   8   9
ENDBRANCH   7   8
ENDBRANCH   6   7
ENDBRANCH   5   6
ENDBRANCH   4   5
ENDBRANCH   3   4
ENDBRANCH   1   3
BRANCH   2  13
ATOM     13  C   UNL     1     176.355 190.265 185.249  1.00  0.00     0.027 C 
BRANCH  13  14
ATOM     14  C   UNL     1     177.370 189.716 184.239  1.00  0.00     0.004 C 
BRANCH  14  15
ATOM     15  C   UNL     1     177.126 188.225 183.968  1.00  0.00     0.000 C 
BRANCH  15  16
ATOM     16  C   UNL     1     178.287 187.330 184.437  1.00  0.00     0.000 C 
BRANCH  16  17
ATOM     17  C   UNL     1     178.023 186.548 185.736  1.00  0.00    -0.000 C 
BRANCH  17  18
ATOM     18  C   UNL     1     176.544 186.559 186.152  1.00  0.00    -0.000 C 
BRANCH  18  19
ATOM     19  C   UNL     1     176.401 186.807 187.659  1.00  0.00    -0.003 C 
ATOM     20  C   UNL     1     177.718 186.555 188.387  1.00  0.00     0.004 C 
ENDBRANCH  18  19
ENDBRANCH  17  18
ENDBRANCH  16  17
ENDBRANCH  15  16
ENDBRANCH  14  15
ENDBRANCH  13  14
ENDBRANCH   2  13
TORSDOF 15
ENDMDL
MODEL 3
REMARK VINA RESULT:     0.004      4.173      7.236
REMARK INTER + INTRA:          -3.702
REMARK INTER:                   0.000
REMARK INTRA:                  -3.702
REMARK UNBOUND:                -3.710
REMARK SMILES CCCCCCCCC=CCCCCCCCC(=O)[O-]
REMARK SMILES IDX 10 1 9 2 11 3 12 4 13 5 14 6 15 7 16 8 17 9 18 10 19 11
REMARK SMILES IDX 20 12 8 13 7 14 6 15 5 16 4 17 3 18 2 19 1 20
REMARK H PARENT
REMARK Flexibility Score: inf
ROOT
ATOM      1  C   UNL     1     182.442 182.818 188.212  1.00  0.00    -0.031 C 
ATOM      2  C   UNL     1     181.223 183.346 188.019  1.00  0.00    -0.031 C 
ENDROOT
BRANCH   1   3
ATOM      3  C   UNL     1     183.679 183.671 188.186  1.00  0.00     0.027 C 
BRANCH   3   4
ATOM      4  C   UNL     1     183.349 185.134 188.526  1.00  0.00     0.004 C 
BRANCH   4   5
ATOM      5  C   UNL     1     183.547 186.070 187.315  1.00  0.00     0.000 C 
BRANCH   5   6
ATOM      6  C   UNL     1     182.249 186.743 186.837  1.00  0.00     0.000 C 
BRANCH   6   7
ATOM      7  C   UNL     1     181.918 186.426 185.369  1.00  0.00     0.000 C 
BRANCH   7   8
ATOM      8  C   UNL     1     182.496 185.074 184.909  1.00  0.00     0.006 C 
BRANCH   8   9
ATOM      9  C   UNL     1     181.486 184.170 184.183  1.00  0.00     0.053 C 
BRANCH   9  10
ATOM     10  C   UNL     1     181.698 182.722 184.501  1.00  0.00     0.041 C 
ATOM     11  O   UNL     1     180.712 181.944 184.599  1.00  0.00    -0.550 OA
ATOM     12  O   UNL     1     182.981 182.238 184.725  1.00  0.00    -0.550 OA
ENDBRANCH   9  10
ENDBRANCH   8   9
ENDBRANCH   7   8
ENDBRANCH   6   7
ENDBRANCH   5   6
ENDBRANCH   4   5
ENDBRANCH   3   4
ENDBRANCH   1   3
BRANCH   2  13
ATOM     13  C   UNL     1     179.985 182.492 188.036  1.00  0.00     0.027 C 
BRANCH  13  14
ATOM     14  C   UNL     1     178.740 183.316 187.686  1.00  0.00     0.004 C 
BRANCH  14  15
ATOM     15  C   UNL     1     179.126 184.624 186.982  1.00  0.00     0.000 C 
BRANCH  15  16
ATOM     16  C   UNL     1     178.557 185.873 187.679  1.00  0.00     0.000 C 
BRANCH  16  17
ATOM     17  C   UNL     1     178.659 185.864 189.215  1.00  0.00    -0.000 C 
BRANCH  17  18
ATOM     18  C   UNL     1     179.991 186.427 189.731  1.00  0.00    -0.000 C 
BRANCH  18  19
ATOM     19  C   UNL     1     180.525 185.589 190.899  1.00  0.00    -0.003 C 
ATOM     20  C   UNL     1     179.585 184.431 191.221  1.00  0.00     0.004 C 
ENDBRANCH  18  19
ENDBRANCH  17  18
ENDBRANCH  16  17
ENDBRANCH  15  16
ENDBRANCH  14  15
ENDBRANCH  13  14
ENDBRANCH   2  13
TORSDOF 15
ENDMDL
MODEL 4
REMARK VINA RESULT:     0.009      3.902      6.477
REMARK INTER + INTRA:          -3.693
REMARK INTER:                   0.000
REMARK INTRA:                  -3.693
REMARK UNBOUND:                -3.710
REMARK SMILES CCCCCCCCC=CCCCCCCCC(=O)[O-]
REMARK SMILES IDX 10 1 9 2 11 3 12 4 13 5 14 6 15 7 16 8 17 9 18 10 19 11
REMARK SMILES IDX 20 12 8 13 7 14 6 15 5 16 4 17 3 18 2 19 1 20
REMARK H PARENT
REMARK Flexibility Score: inf
ROOT
ATOM      1  C   UNL     1     182.962 181.343 190.177  1.00  0.00    -0.031 C 
ATOM      2  C   UNL     1     183.983 181.120 189.335  1.00  0.00    -0.031 C 
ENDROOT
BRANCH   1   3
ATOM      3  C   UNL     1     182.366 180.233 190.998  1.00  0.00     0.027 C 
BRANCH   3   4
ATOM      4  C   UNL     1     181.160 180.732 191.809  1.00  0.00     0.004 C 
BRANCH   4   5
ATOM      5  C   UNL     1     181.074 182.273 191.833  1.00  0.00     0.000 C 
BRANCH   5   6
ATOM      6  C   UNL     1     179.812 182.832 191.153  1.00  0.00     0.000 C 
BRANCH   6   7
ATOM      7  C   UNL     1     180.133 183.838 190.035  1.00  0.00     0.000 C 
BRANCH   7   8
ATOM      8  C   UNL     1     180.036 183.214 188.629  1.00  0.00     0.006 C 
BRANCH   8   9
ATOM      9  C   UNL     1     179.347 181.841 188.594  1.00  0.00     0.053 C 
BRANCH   9  10
ATOM     10  C   UNL     1     180.217 180.792 187.973  1.00  0.00     0.041 C 
ATOM     11  O   UNL     1     181.085 181.113 187.119  1.00  0.00    -0.550 OA
ATOM     12  O   UNL     1     180.045 179.455 188.310  1.00  0.00    -0.550 OA
ENDBRANCH   9  10
ENDBRANCH   8   9
ENDBRANCH   7   8
ENDBRANCH   6   7
ENDBRANCH   5   6
ENDBRANCH   4   5
ENDBRANCH   3   4
ENDBRANCH   1   3
BRANCH   2  13
ATOM     13  C   UNL     1     184.576 182.226 188.507  1.00  0.00     0.027 C 
BRANCH  13  14
ATOM     14  C   UNL     1     183.693 183.480 188.544  1.00  0.00     0.004 C 
BRANCH  14  15
ATOM     15  C   UNL     1     184.372 184.607 189.335  1.00  0.00     0.000 C 
BRANCH  15  16
ATOM     16  C   UNL     1     183.587 185.014 190.594  1.00  0.00     0.000 C 
BRANCH  16  17
ATOM     17  C   UNL     1     184.130 184.439 191.915  1.00  0.00    -0.000 C 
BRANCH  17  18
ATOM     18  C   UNL     1     185.544 183.854 191.777  1.00  0.00    -0.000 C 
BRANCH  18  19
ATOM     19  C   UNL     1     185.637 182.481 192.452  1.00  0.00    -0.003 C 
ATOM     20  C   UNL     1     184.487 182.268 193.432  1.00  0.00     0.004 C 
ENDBRANCH  18  19
ENDBRANCH  17  18
ENDBRANCH  16  17
ENDBRANCH  15  16
ENDBRANCH  14  15
ENDBRANCH  13  14
ENDBRANCH   2  13
TORSDOF 15
ENDMDL
MODEL 5
REMARK VINA RESULT:     0.013      3.586      6.025
REMARK INTER + INTRA:          -3.686
REMARK INTER:                   0.000
REMARK INTRA:                  -3.686
REMARK UNBOUND:                -3.710
REMARK SMILES CCCCCCCCC=CCCCCCCCC(=O)[O-]
REMARK SMILES IDX 10 1 9 2 11 3 12 4 13 5 14 6 15 7 16 8 17 9 18 10 19 11
REMARK SMILES IDX 20 12 8 13 7 14 6 15 5 16 4 17 3 18 2 19 1 20
REMARK H PARENT
REMARK Flexibility Score: inf
ROOT
ATOM      1  C   UNL     1     182.069 180.215 190.966  1.00  0.00    -0.031 C 
ATOM      2  C   UNL     1     182.462 179.988 189.703  1.00  0.00    -0.031 C 
ENDROOT
BRANCH   1   3
ATOM      3  C   UNL     1     181.852 179.087 191.935  1.00  0.00     0.027 C 
BRANCH   3   4
ATOM      4  C   UNL     1     181.413 179.615 193.310  1.00  0.00     0.004 C 
BRANCH   4   5
ATOM      5  C   UNL     1     181.585 181.144 193.426  1.00  0.00     0.000 C 
BRANCH   5   6
ATOM      6  C   UNL     1     180.255 181.907 193.554  1.00  0.00     0.000 C 
BRANCH   6   7
ATOM      7  C   UNL     1     180.080 182.986 192.473  1.00  0.00     0.000 C 
BRANCH   7   8
ATOM      8  C   UNL     1     179.100 182.561 191.362  1.00  0.00     0.006 C 
BRANCH   8   9
ATOM      9  C   UNL     1     178.378 181.231 191.634  1.00  0.00     0.053 C 
BRANCH   9  10
ATOM     10  C   UNL     1     178.569 180.251 190.517  1.00  0.00     0.041 C 
ATOM     11  O   UNL     1     178.860 180.657 189.361  1.00  0.00    -0.550 OA
ATOM     12  O   UNL     1     178.391 178.892 190.745  1.00  0.00    -0.550 OA
ENDBRANCH   9  10
ENDBRANCH   8   9
ENDBRANCH   7   8
ENDBRANCH   6   7
ENDBRANCH   5   6
ENDBRANCH   4   5
ENDBRANCH   3   4
ENDBRANCH   1   3
BRANCH   2  13
ATOM     13  C   UNL     1     182.672 181.115 188.730  1.00  0.00     0.027 C 
BRANCH  13  14
ATOM     14  C   UNL     1     182.172 182.445 189.306  1.00  0.00     0.004 C 
BRANCH  14  15
ATOM     15  C   UNL     1     183.347 183.376 189.637  1.00  0.00     0.000 C 
BRANCH  15  16
ATOM     16  C   UNL     1     183.453 183.700 191.138  1.00  0.00     0.000 C 
BRANCH  16  17
ATOM     17  C   UNL     1     184.506 182.883 191.908  1.00  0.00    -0.000 C 
BRANCH  17  18
ATOM     18  C   UNL     1     185.515 182.184 190.985  1.00  0.00    -0.000 C 
BRANCH  18  19
ATOM     19  C   UNL     1     185.735 180.729 191.415  1.00  0.00    -0.003 C 
ATOM     20  C   UNL     1     185.258 180.499 192.846  1.00  0.00     0.004 C 
ENDBRANCH  18  19
ENDBRANCH  17  18
ENDBRANCH  16  17
ENDBRANCH  15  16
ENDBRANCH  14  15
ENDBRANCH  13  14
ENDBRANCH   2  13
TORSDOF 15
ENDMDL
MODEL 6
REMARK VINA RESULT:     0.013      4.859      8.030
REMARK INTER + INTRA:          -3.685
REMARK INTER:                   0.000
REMARK INTRA:                  -3.685
REMARK UNBOUND:                -3.710
REMARK SMILES CCCCCCCCC=CCCCCCCCC(=O)[O-]
REMARK SMILES IDX 10 1 9 2 11 3 12 4 13 5 14 6 15 7 16 8 17 9 18 10 19 11
REMARK SMILES IDX 20 12 8 13 7 14 6 15 5 16 4 17 3 18 2 19 1 20
REMARK H PARENT
REMARK Flexibility Score: inf
ROOT
ATOM      1  C   UNL     1     181.200 185.429 193.843  1.00  0.00    -0.031 C 
ATOM      2  C   UNL     1     179.971 185.880 193.548  1.00  0.00    -0.031 C 
ENDROOT
BRANCH   1   3
ATOM      3  C   UNL     1     182.432 186.184 193.428  1.00  0.00     0.027 C 
BRANCH   3   4
ATOM      4  C   UNL     1     183.706 185.399 193.779  1.00  0.00     0.004 C 
BRANCH   4   5
ATOM      5  C   UNL     1     183.406 184.175 194.670  1.00  0.00     0.000 C 
BRANCH   5   6
ATOM      6  C   UNL     1     183.738 182.829 194.002  1.00  0.00     0.000 C 
BRANCH   6   7
ATOM      7  C   UNL     1     182.528 181.882 193.936  1.00  0.00     0.000 C 
BRANCH   7   8
ATOM      8  C   UNL     1     181.791 181.954 192.585  1.00  0.00     0.006 C 
BRANCH   8   9
ATOM      9  C   UNL     1     182.632 182.535 191.437  1.00  0.00     0.053 C 
BRANCH   9  10
ATOM     10  C   UNL     1     181.932 183.662 190.742  1.00  0.00     0.041 C 
ATOM     11  O   UNL     1     180.674 183.714 190.729  1.00  0.00    -0.550 OA
ATOM     12  O   UNL     1     182.668 184.636 190.079  1.00  0.00    -0.550 OA
ENDBRANCH   9  10
ENDBRANCH   8   9
ENDBRANCH   7   8
ENDBRANCH   6   7
ENDBRANCH   5   6
ENDBRANCH   4   5
ENDBRANCH   3   4
ENDBRANCH   1   3
BRANCH   2  13
ATOM     13  C   UNL     1     178.737 185.122 193.955  1.00  0.00     0.027 C 
BRANCH  13  14
ATOM     14  C   UNL     1     179.071 183.668 194.308  1.00  0.00     0.004 C 
BRANCH  14  15
ATOM     15  C   UNL     1     178.861 183.404 195.806  1.00  0.00     0.000 C 
BRANCH  15  16
ATOM     16  C   UNL     1     180.162 183.034 196.539  1.00  0.00     0.000 C 
BRANCH  16  17
ATOM     17  C   UNL     1     180.806 184.179 197.342  1.00  0.00    -0.000 C 
BRANCH  17  18
ATOM     18  C   UNL     1     179.848 185.355 197.581  1.00  0.00    -0.000 C 
BRANCH  18  19
ATOM     19  C   UNL     1     180.518 186.688 197.224  1.00  0.00    -0.003 C 
ATOM     20  C   UNL     1     182.038 186.568 197.258  1.00  0.00     0.004 C 
ENDBRANCH  18  19
ENDBRANCH  17  18
ENDBRANCH  16  17
ENDBRANCH  15  16
ENDBRANCH  14  15
ENDBRANCH  13  14
ENDBRANCH   2  13
TORSDOF 15
ENDMDL
MODEL 7
REMARK VINA RESULT:     0.013      4.493      6.781
REMARK INTER + INTRA:          -3.685
REMARK INTER:                   0.000
REMARK INTRA:                  -3.685
REMARK UNBOUND:                -3.710
REMARK SMILES CCCCCCCCC=CCCCCCCCC(=O)[O-]
REMARK SMILES IDX 10 1 9 2 11 3 12 4 13 5 14 6 15 7 16 8 17 9 18 10 19 11
REMARK SMILES IDX 20 12 8 13 7 14 6 15 5 16 4 17 3 18 2 19 1 20
REMARK H PARENT
REMARK Flexibility Score: inf
ROOT
ATOM      1  C   UNL     1     181.003 184.734 191.636  1.00  0.00    -0.031 C 
ATOM      2  C   UNL     1     181.791 184.970 190.575  1.00  0.00    -0.031 C 
ENDROOT
BRANCH   1   3
ATOM      3  C   UNL     1     179.507 184.845 191.542  1.00  0.00     0.027 C 
BRANCH   3   4
ATOM      4  C   UNL     1     178.868 184.891 192.939  1.00  0.00     0.004 C 
BRANCH   4   5
ATOM      5  C   UNL     1     179.895 184.619 194.058  1.00  0.00     0.000 C 
BRANCH   5   6
ATOM      6  C   UNL     1     180.088 185.803 195.020  1.00  0.00     0.000 C 
BRANCH   6   7
ATOM      7  C   UNL     1     181.560 186.228 195.155  1.00  0.00     0.000 C 
BRANCH   7   8
ATOM      8  C   UNL     1     181.922 187.411 194.238  1.00  0.00     0.006 C 
BRANCH   8   9
ATOM      9  C   UNL     1     180.709 188.152 193.654  1.00  0.00     0.053 C 
BRANCH   9  10
ATOM     10  C   UNL     1     180.816 188.326 192.170  1.00  0.00     0.041 C 
ATOM     11  O   UNL     1     179.776 188.395 191.464  1.00  0.00    -0.550 OA
ATOM     12  O   UNL     1     182.065 188.377 191.564  1.00  0.00    -0.550 OA
ENDBRANCH   9  10
ENDBRANCH   8   9
ENDBRANCH   7   8
ENDBRANCH   6   7
ENDBRANCH   5   6
ENDBRANCH   4   5
ENDBRANCH   3   4
ENDBRANCH   1   3
BRANCH   2  13
ATOM     13  C   UNL     1     183.288 184.867 190.669  1.00  0.00     0.027 C 
BRANCH  13  14
ATOM     14  C   UNL     1     183.776 185.168 192.091  1.00  0.00     0.004 C 
BRANCH  14  15
ATOM     15  C   UNL     1     184.406 183.923 192.731  1.00  0.00     0.000 C 
BRANCH  15  16
ATOM     16  C   UNL     1     183.639 183.432 193.972  1.00  0.00     0.000 C 
BRANCH  16  17
ATOM     17  C   UNL     1     182.738 182.206 193.737  1.00  0.00    -0.000 C 
BRANCH  17  18
ATOM     18  C   UNL     1     183.026 181.497 192.405  1.00  0.00    -0.000 C 
BRANCH  18  19
ATOM     19  C   UNL     1     181.723 181.155 191.672  1.00  0.00    -0.003 C 
ATOM     20  C   UNL     1     180.529 181.200 192.621  1.00  0.00     0.004 C 
ENDBRANCH  18  19
ENDBRANCH  17  18
ENDBRANCH  16  17
ENDBRANCH  15  16
ENDBRANCH  14  15
ENDBRANCH  13  14
ENDBRANCH   2  13
TORSDOF 15
ENDMDL
MODEL 8
REMARK VINA RESULT:     0.035      6.563      9.036
REMARK INTER + INTRA:          -3.644
REMARK INTER:                   0.000
REMARK INTRA:                  -3.644
REMARK UNBOUND:                -3.710
REMARK SMILES CCCCCCCCC=CCCCCCCCC(=O)[O-]
REMARK SMILES IDX 10 1 9 2 11 3 12 4 13 5 14 6 15 7 16 8 17 9 18 10 19 11
REMARK SMILES IDX 20 12 8 13 7 14 6 15 5 16 4 17 3 18 2 19 1 20
REMARK H PARENT
REMARK Flexibility Score: inf
ROOT
ATOM      1  C   UNL     1     176.792 190.419 187.277  1.00  0.00    -0.031 C 
ATOM      2  C   UNL     1     175.828 190.474 188.210  1.00  0.00    -0.031 C 
ENDROOT
BRANCH   1   3
ATOM      3  C   UNL     1     177.494 189.131 186.950  1.00  0.00     0.027 C 
BRANCH   3   4
ATOM      4  C   UNL     1     177.990 188.432 188.226  1.00  0.00     0.004 C 
BRANCH   4   5
ATOM      5  C   UNL     1     177.278 187.084 188.464  1.00  0.00     0.000 C 
BRANCH   5   6
ATOM      6  C   UNL     1     176.389 187.070 189.719  1.00  0.00     0.000 C 
BRANCH   6   7
ATOM      7  C   UNL     1     174.887 187.063 189.386  1.00  0.00     0.000 C 
BRANCH   7   8
ATOM      8  C   UNL     1     174.609 186.746 187.904  1.00  0.00     0.006 C 
BRANCH   8   9
ATOM      9  C   UNL     1     173.612 187.703 187.231  1.00  0.00     0.053 C 
BRANCH   9  10
ATOM     10  C   UNL     1     174.092 188.159 185.887  1.00  0.00     0.041 C 
ATOM     11  O   UNL     1     173.756 189.290 185.445  1.00  0.00    -0.550 OA
ATOM     12  O   UNL     1     174.881 187.322 185.108  1.00  0.00    -0.550 OA
ENDBRANCH   9  10
ENDBRANCH   8   9
ENDBRANCH   7   8
ENDBRANCH   6   7
ENDBRANCH   5   6
ENDBRANCH   4   5
ENDBRANCH   3   4
ENDBRANCH   1   3
BRANCH   2  13
ATOM     13  C   UNL     1     175.130 191.763 188.545  1.00  0.00     0.027 C 
BRANCH  13  14
ATOM     14  C   UNL     1     174.893 191.888 190.054  1.00  0.00     0.004 C 
BRANCH  14  15
ATOM     15  C   UNL     1     174.972 190.517 190.739  1.00  0.00     0.000 C 
BRANCH  15  16
ATOM     16  C   UNL     1     175.959 190.491 191.920  1.00  0.00     0.000 C 
BRANCH  16  17
ATOM     17  C   UNL     1     177.406 190.116 191.551  1.00  0.00    -0.000 C 
BRANCH  17  18
ATOM     18  C   UNL     1     178.347 191.329 191.507  1.00  0.00    -0.000 C 
BRANCH  18  19
ATOM     19  C   UNL     1     178.934 191.516 190.103  1.00  0.00    -0.003 C 
ATOM     20  C   UNL     1     178.559 192.878 189.526  1.00  0.00     0.004 C 
ENDBRANCH  18  19
ENDBRANCH  17  18
ENDBRANCH  16  17
ENDBRANCH  15  16
ENDBRANCH  14  15
ENDBRANCH  13  14
ENDBRANCH   2  13
TORSDOF 15
ENDMDL
MODEL 9
REMARK VINA RESULT:     0.037      6.607      9.248
REMARK INTER + INTRA:          -3.641
REMARK INTER:                   0.000
REMARK INTRA:                  -3.641
REMARK UNBOUND:                -3.710
REMARK SMILES CCCCCCCCC=CCCCCCCCC(=O)[O-]
REMARK SMILES IDX 10 1 9 2 11 3 12 4 13 5 14 6 15 7 16 8 17 9 18 10 19 11
REMARK SMILES IDX 20 12 8 13 7 14 6 15 5 16 4 17 3 18 2 19 1 20
REMARK H PARENT
REMARK Flexibility Score: inf
ROOT
ATOM      1  C   UNL     1     180.961 189.206 196.288  1.00  0.00    -0.031 C 
ATOM      2  C   UNL     1     180.513 187.969 196.553  1.00  0.00    -0.031 C 
ENDROOT
BRANCH   1   3
ATOM      3  C   UNL     1     181.222 189.660 194.880  1.00  0.00     0.027 C 
BRANCH   3   4
ATOM      4  C   UNL     1     179.918 190.081 194.183  1.00  0.00     0.004 C 
BRANCH   4   5
ATOM      5  C   UNL     1     179.566 189.154 193.001  1.00  0.00     0.000 C 
BRANCH   5   6
ATOM      6  C   UNL     1     178.373 188.224 193.281  1.00  0.00     0.000 C 
BRANCH   6   7
ATOM      7  C   UNL     1     178.712 186.739 193.071  1.00  0.00     0.000 C 
BRANCH   7   8
ATOM      8  C   UNL     1     180.228 186.467 193.094  1.00  0.00     0.006 C 
BRANCH   8   9
ATOM      9  C   UNL     1     180.652 185.337 194.046  1.00  0.00     0.053 C 
BRANCH   9  10
ATOM     10  C   UNL     1     179.842 184.094 193.839  1.00  0.00     0.041 C 
ATOM     11  O   UNL     1     179.131 183.639 194.774  1.00  0.00    -0.550 OA
ATOM     12  O   UNL     1     179.899 183.419 192.627  1.00  0.00    -0.550 OA
ENDBRANCH   9  10
ENDBRANCH   8   9
ENDBRANCH   7   8
ENDBRANCH   6   7
ENDBRANCH   5   6
ENDBRANCH   4   5
ENDBRANCH   3   4
ENDBRANCH   1   3
BRANCH   2  13
ATOM     13  C   UNL     1     180.258 187.509 197.962  1.00  0.00     0.027 C 
BRANCH  13  14
ATOM     14  C   UNL     1     178.901 186.806 198.078  1.00  0.00     0.004 C 
BRANCH  14  15
ATOM     15  C   UNL     1     178.286 186.564 196.693  1.00  0.00     0.000 C 
BRANCH  15  16
ATOM     16  C   UNL     1     176.888 187.189 196.538  1.00  0.00     0.000 C 
BRANCH  16  17
ATOM     17  C   UNL     1     176.690 188.532 197.264  1.00  0.00    -0.000 C 
BRANCH  17  18
ATOM     18  C   UNL     1     176.953 189.745 196.360  1.00  0.00    -0.000 C 
BRANCH  18  19
ATOM     19  C   UNL     1     177.735 190.830 197.111  1.00  0.00    -0.003 C 
ATOM     20  C   UNL     1     177.998 190.418 198.557  1.00  0.00     0.004 C 
ENDBRANCH  18  19
ENDBRANCH  17  18
ENDBRANCH  16  17
ENDBRANCH  15  16
ENDBRANCH  14  15
ENDBRANCH  13  14
ENDBRANCH   2  13
TORSDOF 15
ENDMDL
