MODEL 1
REMARK VINA RESULT:    -3.463      0.000      0.000
REMARK INTER + INTRA:          -4.192
REMARK INTER:                  -4.172
REMARK INTRA:                  -0.020
REMARK UNBOUND:                -0.020
REMARK SMILES OCC(O)CO
REMARK SMILES IDX 3 1 5 2 6 3 2 5 1 6 4 8
REMARK H PARENT 6 4 1 7 4 9
REMARK Flexibility Score: inf
ROOT
ATOM      1  C   UNL     1     194.068 209.974 215.599  1.00  0.00     0.165 C 
ENDROOT
BRANCH   1   2
ATOM      2  C   UNL     1     194.947 209.818 216.851  1.00  0.00     0.190 C 
BRANCH   2   3
ATOM      3  O   UNL     1     196.000 210.742 216.829  1.00  0.00    -0.394 OA
ATOM      4  H   UNL     1     195.673 211.519 216.306  1.00  0.00     0.210 HD
ENDBRANCH   2   3
ENDBRANCH   1   2
BRANCH   1   5
ATOM      5  C   UNL     1     193.952 208.657 214.815  1.00  0.00     0.190 C 
BRANCH   5   6
ATOM      6  O   UNL     1     195.019 208.511 213.918  1.00  0.00    -0.394 OA
ATOM      7  H   UNL     1     194.889 207.640 213.459  1.00  0.00     0.210 HD
ENDBRANCH   5   6
ENDBRANCH   1   5
BRANCH   1   8
ATOM      8  O   UNL     1     194.607 210.961 214.757  1.00  0.00    -0.388 OA
ATOM      9  H   UNL     1     194.090 210.929 213.911  1.00  0.00     0.211 HD
ENDBRANCH   1   8
TORSDOF 5
ENDMDL
MODEL 2
REMARK VINA RESULT:    -3.446     22.225     22.816
REMARK INTER + INTRA:          -4.171
REMARK INTER:                  -4.019
REMARK INTRA:                  -0.151
REMARK UNBOUND:                -0.020
REMARK SMILES OCC(O)CO
REMARK SMILES IDX 3 1 5 2 6 3 2 5 1 6 4 8
REMARK H PARENT 6 4 1 7 4 9
REMARK Flexibility Score: inf
ROOT
ATOM      1  C   UNL     1     212.567 197.089 216.265  1.00  0.00     0.165 C 
ENDROOT
BRANCH   1   2
ATOM      2  C   UNL     1     212.624 196.914 214.739  1.00  0.00     0.190 C 
BRANCH   2   3
ATOM      3  O   UNL     1     213.342 195.758 214.405  1.00  0.00    -0.394 OA
ATOM      4  H   UNL     1     214.120 196.062 213.869  1.00  0.00     0.210 HD
ENDBRANCH   2   3
ENDBRANCH   1   2
BRANCH   1   5
ATOM      5  C   UNL     1     213.960 196.978 216.905  1.00  0.00     0.190 C 
BRANCH   5   6
ATOM      6  O   UNL     1     214.125 195.738 217.537  1.00  0.00    -0.394 OA
ATOM      7  H   UNL     1     215.092 195.518 217.486  1.00  0.00     0.210 HD
ENDBRANCH   5   6
ENDBRANCH   1   5
BRANCH   1   8
ATOM      8  O   UNL     1     211.727 196.113 216.827  1.00  0.00    -0.388 OA
ATOM      9  H   UNL     1     210.882 196.571 217.075  1.00  0.00     0.211 HD
ENDBRANCH   1   8
TORSDOF 5
ENDMDL
MODEL 3
REMARK VINA RESULT:    -3.339      1.043      2.772
REMARK INTER + INTRA:          -4.042
REMARK INTER:                  -3.859
REMARK INTRA:                  -0.184
REMARK UNBOUND:                -0.020
REMARK SMILES OCC(O)CO
REMARK SMILES IDX 3 1 5 2 6 3 2 5 1 6 4 8
REMARK H PARENT 6 4 1 7 4 9
REMARK Flexibility Score: inf
ROOT
ATOM      1  C   UNL     1     194.130 209.483 215.413  1.00  0.00     0.165 C 
ENDROOT
BRANCH   1   2
ATOM      2  C   UNL     1     194.944 210.178 214.310  1.00  0.00     0.190 C 
BRANCH   2   3
ATOM      3  O   UNL     1     194.376 211.419 213.991  1.00  0.00    -0.394 OA
ATOM      4  H   UNL     1     194.526 212.002 214.780  1.00  0.00     0.210 HD
ENDBRANCH   2   3
ENDBRANCH   1   2
BRANCH   1   5
ATOM      5  C   UNL     1     194.560 209.944 216.815  1.00  0.00     0.190 C 
BRANCH   5   6
ATOM      6  O   UNL     1     195.725 210.720 216.753  1.00  0.00    -0.394 OA
ATOM      7  H   UNL     1     196.475 210.133 217.034  1.00  0.00     0.210 HD
ENDBRANCH   5   6
ENDBRANCH   1   5
BRANCH   1   8
ATOM      8  O   UNL     1     194.291 208.091 215.321  1.00  0.00    -0.388 OA
ATOM      9  H   UNL     1     193.618 207.767 214.666  1.00  0.00     0.211 HD
ENDBRANCH   1   8
TORSDOF 5
ENDMDL
MODEL 4
REMARK VINA RESULT:    -3.336     22.153     22.619
REMARK INTER + INTRA:          -4.039
REMARK INTER:                  -3.827
REMARK INTRA:                  -0.212
REMARK UNBOUND:                -0.020
REMARK SMILES OCC(O)CO
REMARK SMILES IDX 3 1 5 2 6 3 2 5 1 6 4 8
REMARK H PARENT 6 4 1 7 4 9
REMARK Flexibility Score: inf
ROOT
ATOM      1  C   UNL     1     212.585 197.023 214.128  1.00  0.00     0.165 C 
ENDROOT
BRANCH   1   2
ATOM      2  C   UNL     1     212.579 196.899 215.660  1.00  0.00     0.190 C 
BRANCH   2   3
ATOM      3  O   UNL     1     213.285 195.757 216.061  1.00  0.00    -0.394 OA
ATOM      4  H   UNL     1     213.192 195.102 215.322  1.00  0.00     0.210 HD
ENDBRANCH   2   3
ENDBRANCH   1   2
BRANCH   1   5
ATOM      5  C   UNL     1     213.710 196.191 213.492  1.00  0.00     0.190 C 
BRANCH   5   6
ATOM      6  O   UNL     1     213.247 194.920 213.123  1.00  0.00    -0.394 OA
ATOM      7  H   UNL     1     213.715 194.266 213.704  1.00  0.00     0.210 HD
ENDBRANCH   5   6
ENDBRANCH   1   5
BRANCH   1   8
ATOM      8  O   UNL     1     212.747 198.368 213.757  1.00  0.00    -0.388 OA
ATOM      9  H   UNL     1     212.378 198.460 212.841  1.00  0.00     0.211 HD
ENDBRANCH   1   8
TORSDOF 5
ENDMDL
MODEL 5
REMARK VINA RESULT:    -3.327     22.072     22.643
REMARK INTER + INTRA:          -4.027
REMARK INTER:                  -3.804
REMARK INTRA:                  -0.223
REMARK UNBOUND:                -0.020
REMARK SMILES OCC(O)CO
REMARK SMILES IDX 3 1 5 2 6 3 2 5 1 6 4 8
REMARK H PARENT 6 4 1 7 4 9
REMARK Flexibility Score: inf
ROOT
ATOM      1  C   UNL     1     213.297 197.358 214.265  1.00  0.00     0.165 C 
ENDROOT
BRANCH   1   2
ATOM      2  C   UNL     1     213.019 196.451 213.055  1.00  0.00     0.190 C 
BRANCH   2   3
ATOM      3  O   UNL     1     213.435 195.140 213.320  1.00  0.00    -0.394 OA
ATOM      4  H   UNL     1     214.426 195.151 213.273  1.00  0.00     0.210 HD
ENDBRANCH   2   3
ENDBRANCH   1   2
BRANCH   1   5
ATOM      5  C   UNL     1     212.521 196.902 215.511  1.00  0.00     0.190 C 
BRANCH   5   6
ATOM      6  O   UNL     1     213.165 195.826 216.138  1.00  0.00    -0.394 OA
ATOM      7  H   UNL     1     212.473 195.131 216.294  1.00  0.00     0.210 HD
ENDBRANCH   5   6
ENDBRANCH   1   5
BRANCH   1   8
ATOM      8  O   UNL     1     212.940 198.682 213.963  1.00  0.00    -0.388 OA
ATOM      9  H   UNL     1     213.314 198.883 213.066  1.00  0.00     0.211 HD
ENDBRANCH   1   8
TORSDOF 5
ENDMDL
MODEL 6
REMARK VINA RESULT:    -3.289     21.619     22.167
REMARK INTER + INTRA:          -3.982
REMARK INTER:                  -3.980
REMARK INTRA:                  -0.002
REMARK UNBOUND:                -0.020
REMARK SMILES OCC(O)CO
REMARK SMILES IDX 3 1 5 2 6 3 2 5 1 6 4 8
REMARK H PARENT 6 4 1 7 4 9
REMARK Flexibility Score: inf
ROOT
ATOM      1  C   UNL     1     212.749 196.984 214.981  1.00  0.00     0.165 C 
ENDROOT
BRANCH   1   2
ATOM      2  C   UNL     1     213.678 198.138 214.571  1.00  0.00     0.190 C 
BRANCH   2   3
ATOM      3  O   UNL     1     212.955 199.132 213.898  1.00  0.00    -0.394 OA
ATOM      4  H   UNL     1     212.198 199.373 214.493  1.00  0.00     0.210 HD
ENDBRANCH   2   3
ENDBRANCH   1   2
BRANCH   1   5
ATOM      5  C   UNL     1     212.622 196.869 216.509  1.00  0.00     0.190 C 
BRANCH   5   6
ATOM      6  O   UNL     1     211.566 196.018 216.863  1.00  0.00    -0.394 OA
ATOM      7  H   UNL     1     210.933 196.559 217.403  1.00  0.00     0.210 HD
ENDBRANCH   5   6
ENDBRANCH   1   5
BRANCH   1   8
ATOM      8  O   UNL     1     213.239 195.771 214.471  1.00  0.00    -0.388 OA
ATOM      9  H   UNL     1     213.429 195.920 213.509  1.00  0.00     0.211 HD
ENDBRANCH   1   8
TORSDOF 5
ENDMDL
MODEL 7
REMARK VINA RESULT:    -3.262     21.829     22.361
REMARK INTER + INTRA:          -3.949
REMARK INTER:                  -3.946
REMARK INTRA:                  -0.003
REMARK UNBOUND:                -0.020
REMARK SMILES OCC(O)CO
REMARK SMILES IDX 3 1 5 2 6 3 2 5 1 6 4 8
REMARK H PARENT 6 4 1 7 4 9
REMARK Flexibility Score: inf
ROOT
ATOM      1  C   UNL     1     213.261 196.736 213.873  1.00  0.00     0.165 C 
ENDROOT
BRANCH   1   2
ATOM      2  C   UNL     1     212.620 196.873 215.264  1.00  0.00     0.190 C 
BRANCH   2   3
ATOM      3  O   UNL     1     213.023 195.818 216.094  1.00  0.00    -0.394 OA
ATOM      4  H   UNL     1     212.855 196.120 217.024  1.00  0.00     0.210 HD
ENDBRANCH   2   3
ENDBRANCH   1   2
BRANCH   1   5
ATOM      5  C   UNL     1     212.425 197.434 212.789  1.00  0.00     0.190 C 
BRANCH   5   6
ATOM      6  O   UNL     1     212.158 198.765 213.140  1.00  0.00    -0.394 OA
ATOM      7  H   UNL     1     211.178 198.830 213.284  1.00  0.00     0.210 HD
ENDBRANCH   5   6
ENDBRANCH   1   5
BRANCH   1   8
ATOM      8  O   UNL     1     213.399 195.378 213.541  1.00  0.00    -0.388 OA
ATOM      9  H   UNL     1     213.586 194.893 214.386  1.00  0.00     0.211 HD
ENDBRANCH   1   8
TORSDOF 5
ENDMDL
MODEL 8
REMARK VINA RESULT:    -3.203      1.346      2.128
REMARK INTER + INTRA:          -3.879
REMARK INTER:                  -3.865
REMARK INTRA:                  -0.014
REMARK UNBOUND:                -0.020
REMARK SMILES OCC(O)CO
REMARK SMILES IDX 3 1 5 2 6 3 2 5 1 6 4 8
REMARK H PARENT 6 4 1 7 4 9
REMARK Flexibility Score: inf
ROOT
ATOM      1  C   UNL     1     194.925 209.916 215.491  1.00  0.00     0.165 C 
ENDROOT
BRANCH   1   2
ATOM      2  C   UNL     1     194.984 210.317 214.008  1.00  0.00     0.190 C 
BRANCH   2   3
ATOM      3  O   UNL     1     194.268 211.503 213.793  1.00  0.00    -0.394 OA
ATOM      4  H   UNL     1     194.934 212.176 213.496  1.00  0.00     0.210 HD
ENDBRANCH   2   3
ENDBRANCH   1   2
BRANCH   1   5
ATOM      5  C   UNL     1     193.944 208.757 215.730  1.00  0.00     0.190 C 
BRANCH   5   6
ATOM      6  O   UNL     1     194.146 207.728 214.799  1.00  0.00    -0.394 OA
ATOM      7  H   UNL     1     194.967 207.960 214.291  1.00  0.00     0.210 HD
ENDBRANCH   5   6
ENDBRANCH   1   5
BRANCH   1   8
ATOM      8  O   UNL     1     194.531 211.017 216.270  1.00  0.00    -0.388 OA
ATOM      9  H   UNL     1     195.361 211.443 216.605  1.00  0.00     0.211 HD
ENDBRANCH   1   8
TORSDOF 5
ENDMDL
MODEL 9
REMARK VINA RESULT:    -3.168     21.888     22.451
REMARK INTER + INTRA:          -3.836
REMARK INTER:                  -3.628
REMARK INTRA:                  -0.208
REMARK UNBOUND:                -0.020
REMARK SMILES OCC(O)CO
REMARK SMILES IDX 3 1 5 2 6 3 2 5 1 6 4 8
REMARK H PARENT 6 4 1 7 4 9
REMARK Flexibility Score: inf
ROOT
ATOM      1  C   UNL     1     212.834 196.955 215.113  1.00  0.00     0.165 C 
ENDROOT
BRANCH   1   2
ATOM      2  C   UNL     1     213.324 196.480 213.736  1.00  0.00     0.190 C 
BRANCH   2   3
ATOM      3  O   UNL     1     213.022 197.432 212.753  1.00  0.00    -0.394 OA
ATOM      4  H   UNL     1     213.556 198.238 212.977  1.00  0.00     0.210 HD
ENDBRANCH   2   3
ENDBRANCH   1   2
BRANCH   1   5
ATOM      5  C   UNL     1     213.670 198.131 215.642  1.00  0.00     0.190 C 
BRANCH   5   6
ATOM      6  O   UNL     1     213.555 199.248 214.803  1.00  0.00    -0.394 OA
ATOM      7  H   UNL     1     214.034 199.024 213.962  1.00  0.00     0.210 HD
ENDBRANCH   5   6
ENDBRANCH   1   5
BRANCH   1   8
ATOM      8  O   UNL     1     212.896 195.898 216.035  1.00  0.00    -0.388 OA
ATOM      9  H   UNL     1     213.528 196.176 216.748  1.00  0.00     0.211 HD
ENDBRANCH   1   8
TORSDOF 5
ENDMDL
