MODEL 1
REMARK VINA RESULT:    -5.584      0.000      0.000
REMARK INTER + INTRA:          -5.748
REMARK INTER:                  -5.748
REMARK INTRA:                   0.000
REMARK UNBOUND:                 0.000
REMARK SMILES Oc1ccc2[nH]ccc2c1
REMARK SMILES IDX 3 1 4 2 5 3 9 4 8 5 7 6 6 7 10 8 2 9 1 11
REMARK H PARENT 6 10 1 12
REMARK Flexibility Score: inf
ROOT
ATOM      1  C   UNL     1      31.117  10.751 -14.136  1.00  0.00     0.048 A 
ATOM      2  C   UNL     1      31.465  11.620 -13.085  1.00  0.00     0.030 A 
ATOM      3  C   UNL     1      31.443  12.990 -13.340  1.00  0.00     0.046 A 
ATOM      4  C   UNL     1      31.095  13.488 -14.567  1.00  0.00     0.003 A 
ATOM      5  C   UNL     1      31.173  14.862 -14.490  1.00  0.00     0.028 A 
ATOM      6  C   UNL     1      31.574  15.131 -13.185  1.00  0.00     0.083 A 
ATOM      7  N   UNL     1      31.738  13.984 -12.486  1.00  0.00    -0.361 N 
ATOM      8  C   UNL     1      30.745  12.657 -15.628  1.00  0.00     0.056 A 
ATOM      9  C   UNL     1      30.757  11.266 -15.406  1.00  0.00     0.116 A 
ATOM     10  H   UNL     1      32.033  13.895 -11.488  1.00  0.00     0.166 HD
ENDROOT
BRANCH   9  11
ATOM     11  O   UNL     1      30.413  10.406 -16.446  1.00  0.00    -0.508 OA
ATOM     12  H   UNL     1      30.403   9.400 -16.319  1.00  0.00     0.293 HD
ENDBRANCH   9  11
TORSDOF 1
ENDMDL
MODEL 2
REMARK VINA RESULT:    -5.566      2.630      4.094
REMARK INTER + INTRA:          -5.728
REMARK INTER:                  -5.728
REMARK INTRA:                   0.000
REMARK UNBOUND:                 0.000
REMARK SMILES Oc1ccc2[nH]ccc2c1
REMARK SMILES IDX 3 1 4 2 5 3 9 4 8 5 7 6 6 7 10 8 2 9 1 11
REMARK H PARENT 6 10 1 12
REMARK Flexibility Score: inf
ROOT
ATOM      1  C   UNL     1      31.514  15.110 -13.492  1.00  0.00     0.048 A 
ATOM      2  C   UNL     1      31.130  14.548 -14.724  1.00  0.00     0.030 A 
ATOM      3  C   UNL     1      30.950  13.168 -14.780  1.00  0.00     0.046 A 
ATOM      4  C   UNL     1      31.135  12.372 -13.682  1.00  0.00     0.003 A 
ATOM      5  C   UNL     1      30.881  11.073 -14.066  1.00  0.00     0.028 A 
ATOM      6  C   UNL     1      30.544  11.152 -15.413  1.00  0.00     0.083 A 
ATOM      7  N   UNL     1      30.588  12.434 -15.846  1.00  0.00    -0.361 N 
ATOM      8  C   UNL     1      31.515  12.896 -12.448  1.00  0.00     0.056 A 
ATOM      9  C   UNL     1      31.706  14.288 -12.354  1.00  0.00     0.116 A 
ATOM     10  H   UNL     1      30.382  12.778 -16.810  1.00  0.00     0.166 HD
ENDROOT
BRANCH   9  11
ATOM     11  O   UNL     1      32.086  14.845 -11.136  1.00  0.00    -0.508 OA
ATOM     12  H   UNL     1      31.677  15.709 -10.799  1.00  0.00     0.293 HD
ENDBRANCH   9  11
TORSDOF 1
ENDMDL
MODEL 3
REMARK VINA RESULT:    -5.519      0.903      1.987
REMARK INTER + INTRA:          -5.680
REMARK INTER:                  -5.680
REMARK INTRA:                   0.000
REMARK UNBOUND:                 0.000
REMARK SMILES Oc1ccc2[nH]ccc2c1
REMARK SMILES IDX 3 1 4 2 5 3 9 4 8 5 7 6 6 7 10 8 2 9 1 11
REMARK H PARENT 6 10 1 12
REMARK Flexibility Score: inf
ROOT
ATOM      1  C   UNL     1      31.108  12.692 -16.189  1.00  0.00     0.048 A 
ATOM      2  C   UNL     1      31.484  13.823 -15.441  1.00  0.00     0.030 A 
ATOM      3  C   UNL     1      31.505  13.706 -14.052  1.00  0.00     0.046 A 
ATOM      4  C   UNL     1      31.173  12.537 -13.423  1.00  0.00     0.003 A 
ATOM      5  C   UNL     1      31.293  12.750 -12.067  1.00  0.00     0.028 A 
ATOM      6  C   UNL     1      31.703  14.074 -11.942  1.00  0.00     0.083 A 
ATOM      7  N   UNL     1      31.831  14.654 -13.158  1.00  0.00    -0.361 N 
ATOM      8  C   UNL     1      30.796  11.399 -14.133  1.00  0.00     0.056 A 
ATOM      9  C   UNL     1      30.764  11.480 -15.539  1.00  0.00     0.116 A 
ATOM     10  H   UNL     1      32.123  15.637 -13.356  1.00  0.00     0.166 HD
ENDROOT
BRANCH   9  11
ATOM     11  O   UNL     1      30.392  10.362 -16.279  1.00  0.00    -0.508 OA
ATOM     12  H   UNL     1      29.842   9.615 -15.869  1.00  0.00     0.293 HD
ENDBRANCH   9  11
TORSDOF 1
ENDMDL
MODEL 4
REMARK VINA RESULT:    -5.477      1.563      1.990
REMARK INTER + INTRA:          -5.637
REMARK INTER:                  -5.637
REMARK INTRA:                   0.000
REMARK UNBOUND:                 0.000
REMARK SMILES Oc1ccc2[nH]ccc2c1
REMARK SMILES IDX 3 1 4 2 5 3 9 4 8 5 7 6 6 7 10 8 2 9 1 11
REMARK H PARENT 6 10 1 12
REMARK Flexibility Score: inf
ROOT
ATOM      1  C   UNL     1      31.099  11.356 -14.636  1.00  0.00     0.048 A 
ATOM      2  C   UNL     1      31.644  11.093 -13.366  1.00  0.00     0.030 A 
ATOM      3  C   UNL     1      31.901  12.179 -12.532  1.00  0.00     0.046 A 
ATOM      4  C   UNL     1      31.636  13.465 -12.921  1.00  0.00     0.003 A 
ATOM      5  C   UNL     1      31.999  14.293 -11.881  1.00  0.00     0.028 A 
ATOM      6  C   UNL     1      32.477  13.443 -10.889  1.00  0.00     0.083 A 
ATOM      7  N   UNL     1      32.415  12.152 -11.291  1.00  0.00    -0.361 N 
ATOM      8  C   UNL     1      31.096  13.760 -14.171  1.00  0.00     0.056 A 
ATOM      9  C   UNL     1      30.824  12.686 -15.041  1.00  0.00     0.116 A 
ATOM     10  H   UNL     1      32.708  11.311 -10.745  1.00  0.00     0.166 HD
ENDROOT
BRANCH   9  11
ATOM     11  O   UNL     1      30.285  12.945 -16.298  1.00  0.00    -0.508 OA
ATOM     12  H   UNL     1      30.561  13.760 -16.834  1.00  0.00     0.293 HD
ENDBRANCH   9  11
TORSDOF 1
ENDMDL
MODEL 5
REMARK VINA RESULT:    -5.411      1.382      1.780
REMARK INTER + INTRA:          -5.569
REMARK INTER:                  -5.569
REMARK INTRA:                   0.000
REMARK UNBOUND:                 0.000
REMARK SMILES Oc1ccc2[nH]ccc2c1
REMARK SMILES IDX 3 1 4 2 5 3 9 4 8 5 7 6 6 7 10 8 2 9 1 11
REMARK H PARENT 6 10 1 12
REMARK Flexibility Score: inf
ROOT
ATOM      1  C   UNL     1      31.781  12.160 -12.367  1.00  0.00     0.048 A 
ATOM      2  C   UNL     1      31.794  13.543 -12.108  1.00  0.00     0.030 A 
ATOM      3  C   UNL     1      31.453  14.403 -13.150  1.00  0.00     0.046 A 
ATOM      4  C   UNL     1      31.113  13.933 -14.390  1.00  0.00     0.003 A 
ATOM      5  C   UNL     1      30.834  15.024 -15.183  1.00  0.00     0.028 A 
ATOM      6  C   UNL     1      31.024  16.130 -14.360  1.00  0.00     0.083 A 
ATOM      7  N   UNL     1      31.402  15.745 -13.118  1.00  0.00    -0.361 N 
ATOM      8  C   UNL     1      31.090  12.570 -14.680  1.00  0.00     0.056 A 
ATOM      9  C   UNL     1      31.429  11.671 -13.650  1.00  0.00     0.116 A 
ATOM     10  H   UNL     1      31.610  16.367 -12.306  1.00  0.00     0.166 HD
ENDROOT
BRANCH   9  11
ATOM     11  O   UNL     1      31.417  10.303 -13.906  1.00  0.00    -0.508 OA
ATOM     12  H   UNL     1      32.027   9.666 -13.407  1.00  0.00     0.293 HD
ENDBRANCH   9  11
TORSDOF 1
ENDMDL
MODEL 6
REMARK VINA RESULT:    -5.405      2.469      3.081
REMARK INTER + INTRA:          -5.563
REMARK INTER:                  -5.563
REMARK INTRA:                   0.000
REMARK UNBOUND:                 0.000
REMARK SMILES Oc1ccc2[nH]ccc2c1
REMARK SMILES IDX 3 1 4 2 5 3 9 4 8 5 7 6 6 7 10 8 2 9 1 11
REMARK H PARENT 6 10 1 12
REMARK Flexibility Score: inf
ROOT
ATOM      1  C   UNL     1      31.236  11.719 -13.107  1.00  0.00     0.048 A 
ATOM      2  C   UNL     1      30.860  11.903 -14.450  1.00  0.00     0.030 A 
ATOM      3  C   UNL     1      30.798  13.208 -14.935  1.00  0.00     0.046 A 
ATOM      4  C   UNL     1      31.092  14.286 -14.143  1.00  0.00     0.003 A 
ATOM      5  C   UNL     1      30.937  15.418 -14.912  1.00  0.00     0.028 A 
ATOM      6  C   UNL     1      30.548  14.955 -16.166  1.00  0.00     0.083 A 
ATOM      7  N   UNL     1      30.464  13.604 -16.174  1.00  0.00    -0.361 N 
ATOM      8  C   UNL     1      31.467  14.139 -12.809  1.00  0.00     0.056 A 
ATOM      9  C   UNL     1      31.540  12.833 -12.285  1.00  0.00     0.116 A 
ATOM     10  H   UNL     1      30.195  12.998 -16.981  1.00  0.00     0.166 HD
ENDROOT
BRANCH   9  11
ATOM     11  O   UNL     1      31.912  12.650 -10.956  1.00  0.00    -0.508 OA
ATOM     12  H   UNL     1      31.306  12.174 -10.298  1.00  0.00     0.293 HD
ENDBRANCH   9  11
TORSDOF 1
ENDMDL
MODEL 7
REMARK VINA RESULT:    -5.227     19.373     19.790
REMARK INTER + INTRA:          -5.380
REMARK INTER:                  -5.380
REMARK INTRA:                   0.000
REMARK UNBOUND:                 0.000
REMARK SMILES Oc1ccc2[nH]ccc2c1
REMARK SMILES IDX 3 1 4 2 5 3 9 4 8 5 7 6 6 7 10 8 2 9 1 11
REMARK H PARENT 6 10 1 12
REMARK Flexibility Score: inf
ROOT
ATOM      1  C   UNL     1      15.397  22.094 -20.630  1.00  0.00     0.048 A 
ATOM      2  C   UNL     1      14.990  21.629 -19.366  1.00  0.00     0.030 A 
ATOM      3  C   UNL     1      14.911  22.555 -18.328  1.00  0.00     0.046 A 
ATOM      4  C   UNL     1      15.215  23.876 -18.516  1.00  0.00     0.003 A 
ATOM      5  C   UNL     1      15.038  24.516 -17.309  1.00  0.00     0.028 A 
ATOM      6  C   UNL     1      14.623  23.522 -16.428  1.00  0.00     0.083 A 
ATOM      7  N   UNL     1      14.548  22.325 -17.055  1.00  0.00    -0.361 N 
ATOM      8  C   UNL     1      15.621  24.369 -19.754  1.00  0.00     0.056 A 
ATOM      9  C   UNL     1      15.712  23.461 -20.827  1.00  0.00     0.116 A 
ATOM     10  H   UNL     1      14.264  21.413 -16.632  1.00  0.00     0.166 HD
ENDROOT
BRANCH   9  11
ATOM     11  O   UNL     1      16.115  23.921 -22.078  1.00  0.00    -0.508 OA
ATOM     12  H   UNL     1      16.247  24.909 -22.261  1.00  0.00     0.293 HD
ENDBRANCH   9  11
TORSDOF 1
ENDMDL
MODEL 8
REMARK VINA RESULT:    -5.189      2.568      3.661
REMARK INTER + INTRA:          -5.341
REMARK INTER:                  -5.341
REMARK INTRA:                   0.000
REMARK UNBOUND:                 0.000
REMARK SMILES Oc1ccc2[nH]ccc2c1
REMARK SMILES IDX 3 1 4 2 5 3 9 4 8 5 7 6 6 7 10 8 2 9 1 11
REMARK H PARENT 6 10 1 12
REMARK Flexibility Score: inf
ROOT
ATOM      1  C   UNL     1      31.770  14.089 -11.943  1.00  0.00     0.048 A 
ATOM      2  C   UNL     1      31.646  12.691 -12.035  1.00  0.00     0.030 A 
ATOM      3  C   UNL     1      31.294  12.149 -13.270  1.00  0.00     0.046 A 
ATOM      4  C   UNL     1      31.074  12.939 -14.366  1.00  0.00     0.003 A 
ATOM      5  C   UNL     1      30.748  12.107 -15.415  1.00  0.00     0.028 A 
ATOM      6  C   UNL     1      30.789  10.821 -14.885  1.00  0.00     0.083 A 
ATOM      7  N   UNL     1      31.123  10.852 -13.574  1.00  0.00    -0.361 N 
ATOM      8  C   UNL     1      31.188  14.326 -14.309  1.00  0.00     0.056 A 
ATOM      9  C   UNL     1      31.542  14.908 -13.076  1.00  0.00     0.116 A 
ATOM     10  H   UNL     1      31.226  10.033 -12.934  1.00  0.00     0.166 HD
ENDROOT
BRANCH   9  11
ATOM     11  O   UNL     1      31.665  16.292 -12.984  1.00  0.00    -0.508 OA
ATOM     12  H   UNL     1      32.276  16.811 -13.605  1.00  0.00     0.293 HD
ENDBRANCH   9  11
TORSDOF 1
ENDMDL
MODEL 9
REMARK VINA RESULT:    -5.144     19.703     20.144
REMARK INTER + INTRA:          -5.294
REMARK INTER:                  -5.294
REMARK INTRA:                   0.000
REMARK UNBOUND:                 0.000
REMARK SMILES Oc1ccc2[nH]ccc2c1
REMARK SMILES IDX 3 1 4 2 5 3 9 4 8 5 7 6 6 7 10 8 2 9 1 11
REMARK H PARENT 6 10 1 12
REMARK Flexibility Score: inf
ROOT
ATOM      1  C   UNL     1      15.380  24.262 -20.913  1.00  0.00     0.048 A 
ATOM      2  C   UNL     1      15.364  24.912 -19.666  1.00  0.00     0.030 A 
ATOM      3  C   UNL     1      15.043  24.153 -18.541  1.00  0.00     0.046 A 
ATOM      4  C   UNL     1      14.752  22.819 -18.632  1.00  0.00     0.003 A 
ATOM      5  C   UNL     1      14.481  22.368 -17.359  1.00  0.00     0.028 A 
ATOM      6  C   UNL     1      14.627  23.483 -16.540  1.00  0.00     0.083 A 
ATOM      7  N   UNL     1      14.970  24.572 -17.267  1.00  0.00    -0.361 N 
ATOM      8  C   UNL     1      14.759  22.144 -19.851  1.00  0.00     0.056 A 
ATOM      9  C   UNL     1      15.079  22.880 -21.009  1.00  0.00     0.116 A 
ATOM     10  H   UNL     1      15.142  25.537 -16.908  1.00  0.00     0.166 HD
ENDROOT
BRANCH   9  11
ATOM     11  O   UNL     1      15.096  22.237 -22.244  1.00  0.00    -0.508 OA
ATOM     12  H   UNL     1      14.326  21.650 -22.545  1.00  0.00     0.293 HD
ENDBRANCH   9  11
TORSDOF 1
ENDMDL
