MODEL 1
REMARK VINA RESULT:    -2.679      0.000      0.000
REMARK INTER + INTRA:          -6.202
REMARK INTER:                  -4.871
REMARK INTRA:                  -1.330
REMARK UNBOUND:                -1.330
REMARK SMILES CCCCCCCCCCCCCC[C@@H](C)C(=O)[O-]
REMARK SMILES IDX 9 1 10 2 11 3 12 4 13 5 14 6 15 7 16 8 17 9 18 10 19 11 8 12
REMARK SMILES IDX 7 13 6 14 5 15 4 16 3 17 2 18 1 19
REMARK H PARENT
REMARK Flexibility Score: inf
ROOT
ATOM      1  C   UNL     1       9.351 -34.282  14.551  1.00  0.00     0.000 C 
ENDROOT
BRANCH   1   2
ATOM      2  C   UNL     1       9.240 -35.199  13.321  1.00  0.00     0.000 C 
BRANCH   2   3
ATOM      3  C   UNL     1       8.377 -36.444  13.590  1.00  0.00     0.000 C 
BRANCH   3   4
ATOM      4  C   UNL     1       6.894 -36.097  13.800  1.00  0.00     0.000 C 
BRANCH   4   5
ATOM      5  C   UNL     1       6.422 -36.353  15.241  1.00  0.00     0.001 C 
BRANCH   5   6
ATOM      6  C   UNL     1       5.932 -35.081  15.963  1.00  0.00     0.009 C 
BRANCH   6   7
ATOM      7  C   UNL     1       6.678 -34.693  17.265  1.00  0.00     0.032 C 
ATOM      8  C   UNL     1       7.782 -35.695  17.639  1.00  0.00     0.014 C 
BRANCH   7   9
ATOM      9  C   UNL     1       7.168 -33.266  17.238  1.00  0.00     0.044 C 
ATOM     10  O   UNL     1       8.030 -32.855  18.060  1.00  0.00    -0.550 OA
ATOM     11  O   UNL     1       6.646 -32.378  16.304  1.00  0.00    -0.550 OA
ENDBRANCH   7   9
ENDBRANCH   6   7
ENDBRANCH   5   6
ENDBRANCH   4   5
ENDBRANCH   3   4
ENDBRANCH   2   3
ENDBRANCH   1   2
BRANCH   1  12
ATOM     12  C   UNL     1       9.345 -32.790  14.176  1.00  0.00     0.000 C 
BRANCH  12  13
ATOM     13  C   UNL     1      10.381 -32.449  13.092  1.00  0.00    -0.000 C 
BRANCH  13  14
ATOM     14  C   UNL     1      11.828 -32.564  13.597  1.00  0.00    -0.000 C 
BRANCH  14  15
ATOM     15  C   UNL     1      12.226 -31.325  14.409  1.00  0.00    -0.000 C 
BRANCH  15  16
ATOM     16  C   UNL     1      13.562 -30.751  13.915  1.00  0.00    -0.000 C 
BRANCH  16  17
ATOM     17  C   UNL     1      14.756 -31.211  14.768  1.00  0.00    -0.000 C 
BRANCH  17  18
ATOM     18  C   UNL     1      16.067 -31.262  13.970  1.00  0.00    -0.003 C 
ATOM     19  C   UNL     1      17.131 -32.063  14.715  1.00  0.00     0.004 C 
ENDBRANCH  17  18
ENDBRANCH  16  17
ENDBRANCH  15  16
ENDBRANCH  14  15
ENDBRANCH  13  14
ENDBRANCH  12  13
ENDBRANCH   1  12
TORSDOF 14
ENDMDL
MODEL 2
REMARK VINA RESULT:    -2.548      1.465      1.925
REMARK INTER + INTRA:          -5.964
REMARK INTER:                  -4.946
REMARK INTRA:                  -1.017
REMARK UNBOUND:                -1.330
REMARK SMILES CCCCCCCCCCCCCC[C@@H](C)C(=O)[O-]
REMARK SMILES IDX 9 1 10 2 11 3 12 4 13 5 14 6 15 7 16 8 17 9 18 10 19 11 8 12
REMARK SMILES IDX 7 13 6 14 5 15 4 16 3 17 2 18 1 19
REMARK H PARENT
REMARK Flexibility Score: inf
ROOT
ATOM      1  C   UNL     1       9.986 -33.460  13.948  1.00  0.00     0.000 C 
ENDROOT
BRANCH   1   2
ATOM      2  C   UNL     1       8.893 -33.884  12.953  1.00  0.00     0.000 C 
BRANCH   2   3
ATOM      3  C   UNL     1       7.642 -32.992  13.037  1.00  0.00     0.000 C 
BRANCH   3   4
ATOM      4  C   UNL     1       6.341 -33.809  13.101  1.00  0.00     0.000 C 
BRANCH   4   5
ATOM      5  C   UNL     1       5.875 -34.074  14.543  1.00  0.00     0.001 C 
BRANCH   5   6
ATOM      6  C   UNL     1       6.630 -33.237  15.596  1.00  0.00     0.009 C 
BRANCH   6   7
ATOM      7  C   UNL     1       7.196 -34.008  16.816  1.00  0.00     0.032 C 
ATOM      8  C   UNL     1       8.110 -35.176  16.411  1.00  0.00     0.014 C 
BRANCH   7   9
ATOM      9  C   UNL     1       7.838 -33.087  17.825  1.00  0.00     0.044 C 
ATOM     10  O   UNL     1       7.384 -32.980  18.996  1.00  0.00    -0.550 OA
ATOM     11  O   UNL     1       8.939 -32.323  17.453  1.00  0.00    -0.550 OA
ENDBRANCH   7   9
ENDBRANCH   6   7
ENDBRANCH   5   6
ENDBRANCH   4   5
ENDBRANCH   3   4
ENDBRANCH   2   3
ENDBRANCH   1   2
BRANCH   1  12
ATOM     12  C   UNL     1      10.645 -32.123  13.566  1.00  0.00     0.000 C 
BRANCH  12  13
ATOM     13  C   UNL     1      12.180 -32.182  13.630  1.00  0.00    -0.000 C 
BRANCH  13  14
ATOM     14  C   UNL     1      12.776 -31.132  14.581  1.00  0.00    -0.000 C 
BRANCH  14  15
ATOM     15  C   UNL     1      14.060 -30.530  13.998  1.00  0.00    -0.000 C 
BRANCH  15  16
ATOM     16  C   UNL     1      15.176 -31.584  13.924  1.00  0.00    -0.000 C 
BRANCH  16  17
ATOM     17  C   UNL     1      16.330 -31.293  14.898  1.00  0.00    -0.000 C 
BRANCH  17  18
ATOM     18  C   UNL     1      17.507 -32.262  14.724  1.00  0.00    -0.003 C 
ATOM     19  C   UNL     1      18.471 -31.768  13.649  1.00  0.00     0.004 C 
ENDBRANCH  17  18
ENDBRANCH  16  17
ENDBRANCH  15  16
ENDBRANCH  14  15
ENDBRANCH  13  14
ENDBRANCH  12  13
ENDBRANCH   1  12
TORSDOF 14
ENDMDL
MODEL 3
REMARK VINA RESULT:    -2.525      9.209     14.530
REMARK INTER + INTRA:          -5.922
REMARK INTER:                  -5.464
REMARK INTRA:                  -0.458
REMARK UNBOUND:                -1.330
REMARK SMILES CCCCCCCCCCCCCC[C@@H](C)C(=O)[O-]
REMARK SMILES IDX 9 1 10 2 11 3 12 4 13 5 14 6 15 7 16 8 17 9 18 10 19 11 8 12
REMARK SMILES IDX 7 13 6 14 5 15 4 16 3 17 2 18 1 19
REMARK H PARENT
REMARK Flexibility Score: inf
ROOT
ATOM      1  C   UNL     1      21.282 -27.256  13.873  1.00  0.00     0.000 C 
ENDROOT
BRANCH   1   2
ATOM      2  C   UNL     1      21.414 -25.904  13.154  1.00  0.00     0.000 C 
BRANCH   2   3
ATOM      3  C   UNL     1      20.131 -25.059  13.247  1.00  0.00     0.000 C 
BRANCH   3   4
ATOM      4  C   UNL     1      20.423 -23.577  13.533  1.00  0.00     0.000 C 
BRANCH   4   5
ATOM      5  C   UNL     1      20.490 -23.263  15.037  1.00  0.00     0.001 C 
BRANCH   5   6
ATOM      6  C   UNL     1      20.570 -21.754  15.346  1.00  0.00     0.009 C 
BRANCH   6   7
ATOM      7  C   UNL     1      19.798 -20.809  14.389  1.00  0.00     0.032 C 
ATOM      8  C   UNL     1      18.293 -21.117  14.336  1.00  0.00     0.014 C 
BRANCH   7   9
ATOM      9  C   UNL     1      20.087 -19.354  14.668  1.00  0.00     0.044 C 
ATOM     10  O   UNL     1      20.075 -18.899  15.843  1.00  0.00    -0.550 OA
ATOM     11  O   UNL     1      20.352 -18.492  13.610  1.00  0.00    -0.550 OA
ENDBRANCH   7   9
ENDBRANCH   6   7
ENDBRANCH   5   6
ENDBRANCH   4   5
ENDBRANCH   3   4
ENDBRANCH   2   3
ENDBRANCH   1   2
BRANCH   1  12
ATOM     12  C   UNL     1      20.930 -28.404  12.911  1.00  0.00     0.000 C 
BRANCH  12  13
ATOM     13  C   UNL     1      20.554 -29.700  13.650  1.00  0.00    -0.000 C 
BRANCH  13  14
ATOM     14  C   UNL     1      19.433 -30.481  12.946  1.00  0.00    -0.000 C 
BRANCH  14  15
ATOM     15  C   UNL     1      19.076 -31.751  13.728  1.00  0.00    -0.000 C 
BRANCH  15  16
ATOM     16  C   UNL     1      17.589 -32.097  13.564  1.00  0.00    -0.000 C 
BRANCH  16  17
ATOM     17  C   UNL     1      16.831 -32.098  14.902  1.00  0.00    -0.000 C 
BRANCH  17  18
ATOM     18  C   UNL     1      15.925 -30.869  15.068  1.00  0.00    -0.003 C 
ATOM     19  C   UNL     1      14.749 -30.918  14.096  1.00  0.00     0.004 C 
ENDBRANCH  17  18
ENDBRANCH  16  17
ENDBRANCH  15  16
ENDBRANCH  14  15
ENDBRANCH  13  14
ENDBRANCH  12  13
ENDBRANCH   1  12
TORSDOF 14
ENDMDL
MODEL 4
REMARK VINA RESULT:    -2.018      2.281      4.146
REMARK INTER + INTRA:          -4.999
REMARK INTER:                  -3.241
REMARK INTRA:                  -1.758
REMARK UNBOUND:                -1.330
REMARK SMILES CCCCCCCCCCCCCC[C@@H](C)C(=O)[O-]
REMARK SMILES IDX 9 1 10 2 11 3 12 4 13 5 14 6 15 7 16 8 17 9 18 10 19 11 8 12
REMARK SMILES IDX 7 13 6 14 5 15 4 16 3 17 2 18 1 19
REMARK H PARENT
REMARK Flexibility Score: inf
ROOT
ATOM      1  C   UNL     1       8.769 -32.532  17.939  1.00  0.00     0.000 C 
ENDROOT
BRANCH   1   2
ATOM      2  C   UNL     1       7.261 -32.257  18.067  1.00  0.00     0.000 C 
BRANCH   2   3
ATOM      3  C   UNL     1       6.497 -32.546  16.763  1.00  0.00     0.000 C 
BRANCH   3   4
ATOM      4  C   UNL     1       7.438 -32.804  15.575  1.00  0.00     0.000 C 
BRANCH   4   5
ATOM      5  C   UNL     1       6.868 -33.824  14.575  1.00  0.00     0.001 C 
BRANCH   5   6
ATOM      6  C   UNL     1       5.875 -34.818  15.211  1.00  0.00     0.009 C 
BRANCH   6   7
ATOM      7  C   UNL     1       6.403 -36.253  15.471  1.00  0.00     0.032 C 
ATOM      8  C   UNL     1       7.266 -36.788  14.316  1.00  0.00     0.014 C 
BRANCH   7   9
ATOM      9  C   UNL     1       7.082 -36.376  16.813  1.00  0.00     0.044 C 
ATOM     10  O   UNL     1       8.095 -35.684  17.099  1.00  0.00    -0.550 OA
ATOM     11  O   UNL     1       6.597 -37.285  17.747  1.00  0.00    -0.550 OA
ENDBRANCH   7   9
ENDBRANCH   6   7
ENDBRANCH   5   6
ENDBRANCH   4   5
ENDBRANCH   3   4
ENDBRANCH   2   3
ENDBRANCH   1   2
BRANCH   1  12
ATOM     12  C   UNL     1       9.627 -31.403  18.537  1.00  0.00     0.000 C 
BRANCH  12  13
ATOM     13  C   UNL     1      10.373 -30.596  17.462  1.00  0.00    -0.000 C 
BRANCH  13  14
ATOM     14  C   UNL     1      10.509 -31.358  16.134  1.00  0.00    -0.000 C 
BRANCH  14  15
ATOM     15  C   UNL     1      11.881 -31.109  15.497  1.00  0.00    -0.000 C 
BRANCH  15  16
ATOM     16  C   UNL     1      11.855 -31.429  13.995  1.00  0.00    -0.000 C 
BRANCH  16  17
ATOM     17  C   UNL     1      10.687 -32.349  13.606  1.00  0.00    -0.000 C 
BRANCH  17  18
ATOM     18  C   UNL     1      11.159 -33.698  13.045  1.00  0.00    -0.003 C 
ATOM     19  C   UNL     1      10.369 -34.853  13.656  1.00  0.00     0.004 C 
ENDBRANCH  17  18
ENDBRANCH  16  17
ENDBRANCH  15  16
ENDBRANCH  14  15
ENDBRANCH  13  14
ENDBRANCH  12  13
ENDBRANCH   1  12
TORSDOF 14
ENDMDL
MODEL 5
REMARK VINA RESULT:    -1.919      2.052      3.358
REMARK INTER + INTRA:          -4.820
REMARK INTER:                  -3.600
REMARK INTRA:                  -1.220
REMARK UNBOUND:                -1.330
REMARK SMILES CCCCCCCCCCCCCC[C@@H](C)C(=O)[O-]
REMARK SMILES IDX 9 1 10 2 11 3 12 4 13 5 14 6 15 7 16 8 17 9 18 10 19 11 8 12
REMARK SMILES IDX 7 13 6 14 5 15 4 16 3 17 2 18 1 19
REMARK H PARENT
REMARK Flexibility Score: inf
ROOT
ATOM      1  C   UNL     1       8.900 -31.996  17.699  1.00  0.00     0.000 C 
ENDROOT
BRANCH   1   2
ATOM      2  C   UNL     1       7.925 -32.857  18.518  1.00  0.00     0.000 C 
BRANCH   2   3
ATOM      3  C   UNL     1       7.084 -33.797  17.637  1.00  0.00     0.000 C 
BRANCH   3   4
ATOM      4  C   UNL     1       7.373 -35.280  17.918  1.00  0.00     0.000 C 
BRANCH   4   5
ATOM      5  C   UNL     1       6.772 -36.215  16.855  1.00  0.00     0.001 C 
BRANCH   5   6
ATOM      6  C   UNL     1       5.918 -35.480  15.803  1.00  0.00     0.009 C 
BRANCH   6   7
ATOM      7  C   UNL     1       6.508 -35.391  14.372  1.00  0.00     0.032 C 
ATOM      8  C   UNL     1       6.611 -33.945  13.860  1.00  0.00     0.014 C 
BRANCH   7   9
ATOM      9  C   UNL     1       7.806 -36.150  14.242  1.00  0.00     0.044 C 
ATOM     10  O   UNL     1       8.910 -35.610  14.517  1.00  0.00    -0.550 OA
ATOM     11  O   UNL     1       7.789 -37.465  13.789  1.00  0.00    -0.550 OA
ENDBRANCH   7   9
ENDBRANCH   6   7
ENDBRANCH   5   6
ENDBRANCH   4   5
ENDBRANCH   3   4
ENDBRANCH   2   3
ENDBRANCH   1   2
BRANCH   1  12
ATOM     12  C   UNL     1       9.044 -32.488  16.247  1.00  0.00     0.000 C 
BRANCH  12  13
ATOM     13  C   UNL     1      10.214 -31.816  15.510  1.00  0.00    -0.000 C 
BRANCH  13  14
ATOM     14  C   UNL     1      10.581 -32.533  14.201  1.00  0.00    -0.000 C 
BRANCH  14  15
ATOM     15  C   UNL     1      11.780 -31.858  13.523  1.00  0.00    -0.000 C 
BRANCH  15  16
ATOM     16  C   UNL     1      12.750 -31.285  14.568  1.00  0.00    -0.000 C 
BRANCH  16  17
ATOM     17  C   UNL     1      14.073 -30.808  13.947  1.00  0.00    -0.000 C 
BRANCH  17  18
ATOM     18  C   UNL     1      15.260 -30.942  14.912  1.00  0.00    -0.003 C 
ATOM     19  C   UNL     1      16.423 -31.680  14.252  1.00  0.00     0.004 C 
ENDBRANCH  17  18
ENDBRANCH  16  17
ENDBRANCH  15  16
ENDBRANCH  14  15
ENDBRANCH  13  14
ENDBRANCH  12  13
ENDBRANCH   1  12
TORSDOF 14
ENDMDL
MODEL 6
REMARK VINA RESULT:    -1.848      2.078      3.359
REMARK INTER + INTRA:          -4.691
REMARK INTER:                  -3.597
REMARK INTRA:                  -1.094
REMARK UNBOUND:                -1.330
REMARK SMILES CCCCCCCCCCCCCC[C@@H](C)C(=O)[O-]
REMARK SMILES IDX 9 1 10 2 11 3 12 4 13 5 14 6 15 7 16 8 17 9 18 10 19 11 8 12
REMARK SMILES IDX 7 13 6 14 5 15 4 16 3 17 2 18 1 19
REMARK H PARENT
REMARK Flexibility Score: inf
ROOT
ATOM      1  C   UNL     1       9.305 -31.794  16.471  1.00  0.00     0.000 C 
ENDROOT
BRANCH   1   2
ATOM      2  C   UNL     1       9.019 -32.337  17.881  1.00  0.00     0.000 C 
BRANCH   2   3
ATOM      3  C   UNL     1       7.540 -32.713  18.080  1.00  0.00     0.000 C 
BRANCH   3   4
ATOM      4  C   UNL     1       7.153 -33.994  17.323  1.00  0.00     0.000 C 
BRANCH   4   5
ATOM      5  C   UNL     1       6.218 -33.722  16.132  1.00  0.00     0.001 C 
BRANCH   5   6
ATOM      6  C   UNL     1       5.875 -34.988  15.319  1.00  0.00     0.009 C 
BRANCH   6   7
ATOM      7  C   UNL     1       6.705 -36.259  15.635  1.00  0.00     0.032 C 
ATOM      8  C   UNL     1       5.875 -37.356  16.320  1.00  0.00     0.014 C 
BRANCH   7   9
ATOM      9  C   UNL     1       7.457 -36.764  14.427  1.00  0.00     0.044 C 
ATOM     10  O   UNL     1       7.190 -37.882  13.911  1.00  0.00    -0.550 OA
ATOM     11  O   UNL     1       8.479 -35.993  13.883  1.00  0.00    -0.550 OA
ENDBRANCH   7   9
ENDBRANCH   6   7
ENDBRANCH   5   6
ENDBRANCH   4   5
ENDBRANCH   3   4
ENDBRANCH   2   3
ENDBRANCH   1   2
BRANCH   1  12
ATOM     12  C   UNL     1       9.615 -32.912  15.460  1.00  0.00     0.000 C 
BRANCH  12  13
ATOM     13  C   UNL     1       9.061 -32.610  14.057  1.00  0.00    -0.000 C 
BRANCH  13  14
ATOM     14  C   UNL     1      10.158 -32.197  13.063  1.00  0.00    -0.000 C 
BRANCH  14  15
ATOM     15  C   UNL     1      11.551 -32.374  13.677  1.00  0.00    -0.000 C 
BRANCH  15  16
ATOM     16  C   UNL     1      12.293 -31.032  13.753  1.00  0.00    -0.000 C 
BRANCH  16  17
ATOM     17  C   UNL     1      13.500 -31.076  14.706  1.00  0.00    -0.000 C 
BRANCH  17  18
ATOM     18  C   UNL     1      14.811 -30.673  14.017  1.00  0.00    -0.003 C 
ATOM     19  C   UNL     1      15.961 -31.578  14.454  1.00  0.00     0.004 C 
ENDBRANCH  17  18
ENDBRANCH  16  17
ENDBRANCH  15  16
ENDBRANCH  14  15
ENDBRANCH  13  14
ENDBRANCH  12  13
ENDBRANCH   1  12
TORSDOF 14
ENDMDL
MODEL 7
REMARK VINA RESULT:    -1.726      1.746      3.136
REMARK INTER + INTRA:          -4.468
REMARK INTER:                  -3.517
REMARK INTRA:                  -0.952
REMARK UNBOUND:                -1.330
REMARK SMILES CCCCCCCCCCCCCC[C@@H](C)C(=O)[O-]
REMARK SMILES IDX 9 1 10 2 11 3 12 4 13 5 14 6 15 7 16 8 17 9 18 10 19 11 8 12
REMARK SMILES IDX 7 13 6 14 5 15 4 16 3 17 2 18 1 19
REMARK H PARENT
REMARK Flexibility Score: inf
ROOT
ATOM      1  C   UNL     1      11.079 -31.898  14.433  1.00  0.00     0.000 C 
ENDROOT
BRANCH   1   2
ATOM      2  C   UNL     1      10.645 -32.407  13.049  1.00  0.00     0.000 C 
BRANCH   2   3
ATOM      3  C   UNL     1      10.603 -33.943  12.972  1.00  0.00     0.000 C 
BRANCH   3   4
ATOM      4  C   UNL     1       9.167 -34.487  12.876  1.00  0.00     0.000 C 
BRANCH   4   5
ATOM      5  C   UNL     1       8.108 -33.439  13.256  1.00  0.00     0.001 C 
BRANCH   5   6
ATOM      6  C   UNL     1       7.099 -33.940  14.309  1.00  0.00     0.009 C 
BRANCH   6   7
ATOM      7  C   UNL     1       7.594 -33.981  15.778  1.00  0.00     0.032 C 
ATOM      8  C   UNL     1       7.069 -32.804  16.616  1.00  0.00     0.014 C 
BRANCH   7   9
ATOM      9  C   UNL     1       7.341 -35.320  16.428  1.00  0.00     0.044 C 
ATOM     10  O   UNL     1       7.709 -35.552  17.611  1.00  0.00    -0.550 OA
ATOM     11  O   UNL     1       6.711 -36.326  15.705  1.00  0.00    -0.550 OA
ENDBRANCH   7   9
ENDBRANCH   6   7
ENDBRANCH   5   6
ENDBRANCH   4   5
ENDBRANCH   3   4
ENDBRANCH   2   3
ENDBRANCH   1   2
BRANCH   1  12
ATOM     12  C   UNL     1      12.284 -30.945  14.360  1.00  0.00     0.000 C 
BRANCH  12  13
ATOM     13  C   UNL     1      13.608 -31.685  14.105  1.00  0.00    -0.000 C 
BRANCH  13  14
ATOM     14  C   UNL     1      14.812 -30.734  14.008  1.00  0.00    -0.000 C 
BRANCH  14  15
ATOM     15  C   UNL     1      15.806 -30.990  15.148  1.00  0.00    -0.000 C 
BRANCH  15  16
ATOM     16  C   UNL     1      16.855 -32.033  14.737  1.00  0.00    -0.000 C 
BRANCH  16  17
ATOM     17  C   UNL     1      17.141 -32.022  13.227  1.00  0.00    -0.000 C 
BRANCH  17  18
ATOM     18  C   UNL     1      18.613 -31.725  12.906  1.00  0.00    -0.003 C 
ATOM     19  C   UNL     1      19.383 -31.343  14.168  1.00  0.00     0.004 C 
ENDBRANCH  17  18
ENDBRANCH  16  17
ENDBRANCH  15  16
ENDBRANCH  14  15
ENDBRANCH  13  14
ENDBRANCH  12  13
ENDBRANCH   1  12
TORSDOF 14
ENDMDL
