MODEL 1
REMARK VINA RESULT:    -7.130      0.000      0.000
REMARK INTER + INTRA:         -10.864
REMARK INTER:                  -9.839
REMARK INTRA:                  -1.025
REMARK UNBOUND:                -1.025
REMARK SMILES C[C@@H]1OC(=O)[C@@H](C)[C@@H]1C[C@H](O)[C@@](C)(O)[C@@H]1CC[C@]2(O)C3=CC(=O)[C@@H]4C[C@@H](O)[C@@H](O)C[C@@]4(C)[C@H]3CC[C@]12C
REMARK SMILES IDX 12 1 13 2 10 3 9 4 8 5 7 6 6 7 4 8 2 9 3 10 5 11 1 12 11 13
REMARK SMILES IDX 15 15 16 16 36 17 17 18 18 19 35 20 37 21 20 22 34 23 33 24
REMARK SMILES IDX 21 25 31 26 22 27 24 28 30 29 32 30 23 31 25 32 28 33 26 34
REMARK SMILES IDX 19 35 29 37 27 39 14 41
REMARK H PARENT 11 14 19 36 29 38 27 40 14 42
REMARK Flexibility Score: inf
ROOT
ATOM      1  C   UNL     1       2.785 -20.719  -6.475  1.00  0.00     0.091 C 
ATOM      2  C   UNL     1       1.951 -20.817  -7.788  1.00  0.00     0.045 C 
ENDROOT
BRANCH   1   3
ATOM      3  C   UNL     1       4.345 -20.548  -6.778  1.00  0.00     0.146 C 
BRANCH   3   4
ATOM      4  C   UNL     1       4.712 -19.540  -7.908  1.00  0.00     0.043 C 
BRANCH   4   5
ATOM      5  C   UNL     1       6.218 -19.164  -7.913  1.00  0.00     0.046 C 
ATOM      6  C   UNL     1       7.292 -19.969 -10.102  1.00  0.00     0.020 C 
ATOM      7  C   UNL     1       6.723 -18.774  -9.325  1.00  0.00     0.103 C 
ATOM      8  C   UNL     1       7.771 -17.776  -9.004  1.00  0.00     0.309 C 
ATOM      9  C   UNL     1       6.657 -17.979  -6.992  1.00  0.00     0.177 C 
ATOM     10  O   UNL     1       7.746 -17.384  -7.680  1.00  0.00    -0.462 OA
ATOM     11  O   UNL     1       8.571 -17.286  -9.843  1.00  0.00    -0.252 OA
ATOM     12  C   UNL     1       5.594 -16.898  -6.764  1.00  0.00     0.053 C 
ENDBRANCH   4   5
ENDBRANCH   3   4
BRANCH   3  13
ATOM     13  O   UNL     1       4.939 -21.795  -7.062  1.00  0.00    -0.390 OA
ATOM     14  H   UNL     1       5.909 -21.656  -7.219  1.00  0.00     0.211 HD
ENDBRANCH   3  13
ENDBRANCH   1   3
BRANCH   1  15
ATOM     15  C   UNL     1       2.139 -19.539  -5.627  1.00  0.00     0.032 C 
ATOM     16  C   UNL     1       1.770 -18.262  -6.424  1.00  0.00     0.010 C 
ATOM     17  C   UNL     1       2.766 -19.054  -4.266  1.00  0.00     0.006 C 
ATOM     18  C   UNL     1       2.046 -17.068  -5.512  1.00  0.00     0.041 C 
ATOM     19  C   UNL     1       2.118 -17.636  -4.083  1.00  0.00     0.092 C 
ATOM     20  C   UNL     1       4.319 -18.971  -4.341  1.00  0.00     0.011 C 
ATOM     21  C   UNL     1       2.378 -19.994  -3.091  1.00  0.00     0.015 C 
ATOM     22  C   UNL     1       2.937 -16.732  -3.144  1.00  0.00    -0.031 C 
ATOM     23  C   UNL     1       4.972 -18.112  -3.248  1.00  0.00     0.009 C 
ATOM     24  C   UNL     1       4.454 -16.668  -3.343  1.00  0.00     0.025 C 
ATOM     25  C   UNL     1       2.349 -16.134  -2.080  1.00  0.00     0.050 C 
ATOM     26  C   UNL     1       5.179 -15.596  -2.427  1.00  0.00    -0.013 C 
ATOM     27  C   UNL     1       3.127 -15.508  -1.003  1.00  0.00     0.159 C 
ATOM     28  C   UNL     1       4.621 -15.693  -0.978  1.00  0.00     0.070 C 
ATOM     29  C   UNL     1       6.722 -15.813  -2.376  1.00  0.00     0.042 C 
ATOM     30  C   UNL     1       4.890 -14.196  -3.057  1.00  0.00     0.013 C 
ATOM     31  O   UNL     1       2.529 -14.897  -0.076  1.00  0.00    -0.295 OA
ATOM     32  C   UNL     1       5.320 -14.724   0.007  1.00  0.00     0.047 C 
ATOM     33  C   UNL     1       7.446 -14.826  -1.438  1.00  0.00     0.143 C 
ATOM     34  C   UNL     1       6.859 -14.856  -0.006  1.00  0.00     0.143 C 
BRANCH  19  35
ATOM     35  O   UNL     1       0.799 -17.760  -3.573  1.00  0.00    -0.385 OA
ATOM     36  H   UNL     1       0.815 -18.171  -2.671  1.00  0.00     0.211 HD
ENDBRANCH  19  35
BRANCH  33  37
ATOM     37  O   UNL     1       8.813 -15.152  -1.404  1.00  0.00    -0.390 OA
ATOM     38  H   UNL     1       9.020 -15.434  -0.473  1.00  0.00     0.211 HD
ENDBRANCH  33  37
BRANCH  34  39
ATOM     39  O   UNL     1       7.285 -15.993   0.710  1.00  0.00    -0.390 OA
ATOM     40  H   UNL     1       6.500 -16.579   0.857  1.00  0.00     0.211 HD
ENDBRANCH  34  39
ENDBRANCH   1  15
BRANCH   1  41
ATOM     41  O   UNL     1       2.576 -21.915  -5.757  1.00  0.00    -0.387 OA
ATOM     42  H   UNL     1       3.422 -22.155  -5.297  1.00  0.00     0.211 HD
ENDBRANCH   1  41
TORSDOF 9
ENDMDL
MODEL 2
REMARK VINA RESULT:    -6.893     12.137     15.576
REMARK INTER + INTRA:         -10.537
REMARK INTER:                  -9.856
REMARK INTRA:                  -0.681
REMARK UNBOUND:                -1.025
REMARK SMILES C[C@@H]1OC(=O)[C@@H](C)[C@@H]1C[C@H](O)[C@@](C)(O)[C@@H]1CC[C@]2(O)C3=CC(=O)[C@@H]4C[C@@H](O)[C@@H](O)C[C@@]4(C)[C@H]3CC[C@]12C
REMARK SMILES IDX 12 1 13 2 10 3 9 4 8 5 7 6 6 7 4 8 2 9 3 10 5 11 1 12 11 13
REMARK SMILES IDX 15 15 16 16 36 17 17 18 18 19 35 20 37 21 20 22 34 23 33 24
REMARK SMILES IDX 21 25 31 26 22 27 24 28 30 29 32 30 23 31 25 32 28 33 26 34
REMARK SMILES IDX 19 35 29 37 27 39 14 41
REMARK H PARENT 11 14 19 36 29 38 27 40 14 42
REMARK Flexibility Score: inf
ROOT
ATOM      1  C   UNL     1       1.159 -28.184   7.203  1.00  0.00     0.091 C 
ATOM      2  C   UNL     1       1.475 -28.676   8.648  1.00  0.00     0.045 C 
ENDROOT
BRANCH   1   3
ATOM      3  C   UNL     1       1.894 -26.802   6.876  1.00  0.00     0.146 C 
BRANCH   3   4
ATOM      4  C   UNL     1       2.833 -26.252   7.992  1.00  0.00     0.043 C 
BRANCH   4   5
ATOM      5  C   UNL     1       4.247 -25.889   7.462  1.00  0.00     0.046 C 
ATOM      6  C   UNL     1       4.024 -24.513   5.306  1.00  0.00     0.020 C 
ATOM      7  C   UNL     1       4.291 -24.482   6.817  1.00  0.00     0.103 C 
ATOM      8  C   UNL     1       5.677 -24.055   7.123  1.00  0.00     0.309 C 
ATOM      9  C   UNL     1       5.416 -25.889   8.500  1.00  0.00     0.177 C 
ATOM     10  O   UNL     1       6.304 -24.887   8.028  1.00  0.00    -0.462 OA
ATOM     11  O   UNL     1       6.225 -23.021   6.659  1.00  0.00    -0.252 OA
ATOM     12  C   UNL     1       5.016 -25.529   9.936  1.00  0.00     0.053 C 
ENDBRANCH   4   5
ENDBRANCH   3   4
BRANCH   3  13
ATOM     13  O   UNL     1       0.957 -25.806   6.531  1.00  0.00    -0.390 OA
ATOM     14  H   UNL     1       1.304 -24.927   6.830  1.00  0.00     0.211 HD
ENDBRANCH   3  13
ENDBRANCH   1   3
BRANCH   1  15
ATOM     15  C   UNL     1       1.538 -29.385   6.233  1.00  0.00     0.032 C 
ATOM     16  C   UNL     1       2.335 -30.546   6.880  1.00  0.00     0.010 C 
ATOM     17  C   UNL     1       2.174 -29.137   4.814  1.00  0.00     0.006 C 
ATOM     18  C   UNL     1       3.321 -31.053   5.828  1.00  0.00     0.041 C 
ATOM     19  C   UNL     1       2.798 -30.537   4.475  1.00  0.00     0.092 C 
ATOM     20  C   UNL     1       3.258 -28.020   4.852  1.00  0.00     0.011 C 
ATOM     21  C   UNL     1       1.098 -28.744   3.765  1.00  0.00     0.015 C 
ATOM     22  C   UNL     1       3.917 -30.444   3.422  1.00  0.00    -0.031 C 
ATOM     23  C   UNL     1       4.219 -28.013   3.655  1.00  0.00     0.009 C 
ATOM     24  C   UNL     1       4.975 -29.349   3.587  1.00  0.00     0.025 C 
ATOM     25  C   UNL     1       3.875 -31.208   2.305  1.00  0.00     0.050 C 
ATOM     26  C   UNL     1       6.162 -29.438   2.539  1.00  0.00    -0.013 C 
ATOM     27  C   UNL     1       4.745 -30.956   1.149  1.00  0.00     0.159 C 
ATOM     28  C   UNL     1       5.579 -29.704   1.121  1.00  0.00     0.070 C 
ATOM     29  C   UNL     1       7.001 -28.124   2.488  1.00  0.00     0.042 C 
ATOM     30  C   UNL     1       7.088 -30.607   3.003  1.00  0.00     0.013 C 
ATOM     31  O   UNL     1       4.720 -31.746   0.166  1.00  0.00    -0.295 OA
ATOM     32  C   UNL     1       6.664 -29.740   0.016  1.00  0.00     0.047 C 
ATOM     33  C   UNL     1       8.120 -28.157   1.428  1.00  0.00     0.143 C 
ATOM     34  C   UNL     1       7.571 -28.489   0.019  1.00  0.00     0.143 C 
BRANCH  19  35
ATOM     35  O   UNL     1       1.793 -31.423   4.005  1.00  0.00    -0.385 OA
ATOM     36  H   UNL     1       0.892 -31.054   4.192  1.00  0.00     0.211 HD
ENDBRANCH  19  35
BRANCH  33  37
ATOM     37  O   UNL     1       8.764 -26.908   1.410  1.00  0.00    -0.390 OA
ATOM     38  H   UNL     1       8.609 -26.516   0.510  1.00  0.00     0.211 HD
ENDBRANCH  33  37
BRANCH  34  39
ATOM     39  O   UNL     1       6.924 -27.382  -0.563  1.00  0.00    -0.390 OA
ATOM     40  H   UNL     1       6.644 -27.633  -1.480  1.00  0.00     0.211 HD
ENDBRANCH  34  39
ENDBRANCH   1  15
BRANCH   1  41
ATOM     41  O   UNL     1      -0.237 -28.001   7.120  1.00  0.00    -0.387 OA
ATOM     42  H   UNL     1      -0.671 -28.608   7.775  1.00  0.00     0.211 HD
ENDBRANCH   1  41
TORSDOF 9
ENDMDL
MODEL 3
REMARK VINA RESULT:    -6.388      1.700      7.056
REMARK INTER + INTRA:          -9.840
REMARK INTER:                  -8.919
REMARK INTRA:                  -0.921
REMARK UNBOUND:                -1.025
REMARK SMILES C[C@@H]1OC(=O)[C@@H](C)[C@@H]1C[C@H](O)[C@@](C)(O)[C@@H]1CC[C@]2(O)C3=CC(=O)[C@@H]4C[C@@H](O)[C@@H](O)C[C@@]4(C)[C@H]3CC[C@]12C
REMARK SMILES IDX 12 1 13 2 10 3 9 4 8 5 7 6 6 7 4 8 2 9 3 10 5 11 1 12 11 13
REMARK SMILES IDX 15 15 16 16 36 17 17 18 18 19 35 20 37 21 20 22 34 23 33 24
REMARK SMILES IDX 21 25 31 26 22 27 24 28 30 29 32 30 23 31 25 32 28 33 26 34
REMARK SMILES IDX 19 35 29 37 27 39 14 41
REMARK H PARENT 11 14 19 36 29 38 27 40 14 42
REMARK Flexibility Score: inf
ROOT
ATOM      1  C   UNL     1       1.905 -19.572  -3.354  1.00  0.00     0.091 C 
ATOM      2  C   UNL     1       1.987 -20.298  -1.977  1.00  0.00     0.045 C 
ENDROOT
BRANCH   1   3
ATOM      3  C   UNL     1       2.103 -17.993  -3.201  1.00  0.00     0.146 C 
BRANCH   3   4
ATOM      4  C   UNL     1       2.548 -17.497  -1.792  1.00  0.00     0.043 C 
BRANCH   4   5
ATOM      5  C   UNL     1       3.484 -16.261  -1.859  1.00  0.00     0.046 C 
ATOM      6  C   UNL     1       2.537 -14.393  -0.373  1.00  0.00     0.020 C 
ATOM      7  C   UNL     1       3.574 -15.517  -0.503  1.00  0.00     0.103 C 
ATOM      8  C   UNL     1       4.958 -14.988  -0.542  1.00  0.00     0.309 C 
ATOM      9  C   UNL     1       4.970 -16.516  -2.272  1.00  0.00     0.177 C 
ATOM     10  O   UNL     1       5.705 -15.524  -1.572  1.00  0.00    -0.462 OA
ATOM     11  O   UNL     1       5.437 -14.178   0.295  1.00  0.00    -0.252 OA
ATOM     12  C   UNL     1       5.532 -17.888  -1.879  1.00  0.00     0.053 C 
ENDBRANCH   4   5
ENDBRANCH   3   4
BRANCH   3  13
ATOM     13  O   UNL     1       0.934 -17.303  -3.584  1.00  0.00    -0.390 OA
ATOM     14  H   UNL     1       0.650 -17.631  -4.476  1.00  0.00     0.211 HD
ENDBRANCH   3  13
ENDBRANCH   1   3
BRANCH   1  15
ATOM     15  C   UNL     1       2.969 -20.287  -4.295  1.00  0.00     0.032 C 
ATOM     16  C   UNL     1       4.183 -20.926  -3.574  1.00  0.00     0.010 C 
ATOM     17  C   UNL     1       3.531 -19.593  -5.592  1.00  0.00     0.006 C 
ATOM     18  C   UNL     1       5.398 -20.730  -4.480  1.00  0.00     0.041 C 
ATOM     19  C   UNL     1       4.836 -20.418  -5.878  1.00  0.00     0.092 C 
ATOM     20  C   UNL     1       3.845 -18.087  -5.352  1.00  0.00     0.011 C 
ATOM     21  C   UNL     1       2.534 -19.706  -6.779  1.00  0.00     0.015 C 
ATOM     22  C   UNL     1       5.844 -19.642  -6.746  1.00  0.00    -0.031 C 
ATOM     23  C   UNL     1       4.782 -17.451  -6.389  1.00  0.00     0.009 C 
ATOM     24  C   UNL     1       6.134 -18.182  -6.386  1.00  0.00     0.025 C 
ATOM     25  C   UNL     1       6.338 -20.191  -7.881  1.00  0.00     0.050 C 
ATOM     26  C   UNL     1       7.295 -17.527  -7.244  1.00  0.00    -0.013 C 
ATOM     27  C   UNL     1       7.064 -19.399  -8.883  1.00  0.00     0.159 C 
ATOM     28  C   UNL     1       7.104 -17.902  -8.742  1.00  0.00     0.070 C 
ATOM     29  C   UNL     1       7.309 -15.972  -7.124  1.00  0.00     0.042 C 
ATOM     30  C   UNL     1       8.642 -18.086  -6.684  1.00  0.00     0.013 C 
ATOM     31  O   UNL     1       7.572 -19.975  -9.884  1.00  0.00    -0.295 OA
ATOM     32  C   UNL     1       8.158 -17.249  -9.670  1.00  0.00     0.047 C 
ATOM     33  C   UNL     1       8.385 -15.303  -8.001  1.00  0.00     0.143 C 
ATOM     34  C   UNL     1       8.257 -15.717  -9.487  1.00  0.00     0.143 C 
BRANCH  19  35
ATOM     35  O   UNL     1       4.512 -21.640  -6.525  1.00  0.00    -0.385 OA
ATOM     36  H   UNL     1       3.838 -21.487  -7.235  1.00  0.00     0.211 HD
ENDBRANCH  19  35
BRANCH  33  37
ATOM     37  O   UNL     1       8.266 -13.908  -7.880  1.00  0.00    -0.390 OA
ATOM     38  H   UNL     1       7.359 -13.666  -8.207  1.00  0.00     0.211 HD
ENDBRANCH  33  37
BRANCH  34  39
ATOM     39  O   UNL     1       7.191 -15.053 -10.125  1.00  0.00    -0.390 OA
ATOM     40  H   UNL     1       7.242 -14.091  -9.894  1.00  0.00     0.211 HD
ENDBRANCH  34  39
ENDBRANCH   1  15
BRANCH   1  41
ATOM     41  O   UNL     1       0.628 -19.834  -3.890  1.00  0.00    -0.387 OA
ATOM     42  H   UNL     1       0.219 -20.578  -3.376  1.00  0.00     0.211 HD
ENDBRANCH   1  41
TORSDOF 9
ENDMDL
MODEL 4
REMARK VINA RESULT:    -6.361     12.781     15.714
REMARK INTER + INTRA:          -9.803
REMARK INTER:                  -9.454
REMARK INTRA:                  -0.349
REMARK UNBOUND:                -1.025
REMARK SMILES C[C@@H]1OC(=O)[C@@H](C)[C@@H]1C[C@H](O)[C@@](C)(O)[C@@H]1CC[C@]2(O)C3=CC(=O)[C@@H]4C[C@@H](O)[C@@H](O)C[C@@]4(C)[C@H]3CC[C@]12C
REMARK SMILES IDX 12 1 13 2 10 3 9 4 8 5 7 6 6 7 4 8 2 9 3 10 5 11 1 12 11 13
REMARK SMILES IDX 15 15 16 16 36 17 17 18 18 19 35 20 37 21 20 22 34 23 33 24
REMARK SMILES IDX 21 25 31 26 22 27 24 28 30 29 32 30 23 31 25 32 28 33 26 34
REMARK SMILES IDX 19 35 29 37 27 39 14 41
REMARK H PARENT 11 14 19 36 29 38 27 40 14 42
REMARK Flexibility Score: inf
ROOT
ATOM      1  C   UNL     1       0.849 -29.834   4.876  1.00  0.00     0.091 C 
ATOM      2  C   UNL     1       1.858 -30.396   3.829  1.00  0.00     0.045 C 
ENDROOT
BRANCH   1   3
ATOM      3  C   UNL     1       0.133 -31.006   5.694  1.00  0.00     0.146 C 
BRANCH   3   4
ATOM      4  C   UNL     1       0.509 -31.111   7.203  1.00  0.00     0.043 C 
BRANCH   4   5
ATOM      5  C   UNL     1       1.212 -32.449   7.556  1.00  0.00     0.046 C 
ATOM      6  C   UNL     1       3.514 -32.528   6.422  1.00  0.00     0.020 C 
ATOM      7  C   UNL     1       2.742 -32.283   7.725  1.00  0.00     0.103 C 
ATOM      8  C   UNL     1       3.044 -33.314   8.747  1.00  0.00     0.309 C 
ATOM      9  C   UNL     1       0.743 -33.177   8.857  1.00  0.00     0.177 C 
ATOM     10  O   UNL     1       1.908 -33.836   9.330  1.00  0.00    -0.462 OA
ATOM     11  O   UNL     1       4.205 -33.654   9.097  1.00  0.00    -0.252 OA
ATOM     12  C   UNL     1       0.233 -32.256   9.974  1.00  0.00     0.053 C 
ENDBRANCH   4   5
ENDBRANCH   3   4
BRANCH   3  13
ATOM     13  O   UNL     1       0.354 -32.255   5.076  1.00  0.00    -0.390 OA
ATOM     14  H   UNL     1      -0.369 -32.877   5.350  1.00  0.00     0.211 HD
ENDBRANCH   3  13
ENDBRANCH   1   3
BRANCH   1  15
ATOM     15  C   UNL     1       1.667 -28.804   5.770  1.00  0.00     0.032 C 
ATOM     16  C   UNL     1       0.856 -27.605   6.325  1.00  0.00     0.010 C 
ATOM     17  C   UNL     1       3.061 -28.231   5.313  1.00  0.00     0.006 C 
ATOM     18  C   UNL     1       1.787 -26.393   6.319  1.00  0.00     0.041 C 
ATOM     19  C   UNL     1       3.215 -26.957   6.218  1.00  0.00     0.092 C 
ATOM     20  C   UNL     1       3.068 -27.864   3.800  1.00  0.00     0.011 C 
ATOM     21  C   UNL     1       4.210 -29.241   5.582  1.00  0.00     0.015 C 
ATOM     22  C   UNL     1       4.200 -25.932   5.627  1.00  0.00    -0.031 C 
ATOM     23  C   UNL     1       4.198 -26.916   3.372  1.00  0.00     0.009 C 
ATOM     24  C   UNL     1       4.081 -25.590   4.139  1.00  0.00     0.025 C 
ATOM     25  C   UNL     1       5.234 -25.466   6.368  1.00  0.00     0.050 C 
ATOM     26  C   UNL     1       5.038 -24.415   3.671  1.00  0.00    -0.013 C 
ATOM     27  C   UNL     1       6.352 -24.723   5.774  1.00  0.00     0.159 C 
ATOM     28  C   UNL     1       6.455 -24.632   4.276  1.00  0.00     0.070 C 
ATOM     29  C   UNL     1       5.170 -24.348   2.119  1.00  0.00     0.042 C 
ATOM     30  C   UNL     1       4.400 -23.083   4.178  1.00  0.00     0.013 C 
ATOM     31  O   UNL     1       7.249 -24.245   6.521  1.00  0.00    -0.295 OA
ATOM     32  C   UNL     1       7.480 -23.565   3.817  1.00  0.00     0.047 C 
ATOM     33  C   UNL     1       6.149 -23.258   1.637  1.00  0.00     0.143 C 
ATOM     34  C   UNL     1       7.548 -23.414   2.281  1.00  0.00     0.143 C 
BRANCH  19  35
ATOM     35  O   UNL     1       3.654 -27.327   7.516  1.00  0.00    -0.385 OA
ATOM     36  H   UNL     1       4.574 -26.994   7.678  1.00  0.00     0.211 HD
ENDBRANCH  19  35
BRANCH  33  37
ATOM     37  O   UNL     1       6.253 -23.330   0.237  1.00  0.00    -0.390 OA
ATOM     38  H   UNL     1       5.336 -23.209  -0.128  1.00  0.00     0.211 HD
ENDBRANCH  33  37
BRANCH  34  39
ATOM     39  O   UNL     1       8.280 -24.464   1.691  1.00  0.00    -0.390 OA
ATOM     40  H   UNL     1       8.925 -24.070   1.050  1.00  0.00     0.211 HD
ENDBRANCH  34  39
ENDBRANCH   1  15
BRANCH   1  41
ATOM     41  O   UNL     1      -0.122 -29.097   4.168  1.00  0.00    -0.387 OA
ATOM     42  H   UNL     1      -0.936 -29.029   4.732  1.00  0.00     0.211 HD
ENDBRANCH   1  41
TORSDOF 9
ENDMDL
MODEL 5
REMARK VINA RESULT:    -6.270     12.621     16.288
REMARK INTER + INTRA:          -9.677
REMARK INTER:                  -9.422
REMARK INTRA:                  -0.254
REMARK UNBOUND:                -1.025
REMARK SMILES C[C@@H]1OC(=O)[C@@H](C)[C@@H]1C[C@H](O)[C@@](C)(O)[C@@H]1CC[C@]2(O)C3=CC(=O)[C@@H]4C[C@@H](O)[C@@H](O)C[C@@]4(C)[C@H]3CC[C@]12C
REMARK SMILES IDX 12 1 13 2 10 3 9 4 8 5 7 6 6 7 4 8 2 9 3 10 5 11 1 12 11 13
REMARK SMILES IDX 15 15 16 16 36 17 17 18 18 19 35 20 37 21 20 22 34 23 33 24
REMARK SMILES IDX 21 25 31 26 22 27 24 28 30 29 32 30 23 31 25 32 28 33 26 34
REMARK SMILES IDX 19 35 29 37 27 39 14 41
REMARK H PARENT 11 14 19 36 29 38 27 40 14 42
REMARK Flexibility Score: inf
ROOT
ATOM      1  C   UNL     1       0.973 -28.319   7.251  1.00  0.00     0.091 C 
ATOM      2  C   UNL     1       1.223 -28.367   8.789  1.00  0.00     0.045 C 
ENDROOT
BRANCH   1   3
ATOM      3  C   UNL     1       1.786 -27.130   6.558  1.00  0.00     0.146 C 
BRANCH   3   4
ATOM      4  C   UNL     1       3.256 -26.941   7.039  1.00  0.00     0.043 C 
BRANCH   4   5
ATOM      5  C   UNL     1       3.733 -25.466   6.950  1.00  0.00     0.046 C 
ATOM      6  C   UNL     1       4.909 -24.816   9.138  1.00  0.00     0.020 C 
ATOM      7  C   UNL     1       5.084 -25.240   7.673  1.00  0.00     0.103 C 
ATOM      8  C   UNL     1       5.685 -24.160   6.855  1.00  0.00     0.309 C 
ATOM      9  C   UNL     1       3.942 -24.872   5.519  1.00  0.00     0.177 C 
ATOM     10  O   UNL     1       4.999 -23.938   5.678  1.00  0.00    -0.462 OA
ATOM     11  O   UNL     1       6.736 -23.536   7.157  1.00  0.00    -0.252 OA
ATOM     12  C   UNL     1       4.363 -25.884   4.445  1.00  0.00     0.053 C 
ENDBRANCH   4   5
ENDBRANCH   3   4
BRANCH   3  13
ATOM     13  O   UNL     1       1.097 -25.907   6.693  1.00  0.00    -0.390 OA
ATOM     14  H   UNL     1       0.374 -25.874   6.014  1.00  0.00     0.211 HD
ENDBRANCH   3  13
ENDBRANCH   1   3
BRANCH   1  15
ATOM     15  C   UNL     1       1.319 -29.770   6.701  1.00  0.00     0.032 C 
ATOM     16  C   UNL     1       2.400 -30.549   7.492  1.00  0.00     0.010 C 
ATOM     17  C   UNL     1       1.600 -30.035   5.174  1.00  0.00     0.006 C 
ATOM     18  C   UNL     1       3.210 -31.352   6.475  1.00  0.00     0.041 C 
ATOM     19  C   UNL     1       2.345 -31.417   5.203  1.00  0.00     0.092 C 
ATOM     20  C   UNL     1       2.487 -28.919   4.547  1.00  0.00     0.011 C 
ATOM     21  C   UNL     1       0.282 -30.135   4.358  1.00  0.00     0.015 C 
ATOM     22  C   UNL     1       3.192 -31.655   3.940  1.00  0.00    -0.031 C 
ATOM     23  C   UNL     1       3.165 -29.301   3.224  1.00  0.00     0.009 C 
ATOM     24  C   UNL     1       4.083 -30.514   3.442  1.00  0.00     0.025 C 
ATOM     25  C   UNL     1       3.034 -32.785   3.210  1.00  0.00     0.050 C 
ATOM     26  C   UNL     1       5.024 -30.915   2.231  1.00  0.00    -0.013 C 
ATOM     27  C   UNL     1       3.595 -32.932   1.861  1.00  0.00     0.159 C 
ATOM     28  C   UNL     1       4.206 -31.731   1.189  1.00  0.00     0.070 C 
ATOM     29  C   UNL     1       5.626 -29.667   1.515  1.00  0.00     0.042 C 
ATOM     30  C   UNL     1       6.193 -31.762   2.828  1.00  0.00     0.013 C 
ATOM     31  O   UNL     1       3.486 -34.033   1.256  1.00  0.00    -0.295 OA
ATOM     32  C   UNL     1       5.029 -32.112  -0.066  1.00  0.00     0.047 C 
ATOM     33  C   UNL     1       6.491 -30.024   0.290  1.00  0.00     0.143 C 
ATOM     34  C   UNL     1       5.717 -30.896  -0.728  1.00  0.00     0.143 C 
BRANCH  19  35
ATOM     35  O   UNL     1       1.409 -32.476   5.340  1.00  0.00    -0.385 OA
ATOM     36  H   UNL     1       1.770 -33.182   5.934  1.00  0.00     0.211 HD
ENDBRANCH  19  35
BRANCH  33  37
ATOM     37  O   UNL     1       6.921 -28.835  -0.324  1.00  0.00    -0.390 OA
ATOM     38  H   UNL     1       6.799 -28.106   0.341  1.00  0.00     0.211 HD
ENDBRANCH  33  37
BRANCH  34  39
ATOM     39  O   UNL     1       4.803 -30.133  -1.481  1.00  0.00    -0.390 OA
ATOM     40  H   UNL     1       5.073 -29.182  -1.425  1.00  0.00     0.211 HD
ENDBRANCH  34  39
ENDBRANCH   1  15
BRANCH   1  41
ATOM     41  O   UNL     1      -0.409 -28.115   7.059  1.00  0.00    -0.387 OA
ATOM     42  H   UNL     1      -0.901 -28.652   7.732  1.00  0.00     0.211 HD
ENDBRANCH   1  41
TORSDOF 9
ENDMDL
MODEL 6
REMARK VINA RESULT:    -6.154     11.958     14.511
REMARK INTER + INTRA:          -9.517
REMARK INTER:                  -8.745
REMARK INTRA:                  -0.772
REMARK UNBOUND:                -1.025
REMARK SMILES C[C@@H]1OC(=O)[C@@H](C)[C@@H]1C[C@H](O)[C@@](C)(O)[C@@H]1CC[C@]2(O)C3=CC(=O)[C@@H]4C[C@@H](O)[C@@H](O)C[C@@]4(C)[C@H]3CC[C@]12C
REMARK SMILES IDX 12 1 13 2 10 3 9 4 8 5 7 6 6 7 4 8 2 9 3 10 5 11 1 12 11 13
REMARK SMILES IDX 15 15 16 16 36 17 17 18 18 19 35 20 37 21 20 22 34 23 33 24
REMARK SMILES IDX 21 25 31 26 22 27 24 28 30 29 32 30 23 31 25 32 28 33 26 34
REMARK SMILES IDX 19 35 29 37 27 39 14 41
REMARK H PARENT 11 14 19 36 29 38 27 40 14 42
REMARK Flexibility Score: inf
ROOT
ATOM      1  C   UNL     1       0.659 -30.023   5.120  1.00  0.00     0.091 C 
ATOM      2  C   UNL     1       0.356 -29.337   3.754  1.00  0.00     0.045 C 
ENDROOT
BRANCH   1   3
ATOM      3  C   UNL     1       1.431 -31.410   4.925  1.00  0.00     0.146 C 
BRANCH   3   4
ATOM      4  C   UNL     1       2.139 -31.606   3.551  1.00  0.00     0.043 C 
BRANCH   4   5
ATOM      5  C   UNL     1       3.680 -31.738   3.682  1.00  0.00     0.046 C 
ATOM      6  C   UNL     1       4.240 -33.686   5.258  1.00  0.00     0.020 C 
ATOM      7  C   UNL     1       4.137 -33.213   3.802  1.00  0.00     0.103 C 
ATOM      8  C   UNL     1       5.464 -33.170   3.142  1.00  0.00     0.309 C 
ATOM      9  C   UNL     1       4.546 -31.145   2.523  1.00  0.00     0.177 C 
ATOM     10  O   UNL     1       5.690 -31.983   2.475  1.00  0.00    -0.462 OA
ATOM     11  O   UNL     1       6.289 -34.122   3.134  1.00  0.00    -0.252 OA
ATOM     12  C   UNL     1       3.886 -31.165   1.138  1.00  0.00     0.053 C 
ENDBRANCH   4   5
ENDBRANCH   3   4
BRANCH   3  13
ATOM     13  O   UNL     1       0.567 -32.500   5.158  1.00  0.00    -0.390 OA
ATOM     14  H   UNL     1      -0.166 -32.202   5.756  1.00  0.00     0.211 HD
ENDBRANCH   3  13
ENDBRANCH   1   3
BRANCH   1  15
ATOM     15  C   UNL     1       1.437 -28.946   5.994  1.00  0.00     0.032 C 
ATOM     16  C   UNL     1       0.606 -27.717   6.442  1.00  0.00     0.010 C 
ATOM     17  C   UNL     1       2.854 -28.402   5.573  1.00  0.00     0.006 C 
ATOM     18  C   UNL     1       1.540 -26.509   6.414  1.00  0.00     0.041 C 
ATOM     19  C   UNL     1       2.969 -27.080   6.413  1.00  0.00     0.092 C 
ATOM     20  C   UNL     1       2.935 -28.119   4.044  1.00  0.00     0.011 C 
ATOM     21  C   UNL     1       3.985 -29.397   5.952  1.00  0.00     0.015 C 
ATOM     22  C   UNL     1       3.986 -26.090   5.814  1.00  0.00    -0.031 C 
ATOM     23  C   UNL     1       4.087 -27.198   3.619  1.00  0.00     0.009 C 
ATOM     24  C   UNL     1       3.940 -25.831   4.306  1.00  0.00     0.025 C 
ATOM     25  C   UNL     1       4.985 -25.586   6.577  1.00  0.00     0.050 C 
ATOM     26  C   UNL     1       4.923 -24.685   3.820  1.00  0.00    -0.013 C 
ATOM     27  C   UNL     1       6.134 -24.878   5.997  1.00  0.00     0.159 C 
ATOM     28  C   UNL     1       6.309 -24.870   4.503  1.00  0.00     0.070 C 
ATOM     29  C   UNL     1       5.129 -24.704   2.274  1.00  0.00     0.042 C 
ATOM     30  C   UNL     1       4.266 -23.326   4.221  1.00  0.00     0.013 C 
ATOM     31  O   UNL     1       6.996 -24.360   6.759  1.00  0.00    -0.295 OA
ATOM     32  C   UNL     1       7.359 -23.832   4.036  1.00  0.00     0.047 C 
ATOM     33  C   UNL     1       6.134 -23.644   1.780  1.00  0.00     0.143 C 
ATOM     34  C   UNL     1       7.500 -23.766   2.498  1.00  0.00     0.143 C 
BRANCH  19  35
ATOM     35  O   UNL     1       3.345 -27.378   7.749  1.00  0.00    -0.385 OA
ATOM     36  H   UNL     1       4.332 -27.406   7.832  1.00  0.00     0.211 HD
ENDBRANCH  19  35
BRANCH  33  37
ATOM     37  O   UNL     1       6.305 -23.793   0.393  1.00  0.00    -0.390 OA
ATOM     38  H   UNL     1       6.883 -24.591   0.258  1.00  0.00     0.211 HD
ENDBRANCH  33  37
BRANCH  34  39
ATOM     39  O   UNL     1       8.256 -24.847   2.004  1.00  0.00    -0.390 OA
ATOM     40  H   UNL     1       7.657 -25.423   1.463  1.00  0.00     0.211 HD
ENDBRANCH  34  39
ENDBRANCH   1  15
BRANCH   1  41
ATOM     41  O   UNL     1      -0.578 -30.262   5.752  1.00  0.00    -0.387 OA
ATOM     42  H   UNL     1      -0.793 -29.481   6.325  1.00  0.00     0.211 HD
ENDBRANCH   1  41
TORSDOF 9
ENDMDL
MODEL 7
REMARK VINA RESULT:    -6.130      2.715      4.952
REMARK INTER + INTRA:          -9.484
REMARK INTER:                  -8.435
REMARK INTRA:                  -1.049
REMARK UNBOUND:                -1.025
REMARK SMILES C[C@@H]1OC(=O)[C@@H](C)[C@@H]1C[C@H](O)[C@@](C)(O)[C@@H]1CC[C@]2(O)C3=CC(=O)[C@@H]4C[C@@H](O)[C@@H](O)C[C@@]4(C)[C@H]3CC[C@]12C
REMARK SMILES IDX 12 1 13 2 10 3 9 4 8 5 7 6 6 7 4 8 2 9 3 10 5 11 1 12 11 13
REMARK SMILES IDX 15 15 16 16 36 17 17 18 18 19 35 20 37 21 20 22 34 23 33 24
REMARK SMILES IDX 21 25 31 26 22 27 24 28 30 29 32 30 23 31 25 32 28 33 26 34
REMARK SMILES IDX 19 35 29 37 27 39 14 41
REMARK H PARENT 11 14 19 36 29 38 27 40 14 42
REMARK Flexibility Score: inf
ROOT
ATOM      1  C   UNL     1       1.613 -16.614  -4.336  1.00  0.00     0.091 C 
ATOM      2  C   UNL     1       1.264 -15.685  -5.539  1.00  0.00     0.045 C 
ENDROOT
BRANCH   1   3
ATOM      3  C   UNL     1       1.841 -18.126  -4.805  1.00  0.00     0.146 C 
BRANCH   3   4
ATOM      4  C   UNL     1       1.777 -18.377  -6.342  1.00  0.00     0.043 C 
BRANCH   4   5
ATOM      5  C   UNL     1       2.889 -19.338  -6.841  1.00  0.00     0.046 C 
ATOM      6  C   UNL     1       5.154 -18.587  -5.892  1.00  0.00     0.020 C 
ATOM      7  C   UNL     1       3.985 -19.575  -5.773  1.00  0.00     0.103 C 
ATOM      8  C   UNL     1       4.404 -20.964  -6.076  1.00  0.00     0.309 C 
ATOM      9  C   UNL     1       2.445 -20.771  -7.281  1.00  0.00     0.177 C 
ATOM     10  O   UNL     1       3.555 -21.596  -6.962  1.00  0.00    -0.462 OA
ATOM     11  O   UNL     1       5.394 -21.542  -5.553  1.00  0.00    -0.252 OA
ATOM     12  C   UNL     1       1.216 -21.329  -6.553  1.00  0.00     0.053 C 
ENDBRANCH   4   5
ENDBRANCH   3   4
BRANCH   3  13
ATOM     13  O   UNL     1       0.936 -18.992  -4.158  1.00  0.00    -0.390 OA
ATOM     14  H   UNL     1       0.425 -19.490  -4.848  1.00  0.00     0.211 HD
ENDBRANCH   3  13
ENDBRANCH   1   3
BRANCH   1  15
ATOM     15  C   UNL     1       2.861 -15.948  -3.610  1.00  0.00     0.032 C 
ATOM     16  C   UNL     1       3.934 -15.334  -4.545  1.00  0.00     0.010 C 
ATOM     17  C   UNL     1       3.638 -16.682  -2.453  1.00  0.00     0.006 C 
ATOM     18  C   UNL     1       5.293 -15.583  -3.892  1.00  0.00     0.041 C 
ATOM     19  C   UNL     1       5.000 -15.902  -2.415  1.00  0.00     0.092 C 
ATOM     20  C   UNL     1       3.850 -18.192  -2.766  1.00  0.00     0.011 C 
ATOM     21  C   UNL     1       2.893 -16.558  -1.096  1.00  0.00     0.015 C 
ATOM     22  C   UNL     1       6.130 -16.723  -1.766  1.00  0.00    -0.031 C 
ATOM     23  C   UNL     1       4.948 -18.874  -1.936  1.00  0.00     0.009 C 
ATOM     24  C   UNL     1       6.297 -18.184  -2.191  1.00  0.00     0.025 C 
ATOM     25  C   UNL     1       6.851 -16.209  -0.741  1.00  0.00     0.050 C 
ATOM     26  C   UNL     1       7.579 -18.889  -1.580  1.00  0.00    -0.013 C 
ATOM     27  C   UNL     1       7.730 -17.039   0.093  1.00  0.00     0.159 C 
ATOM     28  C   UNL     1       7.692 -18.535  -0.069  1.00  0.00     0.070 C 
ATOM     29  C   UNL     1       7.519 -20.441  -1.718  1.00  0.00     0.042 C 
ATOM     30  C   UNL     1       8.811 -18.362  -2.383  1.00  0.00     0.013 C 
ATOM     31  O   UNL     1       8.439 -16.496   0.984  1.00  0.00    -0.295 OA
ATOM     32  C   UNL     1       8.883 -19.235   0.631  1.00  0.00     0.047 C 
ATOM     33  C   UNL     1       8.720 -21.159  -1.072  1.00  0.00     0.143 C 
ATOM     34  C   UNL     1       8.894 -20.766   0.416  1.00  0.00     0.143 C 
BRANCH  19  35
ATOM     35  O   UNL     1       4.848 -14.682  -1.705  1.00  0.00    -0.385 OA
ATOM     36  H   UNL     1       5.678 -14.143  -1.762  1.00  0.00     0.211 HD
ENDBRANCH  19  35
BRANCH  33  37
ATOM     37  O   UNL     1       8.534 -22.547  -1.183  1.00  0.00    -0.390 OA
ATOM     38  H   UNL     1       8.589 -22.769  -2.151  1.00  0.00     0.211 HD
ENDBRANCH  33  37
BRANCH  34  39
ATOM     39  O   UNL     1       7.948 -21.408   1.239  1.00  0.00    -0.390 OA
ATOM     40  H   UNL     1       8.192 -21.236   2.184  1.00  0.00     0.211 HD
ENDBRANCH  34  39
ENDBRANCH   1  15
BRANCH   1  41
ATOM     41  O   UNL     1       0.528 -16.562  -3.439  1.00  0.00    -0.387 OA
ATOM     42  H   UNL     1       0.387 -15.616  -3.173  1.00  0.00     0.211 HD
ENDBRANCH   1  41
TORSDOF 9
ENDMDL
MODEL 8
REMARK VINA RESULT:    -5.961     11.606     13.566
REMARK INTER + INTRA:          -9.251
REMARK INTER:                  -8.732
REMARK INTRA:                  -0.519
REMARK UNBOUND:                -1.025
REMARK SMILES C[C@@H]1OC(=O)[C@@H](C)[C@@H]1C[C@H](O)[C@@](C)(O)[C@@H]1CC[C@]2(O)C3=CC(=O)[C@@H]4C[C@@H](O)[C@@H](O)C[C@@]4(C)[C@H]3CC[C@]12C
REMARK SMILES IDX 12 1 13 2 10 3 9 4 8 5 7 6 6 7 4 8 2 9 3 10 5 11 1 12 11 13
REMARK SMILES IDX 15 15 16 16 36 17 17 18 18 19 35 20 37 21 20 22 34 23 33 24
REMARK SMILES IDX 21 25 31 26 22 27 24 28 30 29 32 30 23 31 25 32 28 33 26 34
REMARK SMILES IDX 19 35 29 37 27 39 14 41
REMARK H PARENT 11 14 19 36 29 38 27 40 14 42
REMARK Flexibility Score: inf
ROOT
ATOM      1  C   UNL     1       3.971 -31.894   2.862  1.00  0.00     0.091 C 
ATOM      2  C   UNL     1       3.309 -31.498   1.508  1.00  0.00     0.045 C 
ENDROOT
BRANCH   1   3
ATOM      3  C   UNL     1       5.490 -32.350   2.666  1.00  0.00     0.146 C 
BRANCH   3   4
ATOM      4  C   UNL     1       5.771 -33.263   1.433  1.00  0.00     0.043 C 
BRANCH   4   5
ATOM      5  C   UNL     1       6.834 -32.665   0.473  1.00  0.00     0.046 C 
ATOM      6  C   UNL     1       5.886 -30.555  -0.641  1.00  0.00     0.020 C 
ATOM      7  C   UNL     1       6.804 -31.116   0.453  1.00  0.00     0.103 C 
ATOM      8  C   UNL     1       8.228 -30.792   0.197  1.00  0.00     0.309 C 
ATOM      9  C   UNL     1       8.328 -33.031   0.749  1.00  0.00     0.177 C 
ATOM     10  O   UNL     1       9.055 -31.890   0.319  1.00  0.00    -0.462 OA
ATOM     11  O   UNL     1       8.663 -29.638  -0.054  1.00  0.00    -0.252 OA
ATOM     12  C   UNL     1       8.677 -33.288   2.221  1.00  0.00     0.053 C 
ENDBRANCH   4   5
ENDBRANCH   3   4
BRANCH   3  13
ATOM     13  O   UNL     1       5.977 -32.984   3.828  1.00  0.00    -0.390 OA
ATOM     14  H   UNL     1       6.061 -32.305   4.547  1.00  0.00     0.211 HD
ENDBRANCH   3  13
ENDBRANCH   1   3
BRANCH   1  15
ATOM     15  C   UNL     1       3.770 -30.651   3.833  1.00  0.00     0.032 C 
ATOM     16  C   UNL     1       2.388 -29.953   3.755  1.00  0.00     0.010 C 
ATOM     17  C   UNL     1       4.846 -29.507   3.952  1.00  0.00     0.006 C 
ATOM     18  C   UNL     1       2.630 -28.457   3.954  1.00  0.00     0.041 C 
ATOM     19  C   UNL     1       4.023 -28.335   4.596  1.00  0.00     0.092 C 
ATOM     20  C   UNL     1       5.422 -29.107   2.561  1.00  0.00     0.011 C 
ATOM     21  C   UNL     1       6.026 -29.924   4.873  1.00  0.00     0.015 C 
ATOM     22  C   UNL     1       4.660 -26.957   4.337  1.00  0.00    -0.031 C 
ATOM     23  C   UNL     1       6.125 -27.743   2.523  1.00  0.00     0.009 C 
ATOM     24  C   UNL     1       5.134 -26.636   2.917  1.00  0.00     0.025 C 
ATOM     25  C   UNL     1       4.929 -26.121   5.368  1.00  0.00     0.050 C 
ATOM     26  C   UNL     1       5.630 -25.142   2.728  1.00  0.00    -0.013 C 
ATOM     27  C   UNL     1       5.786 -24.938   5.214  1.00  0.00     0.159 C 
ATOM     28  C   UNL     1       6.540 -24.744   3.926  1.00  0.00     0.070 C 
ATOM     29  C   UNL     1       6.443 -24.955   1.410  1.00  0.00     0.042 C 
ATOM     30  C   UNL     1       4.352 -24.246   2.661  1.00  0.00     0.013 C 
ATOM     31  O   UNL     1       5.940 -24.149   6.186  1.00  0.00    -0.295 OA
ATOM     32  C   UNL     1       7.128 -23.318   3.794  1.00  0.00     0.047 C 
ATOM     33  C   UNL     1       6.997 -23.527   1.232  1.00  0.00     0.143 C 
ATOM     34  C   UNL     1       7.849 -23.084   2.447  1.00  0.00     0.143 C 
BRANCH  19  35
ATOM     35  O   UNL     1       3.901 -28.533   5.997  1.00  0.00    -0.385 OA
ATOM     36  H   UNL     1       4.196 -27.724   6.487  1.00  0.00     0.211 HD
ENDBRANCH  19  35
BRANCH  33  37
ATOM     37  O   UNL     1       7.771 -23.483   0.060  1.00  0.00    -0.390 OA
ATOM     38  H   UNL     1       8.068 -24.414  -0.125  1.00  0.00     0.211 HD
ENDBRANCH  33  37
BRANCH  34  39
ATOM     39  O   UNL     1       9.125 -23.681   2.434  1.00  0.00    -0.390 OA
ATOM     40  H   UNL     1       9.102 -24.449   1.809  1.00  0.00     0.211 HD
ENDBRANCH  34  39
ENDBRANCH   1  15
BRANCH   1  41
ATOM     41  O   UNL     1       3.226 -32.966   3.394  1.00  0.00    -0.387 OA
ATOM     42  H   UNL     1       2.365 -33.024   2.903  1.00  0.00     0.211 HD
ENDBRANCH   1  41
TORSDOF 9
ENDMDL
MODEL 9
REMARK VINA RESULT:    -4.320     10.919     14.181
REMARK INTER + INTRA:          -6.986
REMARK INTER:                  -6.259
REMARK INTRA:                  -0.727
REMARK UNBOUND:                -1.025
REMARK SMILES C[C@@H]1OC(=O)[C@@H](C)[C@@H]1C[C@H](O)[C@@](C)(O)[C@@H]1CC[C@]2(O)C3=CC(=O)[C@@H]4C[C@@H](O)[C@@H](O)C[C@@]4(C)[C@H]3CC[C@]12C
REMARK SMILES IDX 12 1 13 2 10 3 9 4 8 5 7 6 6 7 4 8 2 9 3 10 5 11 1 12 11 13
REMARK SMILES IDX 15 15 16 16 36 17 17 18 18 19 35 20 37 21 20 22 34 23 33 24
REMARK SMILES IDX 21 25 31 26 22 27 24 28 30 29 32 30 23 31 25 32 28 33 26 34
REMARK SMILES IDX 19 35 29 37 27 39 14 41
REMARK H PARENT 11 14 19 36 29 38 27 40 14 42
REMARK Flexibility Score: inf
ROOT
ATOM      1  C   UNL     1       6.399 -23.679   6.761  1.00  0.00     0.091 C 
ATOM      2  C   UNL     1       7.410 -24.810   7.122  1.00  0.00     0.045 C 
ENDROOT
BRANCH   1   3
ATOM      3  C   UNL     1       6.766 -22.983   5.370  1.00  0.00     0.146 C 
BRANCH   3   4
ATOM      4  C   UNL     1       8.282 -22.938   5.011  1.00  0.00     0.043 C 
BRANCH   4   5
ATOM      5  C   UNL     1       8.545 -23.084   3.488  1.00  0.00     0.046 C 
ATOM      6  C   UNL     1       7.074 -24.966   2.546  1.00  0.00     0.020 C 
ATOM      7  C   UNL     1       7.261 -23.451   2.703  1.00  0.00     0.103 C 
ATOM      8  C   UNL     1       7.508 -22.788   1.399  1.00  0.00     0.309 C 
ATOM      9  C   UNL     1       9.125 -21.837   2.745  1.00  0.00     0.177 C 
ATOM     10  O   UNL     1       8.587 -21.928   1.434  1.00  0.00    -0.462 OA
ATOM     11  O   UNL     1       6.791 -22.939   0.375  1.00  0.00    -0.252 OA
ATOM     12  C   UNL     1       8.719 -20.478   3.329  1.00  0.00     0.053 C 
ENDBRANCH   4   5
ENDBRANCH   3   4
BRANCH   3  13
ATOM     13  O   UNL     1       6.240 -21.676   5.310  1.00  0.00    -0.390 OA
ATOM     14  H   UNL     1       6.368 -21.242   6.193  1.00  0.00     0.211 HD
ENDBRANCH   3  13
ENDBRANCH   1   3
BRANCH   1  15
ATOM     15  C   UNL     1       4.955 -24.343   6.813  1.00  0.00     0.032 C 
ATOM     16  C   UNL     1       4.570 -25.011   8.157  1.00  0.00     0.010 C 
ATOM     17  C   UNL     1       4.438 -25.296   5.671  1.00  0.00     0.006 C 
ATOM     18  C   UNL     1       3.738 -26.249   7.821  1.00  0.00     0.041 C 
ATOM     19  C   UNL     1       3.253 -26.051   6.374  1.00  0.00     0.092 C 
ATOM     20  C   UNL     1       5.544 -26.282   5.194  1.00  0.00     0.011 C 
ATOM     21  C   UNL     1       3.929 -24.493   4.442  1.00  0.00     0.015 C 
ATOM     22  C   UNL     1       2.920 -27.389   5.688  1.00  0.00    -0.031 C 
ATOM     23  C   UNL     1       5.028 -27.507   4.425  1.00  0.00     0.009 C 
ATOM     24  C   UNL     1       4.078 -28.320   5.319  1.00  0.00     0.025 C 
ATOM     25  C   UNL     1       1.654 -27.659   5.289  1.00  0.00     0.050 C 
ATOM     26  C   UNL     1       3.616 -29.730   4.762  1.00  0.00    -0.013 C 
ATOM     27  C   UNL     1       1.338 -28.774   4.386  1.00  0.00     0.159 C 
ATOM     28  C   UNL     1       2.465 -29.528   3.734  1.00  0.00     0.070 C 
ATOM     29  C   UNL     1       4.778 -30.492   4.054  1.00  0.00     0.042 C 
ATOM     30  C   UNL     1       3.142 -30.569   5.991  1.00  0.00     0.013 C 
ATOM     31  O   UNL     1       0.134 -29.029   4.109  1.00  0.00    -0.295 OA
ATOM     32  C   UNL     1       1.992 -30.852   3.084  1.00  0.00     0.047 C 
ATOM     33  C   UNL     1       4.342 -31.838   3.442  1.00  0.00     0.143 C 
ATOM     34  C   UNL     1       3.150 -31.669   2.468  1.00  0.00     0.143 C 
BRANCH  19  35
ATOM     35  O   UNL     1       2.091 -25.235   6.388  1.00  0.00    -0.385 OA
ATOM     36  H   UNL     1       1.701 -25.205   7.299  1.00  0.00     0.211 HD
ENDBRANCH  19  35
BRANCH  33  37
ATOM     37  O   UNL     1       5.437 -32.406   2.768  1.00  0.00    -0.390 OA
ATOM     38  H   UNL     1       5.396 -33.387   2.926  1.00  0.00     0.211 HD
ENDBRANCH  33  37
BRANCH  34  39
ATOM     39  O   UNL     1       3.559 -31.133   1.231  1.00  0.00    -0.390 OA
ATOM     40  H   UNL     1       4.427 -31.543   0.986  1.00  0.00     0.211 HD
ENDBRANCH  34  39
ENDBRANCH   1  15
BRANCH   1  41
ATOM     41  O   UNL     1       6.458 -22.721   7.793  1.00  0.00    -0.387 OA
ATOM     42  H   UNL     1       5.649 -22.149   7.735  1.00  0.00     0.211 HD
ENDBRANCH   1  41
TORSDOF 9
ENDMDL
