MODEL 1
REMARK VINA RESULT:    -6.291      0.000      0.000
REMARK INTER + INTRA:         -11.728
REMARK INTER:                  -9.968
REMARK INTRA:                  -1.760
REMARK UNBOUND:                -1.760
REMARK SMILES C[C@@H]1O[C@@H](O[C@H]2[C@H](Oc3cc(O)c4c(c3)O[C@@H](c3ccc(O)cc3)CC4=O)O[C@H](CO)[C@H](O)[C@@H]2O)[C@H](O)[C@H](O)[C@@H]1O
REMARK SMILES IDX 6 1 34 2 32 3 29 4 28 5 7 6 5 7 4 8 1 9 2 10 40 11 3 12
REMARK SMILES IDX 38 13 36 14 41 15 39 17 37 19 35 21 8 23 9 24 10 25 15 26
REMARK SMILES IDX 11 27 14 28 13 29 16 30 26 31 17 32 27 33 25 34 12 35 18 37
REMARK SMILES IDX 19 38 24 39 20 40 23 41 21 42 22 43 33 45 30 47 31 48
REMARK H PARENT 41 16 39 18 37 20 35 22 12 36 22 44 33 46 31 49
REMARK Flexibility Score: inf
ROOT
ATOM      1  C   UNL     1     -55.488  24.416 -13.993  1.00  0.00     0.221 C 
ATOM      2  C   UNL     1     -55.991  22.976 -13.770  1.00  0.00     0.181 C 
ATOM      3  C   UNL     1     -56.978  22.934 -12.548  1.00  0.00     0.177 C 
ATOM      4  C   UNL     1     -56.546  23.980 -11.480  1.00  0.00     0.179 C 
ATOM      5  O   UNL     1     -55.144  24.183 -11.535  1.00  0.00    -0.332 OA
ATOM      6  C   UNL     1     -54.778  24.917 -12.694  1.00  0.00     0.339 C 
ENDROOT
BRANCH   1   7
ATOM      7  O   UNL     1     -56.550  25.300 -14.326  1.00  0.00    -0.337 OA
BRANCH   7   8
ATOM      8  C   UNL     1     -56.138  26.374 -15.163  1.00  0.00     0.282 C 
ATOM      9  C   UNL     1     -57.920  29.125 -13.454  1.00  0.00     0.041 C 
ATOM     10  C   UNL     1     -57.762  27.820 -14.233  1.00  0.00     0.150 C 
ATOM     11  C   UNL     1     -58.619  27.831 -15.526  1.00  0.00     0.174 C 
ATOM     12  O   UNL     1     -56.383  27.629 -14.534  1.00  0.00    -0.344 OA
ATOM     13  C   UNL     1     -58.376  26.513 -16.292  1.00  0.00     0.179 C 
ATOM     14  C   UNL     1     -56.863  26.262 -16.514  1.00  0.00     0.202 C 
BRANCH  11  15
ATOM     15  O   UNL     1     -58.284  28.925 -16.342  1.00  0.00    -0.388 OA
ATOM     16  H   UNL     1     -59.126  29.433 -16.489  1.00  0.00     0.211 HD
ENDBRANCH  11  15
BRANCH  13  17
ATOM     17  O   UNL     1     -59.093  26.470 -17.508  1.00  0.00    -0.387 OA
ATOM     18  H   UNL     1     -59.897  27.038 -17.426  1.00  0.00     0.211 HD
ENDBRANCH  13  17
BRANCH  14  19
ATOM     19  O   UNL     1     -56.333  27.228 -17.401  1.00  0.00    -0.385 OA
ATOM     20  H   UNL     1     -55.353  27.280 -17.208  1.00  0.00     0.211 HD
ENDBRANCH  14  19
ENDBRANCH   7   8
ENDBRANCH   1   7
BRANCH   2  21
ATOM     21  O   UNL     1     -54.871  22.108 -13.628  1.00  0.00    -0.387 OA
ATOM     22  H   UNL     1     -55.134  21.307 -13.094  1.00  0.00     0.211 HD
ENDBRANCH   2  21
BRANCH   6  23
ATOM     23  O   UNL     1     -53.385  24.774 -12.937  1.00  0.00    -0.462 OA
BRANCH  23  24
ATOM     24  C   UNL     1     -52.568  25.518 -13.787  1.00  0.00     0.130 A 
ATOM     25  C   UNL     1     -52.013  26.757 -13.421  1.00  0.00     0.093 A 
ATOM     26  C   UNL     1     -52.137  24.888 -14.945  1.00  0.00     0.094 A 
ATOM     27  C   UNL     1     -50.831  27.201 -14.045  1.00  0.00     0.133 A 
ATOM     28  C   UNL     1     -50.946  25.296 -15.537  1.00  0.00     0.138 A 
ATOM     29  C   UNL     1     -50.250  26.415 -15.066  1.00  0.00     0.102 A 
ATOM     30  O   UNL     1     -50.339  24.460 -16.467  1.00  0.00    -0.484 OA
ATOM     31  C   UNL     1     -48.828  26.568 -15.517  1.00  0.00     0.174 C 
ATOM     32  C   UNL     1     -48.951  24.152 -16.270  1.00  0.00     0.211 C 
ATOM     33  O   UNL     1     -48.177  27.596 -15.216  1.00  0.00    -0.294 OA
ATOM     34  C   UNL     1     -48.111  25.458 -16.262  1.00  0.00     0.131 C 
BRANCH  27  35
ATOM     35  O   UNL     1     -50.199  28.369 -13.601  1.00  0.00    -0.507 OA
ATOM     36  H   UNL     1     -50.618  28.960 -12.886  1.00  0.00     0.293 HD
ENDBRANCH  27  35
BRANCH  32  37
ATOM     37  C   UNL     1     -48.494  23.133 -17.282  1.00  0.00    -0.007 A 
ATOM     38  C   UNL     1     -47.264  23.324 -17.928  1.00  0.00     0.011 A 
ATOM     39  C   UNL     1     -49.213  21.945 -17.497  1.00  0.00     0.011 A 
ATOM     40  C   UNL     1     -46.737  22.331 -18.761  1.00  0.00     0.046 A 
ATOM     41  C   UNL     1     -48.665  20.931 -18.303  1.00  0.00     0.046 A 
ATOM     42  C   UNL     1     -47.415  21.112 -18.924  1.00  0.00     0.115 A 
BRANCH  42  43
ATOM     43  O   UNL     1     -46.841  20.106 -19.697  1.00  0.00    -0.508 OA
ATOM     44  H   UNL     1     -47.201  19.158 -19.672  1.00  0.00     0.293 HD
ENDBRANCH  42  43
ENDBRANCH  32  37
ENDBRANCH  23  24
ENDBRANCH   6  23
BRANCH   3  45
ATOM     45  O   UNL     1     -57.159  21.637 -12.000  1.00  0.00    -0.387 OA
ATOM     46  H   UNL     1     -56.695  21.571 -11.131  1.00  0.00     0.211 HD
ENDBRANCH   3  45
BRANCH   4  47
ATOM     47  C   UNL     1     -56.976  23.633 -10.055  1.00  0.00     0.191 C 
BRANCH  47  48
ATOM     48  O   UNL     1     -58.367  23.390  -9.995  1.00  0.00    -0.394 OA
ATOM     49  H   UNL     1     -58.486  22.428 -10.180  1.00  0.00     0.210 HD
ENDBRANCH  47  48
ENDBRANCH   4  47
TORSDOF 14
ENDMDL
MODEL 2
REMARK VINA RESULT:    -6.208      4.638      7.631
REMARK INTER + INTRA:         -11.598
REMARK INTER:                  -9.803
REMARK INTRA:                  -1.795
REMARK UNBOUND:                -1.760
REMARK SMILES C[C@@H]1O[C@@H](O[C@H]2[C@H](Oc3cc(O)c4c(c3)O[C@@H](c3ccc(O)cc3)CC4=O)O[C@H](CO)[C@H](O)[C@@H]2O)[C@H](O)[C@H](O)[C@@H]1O
REMARK SMILES IDX 6 1 34 2 32 3 29 4 28 5 7 6 5 7 4 8 1 9 2 10 40 11 3 12
REMARK SMILES IDX 38 13 36 14 41 15 39 17 37 19 35 21 8 23 9 24 10 25 15 26
REMARK SMILES IDX 11 27 14 28 13 29 16 30 26 31 17 32 27 33 25 34 12 35 18 37
REMARK SMILES IDX 19 38 24 39 20 40 23 41 21 42 22 43 33 45 30 47 31 48
REMARK H PARENT 41 16 39 18 37 20 35 22 12 36 22 44 33 46 31 49
REMARK Flexibility Score: inf
ROOT
ATOM      1  C   UNL     1     -57.562  23.374 -12.694  1.00  0.00     0.221 C 
ATOM      2  C   UNL     1     -58.201  23.293 -11.294  1.00  0.00     0.181 C 
ATOM      3  C   UNL     1     -57.425  24.223 -10.293  1.00  0.00     0.177 C 
ATOM      4  C   UNL     1     -55.913  24.255 -10.662  1.00  0.00     0.179 C 
ATOM      5  O   UNL     1     -55.537  23.036 -11.282  1.00  0.00    -0.332 OA
ATOM      6  C   UNL     1     -56.063  22.947 -12.598  1.00  0.00     0.339 C 
ENDROOT
BRANCH   1   7
ATOM      7  O   UNL     1     -57.650  24.684 -13.240  1.00  0.00    -0.337 OA
BRANCH   7   8
ATOM      8  C   UNL     1     -56.510  25.044 -14.010  1.00  0.00     0.282 C 
ATOM      9  C   UNL     1     -56.464  28.666 -13.274  1.00  0.00     0.041 C 
ATOM     10  C   UNL     1     -57.012  27.347 -13.815  1.00  0.00     0.150 C 
ATOM     11  C   UNL     1     -57.411  27.475 -15.308  1.00  0.00     0.174 C 
ATOM     12  O   UNL     1     -56.029  26.332 -13.632  1.00  0.00    -0.344 OA
ATOM     13  C   UNL     1     -57.906  26.100 -15.809  1.00  0.00     0.179 C 
ATOM     14  C   UNL     1     -56.875  24.985 -15.501  1.00  0.00     0.202 C 
BRANCH  11  15
ATOM     15  O   UNL     1     -56.320  27.899 -16.086  1.00  0.00    -0.388 OA
ATOM     16  H   UNL     1     -55.873  28.622 -15.570  1.00  0.00     0.211 HD
ENDBRANCH  11  15
BRANCH  13  17
ATOM     17  O   UNL     1     -58.247  26.129 -17.179  1.00  0.00    -0.387 OA
ATOM     18  H   UNL     1     -57.698  26.815 -17.630  1.00  0.00     0.211 HD
ENDBRANCH  13  17
BRANCH  14  19
ATOM     19  O   UNL     1     -55.703  25.181 -16.269  1.00  0.00    -0.385 OA
ATOM     20  H   UNL     1     -55.007  24.573 -15.882  1.00  0.00     0.211 HD
ENDBRANCH  14  19
ENDBRANCH   7   8
ENDBRANCH   1   7
BRANCH   2  21
ATOM     21  O   UNL     1     -58.254  21.931 -10.883  1.00  0.00    -0.387 OA
ATOM     22  H   UNL     1     -59.127  21.751 -10.434  1.00  0.00     0.211 HD
ENDBRANCH   2  21
BRANCH   6  23
ATOM     23  O   UNL     1     -56.017  21.600 -13.046  1.00  0.00    -0.462 OA
BRANCH  23  24
ATOM     24  C   UNL     1     -55.573  21.104 -14.271  1.00  0.00     0.130 A 
ATOM     25  C   UNL     1     -54.264  20.635 -14.477  1.00  0.00     0.093 A 
ATOM     26  C   UNL     1     -56.542  20.883 -15.240  1.00  0.00     0.094 A 
ATOM     27  C   UNL     1     -54.013  19.698 -15.497  1.00  0.00     0.133 A 
ATOM     28  C   UNL     1     -56.313  19.925 -16.222  1.00  0.00     0.138 A 
ATOM     29  C   UNL     1     -55.076  19.281 -16.332  1.00  0.00     0.102 A 
ATOM     30  O   UNL     1     -57.391  19.456 -16.965  1.00  0.00    -0.484 OA
ATOM     31  C   UNL     1     -55.030  18.036 -17.165  1.00  0.00     0.174 C 
ATOM     32  C   UNL     1     -57.562  18.033 -17.053  1.00  0.00     0.211 C 
ATOM     33  O   UNL     1     -53.938  17.463 -17.388  1.00  0.00    -0.294 OA
ATOM     34  C   UNL     1     -56.299  17.383 -17.681  1.00  0.00     0.131 C 
BRANCH  27  35
ATOM     35  O   UNL     1     -52.741  19.128 -15.630  1.00  0.00    -0.507 OA
ATOM     36  H   UNL     1     -52.183  19.267 -16.470  1.00  0.00     0.293 HD
ENDBRANCH  27  35
BRANCH  32  37
ATOM     37  C   UNL     1     -58.845  17.706 -17.772  1.00  0.00    -0.007 A 
ATOM     38  C   UNL     1     -58.877  17.792 -19.172  1.00  0.00     0.011 A 
ATOM     39  C   UNL     1     -59.960  17.202 -17.083  1.00  0.00     0.011 A 
ATOM     40  C   UNL     1     -60.000  17.356 -19.885  1.00  0.00     0.046 A 
ATOM     41  C   UNL     1     -61.072  16.727 -17.802  1.00  0.00     0.046 A 
ATOM     42  C   UNL     1     -61.089  16.784 -19.208  1.00  0.00     0.115 A 
BRANCH  42  43
ATOM     43  O   UNL     1     -62.166  16.288 -19.937  1.00  0.00    -0.508 OA
ATOM     44  H   UNL     1     -62.213  15.309 -20.199  1.00  0.00     0.293 HD
ENDBRANCH  42  43
ENDBRANCH  32  37
ENDBRANCH  23  24
ENDBRANCH   6  23
BRANCH   3  45
ATOM     45  O   UNL     1     -57.647  23.909  -8.927  1.00  0.00    -0.387 OA
ATOM     46  H   UNL     1     -58.609  23.987  -8.716  1.00  0.00     0.211 HD
ENDBRANCH   3  45
BRANCH   4  47
ATOM     47  C   UNL     1     -54.988  24.559  -9.484  1.00  0.00     0.191 C 
BRANCH  47  48
ATOM     48  O   UNL     1     -55.327  25.792  -8.884  1.00  0.00    -0.394 OA
ATOM     49  H   UNL     1     -54.538  26.069  -8.359  1.00  0.00     0.210 HD
ENDBRANCH  47  48
ENDBRANCH   4  47
TORSDOF 14
ENDMDL
MODEL 3
REMARK VINA RESULT:    -6.011      6.333     10.308
REMARK INTER + INTRA:         -11.285
REMARK INTER:                  -9.414
REMARK INTRA:                  -1.871
REMARK UNBOUND:                -1.760
REMARK SMILES C[C@@H]1O[C@@H](O[C@H]2[C@H](Oc3cc(O)c4c(c3)O[C@@H](c3ccc(O)cc3)CC4=O)O[C@H](CO)[C@H](O)[C@@H]2O)[C@H](O)[C@H](O)[C@@H]1O
REMARK SMILES IDX 6 1 34 2 32 3 29 4 28 5 7 6 5 7 4 8 1 9 2 10 40 11 3 12
REMARK SMILES IDX 38 13 36 14 41 15 39 17 37 19 35 21 8 23 9 24 10 25 15 26
REMARK SMILES IDX 11 27 14 28 13 29 16 30 26 31 17 32 27 33 25 34 12 35 18 37
REMARK SMILES IDX 19 38 24 39 20 40 23 41 21 42 22 43 33 45 30 47 31 48
REMARK H PARENT 41 16 39 18 37 20 35 22 12 36 22 44 33 46 31 49
REMARK Flexibility Score: inf
ROOT
ATOM      1  C   UNL     1     -54.010  19.565 -10.666  1.00  0.00     0.221 C 
ATOM      2  C   UNL     1     -54.198  20.672  -9.610  1.00  0.00     0.181 C 
ATOM      3  C   UNL     1     -55.701  20.735  -9.158  1.00  0.00     0.177 C 
ATOM      4  C   UNL     1     -56.631  20.375 -10.352  1.00  0.00     0.179 C 
ATOM      5  O   UNL     1     -56.014  20.735 -11.577  1.00  0.00    -0.332 OA
ATOM      6  C   UNL     1     -54.941  19.858 -11.886  1.00  0.00     0.339 C 
ENDROOT
BRANCH   1   7
ATOM      7  O   UNL     1     -54.307  18.278 -10.139  1.00  0.00    -0.337 OA
BRANCH   7   8
ATOM      8  C   UNL     1     -54.772  17.366 -11.127  1.00  0.00     0.282 C 
ATOM      9  C   UNL     1     -57.141  15.445  -9.038  1.00  0.00     0.041 C 
ATOM     10  C   UNL     1     -55.789  15.995  -9.490  1.00  0.00     0.150 C 
ATOM     11  C   UNL     1     -54.754  14.855  -9.676  1.00  0.00     0.174 C 
ATOM     12  O   UNL     1     -55.971  16.725 -10.700  1.00  0.00    -0.344 OA
ATOM     13  C   UNL     1     -53.429  15.468 -10.181  1.00  0.00     0.179 C 
ATOM     14  C   UNL     1     -53.660  16.351 -11.434  1.00  0.00     0.202 C 
BRANCH  11  15
ATOM     15  O   UNL     1     -55.217  13.899 -10.595  1.00  0.00    -0.388 OA
ATOM     16  H   UNL     1     -55.701  14.402 -11.303  1.00  0.00     0.211 HD
ENDBRANCH  11  15
BRANCH  13  17
ATOM     17  O   UNL     1     -52.447  14.480 -10.417  1.00  0.00    -0.387 OA
ATOM     18  H   UNL     1     -52.259  14.441 -11.386  1.00  0.00     0.211 HD
ENDBRANCH  13  17
BRANCH  14  19
ATOM     19  O   UNL     1     -54.059  15.550 -12.529  1.00  0.00    -0.385 OA
ATOM     20  H   UNL     1     -55.044  15.405 -12.428  1.00  0.00     0.211 HD
ENDBRANCH  14  19
ENDBRANCH   7   8
ENDBRANCH   1   7
BRANCH   2  21
ATOM     21  O   UNL     1     -53.708  21.903 -10.133  1.00  0.00    -0.387 OA
ATOM     22  H   UNL     1     -54.066  22.661  -9.592  1.00  0.00     0.211 HD
ENDBRANCH   2  21
BRANCH   6  23
ATOM     23  O   UNL     1     -54.106  20.446 -12.874  1.00  0.00    -0.462 OA
BRANCH  23  24
ATOM     24  C   UNL     1     -54.093  20.222 -14.250  1.00  0.00     0.130 A 
ATOM     25  C   UNL     1     -52.927  19.889 -14.959  1.00  0.00     0.093 A 
ATOM     26  C   UNL     1     -55.328  20.124 -14.875  1.00  0.00     0.094 A 
ATOM     27  C   UNL     1     -53.028  19.180 -16.172  1.00  0.00     0.133 A 
ATOM     28  C   UNL     1     -55.438  19.387 -16.050  1.00  0.00     0.138 A 
ATOM     29  C   UNL     1     -54.307  18.859 -16.682  1.00  0.00     0.102 A 
ATOM     30  O   UNL     1     -56.701  18.996 -16.480  1.00  0.00    -0.484 OA
ATOM     31  C   UNL     1     -54.540  17.800 -17.717  1.00  0.00     0.174 C 
ATOM     32  C   UNL     1     -56.891  17.607 -16.791  1.00  0.00     0.211 C 
ATOM     33  O   UNL     1     -53.583  17.355 -18.393  1.00  0.00    -0.294 OA
ATOM     34  C   UNL     1     -55.908  17.174 -17.912  1.00  0.00     0.131 C 
BRANCH  27  35
ATOM     35  O   UNL     1     -51.871  18.732 -16.822  1.00  0.00    -0.507 OA
ATOM     36  H   UNL     1     -50.944  19.003 -16.501  1.00  0.00     0.293 HD
ENDBRANCH  27  35
BRANCH  32  37
ATOM     37  C   UNL     1     -58.340  17.338 -17.106  1.00  0.00    -0.007 A 
ATOM     38  C   UNL     1     -58.731  16.030 -17.426  1.00  0.00     0.011 A 
ATOM     39  C   UNL     1     -59.316  18.339 -16.964  1.00  0.00     0.011 A 
ATOM     40  C   UNL     1     -60.086  15.710 -17.578  1.00  0.00     0.046 A 
ATOM     41  C   UNL     1     -60.678  18.008 -17.078  1.00  0.00     0.046 A 
ATOM     42  C   UNL     1     -61.070  16.689 -17.367  1.00  0.00     0.115 A 
BRANCH  42  43
ATOM     43  O   UNL     1     -62.415  16.337 -17.450  1.00  0.00    -0.508 OA
ATOM     44  H   UNL     1     -62.741  15.678 -18.149  1.00  0.00     0.293 HD
ENDBRANCH  42  43
ENDBRANCH  32  37
ENDBRANCH  23  24
ENDBRANCH   6  23
BRANCH   3  45
ATOM     45  O   UNL     1     -56.063  21.957  -8.533  1.00  0.00    -0.387 OA
ATOM     46  H   UNL     1     -56.896  22.307  -8.934  1.00  0.00     0.211 HD
ENDBRANCH   3  45
BRANCH   4  47
ATOM     47  C   UNL     1     -58.030  20.986 -10.264  1.00  0.00     0.191 C 
BRANCH  47  48
ATOM     48  O   UNL     1     -58.959  20.044  -9.769  1.00  0.00    -0.394 OA
ATOM     49  H   UNL     1     -58.726  19.901  -8.820  1.00  0.00     0.210 HD
ENDBRANCH  47  48
ENDBRANCH   4  47
TORSDOF 14
ENDMDL
MODEL 4
REMARK VINA RESULT:    -5.843      3.319      6.038
REMARK INTER + INTRA:         -11.020
REMARK INTER:                  -8.425
REMARK INTRA:                  -2.595
REMARK UNBOUND:                -1.760
REMARK SMILES C[C@@H]1O[C@@H](O[C@H]2[C@H](Oc3cc(O)c4c(c3)O[C@@H](c3ccc(O)cc3)CC4=O)O[C@H](CO)[C@H](O)[C@@H]2O)[C@H](O)[C@H](O)[C@@H]1O
REMARK SMILES IDX 6 1 34 2 32 3 29 4 28 5 7 6 5 7 4 8 1 9 2 10 40 11 3 12
REMARK SMILES IDX 38 13 36 14 41 15 39 17 37 19 35 21 8 23 9 24 10 25 15 26
REMARK SMILES IDX 11 27 14 28 13 29 16 30 26 31 17 32 27 33 25 34 12 35 18 37
REMARK SMILES IDX 19 38 24 39 20 40 23 41 21 42 22 43 33 45 30 47 31 48
REMARK H PARENT 41 16 39 18 37 20 35 22 12 36 22 44 33 46 31 49
REMARK Flexibility Score: inf
ROOT
ATOM      1  C   UNL     1     -58.798  26.398 -11.964  1.00  0.00     0.221 C 
ATOM      2  C   UNL     1     -60.188  25.827 -11.620  1.00  0.00     0.181 C 
ATOM      3  C   UNL     1     -61.287  26.517 -12.505  1.00  0.00     0.177 C 
ATOM      4  C   UNL     1     -60.896  27.997 -12.780  1.00  0.00     0.179 C 
ATOM      5  O   UNL     1     -60.111  28.502 -11.712  1.00  0.00    -0.332 OA
ATOM      6  C   UNL     1     -58.806  27.943 -11.726  1.00  0.00     0.339 C 
ENDROOT
BRANCH   1   7
ATOM      7  O   UNL     1     -58.434  26.126 -13.311  1.00  0.00    -0.337 OA
BRANCH   7   8
ATOM      8  C   UNL     1     -57.558  27.103 -13.860  1.00  0.00     0.282 C 
ATOM      9  C   UNL     1     -59.107  27.422 -17.201  1.00  0.00     0.041 C 
ATOM     10  C   UNL     1     -58.390  26.731 -16.042  1.00  0.00     0.150 C 
ATOM     11  C   UNL     1     -57.080  26.050 -16.518  1.00  0.00     0.174 C 
ATOM     12  O   UNL     1     -58.126  27.694 -15.026  1.00  0.00    -0.344 OA
ATOM     13  C   UNL     1     -56.379  25.417 -15.297  1.00  0.00     0.179 C 
ATOM     14  C   UNL     1     -56.200  26.449 -14.154  1.00  0.00     0.202 C 
BRANCH  11  15
ATOM     15  O   UNL     1     -56.223  26.979 -17.131  1.00  0.00    -0.388 OA
ATOM     16  H   UNL     1     -56.103  26.674 -18.069  1.00  0.00     0.211 HD
ENDBRANCH  11  15
BRANCH  13  17
ATOM     17  O   UNL     1     -55.151  24.813 -15.648  1.00  0.00    -0.387 OA
ATOM     18  H   UNL     1     -54.629  25.446 -16.198  1.00  0.00     0.211 HD
ENDBRANCH  13  17
BRANCH  14  19
ATOM     19  O   UNL     1     -55.282  27.452 -14.543  1.00  0.00    -0.385 OA
ATOM     20  H   UNL     1     -55.652  28.320 -14.208  1.00  0.00     0.211 HD
ENDBRANCH  14  19
ENDBRANCH   7   8
ENDBRANCH   1   7
BRANCH   2  21
ATOM     21  O   UNL     1     -60.414  25.963 -10.220  1.00  0.00    -0.387 OA
ATOM     22  H   UNL     1     -60.788  26.868 -10.029  1.00  0.00     0.211 HD
ENDBRANCH   2  21
BRANCH   6  23
ATOM     23  O   UNL     1     -58.181  28.142 -10.466  1.00  0.00    -0.462 OA
BRANCH  23  24
ATOM     24  C   UNL     1     -56.916  28.660 -10.193  1.00  0.00     0.130 A 
ATOM     25  C   UNL     1     -56.468  28.935  -8.889  1.00  0.00     0.093 A 
ATOM     26  C   UNL     1     -56.018  28.694 -11.249  1.00  0.00     0.094 A 
ATOM     27  C   UNL     1     -55.088  28.942  -8.615  1.00  0.00     0.133 A 
ATOM     28  C   UNL     1     -54.653  28.656 -10.980  1.00  0.00     0.138 A 
ATOM     29  C   UNL     1     -54.171  28.722  -9.669  1.00  0.00     0.102 A 
ATOM     30  O   UNL     1     -53.776  28.339 -12.011  1.00  0.00    -0.484 OA
ATOM     31  C   UNL     1     -52.743  28.321  -9.449  1.00  0.00     0.174 C 
ATOM     32  C   UNL     1     -52.819  27.297 -11.766  1.00  0.00     0.211 C 
ATOM     33  O   UNL     1     -52.216  28.449  -8.319  1.00  0.00    -0.294 OA
ATOM     34  C   UNL     1     -51.928  27.667 -10.549  1.00  0.00     0.131 C 
BRANCH  27  35
ATOM     35  O   UNL     1     -54.634  29.088  -7.298  1.00  0.00    -0.507 OA
ATOM     36  H   UNL     1     -54.694  28.324  -6.628  1.00  0.00     0.293 HD
ENDBRANCH  27  35
BRANCH  32  37
ATOM     37  C   UNL     1     -52.047  26.991 -13.023  1.00  0.00    -0.007 A 
ATOM     38  C   UNL     1     -50.905  27.750 -13.318  1.00  0.00     0.011 A 
ATOM     39  C   UNL     1     -52.376  25.891 -13.833  1.00  0.00     0.011 A 
ATOM     40  C   UNL     1     -50.079  27.403 -14.394  1.00  0.00     0.046 A 
ATOM     41  C   UNL     1     -51.525  25.520 -14.889  1.00  0.00     0.046 A 
ATOM     42  C   UNL     1     -50.362  26.263 -15.163  1.00  0.00     0.115 A 
BRANCH  42  43
ATOM     43  O   UNL     1     -49.491  25.890 -16.183  1.00  0.00    -0.508 OA
ATOM     44  H   UNL     1     -48.486  25.891 -16.039  1.00  0.00     0.293 HD
ENDBRANCH  42  43
ENDBRANCH  32  37
ENDBRANCH  23  24
ENDBRANCH   6  23
BRANCH   3  45
ATOM     45  O   UNL     1     -62.604  26.387 -11.991  1.00  0.00    -0.387 OA
ATOM     46  H   UNL     1     -63.170  27.125 -12.326  1.00  0.00     0.211 HD
ENDBRANCH   3  45
BRANCH   4  47
ATOM     47  C   UNL     1     -62.085  28.921 -13.047  1.00  0.00     0.191 C 
BRANCH  47  48
ATOM     48  O   UNL     1     -62.872  28.430 -14.113  1.00  0.00    -0.394 OA
ATOM     49  H   UNL     1     -62.266  28.351 -14.888  1.00  0.00     0.210 HD
ENDBRANCH  47  48
ENDBRANCH   4  47
TORSDOF 14
ENDMDL
MODEL 5
REMARK VINA RESULT:    -5.696      4.514      8.430
REMARK INTER + INTRA:         -10.786
REMARK INTER:                  -9.900
REMARK INTRA:                  -0.886
REMARK UNBOUND:                -1.760
REMARK SMILES C[C@@H]1O[C@@H](O[C@H]2[C@H](Oc3cc(O)c4c(c3)O[C@@H](c3ccc(O)cc3)CC4=O)O[C@H](CO)[C@H](O)[C@@H]2O)[C@H](O)[C@H](O)[C@@H]1O
REMARK SMILES IDX 6 1 34 2 32 3 29 4 28 5 7 6 5 7 4 8 1 9 2 10 40 11 3 12
REMARK SMILES IDX 38 13 36 14 41 15 39 17 37 19 35 21 8 23 9 24 10 25 15 26
REMARK SMILES IDX 11 27 14 28 13 29 16 30 26 31 17 32 27 33 25 34 12 35 18 37
REMARK SMILES IDX 19 38 24 39 20 40 23 41 21 42 22 43 33 45 30 47 31 48
REMARK H PARENT 41 16 39 18 37 20 35 22 12 36 22 44 33 46 31 49
REMARK Flexibility Score: inf
ROOT
ATOM      1  C   UNL     1     -57.161  24.295 -12.718  1.00  0.00     0.221 C 
ATOM      2  C   UNL     1     -55.852  24.761 -12.050  1.00  0.00     0.181 C 
ATOM      3  C   UNL     1     -54.626  24.409 -12.967  1.00  0.00     0.177 C 
ATOM      4  C   UNL     1     -54.898  23.082 -13.732  1.00  0.00     0.179 C 
ATOM      5  O   UNL     1     -55.760  22.250 -12.974  1.00  0.00    -0.332 OA
ATOM      6  C   UNL     1     -57.087  22.755 -12.971  1.00  0.00     0.339 C 
ENDROOT
BRANCH   1   7
ATOM      7  O   UNL     1     -57.395  24.969 -13.948  1.00  0.00    -0.337 OA
BRANCH   7   8
ATOM      8  C   UNL     1     -57.129  26.364 -13.879  1.00  0.00     0.282 C 
ATOM      9  C   UNL     1     -60.545  27.614 -14.537  1.00  0.00     0.041 C 
ATOM     10  C   UNL     1     -59.232  26.888 -14.825  1.00  0.00     0.150 C 
ATOM     11  C   UNL     1     -58.608  27.368 -16.162  1.00  0.00     0.174 C 
ATOM     12  O   UNL     1     -58.339  27.104 -13.736  1.00  0.00    -0.344 OA
ATOM     13  C   UNL     1     -57.263  26.638 -16.370  1.00  0.00     0.179 C 
ATOM     14  C   UNL     1     -56.345  26.787 -15.130  1.00  0.00     0.202 C 
BRANCH  11  15
ATOM     15  O   UNL     1     -58.399  28.757 -16.150  1.00  0.00    -0.388 OA
ATOM     16  H   UNL     1     -59.170  29.152 -15.662  1.00  0.00     0.211 HD
ENDBRANCH  11  15
BRANCH  13  17
ATOM     17  O   UNL     1     -56.612  27.059 -17.551  1.00  0.00    -0.387 OA
ATOM     18  H   UNL     1     -55.646  26.870 -17.469  1.00  0.00     0.211 HD
ENDBRANCH  13  17
BRANCH  14  19
ATOM     19  O   UNL     1     -55.938  28.134 -14.984  1.00  0.00    -0.385 OA
ATOM     20  H   UNL     1     -56.034  28.557 -15.886  1.00  0.00     0.211 HD
ENDBRANCH  14  19
ENDBRANCH   7   8
ENDBRANCH   1   7
BRANCH   2  21
ATOM     21  O   UNL     1     -55.769  24.198 -10.745  1.00  0.00    -0.387 OA
ATOM     22  H   UNL     1     -56.506  24.560 -10.178  1.00  0.00     0.211 HD
ENDBRANCH   2  21
BRANCH   6  23
ATOM     23  O   UNL     1     -57.830  22.156 -11.919  1.00  0.00    -0.462 OA
BRANCH  23  24
ATOM     24  C   UNL     1     -57.359  21.520 -10.771  1.00  0.00     0.130 A 
ATOM     25  C   UNL     1     -57.913  21.733  -9.497  1.00  0.00     0.093 A 
ATOM     26  C   UNL     1     -56.450  20.490 -10.961  1.00  0.00     0.094 A 
ATOM     27  C   UNL     1     -57.789  20.738  -8.509  1.00  0.00     0.133 A 
ATOM     28  C   UNL     1     -56.358  19.482 -10.006  1.00  0.00     0.138 A 
ATOM     29  C   UNL     1     -57.062  19.561  -8.800  1.00  0.00     0.102 A 
ATOM     30  O   UNL     1     -55.725  18.292 -10.346  1.00  0.00    -0.484 OA
ATOM     31  C   UNL     1     -57.187  18.297  -8.003  1.00  0.00     0.174 C 
ATOM     32  C   UNL     1     -56.435  17.070 -10.089  1.00  0.00     0.211 C 
ATOM     33  O   UNL     1     -57.718  18.314  -6.868  1.00  0.00    -0.294 OA
ATOM     34  C   UNL     1     -56.767  16.957  -8.576  1.00  0.00     0.131 C 
BRANCH  27  35
ATOM     35  O   UNL     1     -58.444  20.883  -7.280  1.00  0.00    -0.507 OA
ATOM     36  H   UNL     1     -58.929  20.103  -6.842  1.00  0.00     0.293 HD
ENDBRANCH  27  35
BRANCH  32  37
ATOM     37  C   UNL     1     -55.668  15.896 -10.641  1.00  0.00    -0.007 A 
ATOM     38  C   UNL     1     -55.120  14.965  -9.747  1.00  0.00     0.011 A 
ATOM     39  C   UNL     1     -55.601  15.654 -12.023  1.00  0.00     0.011 A 
ATOM     40  C   UNL     1     -54.531  13.787 -10.220  1.00  0.00     0.046 A 
ATOM     41  C   UNL     1     -55.044  14.451 -12.496  1.00  0.00     0.046 A 
ATOM     42  C   UNL     1     -54.524  13.504 -11.596  1.00  0.00     0.115 A 
BRANCH  42  43
ATOM     43  O   UNL     1     -54.000  12.294 -12.044  1.00  0.00    -0.508 OA
ATOM     44  H   UNL     1     -54.606  11.563 -12.402  1.00  0.00     0.293 HD
ENDBRANCH  42  43
ENDBRANCH  32  37
ENDBRANCH  23  24
ENDBRANCH   6  23
BRANCH   3  45
ATOM     45  O   UNL     1     -53.382  24.401 -12.284  1.00  0.00    -0.387 OA
ATOM     46  H   UNL     1     -52.644  24.542 -12.927  1.00  0.00     0.211 HD
ENDBRANCH   3  45
BRANCH   4  47
ATOM     47  C   UNL     1     -53.635  22.317 -14.127  1.00  0.00     0.191 C 
BRANCH  47  48
ATOM     48  O   UNL     1     -53.105  21.616 -13.021  1.00  0.00    -0.394 OA
ATOM     49  H   UNL     1     -52.962  20.688 -13.326  1.00  0.00     0.210 HD
ENDBRANCH  47  48
ENDBRANCH   4  47
TORSDOF 14
ENDMDL
MODEL 6
REMARK VINA RESULT:    -5.661      5.056      8.709
REMARK INTER + INTRA:         -10.731
REMARK INTER:                  -9.138
REMARK INTRA:                  -1.593
REMARK UNBOUND:                -1.760
REMARK SMILES C[C@@H]1O[C@@H](O[C@H]2[C@H](Oc3cc(O)c4c(c3)O[C@@H](c3ccc(O)cc3)CC4=O)O[C@H](CO)[C@H](O)[C@@H]2O)[C@H](O)[C@H](O)[C@@H]1O
REMARK SMILES IDX 6 1 34 2 32 3 29 4 28 5 7 6 5 7 4 8 1 9 2 10 40 11 3 12
REMARK SMILES IDX 38 13 36 14 41 15 39 17 37 19 35 21 8 23 9 24 10 25 15 26
REMARK SMILES IDX 11 27 14 28 13 29 16 30 26 31 17 32 27 33 25 34 12 35 18 37
REMARK SMILES IDX 19 38 24 39 20 40 23 41 21 42 22 43 33 45 30 47 31 48
REMARK H PARENT 41 16 39 18 37 20 35 22 12 36 22 44 33 46 31 49
REMARK Flexibility Score: inf
ROOT
ATOM      1  C   UNL     1     -55.580  23.390 -12.438  1.00  0.00     0.221 C 
ATOM      2  C   UNL     1     -54.334  24.181 -12.880  1.00  0.00     0.181 C 
ATOM      3  C   UNL     1     -54.753  25.354 -13.838  1.00  0.00     0.177 C 
ATOM      4  C   UNL     1     -55.977  24.925 -14.698  1.00  0.00     0.179 C 
ATOM      5  O   UNL     1     -55.967  23.521 -14.896  1.00  0.00    -0.332 OA
ATOM      6  C   UNL     1     -56.308  22.833 -13.703  1.00  0.00     0.339 C 
ENDROOT
BRANCH   1   7
ATOM      7  O   UNL     1     -56.479  24.197 -11.687  1.00  0.00    -0.337 OA
BRANCH   7   8
ATOM      8  C   UNL     1     -57.791  23.652 -11.619  1.00  0.00     0.282 C 
ATOM      9  C   UNL     1     -59.686  26.631 -12.715  1.00  0.00     0.041 C 
ATOM     10  C   UNL     1     -58.771  25.795 -11.821  1.00  0.00     0.150 C 
ATOM     11  C   UNL     1     -59.263  25.804 -10.350  1.00  0.00     0.174 C 
ATOM     12  O   UNL     1     -58.716  24.467 -12.334  1.00  0.00    -0.344 OA
ATOM     13  C   UNL     1     -58.332  24.903  -9.510  1.00  0.00     0.179 C 
ATOM     14  C   UNL     1     -58.191  23.495 -10.144  1.00  0.00     0.202 C 
BRANCH  11  15
ATOM     15  O   UNL     1     -60.586  25.337 -10.259  1.00  0.00    -0.388 OA
ATOM     16  H   UNL     1     -61.100  25.815 -10.963  1.00  0.00     0.211 HD
ENDBRANCH  11  15
BRANCH  13  17
ATOM     17  O   UNL     1     -58.746  24.827  -8.162  1.00  0.00    -0.387 OA
ATOM     18  H   UNL     1     -57.978  25.043  -7.579  1.00  0.00     0.211 HD
ENDBRANCH  13  17
BRANCH  14  19
ATOM     19  O   UNL     1     -59.423  22.804 -10.073  1.00  0.00    -0.385 OA
ATOM     20  H   UNL     1     -59.772  22.751 -11.010  1.00  0.00     0.211 HD
ENDBRANCH  14  19
ENDBRANCH   7   8
ENDBRANCH   1   7
BRANCH   2  21
ATOM     21  O   UNL     1     -53.391  23.283 -13.457  1.00  0.00    -0.387 OA
ATOM     22  H   UNL     1     -53.848  22.428 -13.694  1.00  0.00     0.211 HD
ENDBRANCH   2  21
BRANCH   6  23
ATOM     23  O   UNL     1     -55.919  21.470 -13.802  1.00  0.00    -0.462 OA
BRANCH  23  24
ATOM     24  C   UNL     1     -55.518  20.759 -14.932  1.00  0.00     0.130 A 
ATOM     25  C   UNL     1     -54.265  20.131 -15.035  1.00  0.00     0.093 A 
ATOM     26  C   UNL     1     -56.494  20.503 -15.884  1.00  0.00     0.094 A 
ATOM     27  C   UNL     1     -54.105  19.035 -15.903  1.00  0.00     0.133 A 
ATOM     28  C   UNL     1     -56.359  19.393 -16.713  1.00  0.00     0.138 A 
ATOM     29  C   UNL     1     -55.197  18.615 -16.697  1.00  0.00     0.102 A 
ATOM     30  O   UNL     1     -57.473  18.937 -17.409  1.00  0.00    -0.484 OA
ATOM     31  C   UNL     1     -55.276  17.264 -17.343  1.00  0.00     0.174 C 
ATOM     32  C   UNL     1     -57.795  17.542 -17.297  1.00  0.00     0.211 C 
ATOM     33  O   UNL     1     -54.249  16.555 -17.454  1.00  0.00    -0.294 OA
ATOM     34  C   UNL     1     -56.602  16.680 -17.793  1.00  0.00     0.131 C 
BRANCH  27  35
ATOM     35  O   UNL     1     -52.899  18.322 -15.921  1.00  0.00    -0.507 OA
ATOM     36  H   UNL     1     -52.032  18.756 -16.230  1.00  0.00     0.293 HD
ENDBRANCH  27  35
BRANCH  32  37
ATOM     37  C   UNL     1     -59.097  17.250 -17.996  1.00  0.00    -0.007 A 
ATOM     38  C   UNL     1     -59.154  17.353 -19.393  1.00  0.00     0.011 A 
ATOM     39  C   UNL     1     -60.210  16.761 -17.290  1.00  0.00     0.011 A 
ATOM     40  C   UNL     1     -60.299  16.947 -20.090  1.00  0.00     0.046 A 
ATOM     41  C   UNL     1     -61.345  16.318 -17.994  1.00  0.00     0.046 A 
ATOM     42  C   UNL     1     -61.387  16.391 -19.398  1.00  0.00     0.115 A 
BRANCH  42  43
ATOM     43  O   UNL     1     -62.488  15.926 -20.112  1.00  0.00    -0.508 OA
ATOM     44  H   UNL     1     -62.525  16.000 -21.123  1.00  0.00     0.293 HD
ENDBRANCH  42  43
ENDBRANCH  32  37
ENDBRANCH  23  24
ENDBRANCH   6  23
BRANCH   3  45
ATOM     45  O   UNL     1     -53.686  25.864 -14.624  1.00  0.00    -0.387 OA
ATOM     46  H   UNL     1     -53.160  26.513 -14.096  1.00  0.00     0.211 HD
ENDBRANCH   3  45
BRANCH   4  47
ATOM     47  C   UNL     1     -56.086  25.650 -16.039  1.00  0.00     0.191 C 
BRANCH  47  48
ATOM     48  O   UNL     1     -56.078  27.051 -15.855  1.00  0.00    -0.394 OA
ATOM     49  H   UNL     1     -56.137  27.447 -16.758  1.00  0.00     0.210 HD
ENDBRANCH  47  48
ENDBRANCH   4  47
TORSDOF 14
ENDMDL
MODEL 7
REMARK VINA RESULT:    -5.629      4.744      9.095
REMARK INTER + INTRA:         -10.681
REMARK INTER:                  -8.999
REMARK INTRA:                  -1.682
REMARK UNBOUND:                -1.760
REMARK SMILES C[C@@H]1O[C@@H](O[C@H]2[C@H](Oc3cc(O)c4c(c3)O[C@@H](c3ccc(O)cc3)CC4=O)O[C@H](CO)[C@H](O)[C@@H]2O)[C@H](O)[C@H](O)[C@@H]1O
REMARK SMILES IDX 6 1 34 2 32 3 29 4 28 5 7 6 5 7 4 8 1 9 2 10 40 11 3 12
REMARK SMILES IDX 38 13 36 14 41 15 39 17 37 19 35 21 8 23 9 24 10 25 15 26
REMARK SMILES IDX 11 27 14 28 13 29 16 30 26 31 17 32 27 33 25 34 12 35 18 37
REMARK SMILES IDX 19 38 24 39 20 40 23 41 21 42 22 43 33 45 30 47 31 48
REMARK H PARENT 41 16 39 18 37 20 35 22 12 36 22 44 33 46 31 49
REMARK Flexibility Score: inf
ROOT
ATOM      1  C   UNL     1     -54.654  19.074 -15.810  1.00  0.00     0.221 C 
ATOM      2  C   UNL     1     -53.316  18.864 -16.547  1.00  0.00     0.181 C 
ATOM      3  C   UNL     1     -52.883  17.357 -16.458  1.00  0.00     0.177 C 
ATOM      4  C   UNL     1     -53.340  16.752 -15.100  1.00  0.00     0.179 C 
ATOM      5  O   UNL     1     -53.391  17.764 -14.108  1.00  0.00    -0.332 OA
ATOM      6  C   UNL     1     -54.492  18.634 -14.320  1.00  0.00     0.339 C 
ENDROOT
BRANCH   1   7
ATOM      7  O   UNL     1     -55.709  18.336 -16.413  1.00  0.00    -0.337 OA
BRANCH   7   8
ATOM      8  C   UNL     1     -56.266  18.986 -17.549  1.00  0.00     0.282 C 
ATOM      9  C   UNL     1     -59.752  19.295 -16.359  1.00  0.00     0.041 C 
ATOM     10  C   UNL     1     -58.470  18.584 -16.791  1.00  0.00     0.150 C 
ATOM     11  C   UNL     1     -58.754  17.540 -17.902  1.00  0.00     0.174 C 
ATOM     12  O   UNL     1     -57.531  19.561 -17.234  1.00  0.00    -0.344 OA
ATOM     13  C   UNL     1     -57.418  16.897 -18.331  1.00  0.00     0.179 C 
ATOM     14  C   UNL     1     -56.368  17.976 -18.702  1.00  0.00     0.202 C 
BRANCH  11  15
ATOM     15  O   UNL     1     -59.371  18.141 -19.012  1.00  0.00    -0.388 OA
ATOM     16  H   UNL     1     -60.283  17.749 -19.072  1.00  0.00     0.211 HD
ENDBRANCH  11  15
BRANCH  13  17
ATOM     17  O   UNL     1     -57.593  15.962 -19.376  1.00  0.00    -0.387 OA
ATOM     18  H   UNL     1     -58.509  16.052 -19.734  1.00  0.00     0.211 HD
ENDBRANCH  13  17
BRANCH  14  19
ATOM     19  O   UNL     1     -56.765  18.658 -19.876  1.00  0.00    -0.385 OA
ATOM     20  H   UNL     1     -57.241  17.987 -20.446  1.00  0.00     0.211 HD
ENDBRANCH  14  19
ENDBRANCH   7   8
ENDBRANCH   1   7
BRANCH   2  21
ATOM     21  O   UNL     1     -52.348  19.767 -16.021  1.00  0.00    -0.387 OA
ATOM     22  H   UNL     1     -52.467  19.846 -15.033  1.00  0.00     0.211 HD
ENDBRANCH   2  21
BRANCH   6  23
ATOM     23  O   UNL     1     -54.308  19.835 -13.582  1.00  0.00    -0.462 OA
BRANCH  23  24
ATOM     24  C   UNL     1     -55.254  20.578 -12.878  1.00  0.00     0.130 A 
ATOM     25  C   UNL     1     -55.289  20.636 -11.474  1.00  0.00     0.093 A 
ATOM     26  C   UNL     1     -56.040  21.447 -13.621  1.00  0.00     0.094 A 
ATOM     27  C   UNL     1     -55.870  21.749 -10.838  1.00  0.00     0.133 A 
ATOM     28  C   UNL     1     -56.578  22.572 -13.003  1.00  0.00     0.138 A 
ATOM     29  C   UNL     1     -56.455  22.768 -11.623  1.00  0.00     0.102 A 
ATOM     30  O   UNL     1     -57.057  23.608 -13.797  1.00  0.00    -0.484 OA
ATOM     31  C   UNL     1     -56.740  24.147 -11.106  1.00  0.00     0.174 C 
ATOM     32  C   UNL     1     -56.582  24.932 -13.510  1.00  0.00     0.211 C 
ATOM     33  O   UNL     1     -56.747  24.371  -9.873  1.00  0.00    -0.294 OA
ATOM     34  C   UNL     1     -56.935  25.320 -12.048  1.00  0.00     0.131 C 
BRANCH  27  35
ATOM     35  O   UNL     1     -55.799  21.878  -9.445  1.00  0.00    -0.507 OA
ATOM     36  H   UNL     1     -55.325  21.183  -8.871  1.00  0.00     0.293 HD
ENDBRANCH  27  35
BRANCH  32  37
ATOM     37  C   UNL     1     -57.091  25.903 -14.544  1.00  0.00    -0.007 A 
ATOM     38  C   UNL     1     -56.275  26.213 -15.642  1.00  0.00     0.011 A 
ATOM     39  C   UNL     1     -58.403  26.403 -14.492  1.00  0.00     0.011 A 
ATOM     40  C   UNL     1     -56.767  26.991 -16.696  1.00  0.00     0.046 A 
ATOM     41  C   UNL     1     -58.909  27.152 -15.570  1.00  0.00     0.046 A 
ATOM     42  C   UNL     1     -58.100  27.434 -16.685  1.00  0.00     0.115 A 
BRANCH  42  43
ATOM     43  O   UNL     1     -58.595  28.144 -17.775  1.00  0.00    -0.508 OA
ATOM     44  H   UNL     1     -58.476  27.800 -18.722  1.00  0.00     0.293 HD
ENDBRANCH  42  43
ENDBRANCH  32  37
ENDBRANCH  23  24
ENDBRANCH   6  23
BRANCH   3  45
ATOM     45  O   UNL     1     -51.505  17.137 -16.718  1.00  0.00    -0.387 OA
ATOM     46  H   UNL     1     -51.336  17.175 -17.691  1.00  0.00     0.211 HD
ENDBRANCH   3  45
BRANCH   4  47
ATOM     47  C   UNL     1     -52.487  15.578 -14.618  1.00  0.00     0.191 C 
BRANCH  47  48
ATOM     48  O   UNL     1     -52.240  14.671 -15.672  1.00  0.00    -0.394 OA
ATOM     49  H   UNL     1     -51.587  15.111 -16.267  1.00  0.00     0.210 HD
ENDBRANCH  47  48
ENDBRANCH   4  47
TORSDOF 14
ENDMDL
MODEL 8
REMARK VINA RESULT:    -5.563      5.267      9.508
REMARK INTER + INTRA:         -10.576
REMARK INTER:                  -9.193
REMARK INTRA:                  -1.383
REMARK UNBOUND:                -1.760
REMARK SMILES C[C@@H]1O[C@@H](O[C@H]2[C@H](Oc3cc(O)c4c(c3)O[C@@H](c3ccc(O)cc3)CC4=O)O[C@H](CO)[C@H](O)[C@@H]2O)[C@H](O)[C@H](O)[C@@H]1O
REMARK SMILES IDX 6 1 34 2 32 3 29 4 28 5 7 6 5 7 4 8 1 9 2 10 40 11 3 12
REMARK SMILES IDX 38 13 36 14 41 15 39 17 37 19 35 21 8 23 9 24 10 25 15 26
REMARK SMILES IDX 11 27 14 28 13 29 16 30 26 31 17 32 27 33 25 34 12 35 18 37
REMARK SMILES IDX 19 38 24 39 20 40 23 41 21 42 22 43 33 45 30 47 31 48
REMARK H PARENT 41 16 39 18 37 20 35 22 12 36 22 44 33 46 31 49
REMARK Flexibility Score: inf
ROOT
ATOM      1  C   UNL     1     -55.473  18.053 -17.134  1.00  0.00     0.221 C 
ATOM      2  C   UNL     1     -54.127  17.532 -17.674  1.00  0.00     0.181 C 
ATOM      3  C   UNL     1     -53.567  16.408 -16.730  1.00  0.00     0.177 C 
ATOM      4  C   UNL     1     -53.962  16.707 -15.255  1.00  0.00     0.179 C 
ATOM      5  O   UNL     1     -54.093  18.106 -15.059  1.00  0.00    -0.332 OA
ATOM      6  C   UNL     1     -55.265  18.604 -15.687  1.00  0.00     0.339 C 
ENDROOT
BRANCH   1   7
ATOM      7  O   UNL     1     -56.466  17.035 -17.118  1.00  0.00    -0.337 OA
BRANCH   7   8
ATOM      8  C   UNL     1     -57.774  17.537 -16.877  1.00  0.00     0.282 C 
ATOM      9  C   UNL     1     -59.706  14.907 -18.612  1.00  0.00     0.041 C 
ATOM     10  C   UNL     1     -58.714  16.060 -18.466  1.00  0.00     0.150 C 
ATOM     11  C   UNL     1     -59.028  17.200 -19.470  1.00  0.00     0.174 C 
ATOM     12  O   UNL     1     -58.755  16.533 -17.123  1.00  0.00    -0.344 OA
ATOM     13  C   UNL     1     -58.028  18.353 -19.238  1.00  0.00     0.179 C 
ATOM     14  C   UNL     1     -58.000  18.783 -17.748  1.00  0.00     0.202 C 
BRANCH  11  15
ATOM     15  O   UNL     1     -60.342  17.670 -19.303  1.00  0.00    -0.388 OA
ATOM     16  H   UNL     1     -60.269  18.640 -19.100  1.00  0.00     0.211 HD
ENDBRANCH  11  15
BRANCH  13  17
ATOM     17  O   UNL     1     -58.281  19.451 -20.090  1.00  0.00    -0.387 OA
ATOM     18  H   UNL     1     -58.679  20.183 -19.559  1.00  0.00     0.211 HD
ENDBRANCH  13  17
BRANCH  14  19
ATOM     19  O   UNL     1     -59.233  19.376 -17.390  1.00  0.00    -0.385 OA
ATOM     20  H   UNL     1     -59.110  19.749 -16.469  1.00  0.00     0.211 HD
ENDBRANCH  14  19
ENDBRANCH   7   8
ENDBRANCH   1   7
BRANCH   2  21
ATOM     21  O   UNL     1     -53.236  18.629 -17.844  1.00  0.00    -0.387 OA
ATOM     22  H   UNL     1     -52.297  18.323 -17.700  1.00  0.00     0.211 HD
ENDBRANCH   2  21
BRANCH   6  23
ATOM     23  O   UNL     1     -55.180  20.016 -15.820  1.00  0.00    -0.462 OA
BRANCH  23  24
ATOM     24  C   UNL     1     -55.006  20.976 -14.825  1.00  0.00     0.130 A 
ATOM     25  C   UNL     1     -53.742  21.357 -14.343  1.00  0.00     0.093 A 
ATOM     26  C   UNL     1     -56.127  21.713 -14.470  1.00  0.00     0.094 A 
ATOM     27  C   UNL     1     -53.572  22.631 -13.768  1.00  0.00     0.133 A 
ATOM     28  C   UNL     1     -55.961  22.990 -13.943  1.00  0.00     0.138 A 
ATOM     29  C   UNL     1     -54.689  23.487 -13.639  1.00  0.00     0.102 A 
ATOM     30  O   UNL     1     -57.052  23.851 -13.917  1.00  0.00    -0.484 OA
ATOM     31  C   UNL     1     -54.574  24.966 -13.419  1.00  0.00     0.174 C 
ATOM     32  C   UNL     1     -56.870  25.162 -14.474  1.00  0.00     0.211 C 
ATOM     33  O   UNL     1     -53.487  25.467 -13.046  1.00  0.00    -0.294 OA
ATOM     34  C   UNL     1     -55.726  25.903 -13.728  1.00  0.00     0.131 C 
BRANCH  27  35
ATOM     35  O   UNL     1     -52.294  23.070 -13.401  1.00  0.00    -0.507 OA
ATOM     36  H   UNL     1     -51.464  22.777 -13.913  1.00  0.00     0.293 HD
ENDBRANCH  27  35
BRANCH  32  37
ATOM     37  C   UNL     1     -58.179  25.908 -14.488  1.00  0.00    -0.007 A 
ATOM     38  C   UNL     1     -59.149  25.591 -13.527  1.00  0.00     0.011 A 
ATOM     39  C   UNL     1     -58.393  26.990 -15.360  1.00  0.00     0.011 A 
ATOM     40  C   UNL     1     -60.314  26.359 -13.413  1.00  0.00     0.046 A 
ATOM     41  C   UNL     1     -59.545  27.784 -15.219  1.00  0.00     0.046 A 
ATOM     42  C   UNL     1     -60.502  27.484 -14.233  1.00  0.00     0.115 A 
BRANCH  42  43
ATOM     43  O   UNL     1     -61.631  28.280 -14.057  1.00  0.00    -0.508 OA
ATOM     44  H   UNL     1     -61.548  29.251 -13.776  1.00  0.00     0.293 HD
ENDBRANCH  42  43
ENDBRANCH  32  37
ENDBRANCH  23  24
ENDBRANCH   6  23
BRANCH   3  45
ATOM     45  O   UNL     1     -52.177  16.166 -16.884  1.00  0.00    -0.387 OA
ATOM     46  H   UNL     1     -52.026  15.228 -17.154  1.00  0.00     0.211 HD
ENDBRANCH   3  45
BRANCH   4  47
ATOM     47  C   UNL     1     -53.009  16.113 -14.218  1.00  0.00     0.191 C 
BRANCH  47  48
ATOM     48  O   UNL     1     -51.944  17.001 -13.948  1.00  0.00    -0.394 OA
ATOM     49  H   UNL     1     -51.971  17.175 -12.976  1.00  0.00     0.210 HD
ENDBRANCH  47  48
ENDBRANCH   4  47
TORSDOF 14
ENDMDL
