MODEL 1
REMARK VINA RESULT:    -3.219      0.000      0.000
REMARK INTER + INTRA:          -8.217
REMARK INTER:                  -5.854
REMARK INTRA:                  -2.363
REMARK UNBOUND:                -2.363
REMARK SMILES CCCCCCCCCCCCCCCC(=O)[O-]
REMARK SMILES IDX 9 1 10 2 11 3 12 4 13 5 14 6 15 7 16 8 17 9 18 10 8 11 7 12
REMARK SMILES IDX 6 13 5 14 4 15 3 16 2 17 1 18
REMARK H PARENT
REMARK Flexibility Score: inf
ROOT
ATOM      1  C   UNL     1       4.860  10.945   7.569  1.00  0.00     0.000 C 
ENDROOT
BRANCH   1   2
ATOM      2  C   UNL     1       5.051  12.351   8.159  1.00  0.00     0.000 C 
BRANCH   2   3
ATOM      3  C   UNL     1       6.260  13.084   7.560  1.00  0.00     0.000 C 
BRANCH   3   4
ATOM      4  C   UNL     1       7.216  13.563   8.662  1.00  0.00     0.000 C 
BRANCH   4   5
ATOM      5  C   UNL     1       6.833  13.037  10.056  1.00  0.00     0.000 C 
BRANCH   5   6
ATOM      6  C   UNL     1       8.004  13.039  11.062  1.00  0.00     0.006 C 
BRANCH   6   7
ATOM      7  C   UNL     1       8.219  11.662  11.702  1.00  0.00     0.053 C 
BRANCH   7   8
ATOM      8  C   UNL     1       9.678  11.341  11.777  1.00  0.00     0.041 C 
ATOM      9  O   UNL     1      10.057  10.179  12.082  1.00  0.00    -0.550 OA
ATOM     10  O   UNL     1      10.622  12.336  11.560  1.00  0.00    -0.550 OA
ENDBRANCH   7   8
ENDBRANCH   6   7
ENDBRANCH   5   6
ENDBRANCH   4   5
ENDBRANCH   3   4
ENDBRANCH   2   3
ENDBRANCH   1   2
BRANCH   1  11
ATOM     11  C   UNL     1       5.419   9.840   8.478  1.00  0.00     0.000 C 
BRANCH  11  12
ATOM     12  C   UNL     1       6.731   9.280   7.916  1.00  0.00    -0.000 C 
BRANCH  12  13
ATOM     13  C   UNL     1       7.878   9.450   8.922  1.00  0.00    -0.000 C 
BRANCH  13  14
ATOM     14  C   UNL     1       9.109  10.146   8.315  1.00  0.00    -0.000 C 
BRANCH  14  15
ATOM     15  C   UNL     1       8.903  10.602   6.855  1.00  0.00    -0.000 C 
BRANCH  15  16
ATOM     16  C   UNL     1       9.883   9.911   5.889  1.00  0.00    -0.000 C 
BRANCH  16  17
ATOM     17  C   UNL     1       9.168   9.035   4.848  1.00  0.00    -0.003 C 
ATOM     18  C   UNL     1       8.766   7.668   5.401  1.00  0.00     0.004 C 
ENDBRANCH  16  17
ENDBRANCH  15  16
ENDBRANCH  14  15
ENDBRANCH  13  14
ENDBRANCH  12  13
ENDBRANCH  11  12
ENDBRANCH   1  11
TORSDOF 14
ENDMDL
MODEL 2
REMARK VINA RESULT:    -3.048      1.092      1.842
REMARK INTER + INTRA:          -7.906
REMARK INTER:                  -5.826
REMARK INTRA:                  -2.079
REMARK UNBOUND:                -2.363
REMARK SMILES CCCCCCCCCCCCCCCC(=O)[O-]
REMARK SMILES IDX 9 1 10 2 11 3 12 4 13 5 14 6 15 7 16 8 17 9 18 10 8 11 7 12
REMARK SMILES IDX 6 13 5 14 4 15 3 16 2 17 1 18
REMARK H PARENT
REMARK Flexibility Score: inf
ROOT
ATOM      1  C   UNL     1       5.161  12.362   8.417  1.00  0.00     0.000 C 
ENDROOT
BRANCH   1   2
ATOM      2  C   UNL     1       5.917  13.376   7.544  1.00  0.00     0.000 C 
BRANCH   2   3
ATOM      3  C   UNL     1       7.415  13.439   7.875  1.00  0.00     0.000 C 
BRANCH   3   4
ATOM      4  C   UNL     1       8.114  12.118   7.524  1.00  0.00     0.000 C 
BRANCH   4   5
ATOM      5  C   UNL     1       9.033  11.610   8.649  1.00  0.00     0.000 C 
BRANCH   5   6
ATOM      6  C   UNL     1       8.278  11.225   9.939  1.00  0.00     0.006 C 
BRANCH   6   7
ATOM      7  C   UNL     1       8.635  12.144  11.115  1.00  0.00     0.053 C 
BRANCH   7   8
ATOM      8  C   UNL     1       9.955  11.756  11.702  1.00  0.00     0.041 C 
ATOM      9  O   UNL     1      10.163  10.568  12.065  1.00  0.00    -0.550 OA
ATOM     10  O   UNL     1      10.939  12.716  11.896  1.00  0.00    -0.550 OA
ENDBRANCH   7   8
ENDBRANCH   6   7
ENDBRANCH   5   6
ENDBRANCH   4   5
ENDBRANCH   3   4
ENDBRANCH   2   3
ENDBRANCH   1   2
BRANCH   1  11
ATOM     11  C   UNL     1       4.685  11.135   7.624  1.00  0.00     0.000 C 
BRANCH  11  12
ATOM     12  C   UNL     1       5.184   9.837   8.270  1.00  0.00    -0.000 C 
BRANCH  12  13
ATOM     13  C   UNL     1       6.125   9.078   7.324  1.00  0.00    -0.000 C 
BRANCH  13  14
ATOM     14  C   UNL     1       7.321   8.441   8.053  1.00  0.00    -0.000 C 
BRANCH  14  15
ATOM     15  C   UNL     1       8.457   7.999   7.107  1.00  0.00    -0.000 C 
BRANCH  15  16
ATOM     16  C   UNL     1       8.564   8.906   5.867  1.00  0.00    -0.000 C 
BRANCH  16  17
ATOM     17  C   UNL     1       9.950   9.557   5.729  1.00  0.00    -0.003 C 
ATOM     18  C   UNL     1      11.082   8.532   5.684  1.00  0.00     0.004 C 
ENDBRANCH  16  17
ENDBRANCH  15  16
ENDBRANCH  14  15
ENDBRANCH  13  14
ENDBRANCH  12  13
ENDBRANCH  11  12
ENDBRANCH   1  11
TORSDOF 14
ENDMDL
MODEL 3
REMARK VINA RESULT:    -3.031      1.738      3.252
REMARK INTER + INTRA:          -7.875
REMARK INTER:                  -5.593
REMARK INTRA:                  -2.282
REMARK UNBOUND:                -2.363
REMARK SMILES CCCCCCCCCCCCCCCC(=O)[O-]
REMARK SMILES IDX 9 1 10 2 11 3 12 4 13 5 14 6 15 7 16 8 17 9 18 10 8 11 7 12
REMARK SMILES IDX 6 13 5 14 4 15 3 16 2 17 1 18
REMARK H PARENT
REMARK Flexibility Score: inf
ROOT
ATOM      1  C   UNL     1       7.281   9.543   9.848  1.00  0.00     0.000 C 
ENDROOT
BRANCH   1   2
ATOM      2  C   UNL     1       6.006   8.970   9.209  1.00  0.00     0.000 C 
BRANCH   2   3
ATOM      3  C   UNL     1       4.931  10.041   8.971  1.00  0.00     0.000 C 
BRANCH   3   4
ATOM      4  C   UNL     1       5.148  10.750   7.627  1.00  0.00     0.000 C 
BRANCH   4   5
ATOM      5  C   UNL     1       5.049  12.282   7.735  1.00  0.00     0.000 C 
BRANCH   5   6
ATOM      6  C   UNL     1       6.420  12.987   7.814  1.00  0.00     0.006 C 
BRANCH   6   7
ATOM      7  C   UNL     1       6.504  13.958   8.999  1.00  0.00     0.053 C 
BRANCH   7   8
ATOM      8  C   UNL     1       6.893  13.230  10.246  1.00  0.00     0.041 C 
ATOM      9  O   UNL     1       6.008  12.773  11.017  1.00  0.00    -0.550 OA
ATOM     10  O   UNL     1       8.234  13.099  10.586  1.00  0.00    -0.550 OA
ENDBRANCH   7   8
ENDBRANCH   6   7
ENDBRANCH   5   6
ENDBRANCH   4   5
ENDBRANCH   3   4
ENDBRANCH   2   3
ENDBRANCH   1   2
BRANCH   1  11
ATOM     11  C   UNL     1       8.539   9.268   9.010  1.00  0.00     0.000 C 
BRANCH  11  12
ATOM     12  C   UNL     1       9.202  10.579   8.572  1.00  0.00    -0.000 C 
BRANCH  12  13
ATOM     13  C   UNL     1       9.171  10.728   7.044  1.00  0.00    -0.000 C 
BRANCH  13  14
ATOM     14  C   UNL     1       8.468   9.553   6.343  1.00  0.00    -0.000 C 
BRANCH  14  15
ATOM     15  C   UNL     1       9.291   8.939   5.191  1.00  0.00    -0.000 C 
BRANCH  15  16
ATOM     16  C   UNL     1      10.805   9.002   5.464  1.00  0.00    -0.000 C 
BRANCH  16  17
ATOM     17  C   UNL     1      11.405   7.626   5.795  1.00  0.00    -0.003 C 
ATOM     18  C   UNL     1      11.138   7.198   7.237  1.00  0.00     0.004 C 
ENDBRANCH  16  17
ENDBRANCH  15  16
ENDBRANCH  14  15
ENDBRANCH  13  14
ENDBRANCH  12  13
ENDBRANCH  11  12
ENDBRANCH   1  11
TORSDOF 14
ENDMDL
MODEL 4
REMARK VINA RESULT:    -3.017      2.372      5.217
REMARK INTER + INTRA:          -7.850
REMARK INTER:                  -5.668
REMARK INTRA:                  -2.181
REMARK UNBOUND:                -2.363
REMARK SMILES CCCCCCCCCCCCCCCC(=O)[O-]
REMARK SMILES IDX 9 1 10 2 11 3 12 4 13 5 14 6 15 7 16 8 17 9 18 10 8 11 7 12
REMARK SMILES IDX 6 13 5 14 4 15 3 16 2 17 1 18
REMARK H PARENT
REMARK Flexibility Score: inf
ROOT
ATOM      1  C   UNL     1       4.907  11.015   7.523  1.00  0.00     0.000 C 
ENDROOT
BRANCH   1   2
ATOM      2  C   UNL     1       5.212  10.113   8.730  1.00  0.00     0.000 C 
BRANCH   2   3
ATOM      3  C   UNL     1       6.684   9.680   8.788  1.00  0.00     0.000 C 
BRANCH   3   4
ATOM      4  C   UNL     1       7.410  10.018   7.477  1.00  0.00     0.000 C 
BRANCH   4   5
ATOM      5  C   UNL     1       8.666  10.880   7.694  1.00  0.00     0.000 C 
BRANCH   5   6
ATOM      6  C   UNL     1       9.569  10.982   6.447  1.00  0.00     0.006 C 
BRANCH   6   7
ATOM      7  C   UNL     1       9.541   9.700   5.605  1.00  0.00     0.053 C 
BRANCH   7   8
ATOM      8  C   UNL     1      10.807   8.924   5.788  1.00  0.00     0.041 C 
ATOM      9  O   UNL     1      10.914   8.099   6.733  1.00  0.00    -0.550 OA
ATOM     10  O   UNL     1      11.888   9.149   4.945  1.00  0.00    -0.550 OA
ENDBRANCH   7   8
ENDBRANCH   6   7
ENDBRANCH   5   6
ENDBRANCH   4   5
ENDBRANCH   3   4
ENDBRANCH   2   3
ENDBRANCH   1   2
BRANCH   1  11
ATOM     11  C   UNL     1       4.588  12.461   7.929  1.00  0.00     0.000 C 
BRANCH  11  12
ATOM     12  C   UNL     1       5.777  13.386   7.643  1.00  0.00    -0.000 C 
BRANCH  12  13
ATOM     13  C   UNL     1       6.232  14.108   8.918  1.00  0.00    -0.000 C 
BRANCH  13  14
ATOM     14  C   UNL     1       7.227  13.282   9.752  1.00  0.00    -0.000 C 
BRANCH  14  15
ATOM     15  C   UNL     1       6.622  12.719  11.055  1.00  0.00    -0.000 C 
BRANCH  15  16
ATOM     16  C   UNL     1       7.699  12.435  12.118  1.00  0.00    -0.000 C 
BRANCH  16  17
ATOM     17  C   UNL     1       9.067  12.102  11.499  1.00  0.00    -0.003 C 
ATOM     18  C   UNL     1       9.298  10.599  11.350  1.00  0.00     0.004 C 
ENDBRANCH  16  17
ENDBRANCH  15  16
ENDBRANCH  14  15
ENDBRANCH  13  14
ENDBRANCH  12  13
ENDBRANCH  11  12
ENDBRANCH   1  11
TORSDOF 14
ENDMDL
MODEL 5
REMARK VINA RESULT:    -2.995      3.132      5.858
REMARK INTER + INTRA:          -7.809
REMARK INTER:                  -5.928
REMARK INTRA:                  -1.881
REMARK UNBOUND:                -2.363
REMARK SMILES CCCCCCCCCCCCCCCC(=O)[O-]
REMARK SMILES IDX 9 1 10 2 11 3 12 4 13 5 14 6 15 7 16 8 17 9 18 10 8 11 7 12
REMARK SMILES IDX 6 13 5 14 4 15 3 16 2 17 1 18
REMARK H PARENT
REMARK Flexibility Score: inf
ROOT
ATOM      1  C   UNL     1       7.562  10.032  10.488  1.00  0.00     0.000 C 
ENDROOT
BRANCH   1   2
ATOM      2  C   UNL     1       8.191   9.259   9.318  1.00  0.00     0.000 C 
BRANCH   2   3
ATOM      3  C   UNL     1       9.117  10.134   8.460  1.00  0.00     0.000 C 
BRANCH   3   4
ATOM      4  C   UNL     1       8.616  10.210   7.011  1.00  0.00     0.000 C 
BRANCH   4   5
ATOM      5  C   UNL     1       9.760  10.308   5.987  1.00  0.00     0.000 C 
BRANCH   5   6
ATOM      6  C   UNL     1      10.008   8.999   5.208  1.00  0.00     0.006 C 
BRANCH   6   7
ATOM      7  C   UNL     1      11.316   8.315   5.625  1.00  0.00     0.053 C 
BRANCH   7   8
ATOM      8  C   UNL     1      12.273   8.270   4.477  1.00  0.00     0.041 C 
ATOM      9  O   UNL     1      12.376   7.228   3.777  1.00  0.00    -0.550 OA
ATOM     10  O   UNL     1      13.091   9.361   4.210  1.00  0.00    -0.550 OA
ENDBRANCH   7   8
ENDBRANCH   6   7
ENDBRANCH   5   6
ENDBRANCH   4   5
ENDBRANCH   3   4
ENDBRANCH   2   3
ENDBRANCH   1   2
BRANCH   1  11
ATOM     11  C   UNL     1       8.034  11.492  10.556  1.00  0.00     0.000 C 
BRANCH  11  12
ATOM     12  C   UNL     1       6.873  12.427  10.916  1.00  0.00    -0.000 C 
BRANCH  12  13
ATOM     13  C   UNL     1       6.834  13.641   9.977  1.00  0.00    -0.000 C 
BRANCH  13  14
ATOM     14  C   UNL     1       7.226  13.292   8.531  1.00  0.00    -0.000 C 
BRANCH  14  15
ATOM     15  C   UNL     1       6.082  13.492   7.515  1.00  0.00    -0.000 C 
BRANCH  15  16
ATOM     16  C   UNL     1       4.891  12.556   7.791  1.00  0.00    -0.000 C 
BRANCH  16  17
ATOM     17  C   UNL     1       5.262  11.071   7.648  1.00  0.00    -0.003 C 
ATOM     18  C   UNL     1       4.140  10.136   8.100  1.00  0.00     0.004 C 
ENDBRANCH  16  17
ENDBRANCH  15  16
ENDBRANCH  14  15
ENDBRANCH  13  14
ENDBRANCH  12  13
ENDBRANCH  11  12
ENDBRANCH   1  11
TORSDOF 14
ENDMDL
MODEL 6
REMARK VINA RESULT:    -2.940      1.349      4.161
REMARK INTER + INTRA:          -7.709
REMARK INTER:                  -5.368
REMARK INTRA:                  -2.341
REMARK UNBOUND:                -2.363
REMARK SMILES CCCCCCCCCCCCCCCC(=O)[O-]
REMARK SMILES IDX 9 1 10 2 11 3 12 4 13 5 14 6 15 7 16 8 17 9 18 10 8 11 7 12
REMARK SMILES IDX 6 13 5 14 4 15 3 16 2 17 1 18
REMARK H PARENT
REMARK Flexibility Score: inf
ROOT
ATOM      1  C   UNL     1       7.607   8.062   6.059  1.00  0.00     0.000 C 
ENDROOT
BRANCH   1   2
ATOM      2  C   UNL     1       8.780   8.949   5.615  1.00  0.00     0.000 C 
BRANCH   2   3
ATOM      3  C   UNL     1       9.534   9.569   6.800  1.00  0.00     0.000 C 
BRANCH   3   4
ATOM      4  C   UNL     1       9.136  11.039   6.999  1.00  0.00     0.000 C 
BRANCH   4   5
ATOM      5  C   UNL     1       9.124  11.461   8.478  1.00  0.00     0.000 C 
BRANCH   5   6
ATOM      6  C   UNL     1       8.919  10.285   9.456  1.00  0.00     0.006 C 
BRANCH   6   7
ATOM      7  C   UNL     1       8.258  10.730  10.767  1.00  0.00     0.053 C 
BRANCH   7   8
ATOM      8  C   UNL     1       8.726  12.098  11.152  1.00  0.00     0.041 C 
ATOM      9  O   UNL     1       7.944  13.082  11.070  1.00  0.00    -0.550 OA
ATOM     10  O   UNL     1      10.041  12.296  11.553  1.00  0.00    -0.550 OA
ENDBRANCH   7   8
ENDBRANCH   6   7
ENDBRANCH   5   6
ENDBRANCH   4   5
ENDBRANCH   3   4
ENDBRANCH   2   3
ENDBRANCH   1   2
BRANCH   1  11
ATOM     11  C   UNL     1       7.800   7.486   7.470  1.00  0.00     0.000 C 
BRANCH  11  12
ATOM     12  C   UNL     1       6.547   7.704   8.327  1.00  0.00    -0.000 C 
BRANCH  12  13
ATOM     13  C   UNL     1       5.537   8.607   7.606  1.00  0.00    -0.000 C 
BRANCH  13  14
ATOM     14  C   UNL     1       5.216   9.892   8.390  1.00  0.00    -0.000 C 
BRANCH  14  15
ATOM     15  C   UNL     1       5.457  11.185   7.583  1.00  0.00    -0.000 C 
BRANCH  15  16
ATOM     16  C   UNL     1       5.717  12.397   8.495  1.00  0.00    -0.000 C 
BRANCH  16  17
ATOM     17  C   UNL     1       6.007  13.682   7.703  1.00  0.00    -0.003 C 
ATOM     18  C   UNL     1       4.735  14.408   7.268  1.00  0.00     0.004 C 
ENDBRANCH  16  17
ENDBRANCH  15  16
ENDBRANCH  14  15
ENDBRANCH  13  14
ENDBRANCH  12  13
ENDBRANCH  11  12
ENDBRANCH   1  11
TORSDOF 14
ENDMDL
MODEL 7
REMARK VINA RESULT:    -2.914      2.790      5.460
REMARK INTER + INTRA:          -7.663
REMARK INTER:                  -5.525
REMARK INTRA:                  -2.138
REMARK UNBOUND:                -2.363
REMARK SMILES CCCCCCCCCCCCCCCC(=O)[O-]
REMARK SMILES IDX 9 1 10 2 11 3 12 4 13 5 14 6 15 7 16 8 17 9 18 10 8 11 7 12
REMARK SMILES IDX 6 13 5 14 4 15 3 16 2 17 1 18
REMARK H PARENT
REMARK Flexibility Score: inf
ROOT
ATOM      1  C   UNL     1       3.749  11.191   8.900  1.00  0.00     0.000 C 
ENDROOT
BRANCH   1   2
ATOM      2  C   UNL     1       4.360  10.659   7.594  1.00  0.00     0.000 C 
BRANCH   2   3
ATOM      3  C   UNL     1       5.290   9.458   7.823  1.00  0.00     0.000 C 
BRANCH   3   4
ATOM      4  C   UNL     1       6.728   9.786   7.396  1.00  0.00     0.000 C 
BRANCH   4   5
ATOM      5  C   UNL     1       7.779   9.308   8.413  1.00  0.00     0.000 C 
BRANCH   5   6
ATOM      6  C   UNL     1       9.233   9.590   7.982  1.00  0.00     0.006 C 
BRANCH   6   7
ATOM      7  C   UNL     1       9.304  10.432   6.701  1.00  0.00     0.053 C 
BRANCH   7   8
ATOM      8  C   UNL     1       9.847   9.620   5.569  1.00  0.00     0.041 C 
ATOM      9  O   UNL     1       9.063   9.020   4.786  1.00  0.00    -0.550 OA
ATOM     10  O   UNL     1      11.219   9.483   5.406  1.00  0.00    -0.550 OA
ENDBRANCH   7   8
ENDBRANCH   6   7
ENDBRANCH   5   6
ENDBRANCH   4   5
ENDBRANCH   3   4
ENDBRANCH   2   3
ENDBRANCH   1   2
BRANCH   1  11
ATOM     11  C   UNL     1       2.480  12.024   8.664  1.00  0.00     0.000 C 
BRANCH  11  12
ATOM     12  C   UNL     1       2.804  13.522   8.643  1.00  0.00    -0.000 C 
BRANCH  12  13
ATOM     13  C   UNL     1       2.929  14.038   7.203  1.00  0.00    -0.000 C 
BRANCH  13  14
ATOM     14  C   UNL     1       4.285  14.709   6.922  1.00  0.00    -0.000 C 
BRANCH  14  15
ATOM     15  C   UNL     1       5.338  14.457   8.022  1.00  0.00    -0.000 C 
BRANCH  15  16
ATOM     16  C   UNL     1       6.552  13.672   7.493  1.00  0.00    -0.000 C 
BRANCH  16  17
ATOM     17  C   UNL     1       7.369  13.017   8.618  1.00  0.00    -0.003 C 
ATOM     18  C   UNL     1       6.745  13.221   9.997  1.00  0.00     0.004 C 
ENDBRANCH  16  17
ENDBRANCH  15  16
ENDBRANCH  14  15
ENDBRANCH  13  14
ENDBRANCH  12  13
ENDBRANCH  11  12
ENDBRANCH   1  11
TORSDOF 14
ENDMDL
MODEL 8
REMARK VINA RESULT:    -2.863      3.019      5.226
REMARK INTER + INTRA:          -7.568
REMARK INTER:                  -5.322
REMARK INTRA:                  -2.246
REMARK UNBOUND:                -2.363
REMARK SMILES CCCCCCCCCCCCCCCC(=O)[O-]
REMARK SMILES IDX 9 1 10 2 11 3 12 4 13 5 14 6 15 7 16 8 17 9 18 10 8 11 7 12
REMARK SMILES IDX 6 13 5 14 4 15 3 16 2 17 1 18
REMARK H PARENT
REMARK Flexibility Score: inf
ROOT
ATOM      1  C   UNL     1       6.219  13.885   7.710  1.00  0.00     0.000 C 
ENDROOT
BRANCH   1   2
ATOM      2  C   UNL     1       7.653  13.371   7.510  1.00  0.00     0.000 C 
BRANCH   2   3
ATOM      3  C   UNL     1       8.019  12.244   8.486  1.00  0.00     0.000 C 
BRANCH   3   4
ATOM      4  C   UNL     1       9.118  11.343   7.903  1.00  0.00     0.000 C 
BRANCH   4   5
ATOM      5  C   UNL     1       8.611  10.445   6.761  1.00  0.00     0.000 C 
BRANCH   5   6
ATOM      6  C   UNL     1       9.006   8.961   6.919  1.00  0.00     0.006 C 
BRANCH   6   7
ATOM      7  C   UNL     1      10.511   8.739   6.727  1.00  0.00     0.053 C 
BRANCH   7   8
ATOM      8  C   UNL     1      10.861   8.745   5.273  1.00  0.00     0.041 C 
ATOM      9  O   UNL     1      11.988   9.162   4.894  1.00  0.00    -0.550 OA
ATOM     10  O   UNL     1       9.926   8.337   4.331  1.00  0.00    -0.550 OA
ENDBRANCH   7   8
ENDBRANCH   6   7
ENDBRANCH   5   6
ENDBRANCH   4   5
ENDBRANCH   3   4
ENDBRANCH   2   3
ENDBRANCH   1   2
BRANCH   1  11
ATOM     11  C   UNL     1       5.356  12.925   8.541  1.00  0.00     0.000 C 
BRANCH  11  12
ATOM     12  C   UNL     1       4.118  12.479   7.752  1.00  0.00    -0.000 C 
BRANCH  12  13
ATOM     13  C   UNL     1       3.898  10.966   7.882  1.00  0.00    -0.000 C 
BRANCH  13  14
ATOM     14  C   UNL     1       5.164  10.149   7.570  1.00  0.00    -0.000 C 
BRANCH  14  15
ATOM     15  C   UNL     1       5.361   8.935   8.501  1.00  0.00    -0.000 C 
BRANCH  15  16
ATOM     16  C   UNL     1       5.162   9.303   9.983  1.00  0.00    -0.000 C 
BRANCH  16  17
ATOM     17  C   UNL     1       6.430   9.893  10.621  1.00  0.00    -0.003 C 
ATOM     18  C   UNL     1       7.651   8.992  10.452  1.00  0.00     0.004 C 
ENDBRANCH  16  17
ENDBRANCH  15  16
ENDBRANCH  14  15
ENDBRANCH  13  14
ENDBRANCH  12  13
ENDBRANCH  11  12
ENDBRANCH   1  11
TORSDOF 14
ENDMDL
MODEL 9
REMARK VINA RESULT:    -2.808      1.775      4.521
REMARK INTER + INTRA:          -7.469
REMARK INTER:                  -4.808
REMARK INTRA:                  -2.661
REMARK UNBOUND:                -2.363
REMARK SMILES CCCCCCCCCCCCCCCC(=O)[O-]
REMARK SMILES IDX 9 1 10 2 11 3 12 4 13 5 14 6 15 7 16 8 17 9 18 10 8 11 7 12
REMARK SMILES IDX 6 13 5 14 4 15 3 16 2 17 1 18
REMARK H PARENT
REMARK Flexibility Score: inf
ROOT
ATOM      1  C   UNL     1       3.535  11.170   7.786  1.00  0.00     0.000 C 
ENDROOT
BRANCH   1   2
ATOM      2  C   UNL     1       5.044  11.066   7.514  1.00  0.00     0.000 C 
BRANCH   2   3
ATOM      3  C   UNL     1       5.590   9.649   7.746  1.00  0.00     0.000 C 
BRANCH   3   4
ATOM      4  C   UNL     1       7.125   9.642   7.733  1.00  0.00     0.000 C 
BRANCH   4   5
ATOM      5  C   UNL     1       7.732  11.055   7.782  1.00  0.00     0.000 C 
BRANCH   5   6
ATOM      6  C   UNL     1       8.957  11.172   8.713  1.00  0.00     0.006 C 
BRANCH   6   7
ATOM      7  C   UNL     1       8.756  10.416  10.032  1.00  0.00     0.053 C 
BRANCH   7   8
ATOM      8  C   UNL     1       9.514  11.080  11.138  1.00  0.00     0.041 C 
ATOM      9  O   UNL     1      10.098  10.387  12.013  1.00  0.00    -0.550 OA
ATOM     10  O   UNL     1       9.535  12.466  11.232  1.00  0.00    -0.550 OA
ENDBRANCH   7   8
ENDBRANCH   6   7
ENDBRANCH   5   6
ENDBRANCH   4   5
ENDBRANCH   3   4
ENDBRANCH   2   3
ENDBRANCH   1   2
BRANCH   1  11
ATOM     11  C   UNL     1       3.066  12.619   7.984  1.00  0.00     0.000 C 
BRANCH  11  12
ATOM     12  C   UNL     1       4.093  13.609   7.419  1.00  0.00    -0.000 C 
BRANCH  12  13
ATOM     13  C   UNL     1       4.620  14.541   8.518  1.00  0.00    -0.000 C 
BRANCH  13  14
ATOM     14  C   UNL     1       6.141  14.427   8.721  1.00  0.00    -0.000 C 
BRANCH  14  15
ATOM     15  C   UNL     1       6.539  13.763  10.056  1.00  0.00    -0.000 C 
BRANCH  15  16
ATOM     16  C   UNL     1       5.338  13.097  10.752  1.00  0.00    -0.000 C 
BRANCH  16  17
ATOM     17  C   UNL     1       5.599  11.623  11.100  1.00  0.00    -0.003 C 
ATOM     18  C   UNL     1       4.325  10.870  11.478  1.00  0.00     0.004 C 
ENDBRANCH  16  17
ENDBRANCH  15  16
ENDBRANCH  14  15
ENDBRANCH  13  14
ENDBRANCH  12  13
ENDBRANCH  11  12
ENDBRANCH   1  11
TORSDOF 14
ENDMDL
