MODEL 1
REMARK VINA RESULT:    -3.710      0.000      0.000
REMARK INTER + INTRA:          -3.945
REMARK INTER:                  -3.927
REMARK INTRA:                  -0.018
REMARK UNBOUND:                -0.018
REMARK SMILES O=C([O-])c1cccnc1
REMARK SMILES IDX 4 1 5 2 9 3 6 4 8 5 7 6 2 7 1 8 3 9
REMARK H PARENT
REMARK Flexibility Score: inf
ROOT
ATOM      1  C   UNL     1     -34.614 -53.549  27.906  1.00  0.00     0.016 A 
ATOM      2  C   UNL     1     -35.928 -54.024  28.043  1.00  0.00     0.013 A 
ATOM      3  C   UNL     1     -33.619 -54.084  28.743  1.00  0.00     0.120 A 
ATOM      4  C   UNL     1     -36.223 -55.004  28.993  1.00  0.00     0.021 A 
ATOM      5  N   UNL     1     -33.933 -55.038  29.660  1.00  0.00    -0.264 NA
ATOM      6  C   UNL     1     -35.202 -55.503  29.801  1.00  0.00     0.111 A 
ENDROOT
BRANCH   1   7
ATOM      7  C   UNL     1     -34.288 -52.511  26.904  1.00  0.00     0.073 C 
ATOM      8  O   UNL     1     -33.782 -51.413  27.259  1.00  0.00    -0.545 OA
ATOM      9  O   UNL     1     -34.536 -52.734  25.554  1.00  0.00    -0.545 OA
ENDBRANCH   1   7
TORSDOF 1
ENDMDL
MODEL 2
REMARK VINA RESULT:    -3.649      2.598      3.555
REMARK INTER + INTRA:          -3.880
REMARK INTER:                  -3.862
REMARK INTRA:                  -0.018
REMARK UNBOUND:                -0.018
REMARK SMILES O=C([O-])c1cccnc1
REMARK SMILES IDX 4 1 5 2 9 3 6 4 8 5 7 6 2 7 1 8 3 9
REMARK H PARENT
REMARK Flexibility Score: inf
ROOT
ATOM      1  C   UNL     1     -34.472 -54.246  28.386  1.00  0.00     0.016 A 
ATOM      2  C   UNL     1     -34.825 -53.248  27.464  1.00  0.00     0.013 A 
ATOM      3  C   UNL     1     -33.189 -54.202  28.960  1.00  0.00     0.120 A 
ATOM      4  C   UNL     1     -33.913 -52.243  27.135  1.00  0.00     0.021 A 
ATOM      5  N   UNL     1     -32.320 -53.213  28.622  1.00  0.00    -0.264 NA
ATOM      6  C   UNL     1     -32.651 -52.243  27.730  1.00  0.00     0.111 A 
ENDROOT
BRANCH   1   7
ATOM      7  C   UNL     1     -35.429 -55.315  28.743  1.00  0.00     0.073 C 
ATOM      8  O   UNL     1     -35.127 -56.527  28.578  1.00  0.00    -0.545 OA
ATOM      9  O   UNL     1     -36.677 -54.997  29.267  1.00  0.00    -0.545 OA
ENDBRANCH   1   7
TORSDOF 1
ENDMDL
MODEL 3
REMARK VINA RESULT:    -3.641      8.701      9.773
REMARK INTER + INTRA:          -3.872
REMARK INTER:                  -3.854
REMARK INTRA:                  -0.018
REMARK UNBOUND:                -0.018
REMARK SMILES O=C([O-])c1cccnc1
REMARK SMILES IDX 4 1 5 2 9 3 6 4 8 5 7 6 2 7 1 8 3 9
REMARK H PARENT
REMARK Flexibility Score: inf
ROOT
ATOM      1  C   UNL     1     -33.520 -44.751  24.083  1.00  0.00     0.016 A 
ATOM      2  C   UNL     1     -33.940 -45.913  23.416  1.00  0.00     0.013 A 
ATOM      3  C   UNL     1     -33.930 -44.560  25.415  1.00  0.00     0.120 A 
ATOM      4  C   UNL     1     -34.744 -46.847  24.073  1.00  0.00     0.021 A 
ATOM      5  N   UNL     1     -34.714 -45.485  26.031  1.00  0.00    -0.264 NA
ATOM      6  C   UNL     1     -35.125 -46.612  25.394  1.00  0.00     0.111 A 
ENDROOT
BRANCH   1   7
ATOM      7  C   UNL     1     -32.669 -43.755  23.399  1.00  0.00     0.073 C 
ATOM      8  O   UNL     1     -33.014 -42.544  23.345  1.00  0.00    -0.545 OA
ATOM      9  O   UNL     1     -31.473 -44.141  22.804  1.00  0.00    -0.545 OA
ENDBRANCH   1   7
TORSDOF 1
ENDMDL
MODEL 4
REMARK VINA RESULT:    -3.638      0.927      1.600
REMARK INTER + INTRA:          -3.869
REMARK INTER:                  -3.850
REMARK INTRA:                  -0.019
REMARK UNBOUND:                -0.018
REMARK SMILES O=C([O-])c1cccnc1
REMARK SMILES IDX 4 1 5 2 9 3 6 4 8 5 7 6 2 7 1 8 3 9
REMARK H PARENT
REMARK Flexibility Score: inf
ROOT
ATOM      1  C   UNL     1     -34.658 -53.554  27.952  1.00  0.00     0.016 A 
ATOM      2  C   UNL     1     -33.697 -54.026  28.860  1.00  0.00     0.013 A 
ATOM      3  C   UNL     1     -35.950 -54.107  27.999  1.00  0.00     0.120 A 
ATOM      4  C   UNL     1     -34.031 -55.021  29.781  1.00  0.00     0.021 A 
ATOM      5  N   UNL     1     -36.249 -55.075  28.906  1.00  0.00    -0.264 NA
ATOM      6  C   UNL     1     -35.326 -55.539  29.788  1.00  0.00     0.111 A 
ENDROOT
BRANCH   1   7
ATOM      7  C   UNL     1     -34.316 -52.501  26.972  1.00  0.00     0.073 C 
ATOM      8  O   UNL     1     -33.809 -51.412  27.351  1.00  0.00    -0.545 OA
ATOM      9  O   UNL     1     -34.550 -52.699  25.616  1.00  0.00    -0.545 OA
ENDBRANCH   1   7
TORSDOF 1
ENDMDL
MODEL 5
REMARK VINA RESULT:    -3.635      3.071      3.826
REMARK INTER + INTRA:          -3.866
REMARK INTER:                  -3.848
REMARK INTRA:                  -0.018
REMARK UNBOUND:                -0.018
REMARK SMILES O=C([O-])c1cccnc1
REMARK SMILES IDX 4 1 5 2 9 3 6 4 8 5 7 6 2 7 1 8 3 9
REMARK H PARENT
REMARK Flexibility Score: inf
ROOT
ATOM      1  C   UNL     1     -34.857 -53.834  29.695  1.00  0.00     0.016 A 
ATOM      2  C   UNL     1     -33.892 -54.007  30.700  1.00  0.00     0.013 A 
ATOM      3  C   UNL     1     -34.910 -52.597  29.027  1.00  0.00     0.120 A 
ATOM      4  C   UNL     1     -33.015 -52.968  31.018  1.00  0.00     0.021 A 
ATOM      5  N   UNL     1     -34.045 -51.601  29.356  1.00  0.00    -0.264 NA
ATOM      6  C   UNL     1     -33.109 -51.759  30.328  1.00  0.00     0.111 A 
ENDROOT
BRANCH   1   7
ATOM      7  C   UNL     1     -35.791 -54.926  29.349  1.00  0.00     0.073 C 
ATOM      8  O   UNL     1     -37.035 -54.770  29.476  1.00  0.00    -0.545 OA
ATOM      9  O   UNL     1     -35.308 -56.142  28.878  1.00  0.00    -0.545 OA
ENDBRANCH   1   7
TORSDOF 1
ENDMDL
MODEL 6
REMARK VINA RESULT:    -3.624      2.646      3.441
REMARK INTER + INTRA:          -3.853
REMARK INTER:                  -3.833
REMARK INTRA:                  -0.020
REMARK UNBOUND:                -0.018
REMARK SMILES O=C([O-])c1cccnc1
REMARK SMILES IDX 4 1 5 2 9 3 6 4 8 5 7 6 2 7 1 8 3 9
REMARK H PARENT
REMARK Flexibility Score: inf
ROOT
ATOM      1  C   UNL     1     -34.169 -53.706  30.017  1.00  0.00     0.016 A 
ATOM      2  C   UNL     1     -34.575 -55.047  30.116  1.00  0.00     0.013 A 
ATOM      3  C   UNL     1     -34.761 -52.900  29.027  1.00  0.00     0.120 A 
ATOM      4  C   UNL     1     -35.542 -55.553  29.245  1.00  0.00     0.021 A 
ATOM      5  N   UNL     1     -35.700 -53.418  28.192  1.00  0.00    -0.264 NA
ATOM      6  C   UNL     1     -36.099 -54.714  28.279  1.00  0.00     0.111 A 
ENDROOT
BRANCH   1   7
ATOM      7  C   UNL     1     -33.146 -53.159  30.933  1.00  0.00     0.073 C 
ATOM      8  O   UNL     1     -32.268 -52.360  30.510  1.00  0.00    -0.545 OA
ATOM      9  O   UNL     1     -33.140 -53.518  32.276  1.00  0.00    -0.545 OA
ENDBRANCH   1   7
TORSDOF 1
ENDMDL
MODEL 7
REMARK VINA RESULT:    -3.549      9.791     10.455
REMARK INTER + INTRA:          -3.774
REMARK INTER:                  -3.750
REMARK INTRA:                  -0.024
REMARK UNBOUND:                -0.018
REMARK SMILES O=C([O-])c1cccnc1
REMARK SMILES IDX 4 1 5 2 9 3 6 4 8 5 7 6 2 7 1 8 3 9
REMARK H PARENT
REMARK Flexibility Score: inf
ROOT
ATOM      1  C   UNL     1     -25.252 -52.426  31.341  1.00  0.00     0.016 A 
ATOM      2  C   UNL     1     -25.988 -53.598  31.103  1.00  0.00     0.013 A 
ATOM      3  C   UNL     1     -24.352 -51.990  30.353  1.00  0.00     0.120 A 
ATOM      4  C   UNL     1     -25.818 -54.303  29.910  1.00  0.00     0.021 A 
ATOM      5  N   UNL     1     -24.205 -52.696  29.199  1.00  0.00    -0.264 NA
ATOM      6  C   UNL     1     -24.912 -53.831  28.960  1.00  0.00     0.111 A 
ENDROOT
BRANCH   1   7
ATOM      7  C   UNL     1     -25.423 -51.671  32.601  1.00  0.00     0.073 C 
ATOM      8  O   UNL     1     -26.210 -52.083  33.494  1.00  0.00    -0.545 OA
ATOM      9  O   UNL     1     -24.715 -50.494  32.817  1.00  0.00    -0.545 OA
ENDBRANCH   1   7
TORSDOF 1
ENDMDL
MODEL 8
REMARK VINA RESULT:    -3.531      8.271      8.805
REMARK INTER + INTRA:          -3.755
REMARK INTER:                  -3.733
REMARK INTRA:                  -0.022
REMARK UNBOUND:                -0.018
REMARK SMILES O=C([O-])c1cccnc1
REMARK SMILES IDX 4 1 5 2 9 3 6 4 8 5 7 6 2 7 1 8 3 9
REMARK H PARENT
REMARK Flexibility Score: inf
ROOT
ATOM      1  C   UNL     1     -26.337 -53.727  26.575  1.00  0.00     0.016 A 
ATOM      2  C   UNL     1     -26.792 -54.560  27.610  1.00  0.00     0.013 A 
ATOM      3  C   UNL     1     -25.162 -52.983  26.785  1.00  0.00     0.120 A 
ATOM      4  C   UNL     1     -26.085 -54.637  28.811  1.00  0.00     0.021 A 
ATOM      5  N   UNL     1     -24.492 -53.076  27.964  1.00  0.00    -0.264 NA
ATOM      6  C   UNL     1     -24.925 -53.879  28.971  1.00  0.00     0.111 A 
ENDROOT
BRANCH   1   7
ATOM      7  C   UNL     1     -27.077 -53.637  25.298  1.00  0.00     0.073 C 
ATOM      8  O   UNL     1     -27.049 -52.580  24.614  1.00  0.00    -0.545 OA
ATOM      9  O   UNL     1     -27.815 -54.721  24.835  1.00  0.00    -0.545 OA
ENDBRANCH   1   7
TORSDOF 1
ENDMDL
MODEL 9
REMARK VINA RESULT:    -3.521      8.663      9.668
REMARK INTER + INTRA:          -3.745
REMARK INTER:                  -3.721
REMARK INTRA:                  -0.024
REMARK UNBOUND:                -0.018
REMARK SMILES O=C([O-])c1cccnc1
REMARK SMILES IDX 4 1 5 2 9 3 6 4 8 5 7 6 2 7 1 8 3 9
REMARK H PARENT
REMARK Flexibility Score: inf
ROOT
ATOM      1  C   UNL     1     -35.589 -45.604  31.472  1.00  0.00     0.016 A 
ATOM      2  C   UNL     1     -34.995 -44.356  31.229  1.00  0.00     0.013 A 
ATOM      3  C   UNL     1     -36.389 -46.171  30.464  1.00  0.00     0.120 A 
ATOM      4  C   UNL     1     -35.203 -43.705  30.011  1.00  0.00     0.021 A 
ATOM      5  N   UNL     1     -36.576 -45.517  29.287  1.00  0.00    -0.264 NA
ATOM      6  C   UNL     1     -36.005 -44.308  29.042  1.00  0.00     0.111 A 
ENDROOT
BRANCH   1   7
ATOM      7  C   UNL     1     -35.377 -46.303  32.758  1.00  0.00     0.073 C 
ATOM      8  O   UNL     1     -34.443 -45.958  33.529  1.00  0.00    -0.545 OA
ATOM      9  O   UNL     1     -36.208 -47.352  33.134  1.00  0.00    -0.545 OA
ENDBRANCH   1   7
TORSDOF 1
ENDMDL
