MODEL 1
REMARK VINA RESULT:    10.432      0.000      0.000
REMARK INTER + INTRA:          17.732
REMARK INTER:                  18.360
REMARK INTRA:                  -0.628
REMARK UNBOUND:                -0.628
REMARK SMILES CCCCCCCCCCCCCCC(=O)[O-]
REMARK SMILES IDX 9 1 10 2 11 3 12 4 13 5 14 6 15 7 16 8 17 9 8 10 7 11 6 12
REMARK SMILES IDX 5 13 4 14 3 15 2 16 1 17
REMARK H PARENT
REMARK Flexibility Score: inf
ROOT
ATOM      1  C   UNL     1       7.089  17.675  25.990  1.00  0.00     0.000 C 
ENDROOT
BRANCH   1   2
ATOM      2  C   UNL     1       5.824  18.473  26.341  1.00  0.00     0.000 C 
BRANCH   2   3
ATOM      3  C   UNL     1       4.921  17.747  27.354  1.00  0.00     0.000 C 
BRANCH   3   4
ATOM      4  C   UNL     1       3.421  18.089  27.255  1.00  0.00     0.000 C 
BRANCH   4   5
ATOM      5  C   UNL     1       2.747  17.690  25.929  1.00  0.00     0.006 C 
BRANCH   5   6
ATOM      6  C   UNL     1       1.216  17.721  26.006  1.00  0.00     0.053 C 
BRANCH   6   7
ATOM      7  C   UNL     1       0.639  18.202  24.713  1.00  0.00     0.041 C 
ATOM      8  O   UNL     1       0.289  17.376  23.829  1.00  0.00    -0.550 OA
ATOM      9  O   UNL     1       0.443  19.561  24.502  1.00  0.00    -0.550 OA
ENDBRANCH   6   7
ENDBRANCH   5   6
ENDBRANCH   4   5
ENDBRANCH   3   4
ENDBRANCH   2   3
ENDBRANCH   1   2
BRANCH   1  10
ATOM     10  C   UNL     1       7.709  17.049  27.247  1.00  0.00     0.000 C 
BRANCH  10  11
ATOM     11  C   UNL     1       9.166  17.487  27.482  1.00  0.00    -0.000 C 
BRANCH  11  12
ATOM     12  C   UNL     1       9.445  18.105  28.864  1.00  0.00    -0.000 C 
BRANCH  12  13
ATOM     13  C   UNL     1       8.590  17.489  29.981  1.00  0.00    -0.000 C 
BRANCH  13  14
ATOM     14  C   UNL     1       9.253  17.683  31.352  1.00  0.00    -0.000 C 
BRANCH  14  15
ATOM     15  C   UNL     1       8.476  17.001  32.489  1.00  0.00    -0.000 C 
BRANCH  15  16
ATOM     16  C   UNL     1       7.426  17.924  33.124  1.00  0.00    -0.003 C 
ATOM     17  C   UNL     1       7.722  19.388  32.813  1.00  0.00     0.004 C 
ENDBRANCH  15  16
ENDBRANCH  14  15
ENDBRANCH  13  14
ENDBRANCH  12  13
ENDBRANCH  11  12
ENDBRANCH  10  11
ENDBRANCH   1  10
TORSDOF 13
ENDMDL
MODEL 2
REMARK VINA RESULT:    10.570      3.981      8.391
REMARK INTER + INTRA:          17.974
REMARK INTER:                  18.668
REMARK INTRA:                  -0.694
REMARK UNBOUND:                -0.628
REMARK SMILES CCCCCCCCCCCCCCC(=O)[O-]
REMARK SMILES IDX 9 1 10 2 11 3 12 4 13 5 14 6 15 7 16 8 17 9 8 10 7 11 6 12
REMARK SMILES IDX 5 13 4 14 3 15 2 16 1 17
REMARK H PARENT
REMARK Flexibility Score: inf
ROOT
ATOM      1  C   UNL     1       7.194  18.000  26.083  1.00  0.00     0.000 C 
ENDROOT
BRANCH   1   2
ATOM      2  C   UNL     1       7.634  17.242  27.345  1.00  0.00     0.000 C 
BRANCH   2   3
ATOM      3  C   UNL     1       9.161  17.244  27.542  1.00  0.00     0.000 C 
BRANCH   3   4
ATOM      4  C   UNL     1       9.631  17.283  29.010  1.00  0.00     0.000 C 
BRANCH   4   5
ATOM      5  C   UNL     1       8.535  17.620  30.037  1.00  0.00     0.006 C 
BRANCH   5   6
ATOM      6  C   UNL     1       9.097  17.919  31.432  1.00  0.00     0.053 C 
BRANCH   6   7
ATOM      7  C   UNL     1       8.078  17.609  32.482  1.00  0.00     0.041 C 
ATOM      8  O   UNL     1       7.857  16.415  32.818  1.00  0.00    -0.550 OA
ATOM      9  O   UNL     1       7.406  18.641  33.125  1.00  0.00    -0.550 OA
ENDBRANCH   6   7
ENDBRANCH   5   6
ENDBRANCH   4   5
ENDBRANCH   3   4
ENDBRANCH   2   3
ENDBRANCH   1   2
BRANCH   1  10
ATOM     10  C   UNL     1       5.722  18.423  26.183  1.00  0.00     0.000 C 
BRANCH  10  11
ATOM     11  C   UNL     1       4.998  17.801  27.391  1.00  0.00    -0.000 C 
BRANCH  11  12
ATOM     12  C   UNL     1       3.460  17.860  27.330  1.00  0.00    -0.000 C 
BRANCH  12  13
ATOM     13  C   UNL     1       2.915  17.788  25.896  1.00  0.00    -0.000 C 
BRANCH  13  14
ATOM     14  C   UNL     1       1.383  17.888  25.885  1.00  0.00    -0.000 C 
BRANCH  14  15
ATOM     15  C   UNL     1       0.870  19.052  25.023  1.00  0.00    -0.000 C 
BRANCH  15  16
ATOM     16  C   UNL     1       0.049  18.575  23.815  1.00  0.00    -0.003 C 
ATOM     17  C   UNL     1       0.051  17.053  23.716  1.00  0.00     0.004 C 
ENDBRANCH  15  16
ENDBRANCH  14  15
ENDBRANCH  13  14
ENDBRANCH  12  13
ENDBRANCH  11  12
ENDBRANCH  10  11
ENDBRANCH   1  10
TORSDOF 13
ENDMDL
MODEL 3
REMARK VINA RESULT:    10.585      0.542      1.238
REMARK INTER + INTRA:          18.001
REMARK INTER:                  18.594
REMARK INTRA:                  -0.593
REMARK UNBOUND:                -0.628
REMARK SMILES CCCCCCCCCCCCCCC(=O)[O-]
REMARK SMILES IDX 9 1 10 2 11 3 12 4 13 5 14 6 15 7 16 8 17 9 8 10 7 11 6 12
REMARK SMILES IDX 5 13 4 14 3 15 2 16 1 17
REMARK H PARENT
REMARK Flexibility Score: inf
ROOT
ATOM      1  C   UNL     1       7.329  18.139  25.984  1.00  0.00     0.000 C 
ENDROOT
BRANCH   1   2
ATOM      2  C   UNL     1       5.851  18.558  26.026  1.00  0.00     0.000 C 
BRANCH   2   3
ATOM      3  C   UNL     1       5.055  17.832  27.125  1.00  0.00     0.000 C 
BRANCH   3   4
ATOM      4  C   UNL     1       3.536  18.095  27.115  1.00  0.00     0.000 C 
BRANCH   4   5
ATOM      5  C   UNL     1       2.831  17.793  25.780  1.00  0.00     0.006 C 
BRANCH   5   6
ATOM      6  C   UNL     1       1.309  17.666  25.925  1.00  0.00     0.053 C 
BRANCH   6   7
ATOM      7  C   UNL     1       0.626  18.127  24.677  1.00  0.00     0.041 C 
ATOM      8  O   UNL     1       0.607  19.350  24.380  1.00  0.00    -0.550 OA
ATOM      9  O   UNL     1       0.052  17.199  23.816  1.00  0.00    -0.550 OA
ENDBRANCH   6   7
ENDBRANCH   5   6
ENDBRANCH   4   5
ENDBRANCH   3   4
ENDBRANCH   2   3
ENDBRANCH   1   2
BRANCH   1  10
ATOM     10  C   UNL     1       7.619  17.048  27.024  1.00  0.00     0.000 C 
BRANCH  10  11
ATOM     11  C   UNL     1       9.065  17.089  27.551  1.00  0.00    -0.000 C 
BRANCH  11  12
ATOM     12  C   UNL     1       9.266  17.915  28.836  1.00  0.00    -0.000 C 
BRANCH  12  13
ATOM     13  C   UNL     1       8.486  17.358  30.035  1.00  0.00    -0.000 C 
BRANCH  13  14
ATOM     14  C   UNL     1       9.268  17.561  31.341  1.00  0.00    -0.000 C 
BRANCH  14  15
ATOM     15  C   UNL     1       8.431  18.244  32.434  1.00  0.00    -0.000 C 
BRANCH  15  16
ATOM     16  C   UNL     1       7.457  17.277  33.124  1.00  0.00    -0.003 C 
ATOM     17  C   UNL     1       8.006  15.853  33.125  1.00  0.00     0.004 C 
ENDBRANCH  15  16
ENDBRANCH  14  15
ENDBRANCH  13  14
ENDBRANCH  12  13
ENDBRANCH  11  12
ENDBRANCH  10  11
ENDBRANCH   1  10
TORSDOF 13
ENDMDL
MODEL 4
REMARK VINA RESULT:    10.669      2.198      2.831
REMARK INTER + INTRA:          18.149
REMARK INTER:                  18.446
REMARK INTRA:                  -0.296
REMARK UNBOUND:                -0.628
REMARK SMILES CCCCCCCCCCCCCCC(=O)[O-]
REMARK SMILES IDX 9 1 10 2 11 3 12 4 13 5 14 6 15 7 16 8 17 9 8 10 7 11 6 12
REMARK SMILES IDX 5 13 4 14 3 15 2 16 1 17
REMARK H PARENT
REMARK Flexibility Score: inf
ROOT
ATOM      1  C   UNL     1       8.427  17.780  26.695  1.00  0.00     0.000 C 
ENDROOT
BRANCH   1   2
ATOM      2  C   UNL     1       7.003  17.208  26.773  1.00  0.00     0.000 C 
BRANCH   2   3
ATOM      3  C   UNL     1       5.918  18.262  26.486  1.00  0.00     0.000 C 
BRANCH   3   4
ATOM      4  C   UNL     1       5.986  18.905  25.086  1.00  0.00     0.000 C 
BRANCH   4   5
ATOM      5  C   UNL     1       4.628  19.075  24.381  1.00  0.00     0.006 C 
BRANCH   5   6
ATOM      6  C   UNL     1       4.768  19.469  22.905  1.00  0.00     0.053 C 
BRANCH   6   7
ATOM      7  C   UNL     1       3.868  20.620  22.585  1.00  0.00     0.041 C 
ATOM      8  O   UNL     1       2.621  20.454  22.537  1.00  0.00    -0.550 OA
ATOM      9  O   UNL     1       4.403  21.886  22.387  1.00  0.00    -0.550 OA
ENDBRANCH   6   7
ENDBRANCH   5   6
ENDBRANCH   4   5
ENDBRANCH   3   4
ENDBRANCH   2   3
ENDBRANCH   1   2
BRANCH   1  10
ATOM     10  C   UNL     1       9.369  17.039  27.653  1.00  0.00     0.000 C 
BRANCH  10  11
ATOM     11  C   UNL     1       9.674  17.836  28.934  1.00  0.00    -0.000 C 
BRANCH  11  12
ATOM     12  C   UNL     1       8.622  17.702  30.050  1.00  0.00    -0.000 C 
BRANCH  12  13
ATOM     13  C   UNL     1       9.244  17.480  31.437  1.00  0.00    -0.000 C 
BRANCH  13  14
ATOM     14  C   UNL     1       8.200  16.943  32.427  1.00  0.00    -0.000 C 
BRANCH  14  15
ATOM     15  C   UNL     1       7.413  18.063  33.125  1.00  0.00    -0.000 C 
BRANCH  15  16
ATOM     16  C   UNL     1       7.750  19.456  32.571  1.00  0.00    -0.003 C 
ATOM     17  C   UNL     1       6.694  20.479  32.978  1.00  0.00     0.004 C 
ENDBRANCH  15  16
ENDBRANCH  14  15
ENDBRANCH  13  14
ENDBRANCH  12  13
ENDBRANCH  11  12
ENDBRANCH  10  11
ENDBRANCH   1  10
TORSDOF 13
ENDMDL
MODEL 5
REMARK VINA RESULT:    11.186      4.182      8.113
REMARK INTER + INTRA:          19.058
REMARK INTER:                  19.504
REMARK INTRA:                  -0.446
REMARK UNBOUND:                -0.628
REMARK SMILES CCCCCCCCCCCCCCC(=O)[O-]
REMARK SMILES IDX 9 1 10 2 11 3 12 4 13 5 14 6 15 7 16 8 17 9 8 10 7 11 6 12
REMARK SMILES IDX 5 13 4 14 3 15 2 16 1 17
REMARK H PARENT
REMARK Flexibility Score: inf
ROOT
ATOM      1  C   UNL     1       8.904  16.947  27.516  1.00  0.00     0.000 C 
ENDROOT
BRANCH   1   2
ATOM      2  C   UNL     1       9.214  18.170  28.392  1.00  0.00     0.000 C 
BRANCH   2   3
ATOM      3  C   UNL     1       9.519  17.796  29.854  1.00  0.00     0.000 C 
BRANCH   3   4
ATOM      4  C   UNL     1       8.297  17.354  30.685  1.00  0.00     0.000 C 
BRANCH   4   5
ATOM      5  C   UNL     1       8.566  17.165  32.189  1.00  0.00     0.006 C 
BRANCH   5   6
ATOM      6  C   UNL     1       7.560  17.914  33.072  1.00  0.00     0.053 C 
BRANCH   6   7
ATOM      7  C   UNL     1       7.594  19.379  32.774  1.00  0.00     0.041 C 
ATOM      8  O   UNL     1       8.624  19.900  32.273  1.00  0.00    -0.550 OA
ATOM      9  O   UNL     1       6.469  20.161  33.006  1.00  0.00    -0.550 OA
ENDBRANCH   6   7
ENDBRANCH   5   6
ENDBRANCH   4   5
ENDBRANCH   3   4
ENDBRANCH   2   3
ENDBRANCH   1   2
BRANCH   1  10
ATOM     10  C   UNL     1       7.675  17.202  26.633  1.00  0.00     0.000 C 
BRANCH  10  11
ATOM     11  C   UNL     1       6.414  17.552  27.443  1.00  0.00    -0.000 C 
BRANCH  11  12
ATOM     12  C   UNL     1       5.321  18.300  26.657  1.00  0.00    -0.000 C 
BRANCH  12  13
ATOM     13  C   UNL     1       5.823  18.860  25.318  1.00  0.00    -0.000 C 
BRANCH  13  14
ATOM     14  C   UNL     1       4.693  18.891  24.278  1.00  0.00    -0.000 C 
BRANCH  14  15
ATOM     15  C   UNL     1       5.104  19.598  22.977  1.00  0.00    -0.000 C 
BRANCH  15  16
ATOM     16  C   UNL     1       4.266  20.855  22.697  1.00  0.00    -0.003 C 
ATOM     17  C   UNL     1       2.780  20.516  22.611  1.00  0.00     0.004 C 
ENDBRANCH  15  16
ENDBRANCH  14  15
ENDBRANCH  13  14
ENDBRANCH  12  13
ENDBRANCH  11  12
ENDBRANCH  10  11
ENDBRANCH   1  10
TORSDOF 13
ENDMDL
MODEL 6
REMARK VINA RESULT:    11.256      4.431      8.363
REMARK INTER + INTRA:          19.182
REMARK INTER:                  19.874
REMARK INTRA:                  -0.692
REMARK UNBOUND:                -0.628
REMARK SMILES CCCCCCCCCCCCCCC(=O)[O-]
REMARK SMILES IDX 9 1 10 2 11 3 12 4 13 5 14 6 15 7 16 8 17 9 8 10 7 11 6 12
REMARK SMILES IDX 5 13 4 14 3 15 2 16 1 17
REMARK H PARENT
REMARK Flexibility Score: inf
ROOT
ATOM      1  C   UNL     1       7.683  16.942  26.563  1.00  0.00     0.000 C 
ENDROOT
BRANCH   1   2
ATOM      2  C   UNL     1       8.929  16.760  27.444  1.00  0.00     0.000 C 
BRANCH   2   3
ATOM      3  C   UNL     1       9.535  18.098  27.905  1.00  0.00     0.000 C 
BRANCH   3   4
ATOM      4  C   UNL     1       9.770  18.220  29.424  1.00  0.00     0.000 C 
BRANCH   4   5
ATOM      5  C   UNL     1       8.688  17.568  30.305  1.00  0.00     0.006 C 
BRANCH   5   6
ATOM      6  C   UNL     1       9.179  17.268  31.727  1.00  0.00     0.053 C 
BRANCH   6   7
ATOM      7  C   UNL     1       8.037  17.309  32.692  1.00  0.00     0.041 C 
ATOM      8  O   UNL     1       7.576  18.414  33.082  1.00  0.00    -0.550 OA
ATOM      9  O   UNL     1       7.451  16.126  33.124  1.00  0.00    -0.550 OA
ENDBRANCH   6   7
ENDBRANCH   5   6
ENDBRANCH   4   5
ENDBRANCH   3   4
ENDBRANCH   2   3
ENDBRANCH   1   2
BRANCH   1  10
ATOM     10  C   UNL     1       6.437  17.195  27.423  1.00  0.00     0.000 C 
BRANCH  10  11
ATOM     11  C   UNL     1       5.430  18.150  26.755  1.00  0.00    -0.000 C 
BRANCH  11  12
ATOM     12  C   UNL     1       6.037  19.121  25.726  1.00  0.00    -0.000 C 
BRANCH  12  13
ATOM     13  C   UNL     1       5.825  18.666  24.275  1.00  0.00    -0.000 C 
BRANCH  13  14
ATOM     14  C   UNL     1       4.426  19.056  23.776  1.00  0.00    -0.000 C 
BRANCH  14  15
ATOM     15  C   UNL     1       4.433  20.348  22.942  1.00  0.00    -0.000 C 
BRANCH  15  16
ATOM     16  C   UNL     1       3.119  20.564  22.176  1.00  0.00    -0.003 C 
ATOM     17  C   UNL     1       2.296  21.685  22.805  1.00  0.00     0.004 C 
ENDBRANCH  15  16
ENDBRANCH  14  15
ENDBRANCH  13  14
ENDBRANCH  12  13
ENDBRANCH  11  12
ENDBRANCH  10  11
ENDBRANCH   1  10
TORSDOF 13
ENDMDL
MODEL 7
REMARK VINA RESULT:    11.257      2.324      2.807
REMARK INTER + INTRA:          19.183
REMARK INTER:                  19.870
REMARK INTRA:                  -0.687
REMARK UNBOUND:                -0.628
REMARK SMILES CCCCCCCCCCCCCCC(=O)[O-]
REMARK SMILES IDX 9 1 10 2 11 3 12 4 13 5 14 6 15 7 16 8 17 9 8 10 7 11 6 12
REMARK SMILES IDX 5 13 4 14 3 15 2 16 1 17
REMARK H PARENT
REMARK Flexibility Score: inf
ROOT
ATOM      1  C   UNL     1       6.373  17.863  27.116  1.00  0.00     0.000 C 
ENDROOT
BRANCH   1   2
ATOM      2  C   UNL     1       5.424  18.442  26.056  1.00  0.00     0.000 C 
BRANCH   2   3
ATOM      3  C   UNL     1       6.008  18.384  24.633  1.00  0.00     0.000 C 
BRANCH   3   4
ATOM      4  C   UNL     1       5.080  18.915  23.523  1.00  0.00     0.000 C 
BRANCH   4   5
ATOM      5  C   UNL     1       4.652  20.385  23.679  1.00  0.00     0.006 C 
BRANCH   5   6
ATOM      6  C   UNL     1       4.086  20.982  22.384  1.00  0.00     0.053 C 
BRANCH   6   7
ATOM      7  C   UNL     1       2.591  20.957  22.409  1.00  0.00     0.041 C 
ATOM      8  O   UNL     1       1.962  20.030  21.835  1.00  0.00    -0.550 OA
ATOM      9  O   UNL     1       1.892  21.934  23.107  1.00  0.00    -0.550 OA
ENDBRANCH   6   7
ENDBRANCH   5   6
ENDBRANCH   4   5
ENDBRANCH   3   4
ENDBRANCH   2   3
ENDBRANCH   1   2
BRANCH   1  10
ATOM     10  C   UNL     1       7.560  17.147  26.456  1.00  0.00     0.000 C 
BRANCH  10  11
ATOM     11  C   UNL     1       8.710  16.859  27.437  1.00  0.00    -0.000 C 
BRANCH  11  12
ATOM     12  C   UNL     1       9.245  18.090  28.193  1.00  0.00    -0.000 C 
BRANCH  12  13
ATOM     13  C   UNL     1       9.699  17.764  29.624  1.00  0.00    -0.000 C 
BRANCH  13  14
ATOM     14  C   UNL     1       8.491  17.556  30.549  1.00  0.00    -0.000 C 
BRANCH  14  15
ATOM     15  C   UNL     1       8.706  18.152  31.948  1.00  0.00    -0.000 C 
BRANCH  15  16
ATOM     16  C   UNL     1       7.724  17.590  32.988  1.00  0.00    -0.003 C 
ATOM     17  C   UNL     1       7.874  16.077  33.122  1.00  0.00     0.004 C 
ENDBRANCH  15  16
ENDBRANCH  14  15
ENDBRANCH  13  14
ENDBRANCH  12  13
ENDBRANCH  11  12
ENDBRANCH  10  11
ENDBRANCH   1  10
TORSDOF 13
ENDMDL
MODEL 8
REMARK VINA RESULT:    11.363      3.847      8.146
REMARK INTER + INTRA:          19.371
REMARK INTER:                  19.582
REMARK INTRA:                  -0.211
REMARK UNBOUND:                -0.628
REMARK SMILES CCCCCCCCCCCCCCC(=O)[O-]
REMARK SMILES IDX 9 1 10 2 11 3 12 4 13 5 14 6 15 7 16 8 17 9 8 10 7 11 6 12
REMARK SMILES IDX 5 13 4 14 3 15 2 16 1 17
REMARK H PARENT
REMARK Flexibility Score: inf
ROOT
ATOM      1  C   UNL     1       8.260  16.860  27.606  1.00  0.00     0.000 C 
ENDROOT
BRANCH   1   2
ATOM      2  C   UNL     1       9.210  17.861  28.279  1.00  0.00     0.000 C 
BRANCH   2   3
ATOM      3  C   UNL     1       9.513  17.505  29.746  1.00  0.00     0.000 C 
BRANCH   3   4
ATOM      4  C   UNL     1       8.275  17.374  30.656  1.00  0.00     0.000 C 
BRANCH   4   5
ATOM      5  C   UNL     1       8.583  17.145  32.147  1.00  0.00     0.006 C 
BRANCH   5   6
ATOM      6  C   UNL     1       7.624  17.899  33.076  1.00  0.00     0.053 C 
BRANCH   6   7
ATOM      7  C   UNL     1       7.626  19.359  32.753  1.00  0.00     0.041 C 
ATOM      8  O   UNL     1       8.599  19.871  32.139  1.00  0.00    -0.550 OA
ATOM      9  O   UNL     1       6.532  20.147  33.089  1.00  0.00    -0.550 OA
ENDBRANCH   6   7
ENDBRANCH   5   6
ENDBRANCH   4   5
ENDBRANCH   3   4
ENDBRANCH   2   3
ENDBRANCH   1   2
BRANCH   1  10
ATOM     10  C   UNL     1       7.304  17.575  26.641  1.00  0.00     0.000 C 
BRANCH  10  11
ATOM     11  C   UNL     1       5.947  17.918  27.281  1.00  0.00    -0.000 C 
BRANCH  11  12
ATOM     12  C   UNL     1       4.770  18.026  26.295  1.00  0.00    -0.000 C 
BRANCH  12  13
ATOM     13  C   UNL     1       3.400  17.937  26.984  1.00  0.00    -0.000 C 
BRANCH  13  14
ATOM     14  C   UNL     1       2.296  17.604  25.970  1.00  0.00    -0.000 C 
BRANCH  14  15
ATOM     15  C   UNL     1       1.119  18.591  26.030  1.00  0.00    -0.000 C 
BRANCH  15  16
ATOM     16  C   UNL     1       0.447  18.793  24.663  1.00  0.00    -0.003 C 
ATOM     17  C   UNL     1       0.250  17.460  23.946  1.00  0.00     0.004 C 
ENDBRANCH  15  16
ENDBRANCH  14  15
ENDBRANCH  13  14
ENDBRANCH  12  13
ENDBRANCH  11  12
ENDBRANCH  10  11
ENDBRANCH   1  10
TORSDOF 13
ENDMDL
MODEL 9
REMARK VINA RESULT:    12.255      4.460      8.651
REMARK INTER + INTRA:          20.940
REMARK INTER:                  21.634
REMARK INTRA:                  -0.694
REMARK UNBOUND:                -0.628
REMARK SMILES CCCCCCCCCCCCCCC(=O)[O-]
REMARK SMILES IDX 9 1 10 2 11 3 12 4 13 5 14 6 15 7 16 8 17 9 8 10 7 11 6 12
REMARK SMILES IDX 5 13 4 14 3 15 2 16 1 17
REMARK H PARENT
REMARK Flexibility Score: inf
ROOT
ATOM      1  C   UNL     1       6.349  17.922  26.680  1.00  0.00     0.000 C 
ENDROOT
BRANCH   1   2
ATOM      2  C   UNL     1       7.725  17.246  26.588  1.00  0.00     0.000 C 
BRANCH   2   3
ATOM      3  C   UNL     1       8.306  16.883  27.967  1.00  0.00     0.000 C 
BRANCH   3   4
ATOM      4  C   UNL     1       9.203  17.963  28.604  1.00  0.00     0.000 C 
BRANCH   4   5
ATOM      5  C   UNL     1       9.274  17.928  30.142  1.00  0.00     0.006 C 
BRANCH   5   6
ATOM      6  C   UNL     1       8.024  17.312  30.782  1.00  0.00     0.053 C 
BRANCH   6   7
ATOM      7  C   UNL     1       8.069  17.468  32.269  1.00  0.00     0.041 C 
ATOM      8  O   UNL     1       8.028  18.615  32.787  1.00  0.00    -0.550 OA
ATOM      9  O   UNL     1       8.108  16.345  33.084  1.00  0.00    -0.550 OA
ENDBRANCH   6   7
ENDBRANCH   5   6
ENDBRANCH   4   5
ENDBRANCH   3   4
ENDBRANCH   2   3
ENDBRANCH   1   2
BRANCH   1  10
ATOM     10  C   UNL     1       6.204  19.016  25.613  1.00  0.00     0.000 C 
BRANCH  10  11
ATOM     11  C   UNL     1       4.878  18.927  24.837  1.00  0.00    -0.000 C 
BRANCH  11  12
ATOM     12  C   UNL     1       4.980  19.250  23.334  1.00  0.00    -0.000 C 
BRANCH  12  13
ATOM     13  C   UNL     1       4.366  20.609  22.970  1.00  0.00    -0.000 C 
BRANCH  13  14
ATOM     14  C   UNL     1       3.005  20.430  22.282  1.00  0.00    -0.000 C 
BRANCH  14  15
ATOM     15  C   UNL     1       1.824  20.742  23.215  1.00  0.00    -0.000 C 
BRANCH  15  16
ATOM     16  C   UNL     1       0.874  19.547  23.386  1.00  0.00    -0.003 C 
ATOM     17  C   UNL     1       0.670  19.215  24.862  1.00  0.00     0.004 C 
ENDBRANCH  15  16
ENDBRANCH  14  15
ENDBRANCH  13  14
ENDBRANCH  12  13
ENDBRANCH  11  12
ENDBRANCH  10  11
ENDBRANCH   1  10
TORSDOF 13
ENDMDL
