MODEL 1
REMARK VINA RESULT:    -5.176      0.000      0.000
REMARK INTER + INTRA:          -5.695
REMARK INTER:                  -5.630
REMARK INTRA:                  -0.065
REMARK UNBOUND:                -0.065
REMARK SMILES CCc1cccc(O)c1
REMARK SMILES IDX 3 1 9 2 7 3 6 4 5 5 4 6 2 7 1 8 8 9
REMARK H PARENT 8 10
REMARK Flexibility Score: inf
ROOT
ATOM      1  C   UNL     1      -6.169 -30.416 -23.489  1.00  0.00    -0.045 A 
ATOM      2  C   UNL     1      -5.213 -30.575 -22.472  1.00  0.00     0.049 A 
ATOM      3  C   UNL     1      -3.844 -30.471 -22.764  1.00  0.00     0.115 A 
ATOM      4  C   UNL     1      -3.431 -30.201 -24.073  1.00  0.00     0.046 A 
ATOM      5  C   UNL     1      -4.378 -30.029 -25.086  1.00  0.00     0.004 A 
ATOM      6  C   UNL     1      -5.742 -30.132 -24.797  1.00  0.00     0.004 A 
ENDROOT
BRANCH   1   7
ATOM      7  C   UNL     1      -7.637 -30.494 -23.170  1.00  0.00     0.032 C 
ATOM      8  C   UNL     1      -8.336 -29.184 -23.517  1.00  0.00     0.009 C 
ENDBRANCH   1   7
BRANCH   3   9
ATOM      9  O   UNL     1      -2.891 -30.633 -21.762  1.00  0.00    -0.508 OA
ATOM     10  H   UNL     1      -3.122 -31.064 -20.874  1.00  0.00     0.293 HD
ENDBRANCH   3   9
TORSDOF 2
ENDMDL
MODEL 2
REMARK VINA RESULT:    -4.836     13.254     14.914
REMARK INTER + INTRA:          -5.325
REMARK INTER:                  -5.257
REMARK INTRA:                  -0.067
REMARK UNBOUND:                -0.065
REMARK SMILES CCc1cccc(O)c1
REMARK SMILES IDX 3 1 9 2 7 3 6 4 5 5 4 6 2 7 1 8 8 9
REMARK H PARENT 8 10
REMARK Flexibility Score: inf
ROOT
ATOM      1  C   UNL     1     -14.574 -27.944 -33.526  1.00  0.00    -0.045 A 
ATOM      2  C   UNL     1     -15.413 -27.496 -32.492  1.00  0.00     0.049 A 
ATOM      3  C   UNL     1     -16.635 -26.874 -32.791  1.00  0.00     0.115 A 
ATOM      4  C   UNL     1     -17.022 -26.707 -34.125  1.00  0.00     0.046 A 
ATOM      5  C   UNL     1     -16.197 -27.162 -35.157  1.00  0.00     0.004 A 
ATOM      6  C   UNL     1     -14.980 -27.783 -34.861  1.00  0.00     0.004 A 
ENDROOT
BRANCH   1   7
ATOM      7  C   UNL     1     -13.280 -28.641 -33.205  1.00  0.00     0.032 C 
ATOM      8  C   UNL     1     -12.151 -28.118 -34.086  1.00  0.00     0.009 C 
ENDBRANCH   1   7
BRANCH   3   9
ATOM      9  O   UNL     1     -17.469 -26.422 -31.772  1.00  0.00    -0.508 OA
ATOM     10  H   UNL     1     -18.215 -26.999 -31.401  1.00  0.00     0.293 HD
ENDBRANCH   3   9
TORSDOF 2
ENDMDL
MODEL 3
REMARK VINA RESULT:    -4.817     14.623     15.658
REMARK INTER + INTRA:          -5.305
REMARK INTER:                  -5.235
REMARK INTRA:                  -0.069
REMARK UNBOUND:                -0.065
REMARK SMILES CCc1cccc(O)c1
REMARK SMILES IDX 3 1 9 2 7 3 6 4 5 5 4 6 2 7 1 8 8 9
REMARK H PARENT 8 10
REMARK Flexibility Score: inf
ROOT
ATOM      1  C   UNL     1     -16.346 -26.728 -33.118  1.00  0.00    -0.045 A 
ATOM      2  C   UNL     1     -17.014 -26.698 -34.354  1.00  0.00     0.049 A 
ATOM      3  C   UNL     1     -16.413 -27.243 -35.498  1.00  0.00     0.115 A 
ATOM      4  C   UNL     1     -15.145 -27.827 -35.405  1.00  0.00     0.046 A 
ATOM      5  C   UNL     1     -14.482 -27.873 -34.177  1.00  0.00     0.004 A 
ATOM      6  C   UNL     1     -15.080 -27.330 -33.035  1.00  0.00     0.004 A 
ENDROOT
BRANCH   1   7
ATOM      7  C   UNL     1     -17.005 -26.174 -31.885  1.00  0.00     0.032 C 
ATOM      8  C   UNL     1     -15.983 -25.478 -30.992  1.00  0.00     0.009 C 
ENDBRANCH   1   7
BRANCH   3   9
ATOM      9  O   UNL     1     -17.066 -27.210 -36.727  1.00  0.00    -0.508 OA
ATOM     10  H   UNL     1     -17.511 -26.366 -37.070  1.00  0.00     0.293 HD
ENDBRANCH   3   9
TORSDOF 2
ENDMDL
MODEL 4
REMARK VINA RESULT:    -4.699     12.914     14.348
REMARK INTER + INTRA:          -5.176
REMARK INTER:                  -5.104
REMARK INTRA:                  -0.072
REMARK UNBOUND:                -0.065
REMARK SMILES CCc1cccc(O)c1
REMARK SMILES IDX 3 1 9 2 7 3 6 4 5 5 4 6 2 7 1 8 8 9
REMARK H PARENT 8 10
REMARK Flexibility Score: inf
ROOT
ATOM      1  C   UNL     1     -15.577 -27.343 -33.506  1.00  0.00    -0.045 A 
ATOM      2  C   UNL     1     -14.905 -27.547 -34.723  1.00  0.00     0.049 A 
ATOM      3  C   UNL     1     -13.682 -28.234 -34.750  1.00  0.00     0.115 A 
ATOM      4  C   UNL     1     -13.134 -28.725 -33.561  1.00  0.00     0.046 A 
ATOM      5  C   UNL     1     -13.805 -28.538 -32.349  1.00  0.00     0.004 A 
ATOM      6  C   UNL     1     -15.024 -27.853 -32.320  1.00  0.00     0.004 A 
ENDROOT
BRANCH   1   7
ATOM      7  C   UNL     1     -16.905 -26.636 -33.482  1.00  0.00     0.032 C 
ATOM      8  C   UNL     1     -17.142 -25.978 -32.126  1.00  0.00     0.009 C 
ENDBRANCH   1   7
BRANCH   3   9
ATOM      9  O   UNL     1     -13.007 -28.434 -35.952  1.00  0.00    -0.508 OA
ATOM     10  H   UNL     1     -12.090 -28.865 -35.980  1.00  0.00     0.293 HD
ENDBRANCH   3   9
TORSDOF 2
ENDMDL
MODEL 5
REMARK VINA RESULT:    -4.667     13.355     15.106
REMARK INTER + INTRA:          -5.141
REMARK INTER:                  -5.086
REMARK INTRA:                  -0.055
REMARK UNBOUND:                -0.065
REMARK SMILES CCc1cccc(O)c1
REMARK SMILES IDX 3 1 9 2 7 3 6 4 5 5 4 6 2 7 1 8 8 9
REMARK H PARENT 8 10
REMARK Flexibility Score: inf
ROOT
ATOM      1  C   UNL     1     -14.871 -27.911 -33.035  1.00  0.00    -0.045 A 
ATOM      2  C   UNL     1     -15.174 -27.864 -34.406  1.00  0.00     0.049 A 
ATOM      3  C   UNL     1     -16.256 -27.098 -34.866  1.00  0.00     0.115 A 
ATOM      4  C   UNL     1     -17.031 -26.373 -33.955  1.00  0.00     0.046 A 
ATOM      5  C   UNL     1     -16.726 -26.405 -32.592  1.00  0.00     0.004 A 
ATOM      6  C   UNL     1     -15.648 -27.167 -32.131  1.00  0.00     0.004 A 
ENDROOT
BRANCH   1   7
ATOM      7  C   UNL     1     -13.690 -28.705 -32.546  1.00  0.00     0.032 C 
ATOM      8  C   UNL     1     -14.150 -29.960 -31.811  1.00  0.00     0.009 C 
ENDBRANCH   1   7
BRANCH   3   9
ATOM      9  O   UNL     1     -16.567 -27.052 -36.222  1.00  0.00    -0.508 OA
ATOM     10  H   UNL     1     -17.250 -26.398 -36.589  1.00  0.00     0.293 HD
ENDBRANCH   3   9
TORSDOF 2
ENDMDL
MODEL 6
REMARK VINA RESULT:    -4.645     13.535     14.879
REMARK INTER + INTRA:          -5.118
REMARK INTER:                  -5.067
REMARK INTRA:                  -0.050
REMARK UNBOUND:                -0.065
REMARK SMILES CCc1cccc(O)c1
REMARK SMILES IDX 3 1 9 2 7 3 6 4 5 5 4 6 2 7 1 8 8 9
REMARK H PARENT 8 10
REMARK Flexibility Score: inf
ROOT
ATOM      1  C   UNL     1     -13.736 -28.241 -33.852  1.00  0.00    -0.045 A 
ATOM      2  C   UNL     1     -14.445 -27.758 -34.965  1.00  0.00     0.049 A 
ATOM      3  C   UNL     1     -15.794 -27.394 -34.841  1.00  0.00     0.115 A 
ATOM      4  C   UNL     1     -16.432 -27.504 -33.601  1.00  0.00     0.046 A 
ATOM      5  C   UNL     1     -15.728 -27.971 -32.488  1.00  0.00     0.004 A 
ATOM      6  C   UNL     1     -14.384 -28.335 -32.610  1.00  0.00     0.004 A 
ENDROOT
BRANCH   1   7
ATOM      7  C   UNL     1     -12.280 -28.601 -33.978  1.00  0.00     0.032 C 
ATOM      8  C   UNL     1     -11.528 -27.539 -34.773  1.00  0.00     0.009 C 
ENDBRANCH   1   7
BRANCH   3   9
ATOM      9  O   UNL     1     -16.505 -26.920 -35.940  1.00  0.00    -0.508 OA
ATOM     10  H   UNL     1     -17.288 -26.284 -35.833  1.00  0.00     0.293 HD
ENDBRANCH   3   9
TORSDOF 2
ENDMDL
MODEL 7
REMARK VINA RESULT:    -4.583     13.884     14.817
REMARK INTER + INTRA:          -5.050
REMARK INTER:                  -4.999
REMARK INTRA:                  -0.050
REMARK UNBOUND:                -0.065
REMARK SMILES CCc1cccc(O)c1
REMARK SMILES IDX 3 1 9 2 7 3 6 4 5 5 4 6 2 7 1 8 8 9
REMARK H PARENT 8 10
REMARK Flexibility Score: inf
ROOT
ATOM      1  C   UNL     1     -16.324 -26.805 -33.097  1.00  0.00    -0.045 A 
ATOM      2  C   UNL     1     -15.082 -27.425 -32.881  1.00  0.00     0.049 A 
ATOM      3  C   UNL     1     -14.363 -27.965 -33.958  1.00  0.00     0.115 A 
ATOM      4  C   UNL     1     -14.883 -27.878 -35.254  1.00  0.00     0.046 A 
ATOM      5  C   UNL     1     -16.111 -27.251 -35.477  1.00  0.00     0.004 A 
ATOM      6  C   UNL     1     -16.829 -26.712 -34.405  1.00  0.00     0.004 A 
ENDROOT
BRANCH   1   7
ATOM      7  C   UNL     1     -17.079 -26.197 -31.947  1.00  0.00     0.032 C 
ATOM      8  C   UNL     1     -16.127 -25.483 -30.993  1.00  0.00     0.009 C 
ENDBRANCH   1   7
BRANCH   3   9
ATOM      9  O   UNL     1     -13.134 -28.587 -33.751  1.00  0.00    -0.508 OA
ATOM     10  H   UNL     1     -13.038 -29.596 -33.782  1.00  0.00     0.293 HD
ENDBRANCH   3   9
TORSDOF 2
ENDMDL
MODEL 8
REMARK VINA RESULT:    -4.463      1.567      3.458
REMARK INTER + INTRA:          -4.920
REMARK INTER:                  -4.851
REMARK INTRA:                  -0.068
REMARK UNBOUND:                -0.065
REMARK SMILES CCc1cccc(O)c1
REMARK SMILES IDX 3 1 9 2 7 3 6 4 5 5 4 6 2 7 1 8 8 9
REMARK H PARENT 8 10
REMARK Flexibility Score: inf
ROOT
ATOM      1  C   UNL     1      -3.257 -29.352 -24.034  1.00  0.00    -0.045 A 
ATOM      2  C   UNL     1      -3.470 -29.801 -22.720  1.00  0.00     0.049 A 
ATOM      3  C   UNL     1      -4.630 -30.521 -22.397  1.00  0.00     0.115 A 
ATOM      4  C   UNL     1      -5.575 -30.799 -23.391  1.00  0.00     0.046 A 
ATOM      5  C   UNL     1      -5.362 -30.367 -24.702  1.00  0.00     0.004 A 
ATOM      6  C   UNL     1      -4.206 -29.649 -25.026  1.00  0.00     0.004 A 
ENDROOT
BRANCH   1   7
ATOM      7  C   UNL     1      -1.998 -28.609 -24.387  1.00  0.00     0.032 C 
ATOM      8  C   UNL     1      -2.300 -27.449 -25.331  1.00  0.00     0.009 C 
ENDBRANCH   1   7
BRANCH   3   9
ATOM      9  O   UNL     1      -4.851 -30.965 -21.096  1.00  0.00    -0.508 OA
ATOM     10  H   UNL     1      -5.454 -30.458 -20.458  1.00  0.00     0.293 HD
ENDBRANCH   3   9
TORSDOF 2
ENDMDL
MODEL 9
REMARK VINA RESULT:    -4.385      9.051     10.214
REMARK INTER + INTRA:          -4.834
REMARK INTER:                  -4.783
REMARK INTRA:                  -0.052
REMARK UNBOUND:                -0.065
REMARK SMILES CCc1cccc(O)c1
REMARK SMILES IDX 3 1 9 2 7 3 6 4 5 5 4 6 2 7 1 8 8 9
REMARK H PARENT 8 10
REMARK Flexibility Score: inf
ROOT
ATOM      1  C   UNL     1      -7.877 -20.926 -21.200  1.00  0.00    -0.045 A 
ATOM      2  C   UNL     1      -7.299 -20.093 -22.172  1.00  0.00     0.049 A 
ATOM      3  C   UNL     1      -7.180 -20.532 -23.499  1.00  0.00     0.115 A 
ATOM      4  C   UNL     1      -7.645 -21.802 -23.856  1.00  0.00     0.046 A 
ATOM      5  C   UNL     1      -8.233 -22.629 -22.896  1.00  0.00     0.004 A 
ATOM      6  C   UNL     1      -8.354 -22.193 -21.573  1.00  0.00     0.004 A 
ENDROOT
BRANCH   1   7
ATOM      7  C   UNL     1      -8.036 -20.442 -19.784  1.00  0.00     0.032 C 
ATOM      8  C   UNL     1      -7.936 -18.921 -19.718  1.00  0.00     0.009 C 
ENDBRANCH   1   7
BRANCH   3   9
ATOM      9  O   UNL     1      -6.602 -19.715 -24.468  1.00  0.00    -0.508 OA
ATOM     10  H   UNL     1      -6.541 -18.710 -24.347  1.00  0.00     0.293 HD
ENDBRANCH   3   9
TORSDOF 2
ENDMDL
