MODEL 1
REMARK VINA RESULT:    -4.191      0.000      0.000
REMARK INTER + INTRA:          -6.226
REMARK INTER:                  -5.906
REMARK INTRA:                  -0.319
REMARK UNBOUND:                -0.319
REMARK SMILES CCCCCCCCC(=O)[O-]
REMARK SMILES IDX 6 1 7 2 8 3 9 4 10 5 11 6 5 7 4 8 3 9 2 10 1 11
REMARK H PARENT
REMARK Flexibility Score: inf
ROOT
ATOM      1  C   UNL     1       0.556   2.812  -3.180  1.00  0.00     0.000 C 
ENDROOT
BRANCH   1   2
ATOM      2  C   UNL     1       1.955   2.866  -3.818  1.00  0.00     0.006 C 
BRANCH   2   3
ATOM      3  C   UNL     1       2.918   1.854  -3.186  1.00  0.00     0.053 C 
BRANCH   3   4
ATOM      4  C   UNL     1       4.135   2.521  -2.622  1.00  0.00     0.041 C 
ATOM      5  O   UNL     1       4.103   3.740  -2.310  1.00  0.00    -0.550 OA
ATOM      6  O   UNL     1       5.313   1.802  -2.467  1.00  0.00    -0.550 OA
ENDBRANCH   3   4
ENDBRANCH   2   3
ENDBRANCH   1   2
BRANCH   1   7
ATOM      7  C   UNL     1      -0.524   3.454  -4.065  1.00  0.00     0.000 C 
BRANCH   7   8
ATOM      8  C   UNL     1      -1.741   2.540  -4.272  1.00  0.00    -0.000 C 
BRANCH   8   9
ATOM      9  C   UNL     1      -2.068   1.765  -2.990  1.00  0.00    -0.000 C 
BRANCH   9  10
ATOM     10  C   UNL     1      -2.966   2.592  -2.061  1.00  0.00    -0.003 C 
ATOM     11  C   UNL     1      -4.371   2.737  -2.638  1.00  0.00     0.004 C 
ENDBRANCH   9  10
ENDBRANCH   8   9
ENDBRANCH   7   8
ENDBRANCH   1   7
TORSDOF 7
ENDMDL
MODEL 2
REMARK VINA RESULT:    -4.127      1.428      1.829
REMARK INTER + INTRA:          -6.136
REMARK INTER:                  -5.896
REMARK INTRA:                  -0.240
REMARK UNBOUND:                -0.319
REMARK SMILES CCCCCCCCC(=O)[O-]
REMARK SMILES IDX 6 1 7 2 8 3 9 4 10 5 11 6 5 7 4 8 3 9 2 10 1 11
REMARK H PARENT
REMARK Flexibility Score: inf
ROOT
ATOM      1  C   UNL     1       0.259   3.343  -2.998  1.00  0.00     0.000 C 
ENDROOT
BRANCH   1   2
ATOM      2  C   UNL     1       1.491   2.894  -3.803  1.00  0.00     0.006 C 
BRANCH   2   3
ATOM      3  C   UNL     1       2.367   1.909  -3.019  1.00  0.00     0.053 C 
BRANCH   3   4
ATOM      4  C   UNL     1       3.803   1.986  -3.439  1.00  0.00     0.041 C 
ATOM      5  O   UNL     1       4.721   1.833  -2.592  1.00  0.00    -0.550 OA
ATOM      6  O   UNL     1       4.126   2.255  -4.763  1.00  0.00    -0.550 OA
ENDBRANCH   3   4
ENDBRANCH   2   3
ENDBRANCH   1   2
BRANCH   1   7
ATOM      7  C   UNL     1      -1.025   2.614  -3.426  1.00  0.00     0.000 C 
BRANCH   7   8
ATOM      8  C   UNL     1      -2.077   2.560  -2.307  1.00  0.00    -0.000 C 
BRANCH   8   9
ATOM      9  C   UNL     1      -3.438   2.114  -2.856  1.00  0.00    -0.000 C 
BRANCH   9  10
ATOM     10  C   UNL     1      -3.269   1.042  -3.939  1.00  0.00    -0.003 C 
ATOM     11  C   UNL     1      -3.726  -0.325  -3.437  1.00  0.00     0.004 C 
ENDBRANCH   9  10
ENDBRANCH   8   9
ENDBRANCH   7   8
ENDBRANCH   1   7
TORSDOF 7
ENDMDL
MODEL 3
REMARK VINA RESULT:    -4.050      1.406      1.932
REMARK INTER + INTRA:          -6.027
REMARK INTER:                  -5.717
REMARK INTRA:                  -0.310
REMARK UNBOUND:                -0.319
REMARK SMILES CCCCCCCCC(=O)[O-]
REMARK SMILES IDX 6 1 7 2 8 3 9 4 10 5 11 6 5 7 4 8 3 9 2 10 1 11
REMARK H PARENT
REMARK Flexibility Score: inf
ROOT
ATOM      1  C   UNL     1      -0.065   3.283  -4.521  1.00  0.00     0.000 C 
ENDROOT
BRANCH   1   2
ATOM      2  C   UNL     1       0.910   2.995  -3.367  1.00  0.00     0.006 C 
BRANCH   2   3
ATOM      3  C   UNL     1       2.367   3.267  -3.758  1.00  0.00     0.053 C 
BRANCH   3   4
ATOM      4  C   UNL     1       3.229   2.055  -3.574  1.00  0.00     0.041 C 
ATOM      5  O   UNL     1       3.757   1.494  -4.570  1.00  0.00    -0.550 OA
ATOM      6  O   UNL     1       3.426   1.529  -2.304  1.00  0.00    -0.550 OA
ENDBRANCH   3   4
ENDBRANCH   2   3
ENDBRANCH   1   2
BRANCH   1   7
ATOM      7  C   UNL     1      -1.465   2.700  -4.274  1.00  0.00     0.000 C 
BRANCH   7   8
ATOM      8  C   UNL     1      -1.701   2.328  -2.802  1.00  0.00    -0.000 C 
BRANCH   8   9
ATOM      9  C   UNL     1      -3.200   2.247  -2.491  1.00  0.00    -0.000 C 
BRANCH   9  10
ATOM     10  C   UNL     1      -3.939   1.423  -3.553  1.00  0.00    -0.003 C 
ATOM     11  C   UNL     1      -3.711  -0.072  -3.347  1.00  0.00     0.004 C 
ENDBRANCH   9  10
ENDBRANCH   8   9
ENDBRANCH   7   8
ENDBRANCH   1   7
TORSDOF 7
ENDMDL
MODEL 4
REMARK VINA RESULT:    -3.976      1.129      1.456
REMARK INTER + INTRA:          -5.923
REMARK INTER:                  -5.725
REMARK INTRA:                  -0.198
REMARK UNBOUND:                -0.319
REMARK SMILES CCCCCCCCC(=O)[O-]
REMARK SMILES IDX 6 1 7 2 8 3 9 4 10 5 11 6 5 7 4 8 3 9 2 10 1 11
REMARK H PARENT
REMARK Flexibility Score: inf
ROOT
ATOM      1  C   UNL     1       0.034   3.489  -2.924  1.00  0.00     0.000 C 
ENDROOT
BRANCH   1   2
ATOM      2  C   UNL     1       1.152   2.479  -3.234  1.00  0.00     0.006 C 
BRANCH   2   3
ATOM      3  C   UNL     1       2.534   3.141  -3.286  1.00  0.00     0.053 C 
BRANCH   3   4
ATOM      4  C   UNL     1       3.638   2.135  -3.173  1.00  0.00     0.041 C 
ATOM      5  O   UNL     1       4.286   2.021  -2.100  1.00  0.00    -0.550 OA
ATOM      6  O   UNL     1       3.969   1.342  -4.264  1.00  0.00    -0.550 OA
ENDBRANCH   3   4
ENDBRANCH   2   3
ENDBRANCH   1   2
BRANCH   1   7
ATOM      7  C   UNL     1      -1.319   3.079  -3.526  1.00  0.00     0.000 C 
BRANCH   7   8
ATOM      8  C   UNL     1      -2.207   2.322  -2.527  1.00  0.00    -0.000 C 
BRANCH   8   9
ATOM      9  C   UNL     1      -2.977   1.194  -3.224  1.00  0.00    -0.000 C 
BRANCH   9  10
ATOM     10  C   UNL     1      -4.491   1.413  -3.116  1.00  0.00    -0.003 C 
ATOM     11  C   UNL     1      -4.810   2.829  -2.643  1.00  0.00     0.004 C 
ENDBRANCH   9  10
ENDBRANCH   8   9
ENDBRANCH   7   8
ENDBRANCH   1   7
TORSDOF 7
ENDMDL
MODEL 5
REMARK VINA RESULT:    -3.888      3.938      6.321
REMARK INTER + INTRA:          -5.799
REMARK INTER:                  -5.465
REMARK INTRA:                  -0.334
REMARK UNBOUND:                -0.319
REMARK SMILES CCCCCCCCC(=O)[O-]
REMARK SMILES IDX 6 1 7 2 8 3 9 4 10 5 11 6 5 7 4 8 3 9 2 10 1 11
REMARK H PARENT
REMARK Flexibility Score: inf
ROOT
ATOM      1  C   UNL     1      -0.680   2.994  -4.533  1.00  0.00     0.000 C 
ENDROOT
BRANCH   1   2
ATOM      2  C   UNL     1      -2.150   2.566  -4.390  1.00  0.00     0.006 C 
BRANCH   2   3
ATOM      3  C   UNL     1      -2.402   1.779  -3.098  1.00  0.00     0.053 C 
BRANCH   3   4
ATOM      4  C   UNL     1      -3.526   0.801  -3.252  1.00  0.00     0.041 C 
ATOM      5  O   UNL     1      -3.285  -0.416  -3.470  1.00  0.00    -0.550 OA
ATOM      6  O   UNL     1      -4.842   1.239  -3.181  1.00  0.00    -0.550 OA
ENDBRANCH   3   4
ENDBRANCH   2   3
ENDBRANCH   1   2
BRANCH   1   7
ATOM      7  C   UNL     1       0.095   2.903  -3.209  1.00  0.00     0.000 C 
BRANCH   7   8
ATOM      8  C   UNL     1       1.602   3.140  -3.387  1.00  0.00    -0.000 C 
BRANCH   8   9
ATOM      9  C   UNL     1       2.398   1.866  -3.076  1.00  0.00    -0.000 C 
BRANCH   9  10
ATOM     10  C   UNL     1       3.688   1.807  -3.903  1.00  0.00    -0.003 C 
ATOM     11  C   UNL     1       3.550   2.607  -5.196  1.00  0.00     0.004 C 
ENDBRANCH   9  10
ENDBRANCH   8   9
ENDBRANCH   7   8
ENDBRANCH   1   7
TORSDOF 7
ENDMDL
MODEL 6
REMARK VINA RESULT:    -3.844      4.248      6.513
REMARK INTER + INTRA:          -5.736
REMARK INTER:                  -5.423
REMARK INTRA:                  -0.313
REMARK UNBOUND:                -0.319
REMARK SMILES CCCCCCCCC(=O)[O-]
REMARK SMILES IDX 6 1 7 2 8 3 9 4 10 5 11 6 5 7 4 8 3 9 2 10 1 11
REMARK H PARENT
REMARK Flexibility Score: inf
ROOT
ATOM      1  C   UNL     1      -1.861   2.510  -4.408  1.00  0.00     0.000 C 
ENDROOT
BRANCH   1   2
ATOM      2  C   UNL     1      -2.150   1.852  -3.048  1.00  0.00     0.006 C 
BRANCH   2   3
ATOM      3  C   UNL     1      -3.199   2.625  -2.242  1.00  0.00     0.053 C 
BRANCH   3   4
ATOM      4  C   UNL     1      -4.564   2.507  -2.847  1.00  0.00     0.041 C 
ATOM      5  O   UNL     1      -5.268   3.535  -3.032  1.00  0.00    -0.550 OA
ATOM      6  O   UNL     1      -5.070   1.258  -3.182  1.00  0.00    -0.550 OA
ENDBRANCH   3   4
ENDBRANCH   2   3
ENDBRANCH   1   2
BRANCH   1   7
ATOM      7  C   UNL     1      -0.472   3.163  -4.468  1.00  0.00     0.000 C 
BRANCH   7   8
ATOM      8  C   UNL     1       0.347   2.933  -3.188  1.00  0.00    -0.000 C 
BRANCH   8   9
ATOM      9  C   UNL     1       1.846   3.106  -3.458  1.00  0.00    -0.000 C 
BRANCH   9  10
ATOM     10  C   UNL     1       2.610   1.807  -3.173  1.00  0.00    -0.003 C 
ATOM     11  C   UNL     1       4.119   2.034  -3.214  1.00  0.00     0.004 C 
ENDBRANCH   9  10
ENDBRANCH   8   9
ENDBRANCH   7   8
ENDBRANCH   1   7
TORSDOF 7
ENDMDL
MODEL 7
REMARK VINA RESULT:    -3.818      1.539      2.505
REMARK INTER + INTRA:          -5.700
REMARK INTER:                  -5.245
REMARK INTRA:                  -0.454
REMARK UNBOUND:                -0.319
REMARK SMILES CCCCCCCCC(=O)[O-]
REMARK SMILES IDX 6 1 7 2 8 3 9 4 10 5 11 6 5 7 4 8 3 9 2 10 1 11
REMARK H PARENT
REMARK Flexibility Score: inf
ROOT
ATOM      1  C   UNL     1      -0.233   3.410  -3.027  1.00  0.00     0.000 C 
ENDROOT
BRANCH   1   2
ATOM      2  C   UNL     1       1.041   2.557  -2.901  1.00  0.00     0.006 C 
BRANCH   2   3
ATOM      3  C   UNL     1       2.076   2.899  -3.981  1.00  0.00     0.053 C 
BRANCH   3   4
ATOM      4  C   UNL     1       3.311   2.062  -3.852  1.00  0.00     0.041 C 
ATOM      5  O   UNL     1       4.054   1.869  -4.850  1.00  0.00    -0.550 OA
ATOM      6  O   UNL     1       3.628   1.473  -2.635  1.00  0.00    -0.550 OA
ENDBRANCH   3   4
ENDBRANCH   2   3
ENDBRANCH   1   2
BRANCH   1   7
ATOM      7  C   UNL     1      -1.502   2.641  -2.628  1.00  0.00     0.000 C 
BRANCH   7   8
ATOM      8  C   UNL     1      -2.685   2.920  -3.567  1.00  0.00    -0.000 C 
BRANCH   8   9
ATOM      9  C   UNL     1      -2.739   1.889  -4.701  1.00  0.00    -0.000 C 
BRANCH   9  10
ATOM     10  C   UNL     1      -2.744   2.578  -6.071  1.00  0.00    -0.003 C 
ATOM     11  C   UNL     1      -1.350   3.077  -6.443  1.00  0.00     0.004 C 
ENDBRANCH   9  10
ENDBRANCH   8   9
ENDBRANCH   7   8
ENDBRANCH   1   7
TORSDOF 7
ENDMDL
MODEL 8
REMARK VINA RESULT:    -3.801      4.795      6.556
REMARK INTER + INTRA:          -5.676
REMARK INTER:                  -5.437
REMARK INTRA:                  -0.239
REMARK UNBOUND:                -0.319
REMARK SMILES CCCCCCCCC(=O)[O-]
REMARK SMILES IDX 6 1 7 2 8 3 9 4 10 5 11 6 5 7 4 8 3 9 2 10 1 11
REMARK H PARENT
REMARK Flexibility Score: inf
ROOT
ATOM      1  C   UNL     1      -3.807   1.340  -3.860  1.00  0.00     0.000 C 
ENDROOT
BRANCH   1   2
ATOM      2  C   UNL     1      -3.373  -0.038  -3.332  1.00  0.00     0.006 C 
BRANCH   2   3
ATOM      3  C   UNL     1      -4.070  -1.187  -4.071  1.00  0.00     0.053 C 
BRANCH   3   4
ATOM      4  C   UNL     1      -3.661  -2.524  -3.532  1.00  0.00     0.041 C 
ATOM      5  O   UNL     1      -4.371  -3.105  -2.669  1.00  0.00    -0.550 OA
ATOM      6  O   UNL     1      -2.481  -3.116  -3.963  1.00  0.00    -0.550 OA
ENDBRANCH   3   4
ENDBRANCH   2   3
ENDBRANCH   1   2
BRANCH   1   7
ATOM      7  C   UNL     1      -3.593   2.462  -2.833  1.00  0.00     0.000 C 
BRANCH   7   8
ATOM      8  C   UNL     1      -2.140   2.544  -2.339  1.00  0.00    -0.000 C 
BRANCH   8   9
ATOM      9  C   UNL     1      -1.191   2.910  -3.487  1.00  0.00    -0.000 C 
BRANCH   9  10
ATOM     10  C   UNL     1       0.118   3.501  -2.951  1.00  0.00    -0.003 C 
ATOM     11  C   UNL     1       1.318   2.661  -3.378  1.00  0.00     0.004 C 
ENDBRANCH   9  10
ENDBRANCH   8   9
ENDBRANCH   7   8
ENDBRANCH   1   7
TORSDOF 7
ENDMDL
MODEL 9
REMARK VINA RESULT:    -3.799      3.304      5.677
REMARK INTER + INTRA:          -5.674
REMARK INTER:                  -5.139
REMARK INTRA:                  -0.535
REMARK UNBOUND:                -0.319
REMARK SMILES CCCCCCCCC(=O)[O-]
REMARK SMILES IDX 6 1 7 2 8 3 9 4 10 5 11 6 5 7 4 8 3 9 2 10 1 11
REMARK H PARENT
REMARK Flexibility Score: inf
ROOT
ATOM      1  C   UNL     1       0.203   4.557  -3.492  1.00  0.00     0.000 C 
ENDROOT
BRANCH   1   2
ATOM      2  C   UNL     1      -0.087   3.088  -3.141  1.00  0.00     0.006 C 
BRANCH   2   3
ATOM      3  C   UNL     1      -1.370   2.576  -3.807  1.00  0.00     0.053 C 
BRANCH   3   4
ATOM      4  C   UNL     1      -2.322   1.996  -2.807  1.00  0.00     0.041 C 
ATOM      5  O   UNL     1      -2.475   2.543  -1.683  1.00  0.00    -0.550 OA
ATOM      6  O   UNL     1      -3.021   0.834  -3.106  1.00  0.00    -0.550 OA
ENDBRANCH   3   4
ENDBRANCH   2   3
ENDBRANCH   1   2
BRANCH   1   7
ATOM      7  C   UNL     1       1.570   4.747  -4.168  1.00  0.00     0.000 C 
BRANCH   7   8
ATOM      8  C   UNL     1       1.925   3.593  -5.118  1.00  0.00    -0.000 C 
BRANCH   8   9
ATOM      9  C   UNL     1       3.415   3.240  -5.018  1.00  0.00    -0.000 C 
BRANCH   9  10
ATOM     10  C   UNL     1       3.611   1.857  -4.385  1.00  0.00    -0.003 C 
ATOM     11  C   UNL     1       3.493   1.925  -2.865  1.00  0.00     0.004 C 
ENDBRANCH   9  10
ENDBRANCH   8   9
ENDBRANCH   7   8
ENDBRANCH   1   7
TORSDOF 7
ENDMDL
