MODEL 1
REMARK VINA RESULT:    -3.300      0.000      0.000
REMARK INTER + INTRA:          -4.656
REMARK INTER:                  -4.265
REMARK INTRA:                  -0.391
REMARK UNBOUND:                -0.391
REMARK SMILES C=CC(=O)CCCCC
REMARK SMILES IDX 6 1 7 2 8 3 9 4 5 5 3 6 4 7 2 8 1 9
REMARK H PARENT
REMARK Flexibility Score: inf
ROOT
ATOM      1  C   UNL     1      20.214  28.646  42.779  1.00  0.00     0.008 C 
ENDROOT
BRANCH   1   2
ATOM      2  C   UNL     1      20.834  27.319  42.317  1.00  0.00     0.000 C 
BRANCH   2   3
ATOM      3  C   UNL     1      20.943  26.291  43.453  1.00  0.00    -0.003 C 
ATOM      4  C   UNL     1      22.376  25.809  43.679  1.00  0.00     0.004 C 
ENDBRANCH   2   3
ENDBRANCH   1   2
BRANCH   1   5
ATOM      5  C   UNL     1      19.251  28.424  43.949  1.00  0.00     0.080 C 
BRANCH   5   6
ATOM      6  C   UNL     1      17.865  28.862  43.581  1.00  0.00     0.155 C 
ATOM      7  O   UNL     1      17.506  30.046  43.827  1.00  0.00    -0.295 OA
BRANCH   6   8
ATOM      8  C   UNL     1      16.920  27.901  42.981  1.00  0.00     0.039 C 
ATOM      9  C   UNL     1      17.228  26.619  42.793  1.00  0.00     0.012 C 
ENDBRANCH   6   8
ENDBRANCH   5   6
ENDBRANCH   1   5
TORSDOF 5
ENDMDL
MODEL 2
REMARK VINA RESULT:    -3.248      2.694      4.751
REMARK INTER + INTRA:          -4.588
REMARK INTER:                  -4.277
REMARK INTRA:                  -0.311
REMARK UNBOUND:                -0.391
REMARK SMILES C=CC(=O)CCCCC
REMARK SMILES IDX 6 1 7 2 8 3 9 4 5 5 3 6 4 7 2 8 1 9
REMARK H PARENT
REMARK Flexibility Score: inf
ROOT
ATOM      1  C   UNL     1      19.738  26.862  42.508  1.00  0.00     0.008 C 
ENDROOT
BRANCH   1   2
ATOM      2  C   UNL     1      18.446  27.380  43.158  1.00  0.00     0.000 C 
BRANCH   2   3
ATOM      3  C   UNL     1      18.652  28.702  43.911  1.00  0.00    -0.003 C 
ATOM      4  C   UNL     1      17.482  29.670  43.736  1.00  0.00     0.004 C 
ENDBRANCH   2   3
ENDBRANCH   1   2
BRANCH   1   5
ATOM      5  C   UNL     1      20.811  26.585  43.566  1.00  0.00     0.080 C 
BRANCH   5   6
ATOM      6  C   UNL     1      22.115  27.212  43.172  1.00  0.00     0.155 C 
ATOM      7  O   UNL     1      23.170  26.522  43.215  1.00  0.00    -0.295 OA
BRANCH   6   8
ATOM      8  C   UNL     1      22.164  28.635  42.782  1.00  0.00     0.039 C 
ATOM      9  C   UNL     1      23.158  29.442  43.147  1.00  0.00     0.012 C 
ENDBRANCH   6   8
ENDBRANCH   5   6
ENDBRANCH   1   5
TORSDOF 5
ENDMDL
MODEL 3
REMARK VINA RESULT:    -3.181      2.040      4.456
REMARK INTER + INTRA:          -4.503
REMARK INTER:                  -4.223
REMARK INTRA:                  -0.280
REMARK UNBOUND:                -0.391
REMARK SMILES C=CC(=O)CCCCC
REMARK SMILES IDX 6 1 7 2 8 3 9 4 5 5 3 6 4 7 2 8 1 9
REMARK H PARENT
REMARK Flexibility Score: inf
ROOT
ATOM      1  C   UNL     1      19.737  28.503  43.501  1.00  0.00     0.008 C 
ENDROOT
BRANCH   1   2
ATOM      2  C   UNL     1      18.659  27.434  43.271  1.00  0.00     0.000 C 
BRANCH   2   3
ATOM      3  C   UNL     1      17.239  28.019  43.270  1.00  0.00    -0.003 C 
ATOM      4  C   UNL     1      17.197  29.470  43.750  1.00  0.00     0.004 C 
ENDBRANCH   2   3
ENDBRANCH   1   2
BRANCH   1   5
ATOM      5  C   UNL     1      20.807  28.447  42.406  1.00  0.00     0.080 C 
BRANCH   5   6
ATOM      6  C   UNL     1      22.164  28.225  43.006  1.00  0.00     0.155 C 
ATOM      7  O   UNL     1      22.796  29.207  43.483  1.00  0.00    -0.295 OA
BRANCH   6   8
ATOM      8  C   UNL     1      22.767  26.878  42.993  1.00  0.00     0.039 C 
ATOM      9  C   UNL     1      22.306  25.882  43.747  1.00  0.00     0.012 C 
ENDBRANCH   6   8
ENDBRANCH   5   6
ENDBRANCH   1   5
TORSDOF 5
ENDMDL
MODEL 4
REMARK VINA RESULT:    -3.177      2.270      4.174
REMARK INTER + INTRA:          -4.497
REMARK INTER:                  -4.089
REMARK INTRA:                  -0.409
REMARK UNBOUND:                -0.391
REMARK SMILES C=CC(=O)CCCCC
REMARK SMILES IDX 6 1 7 2 8 3 9 4 5 5 3 6 4 7 2 8 1 9
REMARK H PARENT
REMARK Flexibility Score: inf
ROOT
ATOM      1  C   UNL     1      19.761  28.214  43.966  1.00  0.00     0.008 C 
ENDROOT
BRANCH   1   2
ATOM      2  C   UNL     1      18.527  28.983  43.471  1.00  0.00     0.000 C 
BRANCH   2   3
ATOM      3  C   UNL     1      17.288  28.085  43.334  1.00  0.00    -0.003 C 
ATOM      4  C   UNL     1      17.614  26.714  42.742  1.00  0.00     0.004 C 
ENDBRANCH   2   3
ENDBRANCH   1   2
BRANCH   1   5
ATOM      5  C   UNL     1      20.971  28.480  43.065  1.00  0.00     0.080 C 
BRANCH   5   6
ATOM      6  C   UNL     1      21.922  27.321  43.104  1.00  0.00     0.155 C 
ATOM      7  O   UNL     1      23.164  27.542  43.102  1.00  0.00    -0.295 OA
BRANCH   6   8
ATOM      8  C   UNL     1      21.405  25.939  43.100  1.00  0.00     0.039 C 
ATOM      9  C   UNL     1      21.281  25.226  41.982  1.00  0.00     0.012 C 
ENDBRANCH   6   8
ENDBRANCH   5   6
ENDBRANCH   1   5
TORSDOF 5
ENDMDL
MODEL 5
REMARK VINA RESULT:    -3.176      2.317      4.665
REMARK INTER + INTRA:          -4.496
REMARK INTER:                  -4.257
REMARK INTRA:                  -0.239
REMARK UNBOUND:                -0.391
REMARK SMILES C=CC(=O)CCCCC
REMARK SMILES IDX 6 1 7 2 8 3 9 4 5 5 3 6 4 7 2 8 1 9
REMARK H PARENT
REMARK Flexibility Score: inf
ROOT
ATOM      1  C   UNL     1      18.530  27.466  43.248  1.00  0.00     0.008 C 
ENDROOT
BRANCH   1   2
ATOM      2  C   UNL     1      18.637  28.909  43.766  1.00  0.00     0.000 C 
BRANCH   2   3
ATOM      3  C   UNL     1      17.269  29.599  43.875  1.00  0.00    -0.003 C 
ATOM      4  C   UNL     1      16.137  28.767  43.272  1.00  0.00     0.004 C 
ENDBRANCH   2   3
ENDBRANCH   1   2
BRANCH   1   5
ATOM      5  C   UNL     1      19.450  27.247  42.044  1.00  0.00     0.080 C 
BRANCH   5   6
ATOM      6  C   UNL     1      20.421  26.136  42.316  1.00  0.00     0.155 C 
ATOM      7  O   UNL     1      20.539  25.201  41.478  1.00  0.00    -0.295 OA
BRANCH   6   8
ATOM      8  C   UNL     1      21.192  26.120  43.574  1.00  0.00     0.039 C 
ATOM      9  C   UNL     1      22.470  25.749  43.624  1.00  0.00     0.012 C 
ENDBRANCH   6   8
ENDBRANCH   5   6
ENDBRANCH   1   5
TORSDOF 5
ENDMDL
MODEL 6
REMARK VINA RESULT:    -3.125      1.677      3.856
REMARK INTER + INTRA:          -4.429
REMARK INTER:                  -4.048
REMARK INTRA:                  -0.381
REMARK UNBOUND:                -0.391
REMARK SMILES C=CC(=O)CCCCC
REMARK SMILES IDX 6 1 7 2 8 3 9 4 5 5 3 6 4 7 2 8 1 9
REMARK H PARENT
REMARK Flexibility Score: inf
ROOT
ATOM      1  C   UNL     1      18.570  28.794  43.053  1.00  0.00     0.008 C 
ENDROOT
BRANCH   1   2
ATOM      2  C   UNL     1      17.256  28.039  43.306  1.00  0.00     0.000 C 
BRANCH   2   3
ATOM      3  C   UNL     1      17.268  26.620  42.720  1.00  0.00    -0.003 C 
ATOM      4  C   UNL     1      17.897  26.560  41.328  1.00  0.00     0.004 C 
ENDBRANCH   2   3
ENDBRANCH   1   2
BRANCH   1   5
ATOM      5  C   UNL     1      19.654  28.353  44.041  1.00  0.00     0.080 C 
BRANCH   5   6
ATOM      6  C   UNL     1      20.861  27.847  43.309  1.00  0.00     0.155 C 
ATOM      7  O   UNL     1      21.641  28.671  42.760  1.00  0.00    -0.295 OA
BRANCH   6   8
ATOM      8  C   UNL     1      21.102  26.395  43.197  1.00  0.00     0.039 C 
ATOM      9  C   UNL     1      22.210  25.817  43.658  1.00  0.00     0.012 C 
ENDBRANCH   6   8
ENDBRANCH   5   6
ENDBRANCH   1   5
TORSDOF 5
ENDMDL
MODEL 7
REMARK VINA RESULT:    -3.099      1.429      1.829
REMARK INTER + INTRA:          -4.396
REMARK INTER:                  -4.096
REMARK INTRA:                  -0.300
REMARK UNBOUND:                -0.391
REMARK SMILES C=CC(=O)CCCCC
REMARK SMILES IDX 6 1 7 2 8 3 9 4 5 5 3 6 4 7 2 8 1 9
REMARK H PARENT
REMARK Flexibility Score: inf
ROOT
ATOM      1  C   UNL     1      19.264  27.037  41.703  1.00  0.00     0.008 C 
ENDROOT
BRANCH   1   2
ATOM      2  C   UNL     1      20.364  25.969  41.808  1.00  0.00     0.000 C 
BRANCH   2   3
ATOM      3  C   UNL     1      21.626  26.489  42.513  1.00  0.00    -0.003 C 
ATOM      4  C   UNL     1      22.000  25.660  43.742  1.00  0.00     0.004 C 
ENDBRANCH   2   3
ENDBRANCH   1   2
BRANCH   1   5
ATOM      5  C   UNL     1      18.381  27.040  42.954  1.00  0.00     0.080 C 
BRANCH   5   6
ATOM      6  C   UNL     1      18.505  28.344  43.685  1.00  0.00     0.155 C 
ATOM      7  O   UNL     1      19.511  28.547  44.418  1.00  0.00    -0.295 OA
BRANCH   6   8
ATOM      8  C   UNL     1      17.436  29.356  43.578  1.00  0.00     0.039 C 
ATOM      9  C   UNL     1      16.146  29.047  43.690  1.00  0.00     0.012 C 
ENDBRANCH   6   8
ENDBRANCH   5   6
ENDBRANCH   1   5
TORSDOF 5
ENDMDL
MODEL 8
REMARK VINA RESULT:    -3.053      1.809      2.630
REMARK INTER + INTRA:          -4.337
REMARK INTER:                  -3.771
REMARK INTRA:                  -0.566
REMARK UNBOUND:                -0.391
REMARK SMILES C=CC(=O)CCCCC
REMARK SMILES IDX 6 1 7 2 8 3 9 4 5 5 3 6 4 7 2 8 1 9
REMARK H PARENT
REMARK Flexibility Score: inf
ROOT
ATOM      1  C   UNL     1      20.645  26.268  41.251  1.00  0.00     0.008 C 
ENDROOT
BRANCH   1   2
ATOM      2  C   UNL     1      21.278  25.103  42.027  1.00  0.00     0.000 C 
BRANCH   2   3
ATOM      3  C   UNL     1      21.852  25.540  43.383  1.00  0.00    -0.003 C 
ATOM      4  C   UNL     1      22.882  26.662  43.255  1.00  0.00     0.004 C 
ENDBRANCH   2   3
ENDBRANCH   1   2
BRANCH   1   5
ATOM      5  C   UNL     1      19.117  26.160  41.247  1.00  0.00     0.080 C 
BRANCH   5   6
ATOM      6  C   UNL     1      18.531  26.930  42.393  1.00  0.00     0.155 C 
ATOM      7  O   UNL     1      17.476  26.511  42.943  1.00  0.00    -0.295 OA
BRANCH   6   8
ATOM      8  C   UNL     1      19.160  28.189  42.837  1.00  0.00     0.039 C 
ATOM      9  C   UNL     1      19.412  28.449  44.118  1.00  0.00     0.012 C 
ENDBRANCH   6   8
ENDBRANCH   5   6
ENDBRANCH   1   5
TORSDOF 5
ENDMDL
MODEL 9
REMARK VINA RESULT:    -3.034      2.502      4.071
REMARK INTER + INTRA:          -4.312
REMARK INTER:                  -3.805
REMARK INTRA:                  -0.507
REMARK UNBOUND:                -0.391
REMARK SMILES C=CC(=O)CCCCC
REMARK SMILES IDX 6 1 7 2 8 3 9 4 5 5 3 6 4 7 2 8 1 9
REMARK H PARENT
REMARK Flexibility Score: inf
ROOT
ATOM      1  C   UNL     1      20.250  28.134  43.168  1.00  0.00     0.008 C 
ENDROOT
BRANCH   1   2
ATOM      2  C   UNL     1      19.104  28.549  44.102  1.00  0.00     0.000 C 
BRANCH   2   3
ATOM      3  C   UNL     1      17.997  29.322  43.371  1.00  0.00    -0.003 C 
ATOM      4  C   UNL     1      16.628  28.651  43.494  1.00  0.00     0.004 C 
ENDBRANCH   2   3
ENDBRANCH   1   2
BRANCH   1   5
ATOM      5  C   UNL     1      20.552  26.638  43.300  1.00  0.00     0.080 C 
BRANCH   5   6
ATOM      6  C   UNL     1      20.394  25.949  41.977  1.00  0.00     0.155 C 
ATOM      7  O   UNL     1      21.209  25.043  41.652  1.00  0.00    -0.295 OA
BRANCH   6   8
ATOM      8  C   UNL     1      19.323  26.364  41.050  1.00  0.00     0.039 C 
ATOM      9  C   UNL     1      18.075  25.911  41.153  1.00  0.00     0.012 C 
ENDBRANCH   6   8
ENDBRANCH   5   6
ENDBRANCH   1   5
TORSDOF 5
ENDMDL
