MODEL 1
REMARK VINA RESULT:    -6.458      0.000      0.000
REMARK INTER + INTRA:          -8.032
REMARK INTER:                  -7.779
REMARK INTRA:                  -0.253
REMARK UNBOUND:                -0.253
REMARK SMILES O=c1c(O)c(-c2ccc(O)c(O)c2)oc2cc(O)cc(O)c12
REMARK SMILES IDX 5 1 3 2 2 3 1 4 22 5 20 6 19 7 17 8 16 9 15 10 14 11 6 12
REMARK SMILES IDX 7 13 8 14 9 15 13 16 11 17 10 18 12 20 4 22 21 24 18 26
REMARK H PARENT 10 19 12 21 4 23 21 25 18 27
REMARK Flexibility Score: inf
ROOT
ATOM      1  C   UNL     1     -14.373  36.584  -2.787  1.00  0.00     0.180 A 
ATOM      2  C   UNL     1     -14.384  35.220  -2.433  1.00  0.00     0.208 A 
ATOM      3  C   UNL     1     -13.238  34.448  -2.676  1.00  0.00     0.238 A 
ATOM      4  O   UNL     1     -13.232  33.229  -2.353  1.00  0.00    -0.285 OA
ATOM      5  C   UNL     1     -12.113  35.041  -3.283  1.00  0.00     0.111 A 
ATOM      6  C   UNL     1     -10.921  34.331  -3.564  1.00  0.00     0.134 A 
ATOM      7  C   UNL     1      -9.846  34.991  -4.179  1.00  0.00     0.093 A 
ATOM      8  C   UNL     1      -9.942  36.346  -4.518  1.00  0.00     0.123 A 
ATOM      9  C   UNL     1     -11.115  37.050  -4.242  1.00  0.00     0.094 A 
ATOM     10  C   UNL     1     -12.196  36.410  -3.628  1.00  0.00     0.146 A 
ATOM     11  O   UNL     1     -13.298  37.106  -3.372  1.00  0.00    -0.452 OA
ENDROOT
BRANCH   1  12
ATOM     12  C   UNL     1     -15.534  37.469  -2.546  1.00  0.00     0.025 A 
ATOM     13  C   UNL     1     -15.512  38.449  -1.538  1.00  0.00     0.016 A 
ATOM     14  C   UNL     1     -16.612  39.289  -1.346  1.00  0.00     0.051 A 
ATOM     15  C   UNL     1     -17.744  39.172  -2.164  1.00  0.00     0.157 A 
ATOM     16  C   UNL     1     -16.663  37.370  -3.377  1.00  0.00     0.062 A 
ATOM     17  C   UNL     1     -17.767  38.209  -3.186  1.00  0.00     0.158 A 
BRANCH  15  18
ATOM     18  O   UNL     1     -18.839  40.011  -1.967  1.00  0.00    -0.504 OA
ATOM     19  H   UNL     1     -18.773  40.846  -1.397  1.00  0.00     0.293 HD
ENDBRANCH  15  18
BRANCH  17  20
ATOM     20  O   UNL     1     -18.875  38.073  -4.022  1.00  0.00    -0.504 OA
ATOM     21  H   UNL     1     -19.539  37.315  -3.916  1.00  0.00     0.293 HD
ENDBRANCH  17  20
ENDBRANCH   1  12
BRANCH   2  22
ATOM     22  O   UNL     1     -15.529  34.646  -1.878  1.00  0.00    -0.502 OA
ATOM     23  H   UNL     1     -16.289  35.203  -1.505  1.00  0.00     0.293 HD
ENDBRANCH   2  22
BRANCH   6  24
ATOM     24  O   UNL     1     -10.795  32.979  -3.240  1.00  0.00    -0.507 OA
ATOM     25  H   UNL     1     -11.522  32.309  -3.458  1.00  0.00     0.293 HD
ENDBRANCH   6  24
BRANCH   8  26
ATOM     26  O   UNL     1      -8.875  37.002  -5.129  1.00  0.00    -0.508 OA
ATOM     27  H   UNL     1      -8.756  38.004  -5.054  1.00  0.00     0.293 HD
ENDBRANCH   8  26
TORSDOF 6
ENDMDL
MODEL 2
REMARK VINA RESULT:    -6.201     10.217     13.401
REMARK INTER + INTRA:          -7.722
REMARK INTER:                  -7.461
REMARK INTRA:                  -0.261
REMARK UNBOUND:                -0.253
REMARK SMILES O=c1c(O)c(-c2ccc(O)c(O)c2)oc2cc(O)cc(O)c12
REMARK SMILES IDX 5 1 3 2 2 3 1 4 22 5 20 6 19 7 17 8 16 9 15 10 14 11 6 12
REMARK SMILES IDX 7 13 8 14 9 15 13 16 11 17 10 18 12 20 4 22 21 24 18 26
REMARK H PARENT 10 19 12 21 4 23 21 25 18 27
REMARK Flexibility Score: inf
ROOT
ATOM      1  C   UNL     1     -25.368  39.080  -6.052  1.00  0.00     0.180 A 
ATOM      2  C   UNL     1     -26.345  38.339  -6.744  1.00  0.00     0.208 A 
ATOM      3  C   UNL     1     -27.274  37.588  -6.008  1.00  0.00     0.238 A 
ATOM      4  O   UNL     1     -28.161  36.930  -6.617  1.00  0.00    -0.285 OA
ATOM      5  C   UNL     1     -27.200  37.574  -4.601  1.00  0.00     0.111 A 
ATOM      6  C   UNL     1     -28.096  36.840  -3.786  1.00  0.00     0.134 A 
ATOM      7  C   UNL     1     -27.951  36.870  -2.390  1.00  0.00     0.093 A 
ATOM      8  C   UNL     1     -26.928  37.617  -1.797  1.00  0.00     0.123 A 
ATOM      9  C   UNL     1     -26.043  38.343  -2.595  1.00  0.00     0.094 A 
ATOM     10  C   UNL     1     -26.172  38.328  -3.987  1.00  0.00     0.146 A 
ATOM     11  O   UNL     1     -25.319  39.031  -4.723  1.00  0.00    -0.452 OA
ENDROOT
BRANCH   1  12
ATOM     12  C   UNL     1     -24.365  39.912  -6.755  1.00  0.00     0.025 A 
ATOM     13  C   UNL     1     -24.722  41.122  -7.376  1.00  0.00     0.016 A 
ATOM     14  C   UNL     1     -23.754  41.901  -8.013  1.00  0.00     0.051 A 
ATOM     15  C   UNL     1     -22.414  41.492  -8.029  1.00  0.00     0.157 A 
ATOM     16  C   UNL     1     -23.017  39.516  -6.756  1.00  0.00     0.062 A 
ATOM     17  C   UNL     1     -22.044  40.295  -7.394  1.00  0.00     0.158 A 
BRANCH  15  18
ATOM     18  O   UNL     1     -21.451  42.272  -8.668  1.00  0.00    -0.504 OA
ATOM     19  H   UNL     1     -21.314  42.231  -9.671  1.00  0.00     0.293 HD
ENDBRANCH  15  18
BRANCH  17  20
ATOM     20  O   UNL     1     -20.718  39.864  -7.386  1.00  0.00    -0.504 OA
ATOM     21  H   UNL     1     -20.262  39.508  -8.218  1.00  0.00     0.293 HD
ENDBRANCH  17  20
ENDBRANCH   1  12
BRANCH   2  22
ATOM     22  O   UNL     1     -26.365  38.332  -8.141  1.00  0.00    -0.502 OA
ATOM     23  H   UNL     1     -26.232  39.173  -8.690  1.00  0.00     0.293 HD
ENDBRANCH   2  22
BRANCH   6  24
ATOM     24  O   UNL     1     -29.125  36.084  -4.349  1.00  0.00    -0.507 OA
ATOM     25  H   UNL     1     -30.011  36.500  -4.610  1.00  0.00     0.293 HD
ENDBRANCH   6  24
BRANCH   8  26
ATOM     26  O   UNL     1     -26.783  37.646  -0.411  1.00  0.00    -0.508 OA
ATOM     27  H   UNL     1     -25.872  37.598   0.028  1.00  0.00     0.293 HD
ENDBRANCH   8  26
TORSDOF 6
ENDMDL
MODEL 3
REMARK VINA RESULT:    -6.050      1.173      2.948
REMARK INTER + INTRA:          -7.541
REMARK INTER:                  -7.240
REMARK INTRA:                  -0.301
REMARK UNBOUND:                -0.253
REMARK SMILES O=c1c(O)c(-c2ccc(O)c(O)c2)oc2cc(O)cc(O)c12
REMARK SMILES IDX 5 1 3 2 2 3 1 4 22 5 20 6 19 7 17 8 16 9 15 10 14 11 6 12
REMARK SMILES IDX 7 13 8 14 9 15 13 16 11 17 10 18 12 20 4 22 21 24 18 26
REMARK H PARENT 10 19 12 21 4 23 21 25 18 27
REMARK Flexibility Score: inf
ROOT
ATOM      1  C   UNL     1     -13.976  37.785  -3.298  1.00  0.00     0.180 A 
ATOM      2  C   UNL     1     -13.084  38.606  -4.015  1.00  0.00     0.208 A 
ATOM      3  C   UNL     1     -11.846  38.078  -4.409  1.00  0.00     0.238 A 
ATOM      4  O   UNL     1     -11.043  38.800  -5.062  1.00  0.00    -0.285 OA
ATOM      5  C   UNL     1     -11.511  36.753  -4.066  1.00  0.00     0.111 A 
ATOM      6  C   UNL     1     -10.282  36.147  -4.423  1.00  0.00     0.134 A 
ATOM      7  C   UNL     1     -10.020  34.824  -4.035  1.00  0.00     0.093 A 
ATOM      8  C   UNL     1     -10.962  34.098  -3.299  1.00  0.00     0.123 A 
ATOM      9  C   UNL     1     -12.176  34.690  -2.945  1.00  0.00     0.094 A 
ATOM     10  C   UNL     1     -12.456  36.006  -3.323  1.00  0.00     0.146 A 
ATOM     11  O   UNL     1     -13.620  36.544  -2.978  1.00  0.00    -0.452 OA
ENDROOT
BRANCH   1  12
ATOM     12  C   UNL     1     -15.309  38.262  -2.863  1.00  0.00     0.025 A 
ATOM     13  C   UNL     1     -15.464  39.047  -1.706  1.00  0.00     0.016 A 
ATOM     14  C   UNL     1     -16.728  39.505  -1.329  1.00  0.00     0.051 A 
ATOM     15  C   UNL     1     -17.854  39.199  -2.106  1.00  0.00     0.157 A 
ATOM     16  C   UNL     1     -16.436  37.975  -3.649  1.00  0.00     0.062 A 
ATOM     17  C   UNL     1     -17.705  38.433  -3.274  1.00  0.00     0.158 A 
BRANCH  15  18
ATOM     18  O   UNL     1     -19.114  39.657  -1.725  1.00  0.00    -0.504 OA
ATOM     19  H   UNL     1     -19.255  40.163  -0.858  1.00  0.00     0.293 HD
ENDBRANCH  15  18
BRANCH  17  20
ATOM     20  O   UNL     1     -18.804  38.117  -4.072  1.00  0.00    -0.504 OA
ATOM     21  H   UNL     1     -19.302  37.240  -3.980  1.00  0.00     0.293 HD
ENDBRANCH  17  20
ENDBRANCH   1  12
BRANCH   2  22
ATOM     22  O   UNL     1     -13.420  39.932  -4.299  1.00  0.00    -0.502 OA
ATOM     23  H   UNL     1     -13.238  40.688  -3.650  1.00  0.00     0.293 HD
ENDBRANCH   2  22
BRANCH   6  24
ATOM     24  O   UNL     1      -9.322  36.847  -5.155  1.00  0.00    -0.507 OA
ATOM     25  H   UNL     1      -8.331  36.681  -5.030  1.00  0.00     0.293 HD
ENDBRANCH   6  24
BRANCH   8  26
ATOM     26  O   UNL     1     -10.702  32.784  -2.913  1.00  0.00    -0.508 OA
ATOM     27  H   UNL     1      -9.844  32.531  -2.438  1.00  0.00     0.293 HD
ENDBRANCH   8  26
TORSDOF 6
ENDMDL
MODEL 4
REMARK VINA RESULT:    -5.897     10.061     13.091
REMARK INTER + INTRA:          -7.356
REMARK INTER:                  -7.025
REMARK INTRA:                  -0.331
REMARK UNBOUND:                -0.253
REMARK SMILES O=c1c(O)c(-c2ccc(O)c(O)c2)oc2cc(O)cc(O)c12
REMARK SMILES IDX 5 1 3 2 2 3 1 4 22 5 20 6 19 7 17 8 16 9 15 10 14 11 6 12
REMARK SMILES IDX 7 13 8 14 9 15 13 16 11 17 10 18 12 20 4 22 21 24 18 26
REMARK H PARENT 10 19 12 21 4 23 21 25 18 27
REMARK Flexibility Score: inf
ROOT
ATOM      1  C   UNL     1     -26.102  39.393  -5.720  1.00  0.00     0.180 A 
ATOM      2  C   UNL     1     -26.672  40.502  -6.375  1.00  0.00     0.208 A 
ATOM      3  C   UNL     1     -25.858  41.295  -7.197  1.00  0.00     0.238 A 
ATOM      4  O   UNL     1     -26.360  42.284  -7.799  1.00  0.00    -0.285 OA
ATOM      5  C   UNL     1     -24.491  40.982  -7.335  1.00  0.00     0.111 A 
ATOM      6  C   UNL     1     -23.602  41.733  -8.143  1.00  0.00     0.134 A 
ATOM      7  C   UNL     1     -22.251  41.362  -8.221  1.00  0.00     0.093 A 
ATOM      8  C   UNL     1     -21.774  40.256  -7.508  1.00  0.00     0.123 A 
ATOM      9  C   UNL     1     -22.646  39.512  -6.712  1.00  0.00     0.094 A 
ATOM     10  C   UNL     1     -23.996  39.865  -6.622  1.00  0.00     0.146 A 
ATOM     11  O   UNL     1     -24.804  39.137  -5.862  1.00  0.00    -0.452 OA
ENDROOT
BRANCH   1  12
ATOM     12  C   UNL     1     -26.899  38.497  -4.851  1.00  0.00     0.025 A 
ATOM     13  C   UNL     1     -27.619  37.413  -5.381  1.00  0.00     0.016 A 
ATOM     14  C   UNL     1     -28.344  36.567  -4.538  1.00  0.00     0.051 A 
ATOM     15  C   UNL     1     -28.351  36.783  -3.154  1.00  0.00     0.157 A 
ATOM     16  C   UNL     1     -26.891  38.697  -3.461  1.00  0.00     0.062 A 
ATOM     17  C   UNL     1     -27.617  37.852  -2.613  1.00  0.00     0.158 A 
BRANCH  15  18
ATOM     18  O   UNL     1     -29.077  35.937  -2.317  1.00  0.00    -0.504 OA
ATOM     19  H   UNL     1     -29.408  35.033  -2.632  1.00  0.00     0.293 HD
ENDBRANCH  15  18
BRANCH  17  20
ATOM     20  O   UNL     1     -27.597  38.089  -1.239  1.00  0.00    -0.504 OA
ATOM     21  H   UNL     1     -28.211  37.600  -0.599  1.00  0.00     0.293 HD
ENDBRANCH  17  20
ENDBRANCH   1  12
BRANCH   2  22
ATOM     22  O   UNL     1     -28.018  40.819  -6.182  1.00  0.00    -0.502 OA
ATOM     23  H   UNL     1     -28.465  40.760  -5.274  1.00  0.00     0.293 HD
ENDBRANCH   2  22
BRANCH   6  24
ATOM     24  O   UNL     1     -24.048  42.842  -8.863  1.00  0.00    -0.507 OA
ATOM     25  H   UNL     1     -24.992  42.896  -9.228  1.00  0.00     0.293 HD
ENDBRANCH   6  24
BRANCH   8  26
ATOM     26  O   UNL     1     -20.432  39.888  -7.586  1.00  0.00    -0.508 OA
ATOM     27  H   UNL     1     -19.707  40.425  -7.124  1.00  0.00     0.293 HD
ENDBRANCH   8  26
TORSDOF 6
ENDMDL
MODEL 5
REMARK VINA RESULT:    -5.896      2.092      7.419
REMARK INTER + INTRA:          -7.355
REMARK INTER:                  -7.143
REMARK INTRA:                  -0.212
REMARK UNBOUND:                -0.253
REMARK SMILES O=c1c(O)c(-c2ccc(O)c(O)c2)oc2cc(O)cc(O)c12
REMARK SMILES IDX 5 1 3 2 2 3 1 4 22 5 20 6 19 7 17 8 16 9 15 10 14 11 6 12
REMARK SMILES IDX 7 13 8 14 9 15 13 16 11 17 10 18 12 20 4 22 21 24 18 26
REMARK H PARENT 10 19 12 21 4 23 21 25 18 27
REMARK Flexibility Score: inf
ROOT
ATOM      1  C   UNL     1     -14.790  36.578  -1.682  1.00  0.00     0.180 A 
ATOM      2  C   UNL     1     -15.296  37.435  -2.679  1.00  0.00     0.208 A 
ATOM      3  C   UNL     1     -16.273  38.379  -2.330  1.00  0.00     0.238 A 
ATOM      4  O   UNL     1     -16.726  39.159  -3.212  1.00  0.00    -0.285 OA
ATOM      5  C   UNL     1     -16.742  38.439  -1.002  1.00  0.00     0.111 A 
ATOM      6  C   UNL     1     -17.727  39.360  -0.569  1.00  0.00     0.134 A 
ATOM      7  C   UNL     1     -18.147  39.351   0.770  1.00  0.00     0.093 A 
ATOM      8  C   UNL     1     -17.602  38.440   1.681  1.00  0.00     0.123 A 
ATOM      9  C   UNL     1     -16.630  37.531   1.260  1.00  0.00     0.094 A 
ATOM     10  C   UNL     1     -16.197  37.526  -0.069  1.00  0.00     0.146 A 
ATOM     11  O   UNL     1     -15.267  36.654  -0.442  1.00  0.00    -0.452 OA
ENDROOT
BRANCH   1  12
ATOM     12  C   UNL     1     -13.745  35.569  -1.967  1.00  0.00     0.025 A 
ATOM     13  C   UNL     1     -14.040  34.195  -1.986  1.00  0.00     0.016 A 
ATOM     14  C   UNL     1     -13.043  33.262  -2.280  1.00  0.00     0.051 A 
ATOM     15  C   UNL     1     -11.740  33.688  -2.573  1.00  0.00     0.157 A 
ATOM     16  C   UNL     1     -12.443  35.992  -2.281  1.00  0.00     0.062 A 
ATOM     17  C   UNL     1     -11.441  35.060  -2.577  1.00  0.00     0.158 A 
BRANCH  15  18
ATOM     18  O   UNL     1     -10.747  32.754  -2.865  1.00  0.00    -0.504 OA
ATOM     19  H   UNL     1     -10.251  32.766  -3.749  1.00  0.00     0.293 HD
ENDBRANCH  15  18
BRANCH  17  20
ATOM     20  O   UNL     1     -10.157  35.517  -2.871  1.00  0.00    -0.504 OA
ATOM     21  H   UNL     1      -9.994  36.347  -3.427  1.00  0.00     0.293 HD
ENDBRANCH  17  20
ENDBRANCH   1  12
BRANCH   2  22
ATOM     22  O   UNL     1     -14.851  37.321  -3.998  1.00  0.00    -0.502 OA
ATOM     23  H   UNL     1     -14.122  37.913  -4.377  1.00  0.00     0.293 HD
ENDBRANCH   2  22
BRANCH   6  24
ATOM     24  O   UNL     1     -18.290  40.279  -1.455  1.00  0.00    -0.507 OA
ATOM     25  H   UNL     1     -19.107  40.825  -1.209  1.00  0.00     0.293 HD
ENDBRANCH   6  24
BRANCH   8  26
ATOM     26  O   UNL     1     -18.020  38.431   3.011  1.00  0.00    -0.508 OA
ATOM     27  H   UNL     1     -17.356  38.461   3.775  1.00  0.00     0.293 HD
ENDBRANCH   8  26
TORSDOF 6
ENDMDL
MODEL 6
REMARK VINA RESULT:    -5.872     11.875     13.884
REMARK INTER + INTRA:          -7.326
REMARK INTER:                  -7.040
REMARK INTRA:                  -0.287
REMARK UNBOUND:                -0.253
REMARK SMILES O=c1c(O)c(-c2ccc(O)c(O)c2)oc2cc(O)cc(O)c12
REMARK SMILES IDX 5 1 3 2 2 3 1 4 22 5 20 6 19 7 17 8 16 9 15 10 14 11 6 12
REMARK SMILES IDX 7 13 8 14 9 15 13 16 11 17 10 18 12 20 4 22 21 24 18 26
REMARK H PARENT 10 19 12 21 4 23 21 25 18 27
REMARK Flexibility Score: inf
ROOT
ATOM      1  C   UNL     1     -25.939  32.647   0.661  1.00  0.00     0.180 A 
ATOM      2  C   UNL     1     -25.172  31.710   1.379  1.00  0.00     0.208 A 
ATOM      3  C   UNL     1     -25.249  30.355   1.022  1.00  0.00     0.238 A 
ATOM      4  O   UNL     1     -24.559  29.508   1.651  1.00  0.00    -0.285 OA
ATOM      5  C   UNL     1     -26.102  29.958  -0.028  1.00  0.00     0.111 A 
ATOM      6  C   UNL     1     -26.239  28.613  -0.447  1.00  0.00     0.134 A 
ATOM      7  C   UNL     1     -27.117  28.297  -1.496  1.00  0.00     0.093 A 
ATOM      8  C   UNL     1     -27.858  29.299  -2.131  1.00  0.00     0.123 A 
ATOM      9  C   UNL     1     -27.725  30.628  -1.722  1.00  0.00     0.094 A 
ATOM     10  C   UNL     1     -26.855  30.962  -0.680  1.00  0.00     0.146 A 
ATOM     11  O   UNL     1     -26.745  32.234  -0.315  1.00  0.00    -0.452 OA
ENDROOT
BRANCH   1  12
ATOM     12  C   UNL     1     -25.899  34.096   0.964  1.00  0.00     0.025 A 
ATOM     13  C   UNL     1     -26.591  34.634   2.063  1.00  0.00     0.016 A 
ATOM     14  C   UNL     1     -26.518  36.000   2.343  1.00  0.00     0.051 A 
ATOM     15  C   UNL     1     -25.743  36.848   1.540  1.00  0.00     0.157 A 
ATOM     16  C   UNL     1     -25.107  34.945   0.174  1.00  0.00     0.062 A 
ATOM     17  C   UNL     1     -25.032  36.316   0.452  1.00  0.00     0.158 A 
BRANCH  15  18
ATOM     18  O   UNL     1     -25.675  38.211   1.822  1.00  0.00    -0.504 OA
ATOM     19  H   UNL     1     -25.255  38.867   1.173  1.00  0.00     0.293 HD
ENDBRANCH  15  18
BRANCH  17  20
ATOM     20  O   UNL     1     -24.247  37.131  -0.363  1.00  0.00    -0.504 OA
ATOM     21  H   UNL     1     -24.496  38.091  -0.564  1.00  0.00     0.293 HD
ENDBRANCH  17  20
ENDBRANCH   1  12
BRANCH   2  22
ATOM     22  O   UNL     1     -24.374  32.123   2.447  1.00  0.00    -0.502 OA
ATOM     23  H   UNL     1     -24.694  32.091   3.408  1.00  0.00     0.293 HD
ENDBRANCH   2  22
BRANCH   6  24
ATOM     24  O   UNL     1     -25.515  27.591   0.168  1.00  0.00    -0.507 OA
ATOM     25  H   UNL     1     -24.692  27.187  -0.262  1.00  0.00     0.293 HD
ENDBRANCH   6  24
BRANCH   8  26
ATOM     26  O   UNL     1     -28.730  28.986  -3.172  1.00  0.00    -0.508 OA
ATOM     27  H   UNL     1     -28.964  29.662  -3.889  1.00  0.00     0.293 HD
ENDBRANCH   8  26
TORSDOF 6
ENDMDL
MODEL 7
REMARK VINA RESULT:    -5.871      2.572      7.332
REMARK INTER + INTRA:          -7.325
REMARK INTER:                  -6.993
REMARK INTRA:                  -0.332
REMARK UNBOUND:                -0.253
REMARK SMILES O=c1c(O)c(-c2ccc(O)c(O)c2)oc2cc(O)cc(O)c12
REMARK SMILES IDX 5 1 3 2 2 3 1 4 22 5 20 6 19 7 17 8 16 9 15 10 14 11 6 12
REMARK SMILES IDX 7 13 8 14 9 15 13 16 11 17 10 18 12 20 4 22 21 24 18 26
REMARK H PARENT 10 19 12 21 4 23 21 25 18 27
REMARK Flexibility Score: inf
ROOT
ATOM      1  C   UNL     1     -14.677  36.045  -0.410  1.00  0.00     0.180 A 
ATOM      2  C   UNL     1     -14.957  35.996   0.970  1.00  0.00     0.208 A 
ATOM      3  C   UNL     1     -15.943  36.846   1.492  1.00  0.00     0.238 A 
ATOM      4  O   UNL     1     -16.211  36.803   2.724  1.00  0.00    -0.285 OA
ATOM      5  C   UNL     1     -16.617  37.741   0.637  1.00  0.00     0.111 A 
ATOM      6  C   UNL     1     -17.621  38.633   1.085  1.00  0.00     0.134 A 
ATOM      7  C   UNL     1     -18.239  39.500   0.171  1.00  0.00     0.093 A 
ATOM      8  C   UNL     1     -17.872  39.493  -1.179  1.00  0.00     0.123 A 
ATOM      9  C   UNL     1     -16.883  38.615  -1.626  1.00  0.00     0.094 A 
ATOM     10  C   UNL     1     -16.256  37.742  -0.731  1.00  0.00     0.146 A 
ATOM     11  O   UNL     1     -15.323  36.914  -1.184  1.00  0.00    -0.452 OA
ENDROOT
BRANCH   1  12
ATOM     12  C   UNL     1     -13.665  35.168  -1.040  1.00  0.00     0.025 A 
ATOM     13  C   UNL     1     -14.000  33.890  -1.521  1.00  0.00     0.016 A 
ATOM     14  C   UNL     1     -13.033  33.090  -2.133  1.00  0.00     0.051 A 
ATOM     15  C   UNL     1     -11.721  33.557  -2.286  1.00  0.00     0.157 A 
ATOM     16  C   UNL     1     -12.353  35.640  -1.213  1.00  0.00     0.062 A 
ATOM     17  C   UNL     1     -11.381  34.840  -1.826  1.00  0.00     0.158 A 
BRANCH  15  18
ATOM     18  O   UNL     1     -10.758  32.754  -2.896  1.00  0.00    -0.504 OA
ATOM     19  H   UNL     1     -11.001  31.875  -3.337  1.00  0.00     0.293 HD
ENDBRANCH  15  18
BRANCH  17  20
ATOM     20  O   UNL     1     -10.086  35.337  -1.969  1.00  0.00    -0.504 OA
ATOM     21  H   UNL     1      -9.560  35.704  -1.185  1.00  0.00     0.293 HD
ENDBRANCH  17  20
ENDBRANCH   1  12
BRANCH   2  22
ATOM     22  O   UNL     1     -14.240  35.135   1.804  1.00  0.00    -0.502 OA
ATOM     23  H   UNL     1     -14.539  34.184   1.987  1.00  0.00     0.293 HD
ENDBRANCH   2  22
BRANCH   6  24
ATOM     24  O   UNL     1     -18.008  38.665   2.425  1.00  0.00    -0.507 OA
ATOM     25  H   UNL     1     -18.125  37.817   2.967  1.00  0.00     0.293 HD
ENDBRANCH   6  24
BRANCH   8  26
ATOM     26  O   UNL     1     -18.485  40.355  -2.086  1.00  0.00    -0.508 OA
ATOM     27  H   UNL     1     -18.787  40.036  -2.999  1.00  0.00     0.293 HD
ENDBRANCH   8  26
TORSDOF 6
ENDMDL
MODEL 8
REMARK VINA RESULT:    -5.870      4.299      7.511
REMARK INTER + INTRA:          -7.324
REMARK INTER:                  -7.140
REMARK INTRA:                  -0.185
REMARK UNBOUND:                -0.253
REMARK SMILES O=c1c(O)c(-c2ccc(O)c(O)c2)oc2cc(O)cc(O)c12
REMARK SMILES IDX 5 1 3 2 2 3 1 4 22 5 20 6 19 7 17 8 16 9 15 10 14 11 6 12
REMARK SMILES IDX 7 13 8 14 9 15 13 16 11 17 10 18 12 20 4 22 21 24 18 26
REMARK H PARENT 10 19 12 21 4 23 21 25 18 27
REMARK Flexibility Score: inf
ROOT
ATOM      1  C   UNL     1     -15.343  36.428   0.858  1.00  0.00     0.180 A 
ATOM      2  C   UNL     1     -15.939  37.343   1.748  1.00  0.00     0.208 A 
ATOM      3  C   UNL     1     -16.799  38.326   1.235  1.00  0.00     0.238 A 
ATOM      4  O   UNL     1     -17.347  39.144   2.023  1.00  0.00    -0.285 OA
ATOM      5  C   UNL     1     -17.034  38.390  -0.154  1.00  0.00     0.111 A 
ATOM      6  C   UNL     1     -17.885  39.352  -0.751  1.00  0.00     0.134 A 
ATOM      7  C   UNL     1     -18.060  39.356  -2.144  1.00  0.00     0.093 A 
ATOM      8  C   UNL     1     -17.402  38.419  -2.947  1.00  0.00     0.123 A 
ATOM      9  C   UNL     1     -16.563  37.469  -2.363  1.00  0.00     0.094 A 
ATOM     10  C   UNL     1     -16.376  37.447  -0.978  1.00  0.00     0.146 A 
ATOM     11  O   UNL     1     -15.577  36.529  -0.448  1.00  0.00    -0.452 OA
ENDROOT
BRANCH   1  12
ATOM     12  C   UNL     1     -14.440  35.352   1.324  1.00  0.00     0.025 A 
ATOM     13  C   UNL     1     -13.188  35.642   1.895  1.00  0.00     0.016 A 
ATOM     14  C   UNL     1     -12.363  34.611   2.349  1.00  0.00     0.051 A 
ATOM     15  C   UNL     1     -12.779  33.276   2.252  1.00  0.00     0.157 A 
ATOM     16  C   UNL     1     -14.861  34.014   1.247  1.00  0.00     0.062 A 
ATOM     17  C   UNL     1     -14.036  32.977   1.701  1.00  0.00     0.158 A 
BRANCH  15  18
ATOM     18  O   UNL     1     -11.952  32.249   2.704  1.00  0.00    -0.504 OA
ATOM     19  H   UNL     1     -12.182  31.706   3.528  1.00  0.00     0.293 HD
ENDBRANCH  15  18
BRANCH  17  20
ATOM     20  O   UNL     1     -14.482  31.661   1.596  1.00  0.00    -0.504 OA
ATOM     21  H   UNL     1     -15.119  31.364   0.866  1.00  0.00     0.293 HD
ENDBRANCH  17  20
ENDBRANCH   1  12
BRANCH   2  22
ATOM     22  O   UNL     1     -15.650  37.288   3.113  1.00  0.00    -0.502 OA
ATOM     23  H   UNL     1     -15.959  38.002   3.762  1.00  0.00     0.293 HD
ENDBRANCH   2  22
BRANCH   6  24
ATOM     24  O   UNL     1     -18.554  40.300   0.024  1.00  0.00    -0.507 OA
ATOM     25  H   UNL     1     -18.115  41.171   0.298  1.00  0.00     0.293 HD
ENDBRANCH   6  24
BRANCH   8  26
ATOM     26  O   UNL     1     -17.575  38.424  -4.330  1.00  0.00    -0.508 OA
ATOM     27  H   UNL     1     -17.345  39.235  -4.890  1.00  0.00     0.293 HD
ENDBRANCH   8  26
TORSDOF 6
ENDMDL
MODEL 9
REMARK VINA RESULT:    -5.809     11.151     13.297
REMARK INTER + INTRA:          -7.250
REMARK INTER:                  -7.008
REMARK INTRA:                  -0.242
REMARK UNBOUND:                -0.253
REMARK SMILES O=c1c(O)c(-c2ccc(O)c(O)c2)oc2cc(O)cc(O)c12
REMARK SMILES IDX 5 1 3 2 2 3 1 4 22 5 20 6 19 7 17 8 16 9 15 10 14 11 6 12
REMARK SMILES IDX 7 13 8 14 9 15 13 16 11 17 10 18 12 20 4 22 21 24 18 26
REMARK H PARENT 10 19 12 21 4 23 21 25 18 27
REMARK Flexibility Score: inf
ROOT
ATOM      1  C   UNL     1     -25.665  39.809  -6.311  1.00  0.00     0.180 A 
ATOM      2  C   UNL     1     -26.510  40.903  -6.581  1.00  0.00     0.208 A 
ATOM      3  C   UNL     1     -25.996  41.997  -7.293  1.00  0.00     0.238 A 
ATOM      4  O   UNL     1     -26.747  42.978  -7.550  1.00  0.00    -0.285 OA
ATOM      5  C   UNL     1     -24.648  41.990  -7.706  1.00  0.00     0.111 A 
ATOM      6  C   UNL     1     -24.054  43.054  -8.425  1.00  0.00     0.134 A 
ATOM      7  C   UNL     1     -22.701  42.975  -8.793  1.00  0.00     0.093 A 
ATOM      8  C   UNL     1     -21.936  41.854  -8.454  1.00  0.00     0.123 A 
ATOM      9  C   UNL     1     -22.518  40.801  -7.746  1.00  0.00     0.094 A 
ATOM     10  C   UNL     1     -23.864  40.861  -7.372  1.00  0.00     0.146 A 
ATOM     11  O   UNL     1     -24.394  39.844  -6.703  1.00  0.00    -0.452 OA
ENDROOT
BRANCH   1  12
ATOM     12  C   UNL     1     -26.137  38.610  -5.582  1.00  0.00     0.025 A 
ATOM     13  C   UNL     1     -25.767  38.372  -4.247  1.00  0.00     0.016 A 
ATOM     14  C   UNL     1     -26.245  37.246  -3.572  1.00  0.00     0.051 A 
ATOM     15  C   UNL     1     -27.108  36.349  -4.215  1.00  0.00     0.157 A 
ATOM     16  C   UNL     1     -27.019  37.719  -6.215  1.00  0.00     0.062 A 
ATOM     17  C   UNL     1     -27.499  36.589  -5.542  1.00  0.00     0.158 A 
BRANCH  15  18
ATOM     18  O   UNL     1     -27.581  35.225  -3.538  1.00  0.00    -0.504 OA
ATOM     19  H   UNL     1     -27.874  35.273  -2.569  1.00  0.00     0.293 HD
ENDBRANCH  15  18
BRANCH  17  20
ATOM     20  O   UNL     1     -28.363  35.719  -6.207  1.00  0.00    -0.504 OA
ATOM     21  H   UNL     1     -28.023  34.958  -6.782  1.00  0.00     0.293 HD
ENDBRANCH  17  20
ENDBRANCH   1  12
BRANCH   2  22
ATOM     22  O   UNL     1     -27.828  40.906  -6.117  1.00  0.00    -0.502 OA
ATOM     23  H   UNL     1     -28.415  40.082  -6.147  1.00  0.00     0.293 HD
ENDBRANCH   2  22
BRANCH   6  24
ATOM     24  O   UNL     1     -24.791  44.186  -8.776  1.00  0.00    -0.507 OA
ATOM     25  H   UNL     1     -25.311  44.236  -9.643  1.00  0.00     0.293 HD
ENDBRANCH   6  24
BRANCH   8  26
ATOM     26  O   UNL     1     -20.593  41.775  -8.818  1.00  0.00    -0.508 OA
ATOM     27  H   UNL     1     -19.942  41.181  -8.320  1.00  0.00     0.293 HD
ENDBRANCH   8  26
TORSDOF 6
ENDMDL
