MODEL 1
REMARK VINA RESULT:    -5.464      0.000      0.000
REMARK INTER + INTRA:         -11.668
REMARK INTER:                  -9.936
REMARK INTRA:                  -1.731
REMARK UNBOUND:                -1.731
REMARK SMILES CCCCCCCCCCCCCCCC(=O)[O-]
REMARK SMILES IDX 9 1 10 2 11 3 12 4 13 5 14 6 15 7 16 8 17 9 18 10 8 11 7 12
REMARK SMILES IDX 6 13 5 14 4 15 3 16 2 17 1 18
REMARK H PARENT
REMARK Flexibility Score: inf
ROOT
ATOM      1  C   UNL     1      14.407  -6.492  13.375  1.00  0.00     0.000 C 
ENDROOT
BRANCH   1   2
ATOM      2  C   UNL     1      15.369  -5.999  12.274  1.00  0.00     0.000 C 
BRANCH   2   3
ATOM      3  C   UNL     1      16.834  -6.439  12.442  1.00  0.00     0.000 C 
BRANCH   3   4
ATOM      4  C   UNL     1      17.804  -5.627  11.571  1.00  0.00     0.000 C 
BRANCH   4   5
ATOM      5  C   UNL     1      18.789  -4.834  12.437  1.00  0.00     0.000 C 
BRANCH   5   6
ATOM      6  C   UNL     1      18.062  -4.130  13.593  1.00  0.00     0.006 C 
BRANCH   6   7
ATOM      7  C   UNL     1      17.497  -2.765  13.178  1.00  0.00     0.053 C 
BRANCH   7   8
ATOM      8  C   UNL     1      18.414  -1.645  13.563  1.00  0.00     0.041 C 
ATOM      9  O   UNL     1      19.482  -1.884  14.187  1.00  0.00    -0.550 OA
ATOM     10  O   UNL     1      18.106  -0.339  13.202  1.00  0.00    -0.550 OA
ENDBRANCH   7   8
ENDBRANCH   6   7
ENDBRANCH   5   6
ENDBRANCH   4   5
ENDBRANCH   3   4
ENDBRANCH   2   3
ENDBRANCH   1   2
BRANCH   1  11
ATOM     11  C   UNL     1      15.085  -7.001  14.660  1.00  0.00     0.000 C 
BRANCH  11  12
ATOM     12  C   UNL     1      14.789  -6.115  15.882  1.00  0.00    -0.000 C 
BRANCH  12  13
ATOM     13  C   UNL     1      14.833  -4.615  15.547  1.00  0.00    -0.000 C 
BRANCH  13  14
ATOM     14  C   UNL     1      14.201  -3.746  16.648  1.00  0.00    -0.000 C 
BRANCH  14  15
ATOM     15  C   UNL     1      15.244  -2.929  17.427  1.00  0.00    -0.000 C 
BRANCH  15  16
ATOM     16  C   UNL     1      16.528  -2.681  16.620  1.00  0.00    -0.000 C 
BRANCH  16  17
ATOM     17  C   UNL     1      17.759  -3.187  17.381  1.00  0.00    -0.003 C 
ATOM     18  C   UNL     1      17.627  -2.930  18.879  1.00  0.00     0.004 C 
ENDBRANCH  16  17
ENDBRANCH  15  16
ENDBRANCH  14  15
ENDBRANCH  13  14
ENDBRANCH  12  13
ENDBRANCH  11  12
ENDBRANCH   1  11
TORSDOF 14
ENDMDL
MODEL 2
REMARK VINA RESULT:    -5.454      1.726      2.832
REMARK INTER + INTRA:         -11.648
REMARK INTER:                  -9.661
REMARK INTRA:                  -1.987
REMARK UNBOUND:                -1.731
REMARK SMILES CCCCCCCCCCCCCCCC(=O)[O-]
REMARK SMILES IDX 9 1 10 2 11 3 12 4 13 5 14 6 15 7 16 8 17 9 18 10 8 11 7 12
REMARK SMILES IDX 6 13 5 14 4 15 3 16 2 17 1 18
REMARK H PARENT
REMARK Flexibility Score: inf
ROOT
ATOM      1  C   UNL     1      15.430  -5.006  11.862  1.00  0.00     0.000 C 
ENDROOT
BRANCH   1   2
ATOM      2  C   UNL     1      16.496  -5.623  10.932  1.00  0.00     0.000 C 
BRANCH   2   3
ATOM      3  C   UNL     1      17.916  -5.692  11.521  1.00  0.00     0.000 C 
BRANCH   3   4
ATOM      4  C   UNL     1      18.070  -4.865  12.806  1.00  0.00     0.000 C 
BRANCH   4   5
ATOM      5  C   UNL     1      19.241  -3.883  12.691  1.00  0.00     0.000 C 
BRANCH   5   6
ATOM      6  C   UNL     1      19.106  -2.743  13.710  1.00  0.00     0.006 C 
BRANCH   6   7
ATOM      7  C   UNL     1      17.642  -2.361  13.963  1.00  0.00     0.053 C 
BRANCH   7   8
ATOM      8  C   UNL     1      17.217  -1.199  13.117  1.00  0.00     0.041 C 
ATOM      9  O   UNL     1      16.229  -1.306  12.344  1.00  0.00    -0.550 OA
ATOM     10  O   UNL     1      17.892   0.011  13.209  1.00  0.00    -0.550 OA
ENDBRANCH   7   8
ENDBRANCH   6   7
ENDBRANCH   5   6
ENDBRANCH   4   5
ENDBRANCH   3   4
ENDBRANCH   2   3
ENDBRANCH   1   2
BRANCH   1  11
ATOM     11  C   UNL     1      14.129  -5.818  11.996  1.00  0.00     0.000 C 
BRANCH  11  12
ATOM     12  C   UNL     1      14.032  -6.572  13.333  1.00  0.00    -0.000 C 
BRANCH  12  13
ATOM     13  C   UNL     1      15.380  -7.167  13.773  1.00  0.00    -0.000 C 
BRANCH  13  14
ATOM     14  C   UNL     1      15.813  -6.680  15.166  1.00  0.00    -0.000 C 
BRANCH  14  15
ATOM     15  C   UNL     1      14.721  -5.860  15.871  1.00  0.00    -0.000 C 
BRANCH  15  16
ATOM     16  C   UNL     1      15.084  -4.373  16.002  1.00  0.00    -0.000 C 
BRANCH  16  17
ATOM     17  C   UNL     1      13.822  -3.505  16.075  1.00  0.00    -0.003 C 
ATOM     18  C   UNL     1      13.389  -3.041  14.688  1.00  0.00     0.004 C 
ENDBRANCH  16  17
ENDBRANCH  15  16
ENDBRANCH  14  15
ENDBRANCH  13  14
ENDBRANCH  12  13
ENDBRANCH  11  12
ENDBRANCH   1  11
TORSDOF 14
ENDMDL
MODEL 3
REMARK VINA RESULT:    -5.451      2.441      5.136
REMARK INTER + INTRA:         -11.644
REMARK INTER:                  -9.667
REMARK INTRA:                  -1.977
REMARK UNBOUND:                -1.731
REMARK SMILES CCCCCCCCCCCCCCCC(=O)[O-]
REMARK SMILES IDX 9 1 10 2 11 3 12 4 13 5 14 6 15 7 16 8 17 9 18 10 8 11 7 12
REMARK SMILES IDX 6 13 5 14 4 15 3 16 2 17 1 18
REMARK H PARENT
REMARK Flexibility Score: inf
ROOT
ATOM      1  C   UNL     1      16.887  -5.777  15.867  1.00  0.00     0.000 C 
ENDROOT
BRANCH   1   2
ATOM      2  C   UNL     1      16.996  -4.417  16.587  1.00  0.00     0.000 C 
BRANCH   2   3
ATOM      3  C   UNL     1      15.973  -3.358  16.141  1.00  0.00     0.000 C 
BRANCH   3   4
ATOM      4  C   UNL     1      14.808  -3.199  17.129  1.00  0.00     0.000 C 
BRANCH   4   5
ATOM      5  C   UNL     1      13.463  -3.445  16.436  1.00  0.00     0.000 C 
BRANCH   5   6
ATOM      6  C   UNL     1      13.607  -3.361  14.909  1.00  0.00     0.006 C 
BRANCH   6   7
ATOM      7  C   UNL     1      12.565  -2.430  14.277  1.00  0.00     0.053 C 
BRANCH   7   8
ATOM      8  C   UNL     1      12.919  -2.076  12.865  1.00  0.00     0.041 C 
ATOM      9  O   UNL     1      13.761  -1.170  12.630  1.00  0.00    -0.550 OA
ATOM     10  O   UNL     1      12.345  -2.773  11.809  1.00  0.00    -0.550 OA
ENDBRANCH   7   8
ENDBRANCH   6   7
ENDBRANCH   5   6
ENDBRANCH   4   5
ENDBRANCH   3   4
ENDBRANCH   2   3
ENDBRANCH   1   2
BRANCH   1  11
ATOM     11  C   UNL     1      15.522  -6.480  15.994  1.00  0.00     0.000 C 
BRANCH  11  12
ATOM     12  C   UNL     1      14.891  -6.807  14.631  1.00  0.00    -0.000 C 
BRANCH  12  13
ATOM     13  C   UNL     1      15.944  -7.043  13.535  1.00  0.00    -0.000 C 
BRANCH  13  14
ATOM     14  C   UNL     1      15.931  -5.945  12.459  1.00  0.00    -0.000 C 
BRANCH  14  15
ATOM     15  C   UNL     1      17.191  -5.967  11.578  1.00  0.00    -0.000 C 
BRANCH  15  16
ATOM     16  C   UNL     1      18.393  -5.278  12.242  1.00  0.00    -0.000 C 
BRANCH  16  17
ATOM     17  C   UNL     1      17.971  -3.967  12.914  1.00  0.00    -0.003 C 
ATOM     18  C   UNL     1      19.110  -3.379  13.742  1.00  0.00     0.004 C 
ENDBRANCH  16  17
ENDBRANCH  15  16
ENDBRANCH  14  15
ENDBRANCH  13  14
ENDBRANCH  12  13
ENDBRANCH  11  12
ENDBRANCH   1  11
TORSDOF 14
ENDMDL
MODEL 4
REMARK VINA RESULT:    -5.440      2.874      4.178
REMARK INTER + INTRA:         -11.623
REMARK INTER:                  -9.270
REMARK INTRA:                  -2.353
REMARK UNBOUND:                -1.731
REMARK SMILES CCCCCCCCCCCCCCCC(=O)[O-]
REMARK SMILES IDX 9 1 10 2 11 3 12 4 13 5 14 6 15 7 16 8 17 9 18 10 8 11 7 12
REMARK SMILES IDX 6 13 5 14 4 15 3 16 2 17 1 18
REMARK H PARENT
REMARK Flexibility Score: inf
ROOT
ATOM      1  C   UNL     1      16.786  -2.359  13.594  1.00  0.00     0.000 C 
ENDROOT
BRANCH   1   2
ATOM      2  C   UNL     1      18.152  -2.621  12.927  1.00  0.00     0.000 C 
BRANCH   2   3
ATOM      3  C   UNL     1      18.684  -4.058  13.068  1.00  0.00     0.000 C 
BRANCH   3   4
ATOM      4  C   UNL     1      17.583  -5.119  12.923  1.00  0.00     0.000 C 
BRANCH   4   5
ATOM      5  C   UNL     1      17.772  -5.935  11.640  1.00  0.00     0.000 C 
BRANCH   5   6
ATOM      6  C   UNL     1      16.681  -5.604  10.610  1.00  0.00     0.006 C 
BRANCH   6   7
ATOM      7  C   UNL     1      15.286  -5.534  11.244  1.00  0.00     0.053 C 
BRANCH   7   8
ATOM      8  C   UNL     1      14.223  -5.281  10.220  1.00  0.00     0.041 C 
ATOM      9  O   UNL     1      14.315  -5.788   9.071  1.00  0.00    -0.550 OA
ATOM     10  O   UNL     1      13.111  -4.514  10.546  1.00  0.00    -0.550 OA
ENDBRANCH   7   8
ENDBRANCH   6   7
ENDBRANCH   5   6
ENDBRANCH   4   5
ENDBRANCH   3   4
ENDBRANCH   2   3
ENDBRANCH   1   2
BRANCH   1  11
ATOM     11  C   UNL     1      15.630  -2.052  12.623  1.00  0.00     0.000 C 
BRANCH  11  12
ATOM     12  C   UNL     1      14.246  -2.301  13.246  1.00  0.00    -0.000 C 
BRANCH  12  13
ATOM     13  C   UNL     1      14.195  -3.601  14.066  1.00  0.00    -0.000 C 
BRANCH  13  14
ATOM     14  C   UNL     1      13.631  -3.383  15.481  1.00  0.00    -0.000 C 
BRANCH  14  15
ATOM     15  C   UNL     1      14.636  -3.759  16.581  1.00  0.00    -0.000 C 
BRANCH  15  16
ATOM     16  C   UNL     1      15.681  -4.781  16.109  1.00  0.00    -0.000 C 
BRANCH  16  17
ATOM     17  C   UNL     1      17.096  -4.337  16.496  1.00  0.00    -0.003 C 
ATOM     18  C   UNL     1      17.064  -3.070  17.345  1.00  0.00     0.004 C 
ENDBRANCH  16  17
ENDBRANCH  15  16
ENDBRANCH  14  15
ENDBRANCH  13  14
ENDBRANCH  12  13
ENDBRANCH  11  12
ENDBRANCH   1  11
TORSDOF 14
ENDMDL
MODEL 5
REMARK VINA RESULT:    -5.436      2.935      4.844
REMARK INTER + INTRA:         -11.616
REMARK INTER:                  -9.628
REMARK INTRA:                  -1.988
REMARK UNBOUND:                -1.731
REMARK SMILES CCCCCCCCCCCCCCCC(=O)[O-]
REMARK SMILES IDX 9 1 10 2 11 3 12 4 13 5 14 6 15 7 16 8 17 9 18 10 8 11 7 12
REMARK SMILES IDX 6 13 5 14 4 15 3 16 2 17 1 18
REMARK H PARENT
REMARK Flexibility Score: inf
ROOT
ATOM      1  C   UNL     1      13.649  -3.620  14.999  1.00  0.00     0.000 C 
ENDROOT
BRANCH   1   2
ATOM      2  C   UNL     1      12.621  -2.591  14.485  1.00  0.00     0.000 C 
BRANCH   2   3
ATOM      3  C   UNL     1      12.984  -1.913  13.152  1.00  0.00     0.000 C 
BRANCH   3   4
ATOM      4  C   UNL     1      13.744  -2.844  12.197  1.00  0.00     0.000 C 
BRANCH   4   5
ATOM      5  C   UNL     1      12.773  -3.706  11.381  1.00  0.00     0.000 C 
BRANCH   5   6
ATOM      6  C   UNL     1      13.495  -4.910  10.759  1.00  0.00     0.006 C 
BRANCH   6   7
ATOM      7  C   UNL     1      14.754  -5.301  11.544  1.00  0.00     0.053 C 
BRANCH   7   8
ATOM      8  C   UNL     1      15.926  -5.527  10.638  1.00  0.00     0.041 C 
ATOM      9  O   UNL     1      15.770  -5.533   9.388  1.00  0.00    -0.550 OA
ATOM     10  O   UNL     1      17.196  -5.694  11.173  1.00  0.00    -0.550 OA
ENDBRANCH   7   8
ENDBRANCH   6   7
ENDBRANCH   5   6
ENDBRANCH   4   5
ENDBRANCH   3   4
ENDBRANCH   2   3
ENDBRANCH   1   2
BRANCH   1  11
ATOM     11  C   UNL     1      13.767  -3.721  16.531  1.00  0.00     0.000 C 
BRANCH  11  12
ATOM     12  C   UNL     1      15.038  -3.048  17.077  1.00  0.00    -0.000 C 
BRANCH  12  13
ATOM     13  C   UNL     1      16.231  -3.173  16.114  1.00  0.00    -0.000 C 
BRANCH  13  14
ATOM     14  C   UNL     1      17.333  -4.099  16.658  1.00  0.00    -0.000 C 
BRANCH  14  15
ATOM     15  C   UNL     1      17.154  -5.557  16.208  1.00  0.00    -0.000 C 
BRANCH  15  16
ATOM     16  C   UNL     1      16.701  -5.677  14.745  1.00  0.00    -0.000 C 
BRANCH  16  17
ATOM     17  C   UNL     1      15.910  -6.972  14.521  1.00  0.00    -0.003 C 
ATOM     18  C   UNL     1      14.835  -7.154  15.587  1.00  0.00     0.004 C 
ENDBRANCH  16  17
ENDBRANCH  15  16
ENDBRANCH  14  15
ENDBRANCH  13  14
ENDBRANCH  12  13
ENDBRANCH  11  12
ENDBRANCH   1  11
TORSDOF 14
ENDMDL
MODEL 6
REMARK VINA RESULT:    -5.433      2.372      5.088
REMARK INTER + INTRA:         -11.611
REMARK INTER:                  -9.603
REMARK INTRA:                  -2.008
REMARK UNBOUND:                -1.731
REMARK SMILES CCCCCCCCCCCCCCCC(=O)[O-]
REMARK SMILES IDX 9 1 10 2 11 3 12 4 13 5 14 6 15 7 16 8 17 9 18 10 8 11 7 12
REMARK SMILES IDX 6 13 5 14 4 15 3 16 2 17 1 18
REMARK H PARENT
REMARK Flexibility Score: inf
ROOT
ATOM      1  C   UNL     1      15.021  -6.331  14.373  1.00  0.00     0.000 C 
ENDROOT
BRANCH   1   2
ATOM      2  C   UNL     1      14.955  -4.818  14.663  1.00  0.00     0.000 C 
BRANCH   2   3
ATOM      3  C   UNL     1      14.443  -4.442  16.065  1.00  0.00     0.000 C 
BRANCH   3   4
ATOM      4  C   UNL     1      13.375  -3.339  16.035  1.00  0.00     0.000 C 
BRANCH   4   5
ATOM      5  C   UNL     1      12.627  -3.335  14.697  1.00  0.00     0.000 C 
BRANCH   5   6
ATOM      6  C   UNL     1      12.629  -1.934  14.069  1.00  0.00     0.006 C 
BRANCH   6   7
ATOM      7  C   UNL     1      13.037  -1.961  12.590  1.00  0.00     0.053 C 
BRANCH   7   8
ATOM      8  C   UNL     1      14.322  -1.227  12.356  1.00  0.00     0.041 C 
ATOM      9  O   UNL     1      15.359  -1.544  12.995  1.00  0.00    -0.550 OA
ATOM     10  O   UNL     1      14.382  -0.217  11.404  1.00  0.00    -0.550 OA
ENDBRANCH   7   8
ENDBRANCH   6   7
ENDBRANCH   5   6
ENDBRANCH   4   5
ENDBRANCH   3   4
ENDBRANCH   2   3
ENDBRANCH   1   2
BRANCH   1  11
ATOM     11  C   UNL     1      14.099  -6.824  13.243  1.00  0.00     0.000 C 
BRANCH  11  12
ATOM     12  C   UNL     1      13.527  -5.674  12.397  1.00  0.00    -0.000 C 
BRANCH  12  13
ATOM     13  C   UNL     1      14.223  -5.543  11.032  1.00  0.00    -0.000 C 
BRANCH  13  14
ATOM     14  C   UNL     1      15.561  -4.788  11.124  1.00  0.00    -0.000 C 
BRANCH  14  15
ATOM     15  C   UNL     1      16.748  -5.627  10.625  1.00  0.00    -0.000 C 
BRANCH  15  16
ATOM     16  C   UNL     1      17.730  -5.996  11.748  1.00  0.00    -0.000 C 
BRANCH  16  17
ATOM     17  C   UNL     1      18.188  -4.745  12.507  1.00  0.00    -0.003 C 
ATOM     18  C   UNL     1      19.682  -4.799  12.810  1.00  0.00     0.004 C 
ENDBRANCH  16  17
ENDBRANCH  15  16
ENDBRANCH  14  15
ENDBRANCH  13  14
ENDBRANCH  12  13
ENDBRANCH  11  12
ENDBRANCH   1  11
TORSDOF 14
ENDMDL
MODEL 7
REMARK VINA RESULT:    -5.417      2.713      4.313
REMARK INTER + INTRA:         -11.581
REMARK INTER:                  -9.267
REMARK INTRA:                  -2.315
REMARK UNBOUND:                -1.731
REMARK SMILES CCCCCCCCCCCCCCCC(=O)[O-]
REMARK SMILES IDX 9 1 10 2 11 3 12 4 13 5 14 6 15 7 16 8 17 9 18 10 8 11 7 12
REMARK SMILES IDX 6 13 5 14 4 15 3 16 2 17 1 18
REMARK H PARENT
REMARK Flexibility Score: inf
ROOT
ATOM      1  C   UNL     1      14.264  -4.612  15.626  1.00  0.00     0.000 C 
ENDROOT
BRANCH   1   2
ATOM      2  C   UNL     1      14.931  -5.978  15.890  1.00  0.00     0.000 C 
BRANCH   2   3
ATOM      3  C   UNL     1      16.227  -6.236  15.102  1.00  0.00     0.000 C 
BRANCH   3   4
ATOM      4  C   UNL     1      15.968  -6.779  13.689  1.00  0.00     0.000 C 
BRANCH   4   5
ATOM      5  C   UNL     1      16.746  -5.976  12.640  1.00  0.00     0.000 C 
BRANCH   5   6
ATOM      6  C   UNL     1      15.953  -4.739  12.193  1.00  0.00     0.006 C 
BRANCH   6   7
ATOM      7  C   UNL     1      14.545  -5.099  11.702  1.00  0.00     0.053 C 
BRANCH   7   8
ATOM      8  C   UNL     1      14.513  -5.315  10.219  1.00  0.00     0.041 C 
ATOM      9  O   UNL     1      15.547  -5.126   9.528  1.00  0.00    -0.550 OA
ATOM     10  O   UNL     1      13.348  -5.760   9.607  1.00  0.00    -0.550 OA
ENDBRANCH   7   8
ENDBRANCH   6   7
ENDBRANCH   5   6
ENDBRANCH   4   5
ENDBRANCH   3   4
ENDBRANCH   2   3
ENDBRANCH   1   2
BRANCH   1  11
ATOM     11  C   UNL     1      15.167  -3.386  15.852  1.00  0.00     0.000 C 
BRANCH  11  12
ATOM     12  C   UNL     1      15.234  -2.959  17.328  1.00  0.00    -0.000 C 
BRANCH  12  13
ATOM     13  C   UNL     1      16.659  -2.589  17.771  1.00  0.00    -0.000 C 
BRANCH  13  14
ATOM     14  C   UNL     1      17.697  -3.649  17.362  1.00  0.00    -0.000 C 
BRANCH  14  15
ATOM     15  C   UNL     1      18.801  -3.076  16.460  1.00  0.00    -0.000 C 
BRANCH  15  16
ATOM     16  C   UNL     1      18.923  -3.821  15.121  1.00  0.00    -0.000 C 
BRANCH  16  17
ATOM     17  C   UNL     1      19.091  -2.835  13.959  1.00  0.00    -0.003 C 
ATOM     18  C   UNL     1      17.862  -1.943  13.810  1.00  0.00     0.004 C 
ENDBRANCH  16  17
ENDBRANCH  15  16
ENDBRANCH  14  15
ENDBRANCH  13  14
ENDBRANCH  12  13
ENDBRANCH  11  12
ENDBRANCH   1  11
TORSDOF 14
ENDMDL
MODEL 8
REMARK VINA RESULT:    -5.398      2.208      4.667
REMARK INTER + INTRA:         -11.548
REMARK INTER:                  -9.077
REMARK INTRA:                  -2.470
REMARK UNBOUND:                -1.731
REMARK SMILES CCCCCCCCCCCCCCCC(=O)[O-]
REMARK SMILES IDX 9 1 10 2 11 3 12 4 13 5 14 6 15 7 16 8 17 9 18 10 8 11 7 12
REMARK SMILES IDX 6 13 5 14 4 15 3 16 2 17 1 18
REMARK H PARENT
REMARK Flexibility Score: inf
ROOT
ATOM      1  C   UNL     1      16.407  -5.376  12.024  1.00  0.00     0.000 C 
ENDROOT
BRANCH   1   2
ATOM      2  C   UNL     1      16.406  -6.624  12.932  1.00  0.00     0.000 C 
BRANCH   2   3
ATOM      3  C   UNL     1      15.137  -6.813  13.782  1.00  0.00     0.000 C 
BRANCH   3   4
ATOM      4  C   UNL     1      15.412  -6.732  15.291  1.00  0.00     0.000 C 
BRANCH   4   5
ATOM      5  C   UNL     1      14.871  -5.424  15.878  1.00  0.00     0.000 C 
BRANCH   5   6
ATOM      6  C   UNL     1      15.934  -4.316  15.830  1.00  0.00     0.006 C 
BRANCH   6   7
ATOM      7  C   UNL     1      17.348  -4.859  16.075  1.00  0.00     0.053 C 
BRANCH   7   8
ATOM      8  C   UNL     1      18.383  -4.061  15.341  1.00  0.00     0.041 C 
ATOM      9  O   UNL     1      18.106  -2.915  14.900  1.00  0.00    -0.550 OA
ATOM     10  O   UNL     1      19.665  -4.571  15.176  1.00  0.00    -0.550 OA
ENDBRANCH   7   8
ENDBRANCH   6   7
ENDBRANCH   5   6
ENDBRANCH   4   5
ENDBRANCH   3   4
ENDBRANCH   2   3
ENDBRANCH   1   2
BRANCH   1  11
ATOM     11  C   UNL     1      16.510  -5.663  10.515  1.00  0.00     0.000 C 
BRANCH  11  12
ATOM     12  C   UNL     1      15.268  -5.202   9.734  1.00  0.00    -0.000 C 
BRANCH  12  13
ATOM     13  C   UNL     1      13.956  -5.655  10.393  1.00  0.00    -0.000 C 
BRANCH  13  14
ATOM     14  C   UNL     1      13.036  -4.474  10.749  1.00  0.00    -0.000 C 
BRANCH  14  15
ATOM     15  C   UNL     1      12.613  -4.479  12.227  1.00  0.00    -0.000 C 
BRANCH  15  16
ATOM     16  C   UNL     1      13.418  -3.486  13.079  1.00  0.00    -0.000 C 
BRANCH  16  17
ATOM     17  C   UNL     1      13.942  -2.328  12.222  1.00  0.00    -0.003 C 
ATOM     18  C   UNL     1      15.335  -1.897  12.671  1.00  0.00     0.004 C 
ENDBRANCH  16  17
ENDBRANCH  15  16
ENDBRANCH  14  15
ENDBRANCH  13  14
ENDBRANCH  12  13
ENDBRANCH  11  12
ENDBRANCH   1  11
TORSDOF 14
ENDMDL
MODEL 9
REMARK VINA RESULT:    -5.354      2.485      4.073
REMARK INTER + INTRA:         -11.467
REMARK INTER:                  -9.302
REMARK INTRA:                  -2.166
REMARK UNBOUND:                -1.731
REMARK SMILES CCCCCCCCCCCCCCCC(=O)[O-]
REMARK SMILES IDX 9 1 10 2 11 3 12 4 13 5 14 6 15 7 16 8 17 9 18 10 8 11 7 12
REMARK SMILES IDX 6 13 5 14 4 15 3 16 2 17 1 18
REMARK H PARENT
REMARK Flexibility Score: inf
ROOT
ATOM      1  C   UNL     1      17.808  -5.255  11.895  1.00  0.00     0.000 C 
ENDROOT
BRANCH   1   2
ATOM      2  C   UNL     1      18.560  -4.610  13.078  1.00  0.00     0.000 C 
BRANCH   2   3
ATOM      3  C   UNL     1      18.902  -3.121  12.902  1.00  0.00     0.000 C 
BRANCH   3   4
ATOM      4  C   UNL     1      18.089  -2.208  13.832  1.00  0.00     0.000 C 
BRANCH   4   5
ATOM      5  C   UNL     1      17.065  -1.388  13.039  1.00  0.00     0.000 C 
BRANCH   5   6
ATOM      6  C   UNL     1      15.745  -2.158  12.883  1.00  0.00     0.006 C 
BRANCH   6   7
ATOM      7  C   UNL     1      14.578  -1.239  12.501  1.00  0.00     0.053 C 
BRANCH   7   8
ATOM      8  C   UNL     1      13.254  -1.917  12.681  1.00  0.00     0.041 C 
ATOM      9  O   UNL     1      12.614  -1.783  13.757  1.00  0.00    -0.550 OA
ATOM     10  O   UNL     1      12.712  -2.669  11.647  1.00  0.00    -0.550 OA
ENDBRANCH   7   8
ENDBRANCH   6   7
ENDBRANCH   5   6
ENDBRANCH   4   5
ENDBRANCH   3   4
ENDBRANCH   2   3
ENDBRANCH   1   2
BRANCH   1  11
ATOM     11  C   UNL     1      16.741  -6.294  12.284  1.00  0.00     0.000 C 
BRANCH  11  12
ATOM     12  C   UNL     1      15.313  -5.723  12.254  1.00  0.00    -0.000 C 
BRANCH  12  13
ATOM     13  C   UNL     1      14.434  -6.274  13.389  1.00  0.00    -0.000 C 
BRANCH  13  14
ATOM     14  C   UNL     1      15.261  -6.765  14.590  1.00  0.00    -0.000 C 
BRANCH  14  15
ATOM     15  C   UNL     1      15.054  -5.900  15.842  1.00  0.00    -0.000 C 
BRANCH  15  16
ATOM     16  C   UNL     1      15.969  -4.665  15.870  1.00  0.00    -0.000 C 
BRANCH  16  17
ATOM     17  C   UNL     1      15.174  -3.403  16.223  1.00  0.00    -0.003 C 
ATOM     18  C   UNL     1      13.723  -3.738  16.555  1.00  0.00     0.004 C 
ENDBRANCH  16  17
ENDBRANCH  15  16
ENDBRANCH  14  15
ENDBRANCH  13  14
ENDBRANCH  12  13
ENDBRANCH  11  12
ENDBRANCH   1  11
TORSDOF 14
ENDMDL
