MODEL 1
REMARK VINA RESULT:    -6.409      0.000      0.000
REMARK INTER + INTRA:          -7.801
REMARK INTER:                  -7.720
REMARK INTRA:                  -0.081
REMARK UNBOUND:                -0.081
REMARK SMILES O=c1c(O)c(-c2ccc(O)c(O)c2)oc2cc(O)cc(O)c12
REMARK SMILES IDX 5 1 3 2 2 3 1 4 22 5 20 6 19 7 17 8 16 9 15 10 14 11 6 12
REMARK SMILES IDX 7 13 8 14 9 15 13 16 11 17 10 18 12 20 4 22 21 24 18 26
REMARK H PARENT 10 19 12 21 4 23 21 25 18 27
REMARK Flexibility Score: inf
ROOT
ATOM      1  C   UNL     1     -40.024  16.561 -19.082  1.00  0.00     0.180 A 
ATOM      2  C   UNL     1     -40.275  15.493 -18.203  1.00  0.00     0.208 A 
ATOM      3  C   UNL     1     -41.583  15.292 -17.734  1.00  0.00     0.238 A 
ATOM      4  O   UNL     1     -41.812  14.302 -16.991  1.00  0.00    -0.285 OA
ATOM      5  C   UNL     1     -42.619  16.169 -18.134  1.00  0.00     0.111 A 
ATOM      6  C   UNL     1     -43.972  16.083 -17.689  1.00  0.00     0.134 A 
ATOM      7  C   UNL     1     -44.940  16.924 -18.252  1.00  0.00     0.093 A 
ATOM      8  C   UNL     1     -44.590  17.892 -19.197  1.00  0.00     0.123 A 
ATOM      9  C   UNL     1     -43.262  18.024 -19.594  1.00  0.00     0.094 A 
ATOM     10  C   UNL     1     -42.280  17.175 -19.077  1.00  0.00     0.146 A 
ATOM     11  O   UNL     1     -41.028  17.327 -19.491  1.00  0.00    -0.452 OA
ENDROOT
BRANCH   1  12
ATOM     12  C   UNL     1     -38.668  16.853 -19.600  1.00  0.00     0.025 A 
ATOM     13  C   UNL     1     -38.471  16.994 -20.983  1.00  0.00     0.016 A 
ATOM     14  C   UNL     1     -37.205  17.290 -21.492  1.00  0.00     0.051 A 
ATOM     15  C   UNL     1     -36.119  17.464 -20.628  1.00  0.00     0.157 A 
ATOM     16  C   UNL     1     -37.579  17.049 -18.731  1.00  0.00     0.062 A 
ATOM     17  C   UNL     1     -36.305  17.348 -19.241  1.00  0.00     0.158 A 
BRANCH  15  18
ATOM     18  O   UNL     1     -34.865  17.756 -21.165  1.00  0.00    -0.504 OA
ATOM     19  H   UNL     1     -34.728  17.915 -22.156  1.00  0.00     0.293 HD
ENDBRANCH  15  18
BRANCH  17  20
ATOM     20  O   UNL     1     -35.231  17.535 -18.373  1.00  0.00    -0.504 OA
ATOM     21  H   UNL     1     -34.983  18.454 -18.025  1.00  0.00     0.293 HD
ENDBRANCH  17  20
ENDBRANCH   1  12
BRANCH   2  22
ATOM     22  O   UNL     1     -39.243  14.626 -17.838  1.00  0.00    -0.502 OA
ATOM     23  H   UNL     1     -38.945  13.855 -18.425  1.00  0.00     0.293 HD
ENDBRANCH   2  22
BRANCH   6  24
ATOM     24  O   UNL     1     -44.408  15.215 -16.683  1.00  0.00    -0.507 OA
ATOM     25  H   UNL     1     -45.326  14.799 -16.641  1.00  0.00     0.293 HD
ENDBRANCH   6  24
BRANCH   8  26
ATOM     26  O   UNL     1     -45.557  18.735 -19.741  1.00  0.00    -0.508 OA
ATOM     27  H   UNL     1     -46.492  18.404 -19.952  1.00  0.00     0.293 HD
ENDBRANCH   8  26
TORSDOF 6
ENDMDL
MODEL 2
REMARK VINA RESULT:    -6.386      0.888      1.520
REMARK INTER + INTRA:          -7.775
REMARK INTER:                  -7.455
REMARK INTRA:                  -0.320
REMARK UNBOUND:                -0.081
REMARK SMILES O=c1c(O)c(-c2ccc(O)c(O)c2)oc2cc(O)cc(O)c12
REMARK SMILES IDX 5 1 3 2 2 3 1 4 22 5 20 6 19 7 17 8 16 9 15 10 14 11 6 12
REMARK SMILES IDX 7 13 8 14 9 15 13 16 11 17 10 18 12 20 4 22 21 24 18 26
REMARK H PARENT 10 19 12 21 4 23 21 25 18 27
REMARK Flexibility Score: inf
ROOT
ATOM      1  C   UNL     1     -39.684  16.779 -18.498  1.00  0.00     0.180 A 
ATOM      2  C   UNL     1     -40.081  15.548 -17.948  1.00  0.00     0.208 A 
ATOM      3  C   UNL     1     -41.436  15.343 -17.645  1.00  0.00     0.238 A 
ATOM      4  O   UNL     1     -41.794  14.220 -17.203  1.00  0.00    -0.285 OA
ATOM      5  C   UNL     1     -42.374  16.376 -17.880  1.00  0.00     0.111 A 
ATOM      6  C   UNL     1     -43.767  16.293 -17.573  1.00  0.00     0.134 A 
ATOM      7  C   UNL     1     -44.624  17.326 -17.969  1.00  0.00     0.093 A 
ATOM      8  C   UNL     1     -44.129  18.470 -18.602  1.00  0.00     0.123 A 
ATOM      9  C   UNL     1     -42.765  18.587 -18.852  1.00  0.00     0.094 A 
ATOM     10  C   UNL     1     -41.889  17.557 -18.501  1.00  0.00     0.146 A 
ATOM     11  O   UNL     1     -40.597  17.704 -18.767  1.00  0.00    -0.452 OA
ENDROOT
BRANCH   1  12
ATOM     12  C   UNL     1     -38.270  17.079 -18.820  1.00  0.00     0.025 A 
ATOM     13  C   UNL     1     -37.453  17.683 -17.853  1.00  0.00     0.016 A 
ATOM     14  C   UNL     1     -36.111  17.956 -18.129  1.00  0.00     0.051 A 
ATOM     15  C   UNL     1     -35.561  17.616 -19.369  1.00  0.00     0.157 A 
ATOM     16  C   UNL     1     -37.710  16.718 -20.060  1.00  0.00     0.062 A 
ATOM     17  C   UNL     1     -36.361  16.990 -20.339  1.00  0.00     0.158 A 
BRANCH  15  18
ATOM     18  O   UNL     1     -34.219  17.903 -19.617  1.00  0.00    -0.504 OA
ATOM     19  H   UNL     1     -33.927  18.471 -20.404  1.00  0.00     0.293 HD
ENDBRANCH  15  18
BRANCH  17  20
ATOM     20  O   UNL     1     -35.816  16.635 -21.571  1.00  0.00    -0.504 OA
ATOM     21  H   UNL     1     -35.688  17.316 -22.312  1.00  0.00     0.293 HD
ENDBRANCH  17  20
ENDBRANCH   1  12
BRANCH   2  22
ATOM     22  O   UNL     1     -39.142  14.533 -17.745  1.00  0.00    -0.502 OA
ATOM     23  H   UNL     1     -39.407  13.586 -17.502  1.00  0.00     0.293 HD
ENDBRANCH   2  22
BRANCH   6  24
ATOM     24  O   UNL     1     -44.347  15.238 -16.863  1.00  0.00    -0.507 OA
ATOM     25  H   UNL     1     -45.315  14.966 -16.926  1.00  0.00     0.293 HD
ENDBRANCH   6  24
BRANCH   8  26
ATOM     26  O   UNL     1     -44.988  19.501 -18.978  1.00  0.00    -0.508 OA
ATOM     27  H   UNL     1     -45.403  20.123 -18.294  1.00  0.00     0.293 HD
ENDBRANCH   8  26
TORSDOF 6
ENDMDL
MODEL 3
REMARK VINA RESULT:    -6.314      2.907      7.908
REMARK INTER + INTRA:          -7.688
REMARK INTER:                  -7.465
REMARK INTRA:                  -0.223
REMARK UNBOUND:                -0.081
REMARK SMILES O=c1c(O)c(-c2ccc(O)c(O)c2)oc2cc(O)cc(O)c12
REMARK SMILES IDX 5 1 3 2 2 3 1 4 22 5 20 6 19 7 17 8 16 9 15 10 14 11 6 12
REMARK SMILES IDX 7 13 8 14 9 15 13 16 11 17 10 18 12 20 4 22 21 24 18 26
REMARK H PARENT 10 19 12 21 4 23 21 25 18 27
REMARK Flexibility Score: inf
ROOT
ATOM      1  C   UNL     1     -44.022  16.921 -16.354  1.00  0.00     0.180 A 
ATOM      2  C   UNL     1     -43.643  15.571 -16.449  1.00  0.00     0.208 A 
ATOM      3  C   UNL     1     -42.321  15.258 -16.804  1.00  0.00     0.238 A 
ATOM      4  O   UNL     1     -41.974  14.049 -16.835  1.00  0.00    -0.285 OA
ATOM      5  C   UNL     1     -41.399  16.297 -17.076  1.00  0.00     0.111 A 
ATOM      6  C   UNL     1     -40.046  16.095 -17.483  1.00  0.00     0.134 A 
ATOM      7  C   UNL     1     -39.187  17.195 -17.597  1.00  0.00     0.093 A 
ATOM      8  C   UNL     1     -39.651  18.496 -17.383  1.00  0.00     0.123 A 
ATOM      9  C   UNL     1     -40.984  18.708 -17.043  1.00  0.00     0.094 A 
ATOM     10  C   UNL     1     -41.857  17.628 -16.886  1.00  0.00     0.146 A 
ATOM     11  O   UNL     1     -43.117  17.874 -16.551  1.00  0.00    -0.452 OA
ENDROOT
BRANCH   1  12
ATOM     12  C   UNL     1     -45.402  17.331 -16.010  1.00  0.00     0.025 A 
ATOM     13  C   UNL     1     -45.641  18.020 -14.811  1.00  0.00     0.016 A 
ATOM     14  C   UNL     1     -46.932  18.433 -14.476  1.00  0.00     0.051 A 
ATOM     15  C   UNL     1     -48.002  18.179 -15.340  1.00  0.00     0.157 A 
ATOM     16  C   UNL     1     -46.476  17.094 -16.888  1.00  0.00     0.062 A 
ATOM     17  C   UNL     1     -47.774  17.510 -16.554  1.00  0.00     0.158 A 
BRANCH  15  18
ATOM     18  O   UNL     1     -49.281  18.601 -14.978  1.00  0.00    -0.504 OA
ATOM     19  H   UNL     1     -49.984  18.841 -15.668  1.00  0.00     0.293 HD
ENDBRANCH  15  18
BRANCH  17  20
ATOM     20  O   UNL     1     -48.834  17.266 -17.426  1.00  0.00    -0.504 OA
ATOM     21  H   UNL     1     -48.856  16.442 -18.017  1.00  0.00     0.293 HD
ENDBRANCH  17  20
ENDBRANCH   1  12
BRANCH   2  22
ATOM     22  O   UNL     1     -44.563  14.561 -16.155  1.00  0.00    -0.502 OA
ATOM     23  H   UNL     1     -45.558  14.737 -16.077  1.00  0.00     0.293 HD
ENDBRANCH   2  22
BRANCH   6  24
ATOM     24  O   UNL     1     -39.509  14.847 -17.811  1.00  0.00    -0.507 OA
ATOM     25  H   UNL     1     -39.851  13.965 -17.465  1.00  0.00     0.293 HD
ENDBRANCH   6  24
BRANCH   8  26
ATOM     26  O   UNL     1     -38.793  19.586 -17.514  1.00  0.00    -0.508 OA
ATOM     27  H   UNL     1     -38.635  20.233 -16.749  1.00  0.00     0.293 HD
ENDBRANCH   8  26
TORSDOF 6
ENDMDL
MODEL 4
REMARK VINA RESULT:    -6.289      2.576      3.969
REMARK INTER + INTRA:          -7.657
REMARK INTER:                  -7.372
REMARK INTRA:                  -0.285
REMARK UNBOUND:                -0.081
REMARK SMILES O=c1c(O)c(-c2ccc(O)c(O)c2)oc2cc(O)cc(O)c12
REMARK SMILES IDX 5 1 3 2 2 3 1 4 22 5 20 6 19 7 17 8 16 9 15 10 14 11 6 12
REMARK SMILES IDX 7 13 8 14 9 15 13 16 11 17 10 18 12 20 4 22 21 24 18 26
REMARK H PARENT 10 19 12 21 4 23 21 25 18 27
REMARK Flexibility Score: inf
ROOT
ATOM      1  C   UNL     1     -37.100  17.110 -19.032  1.00  0.00     0.180 A 
ATOM      2  C   UNL     1     -37.208  18.258 -18.228  1.00  0.00     0.208 A 
ATOM      3  C   UNL     1     -38.351  18.425 -17.430  1.00  0.00     0.238 A 
ATOM      4  O   UNL     1     -38.416  19.428 -16.672  1.00  0.00    -0.285 OA
ATOM      5  C   UNL     1     -39.378  17.452 -17.459  1.00  0.00     0.111 A 
ATOM      6  C   UNL     1     -40.599  17.539 -16.722  1.00  0.00     0.134 A 
ATOM      7  C   UNL     1     -41.486  16.457 -16.725  1.00  0.00     0.093 A 
ATOM      8  C   UNL     1     -41.228  15.316 -17.491  1.00  0.00     0.123 A 
ATOM      9  C   UNL     1     -40.070  15.247 -18.260  1.00  0.00     0.094 A 
ATOM     10  C   UNL     1     -39.147  16.296 -18.249  1.00  0.00     0.146 A 
ATOM     11  O   UNL     1     -38.050  16.184 -18.988  1.00  0.00    -0.452 OA
ENDROOT
BRANCH   1  12
ATOM     12  C   UNL     1     -35.937  16.875 -19.919  1.00  0.00     0.025 A 
ATOM     13  C   UNL     1     -36.038  17.174 -21.286  1.00  0.00     0.016 A 
ATOM     14  C   UNL     1     -34.948  16.979 -22.136  1.00  0.00     0.051 A 
ATOM     15  C   UNL     1     -33.735  16.498 -21.632  1.00  0.00     0.157 A 
ATOM     16  C   UNL     1     -34.710  16.411 -19.409  1.00  0.00     0.062 A 
ATOM     17  C   UNL     1     -33.613  16.216 -20.262  1.00  0.00     0.158 A 
BRANCH  15  18
ATOM     18  O   UNL     1     -32.664  16.311 -22.506  1.00  0.00    -0.504 OA
ATOM     19  H   UNL     1     -31.746  16.034 -22.180  1.00  0.00     0.293 HD
ENDBRANCH  15  18
BRANCH  17  20
ATOM     20  O   UNL     1     -32.403  15.750 -19.750  1.00  0.00    -0.504 OA
ATOM     21  H   UNL     1     -32.344  14.876 -19.240  1.00  0.00     0.293 HD
ENDBRANCH  17  20
ENDBRANCH   1  12
BRANCH   2  22
ATOM     22  O   UNL     1     -36.171  19.194 -18.198  1.00  0.00    -0.502 OA
ATOM     23  H   UNL     1     -36.188  20.007 -17.592  1.00  0.00     0.293 HD
ENDBRANCH   2  22
BRANCH   6  24
ATOM     24  O   UNL     1     -40.994  18.669 -16.000  1.00  0.00    -0.507 OA
ATOM     25  H   UNL     1     -40.743  18.856 -15.042  1.00  0.00     0.293 HD
ENDBRANCH   6  24
BRANCH   8  26
ATOM     26  O   UNL     1     -42.125  14.250 -17.500  1.00  0.00    -0.508 OA
ATOM     27  H   UNL     1     -42.958  14.252 -16.922  1.00  0.00     0.293 HD
ENDBRANCH   8  26
TORSDOF 6
ENDMDL
MODEL 5
REMARK VINA RESULT:    -6.288      2.666      8.578
REMARK INTER + INTRA:          -7.656
REMARK INTER:                  -7.430
REMARK INTRA:                  -0.226
REMARK UNBOUND:                -0.081
REMARK SMILES O=c1c(O)c(-c2ccc(O)c(O)c2)oc2cc(O)cc(O)c12
REMARK SMILES IDX 5 1 3 2 2 3 1 4 22 5 20 6 19 7 17 8 16 9 15 10 14 11 6 12
REMARK SMILES IDX 7 13 8 14 9 15 13 16 11 17 10 18 12 20 4 22 21 24 18 26
REMARK H PARENT 10 19 12 21 4 23 21 25 18 27
REMARK Flexibility Score: inf
ROOT
ATOM      1  C   UNL     1     -36.134  17.282 -20.402  1.00  0.00     0.180 A 
ATOM      2  C   UNL     1     -35.374  18.308 -19.815  1.00  0.00     0.208 A 
ATOM      3  C   UNL     1     -34.025  18.448 -20.176  1.00  0.00     0.238 A 
ATOM      4  O   UNL     1     -33.365  19.402 -19.687  1.00  0.00    -0.285 OA
ATOM      5  C   UNL     1     -33.447  17.551 -21.106  1.00  0.00     0.111 A 
ATOM      6  C   UNL     1     -32.079  17.575 -21.514  1.00  0.00     0.134 A 
ATOM      7  C   UNL     1     -31.649  16.723 -22.538  1.00  0.00     0.093 A 
ATOM      8  C   UNL     1     -32.522  15.802 -23.123  1.00  0.00     0.123 A 
ATOM      9  C   UNL     1     -33.843  15.729 -22.690  1.00  0.00     0.094 A 
ATOM     10  C   UNL     1     -34.312  16.592 -21.695  1.00  0.00     0.146 A 
ATOM     11  O   UNL     1     -35.581  16.497 -21.320  1.00  0.00    -0.452 OA
ENDROOT
BRANCH   1  12
ATOM     12  C   UNL     1     -37.555  17.055 -20.054  1.00  0.00     0.025 A 
ATOM     13  C   UNL     1     -38.545  17.244 -21.031  1.00  0.00     0.016 A 
ATOM     14  C   UNL     1     -39.890  17.016 -20.730  1.00  0.00     0.051 A 
ATOM     15  C   UNL     1     -40.265  16.581 -19.455  1.00  0.00     0.157 A 
ATOM     16  C   UNL     1     -37.932  16.596 -18.778  1.00  0.00     0.062 A 
ATOM     17  C   UNL     1     -39.283  16.365 -18.474  1.00  0.00     0.158 A 
BRANCH  15  18
ATOM     18  O   UNL     1     -41.615  16.364 -19.182  1.00  0.00    -0.504 OA
ATOM     19  H   UNL     1     -42.287  16.167 -19.915  1.00  0.00     0.293 HD
ENDBRANCH  15  18
BRANCH  17  20
ATOM     20  O   UNL     1     -39.648  15.917 -17.206  1.00  0.00    -0.504 OA
ATOM     21  H   UNL     1     -39.495  14.957 -16.918  1.00  0.00     0.293 HD
ENDBRANCH  17  20
ENDBRANCH   1  12
BRANCH   2  22
ATOM     22  O   UNL     1     -35.970  19.196 -18.915  1.00  0.00    -0.502 OA
ATOM     23  H   UNL     1     -35.622  19.332 -17.973  1.00  0.00     0.293 HD
ENDBRANCH   2  22
BRANCH   6  24
ATOM     24  O   UNL     1     -31.106  18.391 -20.930  1.00  0.00    -0.507 OA
ATOM     25  H   UNL     1     -30.856  19.312 -21.257  1.00  0.00     0.293 HD
ENDBRANCH   6  24
BRANCH   8  26
ATOM     26  O   UNL     1     -32.081  14.946 -24.130  1.00  0.00    -0.508 OA
ATOM     27  H   UNL     1     -31.548  15.289 -24.922  1.00  0.00     0.293 HD
ENDBRANCH   8  26
TORSDOF 6
ENDMDL
MODEL 6
REMARK VINA RESULT:    -6.136      3.111      4.750
REMARK INTER + INTRA:          -7.473
REMARK INTER:                  -7.212
REMARK INTRA:                  -0.261
REMARK UNBOUND:                -0.081
REMARK SMILES O=c1c(O)c(-c2ccc(O)c(O)c2)oc2cc(O)cc(O)c12
REMARK SMILES IDX 5 1 3 2 2 3 1 4 22 5 20 6 19 7 17 8 16 9 15 10 14 11 6 12
REMARK SMILES IDX 7 13 8 14 9 15 13 16 11 17 10 18 12 20 4 22 21 24 18 26
REMARK H PARENT 10 19 12 21 4 23 21 25 18 27
REMARK Flexibility Score: inf
ROOT
ATOM      1  C   UNL     1     -43.386  17.213 -17.310  1.00  0.00     0.180 A 
ATOM      2  C   UNL     1     -44.641  16.772 -17.762  1.00  0.00     0.208 A 
ATOM      3  C   UNL     1     -45.779  17.047 -16.988  1.00  0.00     0.238 A 
ATOM      4  O   UNL     1     -46.906  16.697 -17.425  1.00  0.00    -0.285 OA
ATOM      5  C   UNL     1     -45.647  17.745 -15.764  1.00  0.00     0.111 A 
ATOM      6  C   UNL     1     -46.727  18.043 -14.879  1.00  0.00     0.134 A 
ATOM      7  C   UNL     1     -46.500  18.852 -13.760  1.00  0.00     0.093 A 
ATOM      8  C   UNL     1     -45.218  19.320 -13.457  1.00  0.00     0.123 A 
ATOM      9  C   UNL     1     -44.147  18.985 -14.281  1.00  0.00     0.094 A 
ATOM     10  C   UNL     1     -44.349  18.209 -15.426  1.00  0.00     0.146 A 
ATOM     11  O   UNL     1     -43.302  17.922 -16.190  1.00  0.00    -0.452 OA
ENDROOT
BRANCH   1  12
ATOM     12  C   UNL     1     -42.137  16.940 -18.057  1.00  0.00     0.025 A 
ATOM     13  C   UNL     1     -41.835  17.697 -19.200  1.00  0.00     0.016 A 
ATOM     14  C   UNL     1     -40.653  17.470 -19.908  1.00  0.00     0.051 A 
ATOM     15  C   UNL     1     -39.748  16.494 -19.478  1.00  0.00     0.157 A 
ATOM     16  C   UNL     1     -41.215  15.973 -17.614  1.00  0.00     0.062 A 
ATOM     17  C   UNL     1     -40.026  15.745 -18.324  1.00  0.00     0.158 A 
BRANCH  15  18
ATOM     18  O   UNL     1     -38.577  16.288 -20.207  1.00  0.00    -0.504 OA
ATOM     19  H   UNL     1     -38.584  15.871 -21.131  1.00  0.00     0.293 HD
ENDBRANCH  15  18
BRANCH  17  20
ATOM     20  O   UNL     1     -39.121  14.781 -17.881  1.00  0.00    -0.504 OA
ATOM     21  H   UNL     1     -38.131  14.847 -18.090  1.00  0.00     0.293 HD
ENDBRANCH  17  20
ENDBRANCH   1  12
BRANCH   2  22
ATOM     22  O   UNL     1     -44.752  16.104 -18.985  1.00  0.00    -0.502 OA
ATOM     23  H   UNL     1     -44.919  15.106 -19.047  1.00  0.00     0.293 HD
ENDBRANCH   2  22
BRANCH   6  24
ATOM     24  O   UNL     1     -48.025  17.549 -15.040  1.00  0.00    -0.507 OA
ATOM     25  H   UNL     1     -48.418  16.784 -14.514  1.00  0.00     0.293 HD
ENDBRANCH   6  24
BRANCH   8  26
ATOM     26  O   UNL     1     -44.998  20.112 -12.332  1.00  0.00    -0.508 OA
ATOM     27  H   UNL     1     -45.493  19.949 -11.463  1.00  0.00     0.293 HD
ENDBRANCH   8  26
TORSDOF 6
ENDMDL
MODEL 7
REMARK VINA RESULT:    -6.092      3.887      9.591
REMARK INTER + INTRA:          -7.419
REMARK INTER:                  -7.106
REMARK INTRA:                  -0.314
REMARK UNBOUND:                -0.081
REMARK SMILES O=c1c(O)c(-c2ccc(O)c(O)c2)oc2cc(O)cc(O)c12
REMARK SMILES IDX 5 1 3 2 2 3 1 4 22 5 20 6 19 7 17 8 16 9 15 10 14 11 6 12
REMARK SMILES IDX 7 13 8 14 9 15 13 16 11 17 10 18 12 20 4 22 21 24 18 26
REMARK H PARENT 10 19 12 21 4 23 21 25 18 27
REMARK Flexibility Score: inf
ROOT
ATOM      1  C   UNL     1     -46.620  17.218 -16.360  1.00  0.00     0.180 A 
ATOM      2  C   UNL     1     -46.571  17.997 -17.529  1.00  0.00     0.208 A 
ATOM      3  C   UNL     1     -45.419  17.950 -18.331  1.00  0.00     0.238 A 
ATOM      4  O   UNL     1     -45.403  18.608 -19.404  1.00  0.00    -0.285 OA
ATOM      5  C   UNL     1     -44.325  17.139 -17.946  1.00  0.00     0.111 A 
ATOM      6  C   UNL     1     -43.093  17.045 -18.661  1.00  0.00     0.134 A 
ATOM      7  C   UNL     1     -42.130  16.112 -18.261  1.00  0.00     0.093 A 
ATOM      8  C   UNL     1     -42.328  15.313 -17.131  1.00  0.00     0.123 A 
ATOM      9  C   UNL     1     -43.501  15.439 -16.391  1.00  0.00     0.094 A 
ATOM     10  C   UNL     1     -44.497  16.336 -16.788  1.00  0.00     0.146 A 
ATOM     11  O   UNL     1     -45.604  16.417 -16.061  1.00  0.00    -0.452 OA
ENDROOT
BRANCH   1  12
ATOM     12  C   UNL     1     -47.788  17.233 -15.451  1.00  0.00     0.025 A 
ATOM     13  C   UNL     1     -47.806  18.117 -14.362  1.00  0.00     0.016 A 
ATOM     14  C   UNL     1     -48.907  18.162 -13.503  1.00  0.00     0.051 A 
ATOM     15  C   UNL     1     -50.013  17.337 -13.729  1.00  0.00     0.157 A 
ATOM     16  C   UNL     1     -48.911  16.418 -15.689  1.00  0.00     0.062 A 
ATOM     17  C   UNL     1     -50.019  16.464 -14.829  1.00  0.00     0.158 A 
BRANCH  15  18
ATOM     18  O   UNL     1     -51.097  17.402 -12.854  1.00  0.00    -0.504 OA
ATOM     19  H   UNL     1     -50.997  17.233 -11.860  1.00  0.00     0.293 HD
ENDBRANCH  15  18
BRANCH  17  20
ATOM     20  O   UNL     1     -51.124  15.649 -15.068  1.00  0.00    -0.504 OA
ATOM     21  H   UNL     1     -51.020  14.669 -15.307  1.00  0.00     0.293 HD
ENDBRANCH  17  20
ENDBRANCH   1  12
BRANCH   2  22
ATOM     22  O   UNL     1     -47.670  18.774 -17.902  1.00  0.00    -0.502 OA
ATOM     23  H   UNL     1     -48.336  18.475 -18.605  1.00  0.00     0.293 HD
ENDBRANCH   2  22
BRANCH   6  24
ATOM     24  O   UNL     1     -42.758  17.861 -19.747  1.00  0.00    -0.507 OA
ATOM     25  H   UNL     1     -41.818  18.044 -20.059  1.00  0.00     0.293 HD
ENDBRANCH   6  24
BRANCH   8  26
ATOM     26  O   UNL     1     -41.358  14.397 -16.730  1.00  0.00    -0.508 OA
ATOM     27  H   UNL     1     -41.164  13.560 -17.268  1.00  0.00     0.293 HD
ENDBRANCH   8  26
TORSDOF 6
ENDMDL
MODEL 8
REMARK VINA RESULT:    -6.088      2.140      6.682
REMARK INTER + INTRA:          -7.415
REMARK INTER:                  -7.175
REMARK INTRA:                  -0.240
REMARK UNBOUND:                -0.081
REMARK SMILES O=c1c(O)c(-c2ccc(O)c(O)c2)oc2cc(O)cc(O)c12
REMARK SMILES IDX 5 1 3 2 2 3 1 4 22 5 20 6 19 7 17 8 16 9 15 10 14 11 6 12
REMARK SMILES IDX 7 13 8 14 9 15 13 16 11 17 10 18 12 20 4 22 21 24 18 26
REMARK H PARENT 10 19 12 21 4 23 21 25 18 27
REMARK Flexibility Score: inf
ROOT
ATOM      1  C   UNL     1     -40.818  17.208 -17.899  1.00  0.00     0.180 A 
ATOM      2  C   UNL     1     -39.531  17.208 -17.333  1.00  0.00     0.208 A 
ATOM      3  C   UNL     1     -38.414  17.205 -18.183  1.00  0.00     0.238 A 
ATOM      4  O   UNL     1     -37.265  17.260 -17.670  1.00  0.00    -0.285 OA
ATOM      5  C   UNL     1     -38.595  17.185 -19.586  1.00  0.00     0.111 A 
ATOM      6  C   UNL     1     -37.535  17.139 -20.541  1.00  0.00     0.134 A 
ATOM      7  C   UNL     1     -37.827  17.255 -21.905  1.00  0.00     0.093 A 
ATOM      8  C   UNL     1     -39.148  17.349 -22.352  1.00  0.00     0.123 A 
ATOM      9  C   UNL     1     -40.193  17.334 -21.432  1.00  0.00     0.094 A 
ATOM     10  C   UNL     1     -39.931  17.256 -20.062  1.00  0.00     0.146 A 
ATOM     11  O   UNL     1     -40.956  17.256 -19.219  1.00  0.00    -0.452 OA
ENDROOT
BRANCH   1  12
ATOM     12  C   UNL     1     -42.044  17.187 -17.070  1.00  0.00     0.025 A 
ATOM     13  C   UNL     1     -42.442  18.350 -16.393  1.00  0.00     0.016 A 
ATOM     14  C   UNL     1     -43.606  18.358 -15.621  1.00  0.00     0.051 A 
ATOM     15  C   UNL     1     -44.400  17.209 -15.527  1.00  0.00     0.157 A 
ATOM     16  C   UNL     1     -42.854  16.039 -16.991  1.00  0.00     0.062 A 
ATOM     17  C   UNL     1     -44.026  16.045 -16.217  1.00  0.00     0.158 A 
BRANCH  15  18
ATOM     18  O   UNL     1     -45.555  17.246 -14.747  1.00  0.00    -0.504 OA
ATOM     19  H   UNL     1     -46.248  16.508 -14.777  1.00  0.00     0.293 HD
ENDBRANCH  15  18
BRANCH  17  20
ATOM     20  O   UNL     1     -44.819  14.902 -16.139  1.00  0.00    -0.504 OA
ATOM     21  H   UNL     1     -44.429  13.975 -16.267  1.00  0.00     0.293 HD
ENDBRANCH  17  20
ENDBRANCH   1  12
BRANCH   2  22
ATOM     22  O   UNL     1     -39.375  17.251 -15.945  1.00  0.00    -0.502 OA
ATOM     23  H   UNL     1     -39.652  18.052 -15.390  1.00  0.00     0.293 HD
ENDBRANCH   2  22
BRANCH   6  24
ATOM     24  O   UNL     1     -36.190  16.955 -20.204  1.00  0.00    -0.507 OA
ATOM     25  H   UNL     1     -35.830  16.942 -19.263  1.00  0.00     0.293 HD
ENDBRANCH   6  24
BRANCH   8  26
ATOM     26  O   UNL     1     -39.432  17.448 -23.713  1.00  0.00    -0.508 OA
ATOM     27  H   UNL     1     -38.733  17.756 -24.380  1.00  0.00     0.293 HD
ENDBRANCH   8  26
TORSDOF 6
ENDMDL
MODEL 9
REMARK VINA RESULT:    -6.086      2.192      7.473
REMARK INTER + INTRA:          -7.412
REMARK INTER:                  -7.102
REMARK INTRA:                  -0.311
REMARK UNBOUND:                -0.081
REMARK SMILES O=c1c(O)c(-c2ccc(O)c(O)c2)oc2cc(O)cc(O)c12
REMARK SMILES IDX 5 1 3 2 2 3 1 4 22 5 20 6 19 7 17 8 16 9 15 10 14 11 6 12
REMARK SMILES IDX 7 13 8 14 9 15 13 16 11 17 10 18 12 20 4 22 21 24 18 26
REMARK H PARENT 10 19 12 21 4 23 21 25 18 27
REMARK Flexibility Score: inf
ROOT
ATOM      1  C   UNL     1     -38.872  16.866 -19.567  1.00  0.00     0.180 A 
ATOM      2  C   UNL     1     -39.105  17.294 -20.886  1.00  0.00     0.208 A 
ATOM      3  C   UNL     1     -38.008  17.503 -21.737  1.00  0.00     0.238 A 
ATOM      4  O   UNL     1     -38.226  17.834 -22.932  1.00  0.00    -0.285 OA
ATOM      5  C   UNL     1     -36.693  17.298 -21.256  1.00  0.00     0.111 A 
ATOM      6  C   UNL     1     -35.506  17.518 -22.018  1.00  0.00     0.134 A 
ATOM      7  C   UNL     1     -34.264  17.158 -21.483  1.00  0.00     0.093 A 
ATOM      8  C   UNL     1     -34.160  16.646 -20.187  1.00  0.00     0.123 A 
ATOM      9  C   UNL     1     -35.306  16.483 -19.413  1.00  0.00     0.094 A 
ATOM     10  C   UNL     1     -36.564  16.800 -19.933  1.00  0.00     0.146 A 
ATOM     11  O   UNL     1     -37.631  16.620 -19.165  1.00  0.00    -0.452 OA
ENDROOT
BRANCH   1  12
ATOM     12  C   UNL     1     -39.975  16.648 -18.603  1.00  0.00     0.025 A 
ATOM     13  C   UNL     1     -40.518  17.744 -17.914  1.00  0.00     0.016 A 
ATOM     14  C   UNL     1     -41.571  17.564 -17.015  1.00  0.00     0.051 A 
ATOM     15  C   UNL     1     -42.110  16.290 -16.803  1.00  0.00     0.157 A 
ATOM     16  C   UNL     1     -40.531  15.371 -18.404  1.00  0.00     0.062 A 
ATOM     17  C   UNL     1     -41.591  15.189 -17.503  1.00  0.00     0.158 A 
BRANCH  15  18
ATOM     18  O   UNL     1     -43.160  16.141 -15.897  1.00  0.00    -0.504 OA
ATOM     19  H   UNL     1     -43.491  16.909 -15.325  1.00  0.00     0.293 HD
ENDBRANCH  15  18
BRANCH  17  20
ATOM     20  O   UNL     1     -42.133  13.919 -17.307  1.00  0.00    -0.504 OA
ATOM     21  H   UNL     1     -43.073  13.792 -16.950  1.00  0.00     0.293 HD
ENDBRANCH  17  20
ENDBRANCH   1  12
BRANCH   2  22
ATOM     22  O   UNL     1     -40.412  17.469 -21.347  1.00  0.00    -0.502 OA
ATOM     23  H   UNL     1     -41.075  16.705 -21.408  1.00  0.00     0.293 HD
ENDBRANCH   2  22
BRANCH   6  24
ATOM     24  O   UNL     1     -35.493  18.109 -23.285  1.00  0.00    -0.507 OA
ATOM     25  H   UNL     1     -35.454  19.102 -23.456  1.00  0.00     0.293 HD
ENDBRANCH   6  24
BRANCH   8  26
ATOM     26  O   UNL     1     -32.918  16.304 -19.656  1.00  0.00    -0.508 OA
ATOM     27  H   UNL     1     -32.723  15.367 -19.322  1.00  0.00     0.293 HD
ENDBRANCH   8  26
TORSDOF 6
ENDMDL
