MODEL 1
REMARK VINA RESULT:    -8.255      0.000      0.000
REMARK INTER + INTRA:         -15.280
REMARK INTER:                 -13.564
REMARK INTRA:                  -1.716
REMARK UNBOUND:                -1.716
REMARK SMILES COc1ccc([C@@H]2CC(=O)c3c(O)cc(O[C@H]4O[C@H](CO[C@H]5O[C@@H](C)[C@H](O)[C@H](O)[C@H]5O)[C@@H](O)[C@@H](O)[C@H]4O)cc3O2)cc1O
REMARK SMILES IDX 19 1 32 2 34 3 36 4 17 5 18 6 20 7 21 8 22 9 25 10 24 11
REMARK SMILES IDX 26 12 23 13 28 14 30 15 27 16 29 18 31 20 33 22 35 24 16 26
REMARK SMILES IDX 15 27 14 28 38 29 12 30 39 31 11 32 40 33 9 34 7 35 10 36
REMARK SMILES IDX 8 37 13 38 6 40 41 41 5 42 42 43 4 44 3 45 43 46 2 48 1 49
REMARK SMILES IDX 37 50
REMARK H PARENT 27 17 29 19 31 21 33 23 35 25 13 39 43 47 37 51
REMARK Flexibility Score: inf
ROOT
ATOM      1  C   UNL     1      14.592  23.544  46.032  1.00  0.00     0.180 C 
ATOM      2  C   UNL     1      13.996  23.476  47.460  1.00  0.00     0.177 C 
ATOM      3  C   UNL     1      14.689  24.493  48.392  1.00  0.00     0.180 C 
ATOM      4  C   UNL     1      14.814  25.877  47.719  1.00  0.00     0.214 C 
ATOM      5  C   UNL     1      15.299  25.771  46.254  1.00  0.00     0.339 C 
ATOM      6  O   UNL     1      14.489  24.864  45.523  1.00  0.00    -0.332 OA
ENDROOT
BRANCH   1   7
ATOM      7  C   UNL     1      13.863  22.599  45.067  1.00  0.00     0.198 C 
BRANCH   7   8
ATOM      8  O   UNL     1      14.806  21.755  44.423  1.00  0.00    -0.347 OA
BRANCH   8   9
ATOM      9  C   UNL     1      15.206  20.643  45.217  1.00  0.00     0.281 C 
ATOM     10  C   UNL     1      13.479  17.536  46.153  1.00  0.00     0.041 C 
ATOM     11  C   UNL     1      14.502  18.668  46.266  1.00  0.00     0.150 C 
ATOM     12  C   UNL     1      15.962  18.109  46.198  1.00  0.00     0.174 C 
ATOM     13  O   UNL     1      14.221  19.616  45.242  1.00  0.00    -0.344 OA
ATOM     14  C   UNL     1      16.647  18.556  44.892  1.00  0.00     0.179 C 
ATOM     15  C   UNL     1      16.596  20.097  44.775  1.00  0.00     0.202 C 
BRANCH  12  16
ATOM     16  O   UNL     1      16.685  18.580  47.309  1.00  0.00    -0.388 OA
ATOM     17  H   UNL     1      16.123  18.425  48.113  1.00  0.00     0.211 HD
ENDBRANCH  12  16
BRANCH  14  18
ATOM     18  O   UNL     1      17.983  18.126  44.857  1.00  0.00    -0.387 OA
ATOM     19  H   UNL     1      18.384  18.367  45.733  1.00  0.00     0.211 HD
ENDBRANCH  14  18
BRANCH  15  20
ATOM     20  O   UNL     1      16.960  20.531  43.484  1.00  0.00    -0.385 OA
ATOM     21  H   UNL     1      17.312  21.456  43.550  1.00  0.00     0.211 HD
ENDBRANCH  15  20
ENDBRANCH   8   9
ENDBRANCH   7   8
ENDBRANCH   1   7
BRANCH   2  22
ATOM     22  O   UNL     1      14.140  22.185  47.999  1.00  0.00    -0.387 OA
ATOM     23  H   UNL     1      14.724  21.674  47.382  1.00  0.00     0.211 HD
ENDBRANCH   2  22
BRANCH   3  24
ATOM     24  O   UNL     1      15.934  24.026  48.857  1.00  0.00    -0.387 OA
ATOM     25  H   UNL     1      16.620  24.217  48.170  1.00  0.00     0.211 HD
ENDBRANCH   3  24
BRANCH   5  26
ATOM     26  O   UNL     1      16.678  25.389  46.156  1.00  0.00    -0.462 OA
BRANCH  26  27
ATOM     27  C   UNL     1      17.606  25.806  45.187  1.00  0.00     0.130 A 
ATOM     28  C   UNL     1      18.377  26.978  45.308  1.00  0.00     0.093 A 
ATOM     29  C   UNL     1      17.751  25.012  44.046  1.00  0.00     0.094 A 
ATOM     30  C   UNL     1      19.293  27.337  44.309  1.00  0.00     0.133 A 
ATOM     31  C   UNL     1      18.638  25.375  43.031  1.00  0.00     0.138 A 
ATOM     32  C   UNL     1      19.429  26.529  43.161  1.00  0.00     0.102 A 
ATOM     33  O   UNL     1      18.736  24.575  41.887  1.00  0.00    -0.484 OA
ATOM     34  C   UNL     1      20.411  26.817  42.088  1.00  0.00     0.174 C 
ATOM     35  C   UNL     1      19.392  25.022  40.698  1.00  0.00     0.211 C 
ATOM     36  O   UNL     1      21.061  27.897  42.067  1.00  0.00    -0.294 OA
ATOM     37  C   UNL     1      20.688  25.771  41.046  1.00  0.00     0.131 C 
BRANCH  30  38
ATOM     38  O   UNL     1      20.071  28.484  44.462  1.00  0.00    -0.507 OA
ATOM     39  H   UNL     1      19.725  29.304  44.950  1.00  0.00     0.293 HD
ENDBRANCH  30  38
BRANCH  35  40
ATOM     40  C   UNL     1      19.681  23.847  39.795  1.00  0.00    -0.003 A 
ATOM     41  C   UNL     1      19.208  23.833  38.473  1.00  0.00     0.057 A 
ATOM     42  C   UNL     1      20.476  22.781  40.248  1.00  0.00     0.011 A 
ATOM     43  C   UNL     1      19.502  22.757  37.626  1.00  0.00     0.158 A 
ATOM     44  C   UNL     1      20.778  21.712  39.400  1.00  0.00     0.051 A 
ATOM     45  C   UNL     1      20.290  21.691  38.081  1.00  0.00     0.160 A 
BRANCH  43  46
ATOM     46  O   UNL     1      19.020  22.743  36.317  1.00  0.00    -0.504 OA
ATOM     47  H   UNL     1      19.304  23.441  35.638  1.00  0.00     0.293 HD
ENDBRANCH  43  46
BRANCH  45  48
ATOM     48  O   UNL     1      20.570  20.637  37.196  1.00  0.00    -0.493 OA
ATOM     49  C   UNL     1      19.876  19.394  37.182  1.00  0.00     0.278 C 
ENDBRANCH  45  48
ENDBRANCH  35  40
ENDBRANCH  26  27
ENDBRANCH   5  26
BRANCH   4  50
ATOM     50  O   UNL     1      15.664  26.708  48.463  1.00  0.00    -0.384 OA
ATOM     51  H   UNL     1      16.020  26.164  49.212  1.00  0.00     0.211 HD
ENDBRANCH   4  50
TORSDOF 15
ENDMDL
MODEL 2
REMARK VINA RESULT:    -8.154      1.069      1.975
REMARK INTER + INTRA:         -15.113
REMARK INTER:                 -12.983
REMARK INTRA:                  -2.130
REMARK UNBOUND:                -1.716
REMARK SMILES COc1ccc([C@@H]2CC(=O)c3c(O)cc(O[C@H]4O[C@H](CO[C@H]5O[C@@H](C)[C@H](O)[C@H](O)[C@H]5O)[C@@H](O)[C@@H](O)[C@H]4O)cc3O2)cc1O
REMARK SMILES IDX 19 1 32 2 34 3 36 4 17 5 18 6 20 7 21 8 22 9 25 10 24 11
REMARK SMILES IDX 26 12 23 13 28 14 30 15 27 16 29 18 31 20 33 22 35 24 16 26
REMARK SMILES IDX 15 27 14 28 38 29 12 30 39 31 11 32 40 33 9 34 7 35 10 36
REMARK SMILES IDX 8 37 13 38 6 40 41 41 5 42 42 43 4 44 3 45 43 46 2 48 1 49
REMARK SMILES IDX 37 50
REMARK H PARENT 27 17 29 19 31 21 33 23 35 25 13 39 43 47 37 51
REMARK Flexibility Score: inf
ROOT
ATOM      1  C   UNL     1      14.085  23.374  46.679  1.00  0.00     0.180 C 
ATOM      2  C   UNL     1      13.515  23.627  48.097  1.00  0.00     0.177 C 
ATOM      3  C   UNL     1      14.192  24.852  48.749  1.00  0.00     0.180 C 
ATOM      4  C   UNL     1      14.263  26.042  47.768  1.00  0.00     0.214 C 
ATOM      5  C   UNL     1      14.726  25.609  46.358  1.00  0.00     0.339 C 
ATOM      6  O   UNL     1      13.933  24.535  45.878  1.00  0.00    -0.332 OA
ENDROOT
BRANCH   1   7
ATOM      7  C   UNL     1      13.370  22.211  45.979  1.00  0.00     0.198 C 
BRANCH   7   8
ATOM      8  O   UNL     1      13.637  21.001  46.671  1.00  0.00    -0.347 OA
BRANCH   8   9
ATOM      9  C   UNL     1      14.643  20.205  46.054  1.00  0.00     0.281 C 
ATOM     10  C   UNL     1      17.185  20.982  43.514  1.00  0.00     0.041 C 
ATOM     11  C   UNL     1      16.247  20.105  44.347  1.00  0.00     0.150 C 
ATOM     12  C   UNL     1      17.056  19.045  45.164  1.00  0.00     0.174 C 
ATOM     13  O   UNL     1      15.461  20.962  45.167  1.00  0.00    -0.344 OA
ATOM     14  C   UNL     1      16.974  19.356  46.672  1.00  0.00     0.179 C 
ATOM     15  C   UNL     1      15.495  19.440  47.110  1.00  0.00     0.202 C 
BRANCH  12  16
ATOM     16  O   UNL     1      16.530  17.766  44.905  1.00  0.00    -0.388 OA
ATOM     17  H   UNL     1      16.859  17.163  45.622  1.00  0.00     0.211 HD
ENDBRANCH  12  16
BRANCH  14  18
ATOM     18  O   UNL     1      17.631  18.367  47.421  1.00  0.00    -0.387 OA
ATOM     19  H   UNL     1      17.053  18.170  48.205  1.00  0.00     0.211 HD
ENDBRANCH  14  18
BRANCH  15  20
ATOM     20  O   UNL     1      15.367  19.986  48.403  1.00  0.00    -0.385 OA
ATOM     21  H   UNL     1      14.892  19.330  48.977  1.00  0.00     0.211 HD
ENDBRANCH  15  20
ENDBRANCH   8   9
ENDBRANCH   7   8
ENDBRANCH   1   7
BRANCH   2  22
ATOM     22  O   UNL     1      13.707  22.503  48.919  1.00  0.00    -0.387 OA
ATOM     23  H   UNL     1      13.521  21.701  48.366  1.00  0.00     0.211 HD
ENDBRANCH   2  22
BRANCH   3  24
ATOM     24  O   UNL     1      15.458  24.539  49.281  1.00  0.00    -0.387 OA
ATOM     25  H   UNL     1      16.111  24.500  48.540  1.00  0.00     0.211 HD
ENDBRANCH   3  24
BRANCH   5  26
ATOM     26  O   UNL     1      16.115  25.251  46.320  1.00  0.00    -0.462 OA
BRANCH  26  27
ATOM     27  C   UNL     1      17.091  25.733  45.432  1.00  0.00     0.130 A 
ATOM     28  C   UNL     1      17.817  26.920  45.651  1.00  0.00     0.093 A 
ATOM     29  C   UNL     1      17.334  24.993  44.271  1.00  0.00     0.094 A 
ATOM     30  C   UNL     1      18.785  27.346  44.730  1.00  0.00     0.133 A 
ATOM     31  C   UNL     1      18.274  25.423  43.333  1.00  0.00     0.138 A 
ATOM     32  C   UNL     1      19.020  26.592  43.562  1.00  0.00     0.102 A 
ATOM     33  O   UNL     1      18.470  24.675  42.167  1.00  0.00    -0.484 OA
ATOM     34  C   UNL     1      20.060  26.952  42.569  1.00  0.00     0.174 C 
ATOM     35  C   UNL     1      19.188  25.190  41.043  1.00  0.00     0.211 C 
ATOM     36  O   UNL     1      20.677  28.050  42.636  1.00  0.00    -0.294 OA
ATOM     37  C   UNL     1      20.436  25.959  41.507  1.00  0.00     0.131 C 
BRANCH  30  38
ATOM     38  O   UNL     1      19.516  28.507  44.981  1.00  0.00    -0.507 OA
ATOM     39  H   UNL     1      19.281  29.133  45.744  1.00  0.00     0.293 HD
ENDBRANCH  30  38
BRANCH  35  40
ATOM     40  C   UNL     1      19.571  24.063  40.114  1.00  0.00    -0.003 A 
ATOM     41  C   UNL     1      20.429  23.042  40.553  1.00  0.00     0.057 A 
ATOM     42  C   UNL     1      19.026  23.991  38.821  1.00  0.00     0.011 A 
ATOM     43  C   UNL     1      20.759  21.979  39.702  1.00  0.00     0.158 A 
ATOM     44  C   UNL     1      19.347  22.926  37.976  1.00  0.00     0.051 A 
ATOM     45  C   UNL     1      20.220  21.912  38.409  1.00  0.00     0.160 A 
BRANCH  43  46
ATOM     46  O   UNL     1      21.621  20.972  40.138  1.00  0.00    -0.504 OA
ATOM     47  H   UNL     1      22.323  20.572  39.526  1.00  0.00     0.293 HD
ENDBRANCH  43  46
BRANCH  45  48
ATOM     48  O   UNL     1      20.569  20.824  37.593  1.00  0.00    -0.493 OA
ATOM     49  C   UNL     1      19.665  19.799  37.191  1.00  0.00     0.278 C 
ENDBRANCH  45  48
ENDBRANCH  35  40
ENDBRANCH  26  27
ENDBRANCH   5  26
BRANCH   4  50
ATOM     50  O   UNL     1      15.100  27.046  48.277  1.00  0.00    -0.384 OA
ATOM     51  H   UNL     1      15.708  26.614  48.930  1.00  0.00     0.211 HD
ENDBRANCH   4  50
TORSDOF 15
ENDMDL
MODEL 3
REMARK VINA RESULT:    -8.153      0.997      1.509
REMARK INTER + INTRA:         -15.113
REMARK INTER:                 -13.037
REMARK INTRA:                  -2.075
REMARK UNBOUND:                -1.716
REMARK SMILES COc1ccc([C@@H]2CC(=O)c3c(O)cc(O[C@H]4O[C@H](CO[C@H]5O[C@@H](C)[C@H](O)[C@H](O)[C@H]5O)[C@@H](O)[C@@H](O)[C@H]4O)cc3O2)cc1O
REMARK SMILES IDX 19 1 32 2 34 3 36 4 17 5 18 6 20 7 21 8 22 9 25 10 24 11
REMARK SMILES IDX 26 12 23 13 28 14 30 15 27 16 29 18 31 20 33 22 35 24 16 26
REMARK SMILES IDX 15 27 14 28 38 29 12 30 39 31 11 32 40 33 9 34 7 35 10 36
REMARK SMILES IDX 8 37 13 38 6 40 41 41 5 42 42 43 4 44 3 45 43 46 2 48 1 49
REMARK SMILES IDX 37 50
REMARK H PARENT 27 17 29 19 31 21 33 23 35 25 13 39 43 47 37 51
REMARK Flexibility Score: inf
ROOT
ATOM      1  C   UNL     1      13.810  23.880  46.470  1.00  0.00     0.180 C 
ATOM      2  C   UNL     1      13.432  23.823  47.971  1.00  0.00     0.177 C 
ATOM      3  C   UNL     1      14.436  24.633  48.819  1.00  0.00     0.180 C 
ATOM      4  C   UNL     1      14.718  26.014  48.190  1.00  0.00     0.214 C 
ATOM      5  C   UNL     1      14.949  25.923  46.663  1.00  0.00     0.339 C 
ATOM      6  O   UNL     1      13.882  25.229  46.036  1.00  0.00    -0.332 OA
ENDROOT
BRANCH   1   7
ATOM      7  C   UNL     1      12.780  23.149  45.597  1.00  0.00     0.198 C 
BRANCH   7   8
ATOM      8  O   UNL     1      13.447  22.437  44.567  1.00  0.00    -0.347 OA
BRANCH   8   9
ATOM      9  C   UNL     1      14.527  21.638  45.039  1.00  0.00     0.281 C 
ATOM     10  C   UNL     1      14.752  18.080  45.937  1.00  0.00     0.041 C 
ATOM     11  C   UNL     1      15.145  19.559  45.930  1.00  0.00     0.150 C 
ATOM     12  C   UNL     1      16.594  19.748  45.373  1.00  0.00     0.174 C 
ATOM     13  O   UNL     1      14.163  20.270  45.183  1.00  0.00    -0.344 OA
ATOM     14  C   UNL     1      16.555  20.468  44.011  1.00  0.00     0.179 C 
ATOM     15  C   UNL     1      15.794  21.806  44.148  1.00  0.00     0.202 C 
BRANCH  12  16
ATOM     16  O   UNL     1      17.347  20.498  46.295  1.00  0.00    -0.388 OA
ATOM     17  H   UNL     1      18.287  20.498  45.976  1.00  0.00     0.211 HD
ENDBRANCH  12  16
BRANCH  14  18
ATOM     18  O   UNL     1      17.854  20.713  43.539  1.00  0.00    -0.387 OA
ATOM     19  H   UNL     1      17.817  20.645  42.548  1.00  0.00     0.211 HD
ENDBRANCH  14  18
BRANCH  15  20
ATOM     20  O   UNL     1      15.496  22.365  42.888  1.00  0.00    -0.385 OA
ATOM     21  H   UNL     1      14.655  22.885  42.965  1.00  0.00     0.211 HD
ENDBRANCH  15  20
ENDBRANCH   8   9
ENDBRANCH   7   8
ENDBRANCH   1   7
BRANCH   2  22
ATOM     22  O   UNL     1      13.409  22.494  48.429  1.00  0.00    -0.387 OA
ATOM     23  H   UNL     1      13.674  22.509  49.384  1.00  0.00     0.211 HD
ENDBRANCH   2  22
BRANCH   3  24
ATOM     24  O   UNL     1      15.626  23.919  49.061  1.00  0.00    -0.387 OA
ATOM     25  H   UNL     1      16.331  24.268  48.463  1.00  0.00     0.211 HD
ENDBRANCH   3  24
BRANCH   5  26
ATOM     26  O   UNL     1      16.201  25.306  46.331  1.00  0.00    -0.462 OA
BRANCH  26  27
ATOM     27  C   UNL     1      17.167  25.781  45.429  1.00  0.00     0.130 A 
ATOM     28  C   UNL     1      17.898  26.969  45.631  1.00  0.00     0.093 A 
ATOM     29  C   UNL     1      17.395  25.033  44.270  1.00  0.00     0.094 A 
ATOM     30  C   UNL     1      18.855  27.387  44.696  1.00  0.00     0.133 A 
ATOM     31  C   UNL     1      18.324  25.455  43.318  1.00  0.00     0.138 A 
ATOM     32  C   UNL     1      19.074  26.624  43.530  1.00  0.00     0.102 A 
ATOM     33  O   UNL     1      18.505  24.699  42.154  1.00  0.00    -0.484 OA
ATOM     34  C   UNL     1      20.104  26.976  42.523  1.00  0.00     0.174 C 
ATOM     35  C   UNL     1      19.211  25.206  41.019  1.00  0.00     0.211 C 
ATOM     36  O   UNL     1      20.723  28.073  42.574  1.00  0.00    -0.294 OA
ATOM     37  C   UNL     1      20.465  25.976  41.462  1.00  0.00     0.131 C 
BRANCH  30  38
ATOM     38  O   UNL     1      19.590  28.548  44.930  1.00  0.00    -0.507 OA
ATOM     39  H   UNL     1      19.347  29.195  45.673  1.00  0.00     0.293 HD
ENDBRANCH  30  38
BRANCH  35  40
ATOM     40  C   UNL     1      19.581  24.071  40.093  1.00  0.00    -0.003 A 
ATOM     41  C   UNL     1      20.451  23.057  40.525  1.00  0.00     0.057 A 
ATOM     42  C   UNL     1      19.013  23.986  38.811  1.00  0.00     0.011 A 
ATOM     43  C   UNL     1      20.769  21.988  39.678  1.00  0.00     0.158 A 
ATOM     44  C   UNL     1      19.322  22.914  37.969  1.00  0.00     0.051 A 
ATOM     45  C   UNL     1      20.207  21.907  38.396  1.00  0.00     0.160 A 
BRANCH  43  46
ATOM     46  O   UNL     1      21.643  20.989  40.107  1.00  0.00    -0.504 OA
ATOM     47  H   UNL     1      21.332  20.032  40.241  1.00  0.00     0.293 HD
ENDBRANCH  43  46
BRANCH  45  48
ATOM     48  O   UNL     1      20.545  20.813  37.583  1.00  0.00    -0.493 OA
ATOM     49  C   UNL     1      19.636  19.786  37.201  1.00  0.00     0.278 C 
ENDBRANCH  45  48
ENDBRANCH  35  40
ENDBRANCH  26  27
ENDBRANCH   5  26
BRANCH   4  50
ATOM     50  O   UNL     1      15.811  26.626  48.820  1.00  0.00    -0.384 OA
ATOM     51  H   UNL     1      16.614  26.416  48.276  1.00  0.00     0.211 HD
ENDBRANCH   4  50
TORSDOF 15
ENDMDL
MODEL 4
REMARK VINA RESULT:    -7.986      2.664      5.711
REMARK INTER + INTRA:         -14.837
REMARK INTER:                 -13.173
REMARK INTRA:                  -1.664
REMARK UNBOUND:                -1.716
REMARK SMILES COc1ccc([C@@H]2CC(=O)c3c(O)cc(O[C@H]4O[C@H](CO[C@H]5O[C@@H](C)[C@H](O)[C@H](O)[C@H]5O)[C@@H](O)[C@@H](O)[C@H]4O)cc3O2)cc1O
REMARK SMILES IDX 19 1 32 2 34 3 36 4 17 5 18 6 20 7 21 8 22 9 25 10 24 11
REMARK SMILES IDX 26 12 23 13 28 14 30 15 27 16 29 18 31 20 33 22 35 24 16 26
REMARK SMILES IDX 15 27 14 28 38 29 12 30 39 31 11 32 40 33 9 34 7 35 10 36
REMARK SMILES IDX 8 37 13 38 6 40 41 41 5 42 42 43 4 44 3 45 43 46 2 48 1 49
REMARK SMILES IDX 37 50
REMARK H PARENT 27 17 29 19 31 21 33 23 35 25 13 39 43 47 37 51
REMARK Flexibility Score: inf
ROOT
ATOM      1  C   UNL     1      14.704  26.465  48.004  1.00  0.00     0.180 C 
ATOM      2  C   UNL     1      13.712  25.282  48.132  1.00  0.00     0.177 C 
ATOM      3  C   UNL     1      14.015  24.197  47.076  1.00  0.00     0.180 C 
ATOM      4  C   UNL     1      15.525  23.879  47.015  1.00  0.00     0.214 C 
ATOM      5  C   UNL     1      16.391  25.161  47.023  1.00  0.00     0.339 C 
ATOM      6  O   UNL     1      16.039  25.996  48.114  1.00  0.00    -0.332 OA
ENDROOT
BRANCH   1   7
ATOM      7  C   UNL     1      14.474  27.519  49.096  1.00  0.00     0.198 C 
BRANCH   7   8
ATOM      8  O   UNL     1      14.210  26.874  50.333  1.00  0.00    -0.347 OA
BRANCH   8   9
ATOM      9  C   UNL     1      15.200  27.124  51.325  1.00  0.00     0.281 C 
ATOM     10  C   UNL     1      15.100  28.991  54.490  1.00  0.00     0.041 C 
ATOM     11  C   UNL     1      15.731  28.340  53.258  1.00  0.00     0.150 C 
ATOM     12  C   UNL     1      16.756  27.234  53.675  1.00  0.00     0.174 C 
ATOM     13  O   UNL     1      14.679  27.844  52.437  1.00  0.00    -0.344 OA
ATOM     14  C   UNL     1      16.229  25.840  53.281  1.00  0.00     0.179 C 
ATOM     15  C   UNL     1      15.906  25.809  51.770  1.00  0.00     0.202 C 
BRANCH  12  16
ATOM     16  O   UNL     1      17.985  27.483  53.038  1.00  0.00    -0.388 OA
ATOM     17  H   UNL     1      17.782  27.884  52.153  1.00  0.00     0.211 HD
ENDBRANCH  12  16
BRANCH  14  18
ATOM     18  O   UNL     1      17.175  24.847  53.580  1.00  0.00    -0.387 OA
ATOM     19  H   UNL     1      17.783  24.785  52.797  1.00  0.00     0.211 HD
ENDBRANCH  14  18
BRANCH  15  20
ATOM     20  O   UNL     1      15.173  24.658  51.419  1.00  0.00    -0.385 OA
ATOM     21  H   UNL     1      15.117  24.065  52.213  1.00  0.00     0.211 HD
ENDBRANCH  15  20
ENDBRANCH   8   9
ENDBRANCH   7   8
ENDBRANCH   1   7
BRANCH   2  22
ATOM     22  O   UNL     1      12.387  25.724  47.972  1.00  0.00    -0.387 OA
ATOM     23  H   UNL     1      12.393  26.710  48.072  1.00  0.00     0.211 HD
ENDBRANCH   2  22
BRANCH   3  24
ATOM     24  O   UNL     1      13.501  24.530  45.808  1.00  0.00    -0.387 OA
ATOM     25  H   UNL     1      12.675  24.010  45.655  1.00  0.00     0.211 HD
ENDBRANCH   3  24
BRANCH   5  26
ATOM     26  O   UNL     1      16.303  25.894  45.793  1.00  0.00    -0.462 OA
BRANCH  26  27
ATOM     27  C   UNL     1      17.356  26.218  44.922  1.00  0.00     0.130 A 
ATOM     28  C   UNL     1      18.232  27.300  45.137  1.00  0.00     0.093 A 
ATOM     29  C   UNL     1      17.524  25.424  43.784  1.00  0.00     0.094 A 
ATOM     30  C   UNL     1      19.270  27.569  44.233  1.00  0.00     0.133 A 
ATOM     31  C   UNL     1      18.535  25.700  42.863  1.00  0.00     0.138 A 
ATOM     32  C   UNL     1      19.428  26.762  43.088  1.00  0.00     0.102 A 
ATOM     33  O   UNL     1      18.656  24.905  41.718  1.00  0.00    -0.484 OA
ATOM     34  C   UNL     1      20.531  26.954  42.116  1.00  0.00     0.174 C 
ATOM     35  C   UNL     1      19.464  25.291  40.603  1.00  0.00     0.211 C 
ATOM     36  O   UNL     1      21.290  27.959  42.176  1.00  0.00    -0.294 OA
ATOM     37  C   UNL     1      20.793  25.895  41.084  1.00  0.00     0.131 C 
BRANCH  30  38
ATOM     38  O   UNL     1      20.146  28.626  44.480  1.00  0.00    -0.507 OA
ATOM     39  H   UNL     1      21.062  28.477  44.890  1.00  0.00     0.293 HD
ENDBRANCH  30  38
BRANCH  35  40
ATOM     40  C   UNL     1      19.711  24.100  39.709  1.00  0.00    -0.003 A 
ATOM     41  C   UNL     1      19.348  24.142  38.353  1.00  0.00     0.057 A 
ATOM     42  C   UNL     1      20.360  22.959  40.208  1.00  0.00     0.011 A 
ATOM     43  C   UNL     1      19.607  23.050  37.516  1.00  0.00     0.158 A 
ATOM     44  C   UNL     1      20.627  21.872  39.370  1.00  0.00     0.051 A 
ATOM     45  C   UNL     1      20.248  21.908  38.016  1.00  0.00     0.160 A 
BRANCH  43  46
ATOM     46  O   UNL     1      19.234  23.092  36.172  1.00  0.00    -0.504 OA
ATOM     47  H   UNL     1      19.836  23.501  35.465  1.00  0.00     0.293 HD
ENDBRANCH  43  46
BRANCH  45  48
ATOM     48  O   UNL     1      20.497  20.839  37.140  1.00  0.00    -0.493 OA
ATOM     49  C   UNL     1      19.901  19.551  37.255  1.00  0.00     0.278 C 
ENDBRANCH  45  48
ENDBRANCH  35  40
ENDBRANCH  26  27
ENDBRANCH   5  26
BRANCH   4  50
ATOM     50  O   UNL     1      15.815  23.094  45.890  1.00  0.00    -0.384 OA
ATOM     51  H   UNL     1      14.951  22.744  45.550  1.00  0.00     0.211 HD
ENDBRANCH   4  50
TORSDOF 15
ENDMDL
MODEL 5
REMARK VINA RESULT:    -7.938      2.973      5.812
REMARK INTER + INTRA:         -14.758
REMARK INTER:                 -11.808
REMARK INTRA:                  -2.950
REMARK UNBOUND:                -1.716
REMARK SMILES COc1ccc([C@@H]2CC(=O)c3c(O)cc(O[C@H]4O[C@H](CO[C@H]5O[C@@H](C)[C@H](O)[C@H](O)[C@H]5O)[C@@H](O)[C@@H](O)[C@H]4O)cc3O2)cc1O
REMARK SMILES IDX 19 1 32 2 34 3 36 4 17 5 18 6 20 7 21 8 22 9 25 10 24 11
REMARK SMILES IDX 26 12 23 13 28 14 30 15 27 16 29 18 31 20 33 22 35 24 16 26
REMARK SMILES IDX 15 27 14 28 38 29 12 30 39 31 11 32 40 33 9 34 7 35 10 36
REMARK SMILES IDX 8 37 13 38 6 40 41 41 5 42 42 43 4 44 3 45 43 46 2 48 1 49
REMARK SMILES IDX 37 50
REMARK H PARENT 27 17 29 19 31 21 33 23 35 25 13 39 43 47 37 51
REMARK Flexibility Score: inf
ROOT
ATOM      1  C   UNL     1      14.954  19.696  46.659  1.00  0.00     0.180 C 
ATOM      2  C   UNL     1      15.356  18.226  46.936  1.00  0.00     0.177 C 
ATOM      3  C   UNL     1      16.180  18.119  48.238  1.00  0.00     0.180 C 
ATOM      4  C   UNL     1      15.528  18.925  49.382  1.00  0.00     0.214 C 
ATOM      5  C   UNL     1      15.062  20.325  48.918  1.00  0.00     0.339 C 
ATOM      6  O   UNL     1      14.240  20.222  47.767  1.00  0.00    -0.332 OA
ENDROOT
BRANCH   1   7
ATOM      7  C   UNL     1      14.065  19.816  45.414  1.00  0.00     0.198 C 
BRANCH   7   8
ATOM      8  O   UNL     1      14.842  19.580  44.250  1.00  0.00    -0.347 OA
BRANCH   8   9
ATOM      9  C   UNL     1      15.267  20.774  43.602  1.00  0.00     0.281 C 
ATOM     10  C   UNL     1      14.385  24.306  44.117  1.00  0.00     0.041 C 
ATOM     11  C   UNL     1      14.897  23.077  43.362  1.00  0.00     0.150 C 
ATOM     12  C   UNL     1      16.386  23.274  42.924  1.00  0.00     0.174 C 
ATOM     13  O   UNL     1      14.707  21.940  44.197  1.00  0.00    -0.344 OA
ATOM     14  C   UNL     1      17.306  22.315  43.705  1.00  0.00     0.179 C 
ATOM     15  C   UNL     1      16.820  20.859  43.522  1.00  0.00     0.202 C 
BRANCH  12  16
ATOM     16  O   UNL     1      16.494  23.028  41.542  1.00  0.00    -0.388 OA
ATOM     17  H   UNL     1      15.941  22.228  41.342  1.00  0.00     0.211 HD
ENDBRANCH  12  16
BRANCH  14  18
ATOM     18  O   UNL     1      18.633  22.427  43.263  1.00  0.00    -0.387 OA
ATOM     19  H   UNL     1      18.617  22.319  42.276  1.00  0.00     0.211 HD
ENDBRANCH  14  18
BRANCH  15  20
ATOM     20  O   UNL     1      17.455  19.983  44.426  1.00  0.00    -0.385 OA
ATOM     21  H   UNL     1      18.230  19.565  43.970  1.00  0.00     0.211 HD
ENDBRANCH  15  20
ENDBRANCH   8   9
ENDBRANCH   7   8
ENDBRANCH   1   7
BRANCH   2  22
ATOM     22  O   UNL     1      16.111  17.707  45.870  1.00  0.00    -0.387 OA
ATOM     23  H   UNL     1      16.546  18.475  45.418  1.00  0.00     0.211 HD
ENDBRANCH   2  22
BRANCH   3  24
ATOM     24  O   UNL     1      17.527  18.484  48.046  1.00  0.00    -0.387 OA
ATOM     25  H   UNL     1      17.726  19.267  48.615  1.00  0.00     0.211 HD
ENDBRANCH   3  24
BRANCH   5  26
ATOM     26  O   UNL     1      16.159  21.214  48.663  1.00  0.00    -0.462 OA
BRANCH  26  27
ATOM     27  C   UNL     1      16.088  22.590  48.388  1.00  0.00     0.130 A 
ATOM     28  C   UNL     1      15.366  23.502  49.183  1.00  0.00     0.093 A 
ATOM     29  C   UNL     1      16.765  23.061  47.259  1.00  0.00     0.094 A 
ATOM     30  C   UNL     1      15.340  24.866  48.861  1.00  0.00     0.133 A 
ATOM     31  C   UNL     1      16.721  24.412  46.912  1.00  0.00     0.138 A 
ATOM     32  C   UNL     1      16.024  25.329  47.718  1.00  0.00     0.102 A 
ATOM     33  O   UNL     1      17.382  24.845  45.757  1.00  0.00    -0.484 OA
ATOM     34  C   UNL     1      16.083  26.762  47.343  1.00  0.00     0.174 C 
ATOM     35  C   UNL     1      17.150  26.134  45.184  1.00  0.00     0.211 C 
ATOM     36  O   UNL     1      15.380  27.624  47.936  1.00  0.00    -0.294 OA
ATOM     37  C   UNL     1      17.051  27.204  46.283  1.00  0.00     0.131 C 
BRANCH  30  38
ATOM     38  O   UNL     1      14.646  25.757  49.679  1.00  0.00    -0.507 OA
ATOM     39  H   UNL     1      14.105  25.441  50.477  1.00  0.00     0.293 HD
ENDBRANCH  30  38
BRANCH  35  40
ATOM     40  C   UNL     1      18.252  26.471  44.208  1.00  0.00    -0.003 A 
ATOM     41  C   UNL     1      18.052  26.313  42.828  1.00  0.00     0.057 A 
ATOM     42  C   UNL     1      19.469  27.001  44.667  1.00  0.00     0.011 A 
ATOM     43  C   UNL     1      19.063  26.656  41.921  1.00  0.00     0.158 A 
ATOM     44  C   UNL     1      20.475  27.352  43.762  1.00  0.00     0.051 A 
ATOM     45  C   UNL     1      20.280  27.178  42.380  1.00  0.00     0.160 A 
BRANCH  43  46
ATOM     46  O   UNL     1      18.863  26.486  40.550  1.00  0.00    -0.504 OA
ATOM     47  H   UNL     1      19.607  26.165  39.940  1.00  0.00     0.293 HD
ENDBRANCH  43  46
BRANCH  45  48
ATOM     48  O   UNL     1      21.263  27.518  41.436  1.00  0.00    -0.493 OA
ATOM     49  C   UNL     1      22.139  28.634  41.555  1.00  0.00     0.278 C 
ENDBRANCH  45  48
ENDBRANCH  35  40
ENDBRANCH  26  27
ENDBRANCH   5  26
BRANCH   4  50
ATOM     50  O   UNL     1      16.408  19.032  50.469  1.00  0.00    -0.384 OA
ATOM     51  H   UNL     1      16.361  18.175  50.966  1.00  0.00     0.211 HD
ENDBRANCH   4  50
TORSDOF 15
ENDMDL
MODEL 6
REMARK VINA RESULT:    -7.611      2.624      6.432
REMARK INTER + INTRA:         -14.222
REMARK INTER:                 -11.955
REMARK INTRA:                  -2.266
REMARK UNBOUND:                -1.716
REMARK SMILES COc1ccc([C@@H]2CC(=O)c3c(O)cc(O[C@H]4O[C@H](CO[C@H]5O[C@@H](C)[C@H](O)[C@H](O)[C@H]5O)[C@@H](O)[C@@H](O)[C@H]4O)cc3O2)cc1O
REMARK SMILES IDX 19 1 32 2 34 3 36 4 17 5 18 6 20 7 21 8 22 9 25 10 24 11
REMARK SMILES IDX 26 12 23 13 28 14 30 15 27 16 29 18 31 20 33 22 35 24 16 26
REMARK SMILES IDX 15 27 14 28 38 29 12 30 39 31 11 32 40 33 9 34 7 35 10 36
REMARK SMILES IDX 8 37 13 38 6 40 41 41 5 42 42 43 4 44 3 45 43 46 2 48 1 49
REMARK SMILES IDX 37 50
REMARK H PARENT 27 17 29 19 31 21 33 23 35 25 13 39 43 47 37 51
REMARK Flexibility Score: inf
ROOT
ATOM      1  C   UNL     1      15.189  20.197  47.079  1.00  0.00     0.180 C 
ATOM      2  C   UNL     1      15.239  18.763  47.663  1.00  0.00     0.177 C 
ATOM      3  C   UNL     1      15.680  17.748  46.585  1.00  0.00     0.180 C 
ATOM      4  C   UNL     1      16.907  18.260  45.801  1.00  0.00     0.214 C 
ATOM      5  C   UNL     1      16.764  19.746  45.397  1.00  0.00     0.339 C 
ATOM      6  O   UNL     1      16.450  20.543  46.528  1.00  0.00    -0.332 OA
ENDROOT
BRANCH   1   7
ATOM      7  C   UNL     1      14.832  21.234  48.152  1.00  0.00     0.198 C 
BRANCH   7   8
ATOM      8  O   UNL     1      15.876  22.190  48.256  1.00  0.00    -0.347 OA
BRANCH   8   9
ATOM      9  C   UNL     1      15.441  23.530  48.051  1.00  0.00     0.281 C 
ATOM     10  C   UNL     1      15.358  26.460  50.269  1.00  0.00     0.041 C 
ATOM     11  C   UNL     1      14.966  25.583  49.079  1.00  0.00     0.150 C 
ATOM     12  C   UNL     1      15.236  26.324  47.728  1.00  0.00     0.174 C 
ATOM     13  O   UNL     1      15.672  24.352  49.190  1.00  0.00    -0.344 OA
ATOM     14  C   UNL     1      16.386  25.641  46.962  1.00  0.00     0.179 C 
ATOM     15  C   UNL     1      16.064  24.142  46.763  1.00  0.00     0.202 C 
BRANCH  12  16
ATOM     16  O   UNL     1      14.063  26.308  46.952  1.00  0.00    -0.388 OA
ATOM     17  H   UNL     1      13.296  26.381  47.579  1.00  0.00     0.211 HD
ENDBRANCH  12  16
BRANCH  14  18
ATOM     18  O   UNL     1      16.585  26.250  45.713  1.00  0.00    -0.387 OA
ATOM     19  H   UNL     1      16.663  25.517  45.047  1.00  0.00     0.211 HD
ENDBRANCH  14  18
BRANCH  15  20
ATOM     20  O   UNL     1      17.193  23.424  46.316  1.00  0.00    -0.385 OA
ATOM     21  H   UNL     1      17.550  22.894  47.075  1.00  0.00     0.211 HD
ENDBRANCH  15  20
ENDBRANCH   8   9
ENDBRANCH   7   8
ENDBRANCH   1   7
BRANCH   2  22
ATOM     22  O   UNL     1      13.981  18.385  48.164  1.00  0.00    -0.387 OA
ATOM     23  H   UNL     1      13.337  19.090  47.900  1.00  0.00     0.211 HD
ENDBRANCH   2  22
BRANCH   3  24
ATOM     24  O   UNL     1      14.623  17.393  45.725  1.00  0.00    -0.387 OA
ATOM     25  H   UNL     1      13.826  17.186  46.272  1.00  0.00     0.211 HD
ENDBRANCH   3  24
BRANCH   5  26
ATOM     26  O   UNL     1      15.785  19.945  44.367  1.00  0.00    -0.462 OA
BRANCH  26  27
ATOM     27  C   UNL     1      15.552  21.122  43.637  1.00  0.00     0.130 A 
ATOM     28  C   UNL     1      14.269  21.540  43.231  1.00  0.00     0.093 A 
ATOM     29  C   UNL     1      16.660  21.902  43.293  1.00  0.00     0.094 A 
ATOM     30  C   UNL     1      14.100  22.730  42.509  1.00  0.00     0.133 A 
ATOM     31  C   UNL     1      16.507  23.073  42.549  1.00  0.00     0.138 A 
ATOM     32  C   UNL     1      15.226  23.506  42.166  1.00  0.00     0.102 A 
ATOM     33  O   UNL     1      17.640  23.813  42.193  1.00  0.00    -0.484 OA
ATOM     34  C   UNL     1      15.121  24.800  41.449  1.00  0.00     0.174 C 
ATOM     35  C   UNL     1      17.597  24.846  41.205  1.00  0.00     0.211 C 
ATOM     36  O   UNL     1      14.027  25.190  40.959  1.00  0.00    -0.294 OA
ATOM     37  C   UNL     1      16.325  25.693  41.366  1.00  0.00     0.131 C 
BRANCH  30  38
ATOM     38  O   UNL     1      12.819  23.142  42.145  1.00  0.00    -0.507 OA
ATOM     39  H   UNL     1      11.992  22.613  42.404  1.00  0.00     0.293 HD
ENDBRANCH  30  38
BRANCH  35  40
ATOM     40  C   UNL     1      18.831  25.710  41.308  1.00  0.00    -0.003 A 
ATOM     41  C   UNL     1      19.113  26.407  42.494  1.00  0.00     0.057 A 
ATOM     42  C   UNL     1      19.741  25.780  40.241  1.00  0.00     0.011 A 
ATOM     43  C   UNL     1      20.274  27.183  42.601  1.00  0.00     0.158 A 
ATOM     44  C   UNL     1      20.904  26.546  40.351  1.00  0.00     0.051 A 
ATOM     45  C   UNL     1      21.178  27.258  41.533  1.00  0.00     0.160 A 
BRANCH  43  46
ATOM     46  O   UNL     1      20.544  27.883  43.778  1.00  0.00    -0.504 OA
ATOM     47  H   UNL     1      19.896  28.570  44.148  1.00  0.00     0.293 HD
ENDBRANCH  43  46
BRANCH  45  48
ATOM     48  O   UNL     1      22.335  28.039  41.685  1.00  0.00    -0.493 OA
ATOM     49  C   UNL     1      22.433  29.410  41.313  1.00  0.00     0.278 C 
ENDBRANCH  45  48
ENDBRANCH  35  40
ENDBRANCH  26  27
ENDBRANCH   5  26
BRANCH   4  50
ATOM     50  O   UNL     1      17.134  17.460  44.671  1.00  0.00    -0.384 OA
ATOM     51  H   UNL     1      16.493  17.754  43.974  1.00  0.00     0.211 HD
ENDBRANCH   4  50
TORSDOF 15
ENDMDL
MODEL 7
REMARK VINA RESULT:    -7.414      3.122      6.319
REMARK INTER + INTRA:         -13.897
REMARK INTER:                 -11.514
REMARK INTRA:                  -2.383
REMARK UNBOUND:                -1.716
REMARK SMILES COc1ccc([C@@H]2CC(=O)c3c(O)cc(O[C@H]4O[C@H](CO[C@H]5O[C@@H](C)[C@H](O)[C@H](O)[C@H]5O)[C@@H](O)[C@@H](O)[C@H]4O)cc3O2)cc1O
REMARK SMILES IDX 19 1 32 2 34 3 36 4 17 5 18 6 20 7 21 8 22 9 25 10 24 11
REMARK SMILES IDX 26 12 23 13 28 14 30 15 27 16 29 18 31 20 33 22 35 24 16 26
REMARK SMILES IDX 15 27 14 28 38 29 12 30 39 31 11 32 40 33 9 34 7 35 10 36
REMARK SMILES IDX 8 37 13 38 6 40 41 41 5 42 42 43 4 44 3 45 43 46 2 48 1 49
REMARK SMILES IDX 37 50
REMARK H PARENT 27 17 29 19 31 21 33 23 35 25 13 39 43 47 37 51
REMARK Flexibility Score: inf
ROOT
ATOM      1  C   UNL     1      14.190  18.782  49.683  1.00  0.00     0.180 C 
ATOM      2  C   UNL     1      14.727  17.981  50.895  1.00  0.00     0.177 C 
ATOM      3  C   UNL     1      15.410  18.919  51.913  1.00  0.00     0.180 C 
ATOM      4  C   UNL     1      14.548  20.169  52.190  1.00  0.00     0.214 C 
ATOM      5  C   UNL     1      13.977  20.784  50.890  1.00  0.00     0.339 C 
ATOM      6  O   UNL     1      13.303  19.798  50.125  1.00  0.00    -0.332 OA
ENDROOT
BRANCH   1   7
ATOM      7  C   UNL     1      13.435  17.881  48.696  1.00  0.00     0.198 C 
BRANCH   7   8
ATOM      8  O   UNL     1      13.400  18.498  47.418  1.00  0.00    -0.347 OA
BRANCH   8   9
ATOM      9  C   UNL     1      14.645  19.069  47.030  1.00  0.00     0.281 C 
ATOM     10  C   UNL     1      17.312  17.878  44.798  1.00  0.00     0.041 C 
ATOM     11  C   UNL     1      16.680  18.694  45.928  1.00  0.00     0.150 C 
ATOM     12  C   UNL     1      16.817  20.227  45.652  1.00  0.00     0.174 C 
ATOM     13  O   UNL     1      15.329  18.270  46.070  1.00  0.00    -0.344 OA
ATOM     14  C   UNL     1      15.433  20.846  45.369  1.00  0.00     0.179 C 
ATOM     15  C   UNL     1      14.473  20.537  46.540  1.00  0.00     0.202 C 
BRANCH  12  16
ATOM     16  O   UNL     1      17.403  20.845  46.772  1.00  0.00    -0.388 OA
ATOM     17  H   UNL     1      18.166  20.276  47.055  1.00  0.00     0.211 HD
ENDBRANCH  12  16
BRANCH  14  18
ATOM     18  O   UNL     1      15.534  22.235  45.197  1.00  0.00    -0.387 OA
ATOM     19  H   UNL     1      16.468  22.422  44.912  1.00  0.00     0.211 HD
ENDBRANCH  14  18
BRANCH  15  20
ATOM     20  O   UNL     1      13.137  20.841  46.209  1.00  0.00    -0.385 OA
ATOM     21  H   UNL     1      12.556  20.104  46.531  1.00  0.00     0.211 HD
ENDBRANCH  15  20
ENDBRANCH   8   9
ENDBRANCH   7   8
ENDBRANCH   1   7
BRANCH   2  22
ATOM     22  O   UNL     1      15.649  17.005  50.477  1.00  0.00    -0.387 OA
ATOM     23  H   UNL     1      15.127  16.247  50.108  1.00  0.00     0.211 HD
ENDBRANCH   2  22
BRANCH   3  24
ATOM     24  O   UNL     1      16.719  19.265  51.523  1.00  0.00    -0.387 OA
ATOM     25  H   UNL     1      17.190  19.649  52.303  1.00  0.00     0.211 HD
ENDBRANCH   3  24
BRANCH   5  26
ATOM     26  O   UNL     1      14.984  21.422  50.094  1.00  0.00    -0.462 OA
BRANCH  26  27
ATOM     27  C   UNL     1      15.060  22.784  49.755  1.00  0.00     0.130 A 
ATOM     28  C   UNL     1      14.585  23.816  50.588  1.00  0.00     0.093 A 
ATOM     29  C   UNL     1      15.628  23.114  48.521  1.00  0.00     0.094 A 
ATOM     30  C   UNL     1      14.696  25.158  50.196  1.00  0.00     0.133 A 
ATOM     31  C   UNL     1      15.717  24.444  48.108  1.00  0.00     0.138 A 
ATOM     32  C   UNL     1      15.269  25.478  48.948  1.00  0.00     0.102 A 
ATOM     33  O   UNL     1      16.262  24.738  46.853  1.00  0.00    -0.484 OA
ATOM     34  C   UNL     1      15.466  26.874  48.490  1.00  0.00     0.174 C 
ATOM     35  C   UNL     1      16.126  26.025  46.245  1.00  0.00     0.211 C 
ATOM     36  O   UNL     1      14.975  27.847  49.123  1.00  0.00    -0.294 OA
ATOM     37  C   UNL     1      16.326  27.137  47.287  1.00  0.00     0.131 C 
BRANCH  30  38
ATOM     38  O   UNL     1      14.249  26.167  51.049  1.00  0.00    -0.507 OA
ATOM     39  H   UNL     1      13.268  26.419  51.112  1.00  0.00     0.293 HD
ENDBRANCH  30  38
BRANCH  35  40
ATOM     40  C   UNL     1      17.116  26.168  45.114  1.00  0.00    -0.003 A 
ATOM     41  C   UNL     1      18.197  27.057  45.225  1.00  0.00     0.057 A 
ATOM     42  C   UNL     1      17.000  25.372  43.963  1.00  0.00     0.011 A 
ATOM     43  C   UNL     1      19.133  27.167  44.189  1.00  0.00     0.158 A 
ATOM     44  C   UNL     1      17.939  25.474  42.933  1.00  0.00     0.051 A 
ATOM     45  C   UNL     1      19.013  26.377  43.037  1.00  0.00     0.160 A 
BRANCH  43  46
ATOM     46  O   UNL     1      20.200  28.060  44.299  1.00  0.00    -0.504 OA
ATOM     47  H   UNL     1      20.110  29.032  44.023  1.00  0.00     0.293 HD
ENDBRANCH  43  46
BRANCH  45  48
ATOM     48  O   UNL     1      19.979  26.511  42.027  1.00  0.00    -0.493 OA
ATOM     49  C   UNL     1      19.790  27.257  40.829  1.00  0.00     0.278 C 
ENDBRANCH  45  48
ENDBRANCH  35  40
ENDBRANCH  26  27
ENDBRANCH   5  26
BRANCH   4  50
ATOM     50  O   UNL     1      15.285  21.124  52.905  1.00  0.00    -0.384 OA
ATOM     51  H   UNL     1      15.957  21.499  52.280  1.00  0.00     0.211 HD
ENDBRANCH   4  50
TORSDOF 15
ENDMDL
MODEL 8
REMARK VINA RESULT:    -7.383      2.789      5.609
REMARK INTER + INTRA:         -13.847
REMARK INTER:                 -11.442
REMARK INTRA:                  -2.405
REMARK UNBOUND:                -1.716
REMARK SMILES COc1ccc([C@@H]2CC(=O)c3c(O)cc(O[C@H]4O[C@H](CO[C@H]5O[C@@H](C)[C@H](O)[C@H](O)[C@H]5O)[C@@H](O)[C@@H](O)[C@H]4O)cc3O2)cc1O
REMARK SMILES IDX 19 1 32 2 34 3 36 4 17 5 18 6 20 7 21 8 22 9 25 10 24 11
REMARK SMILES IDX 26 12 23 13 28 14 30 15 27 16 29 18 31 20 33 22 35 24 16 26
REMARK SMILES IDX 15 27 14 28 38 29 12 30 39 31 11 32 40 33 9 34 7 35 10 36
REMARK SMILES IDX 8 37 13 38 6 40 41 41 5 42 42 43 4 44 3 45 43 46 2 48 1 49
REMARK SMILES IDX 37 50
REMARK H PARENT 27 17 29 19 31 21 33 23 35 25 13 39 43 47 37 51
REMARK Flexibility Score: inf
ROOT
ATOM      1  C   UNL     1      12.758  19.634  46.369  1.00  0.00     0.180 C 
ATOM      2  C   UNL     1      12.617  18.217  46.978  1.00  0.00     0.177 C 
ATOM      3  C   UNL     1      13.155  18.187  48.425  1.00  0.00     0.180 C 
ATOM      4  C   UNL     1      12.633  19.388  49.243  1.00  0.00     0.214 C 
ATOM      5  C   UNL     1      12.721  20.715  48.452  1.00  0.00     0.339 C 
ATOM      6  O   UNL     1      12.093  20.585  47.187  1.00  0.00    -0.332 OA
ENDROOT
BRANCH   1   7
ATOM      7  C   UNL     1      12.155  19.708  44.959  1.00  0.00     0.198 C 
BRANCH   7   8
ATOM      8  O   UNL     1      13.060  20.368  44.088  1.00  0.00    -0.347 OA
BRANCH   8   9
ATOM      9  C   UNL     1      14.419  20.264  44.498  1.00  0.00     0.281 C 
ATOM     10  C   UNL     1      16.723  17.405  44.687  1.00  0.00     0.041 C 
ATOM     11  C   UNL     1      16.172  18.794  45.014  1.00  0.00     0.150 C 
ATOM     12  C   UNL     1      17.213  19.905  44.656  1.00  0.00     0.174 C 
ATOM     13  O   UNL     1      14.934  18.947  44.328  1.00  0.00    -0.344 OA
ATOM     14  C   UNL     1      16.709  20.748  43.468  1.00  0.00     0.179 C 
ATOM     15  C   UNL     1      15.313  21.326  43.791  1.00  0.00     0.202 C 
BRANCH  12  16
ATOM     16  O   UNL     1      17.414  20.726  45.781  1.00  0.00    -0.388 OA
ATOM     17  H   UNL     1      18.281  20.461  46.186  1.00  0.00     0.211 HD
ENDBRANCH  12  16
BRANCH  14  18
ATOM     18  O   UNL     1      17.599  21.797  43.189  1.00  0.00    -0.387 OA
ATOM     19  H   UNL     1      17.608  22.386  43.989  1.00  0.00     0.211 HD
ENDBRANCH  14  18
BRANCH  15  20
ATOM     20  O   UNL     1      14.698  21.870  42.645  1.00  0.00    -0.385 OA
ATOM     21  H   UNL     1      13.876  22.349  42.925  1.00  0.00     0.211 HD
ENDBRANCH  15  20
ENDBRANCH   8   9
ENDBRANCH   7   8
ENDBRANCH   1   7
BRANCH   2  22
ATOM     22  O   UNL     1      13.316  17.272  46.208  1.00  0.00    -0.387 OA
ATOM     23  H   UNL     1      13.639  17.738  45.395  1.00  0.00     0.211 HD
ENDBRANCH   2  22
BRANCH   3  24
ATOM     24  O   UNL     1      14.560  18.099  48.468  1.00  0.00    -0.387 OA
ATOM     25  H   UNL     1      14.814  17.434  49.154  1.00  0.00     0.211 HD
ENDBRANCH   3  24
BRANCH   5  26
ATOM     26  O   UNL     1      14.071  21.171  48.289  1.00  0.00    -0.462 OA
BRANCH  26  27
ATOM     27  C   UNL     1      14.513  22.502  48.218  1.00  0.00     0.130 A 
ATOM     28  C   UNL     1      14.329  23.435  49.257  1.00  0.00     0.093 A 
ATOM     29  C   UNL     1      15.156  22.910  47.045  1.00  0.00     0.094 A 
ATOM     30  C   UNL     1      14.800  24.750  49.129  1.00  0.00     0.133 A 
ATOM     31  C   UNL     1      15.603  24.223  46.895  1.00  0.00     0.138 A 
ATOM     32  C   UNL     1      15.445  25.150  47.940  1.00  0.00     0.102 A 
ATOM     33  O   UNL     1      16.213  24.607  45.695  1.00  0.00    -0.484 OA
ATOM     34  C   UNL     1      16.013  26.506  47.752  1.00  0.00     0.174 C 
ATOM     35  C   UNL     1      16.433  25.979  45.357  1.00  0.00     0.211 C 
ATOM     36  O   UNL     1      15.799  27.427  48.586  1.00  0.00    -0.294 OA
ATOM     37  C   UNL     1      16.919  26.767  46.583  1.00  0.00     0.131 C 
BRANCH  30  38
ATOM     38  O   UNL     1      14.637  25.649  50.182  1.00  0.00    -0.507 OA
ATOM     39  H   UNL     1      14.289  26.591  50.033  1.00  0.00     0.293 HD
ENDBRANCH  30  38
BRANCH  35  40
ATOM     40  C   UNL     1      17.431  26.078  44.228  1.00  0.00    -0.003 A 
ATOM     41  C   UNL     1      18.553  26.914  44.343  1.00  0.00     0.057 A 
ATOM     42  C   UNL     1      17.279  25.291  43.074  1.00  0.00     0.011 A 
ATOM     43  C   UNL     1      19.495  26.982  43.309  1.00  0.00     0.158 A 
ATOM     44  C   UNL     1      18.224  25.351  42.047  1.00  0.00     0.051 A 
ATOM     45  C   UNL     1      19.340  26.201  42.155  1.00  0.00     0.160 A 
BRANCH  43  46
ATOM     46  O   UNL     1      20.603  27.823  43.424  1.00  0.00    -0.504 OA
ATOM     47  H   UNL     1      20.793  28.547  42.740  1.00  0.00     0.293 HD
ENDBRANCH  43  46
BRANCH  45  48
ATOM     48  O   UNL     1      20.313  26.292  41.147  1.00  0.00    -0.493 OA
ATOM     49  C   UNL     1      20.160  27.045  39.948  1.00  0.00     0.278 C 
ENDBRANCH  45  48
ENDBRANCH  35  40
ENDBRANCH  26  27
ENDBRANCH   5  26
BRANCH   4  50
ATOM     50  O   UNL     1      13.325  19.491  50.459  1.00  0.00    -0.384 OA
ATOM     51  H   UNL     1      14.190  19.937  50.264  1.00  0.00     0.211 HD
ENDBRANCH   4  50
TORSDOF 15
ENDMDL
MODEL 9
REMARK VINA RESULT:    -7.279      1.881      3.191
REMARK INTER + INTRA:         -13.677
REMARK INTER:                 -11.333
REMARK INTRA:                  -2.344
REMARK UNBOUND:                -1.716
REMARK SMILES COc1ccc([C@@H]2CC(=O)c3c(O)cc(O[C@H]4O[C@H](CO[C@H]5O[C@@H](C)[C@H](O)[C@H](O)[C@H]5O)[C@@H](O)[C@@H](O)[C@H]4O)cc3O2)cc1O
REMARK SMILES IDX 19 1 32 2 34 3 36 4 17 5 18 6 20 7 21 8 22 9 25 10 24 11
REMARK SMILES IDX 26 12 23 13 28 14 30 15 27 16 29 18 31 20 33 22 35 24 16 26
REMARK SMILES IDX 15 27 14 28 38 29 12 30 39 31 11 32 40 33 9 34 7 35 10 36
REMARK SMILES IDX 8 37 13 38 6 40 41 41 5 42 42 43 4 44 3 45 43 46 2 48 1 49
REMARK SMILES IDX 37 50
REMARK H PARENT 27 17 29 19 31 21 33 23 35 25 13 39 43 47 37 51
REMARK Flexibility Score: inf
ROOT
ATOM      1  C   UNL     1      12.818  21.581  45.902  1.00  0.00     0.180 C 
ATOM      2  C   UNL     1      12.325  20.468  46.860  1.00  0.00     0.177 C 
ATOM      3  C   UNL     1      12.877  20.688  48.285  1.00  0.00     0.180 C 
ATOM      4  C   UNL     1      12.713  22.157  48.730  1.00  0.00     0.214 C 
ATOM      5  C   UNL     1      13.125  23.152  47.620  1.00  0.00     0.339 C 
ATOM      6  O   UNL     1      12.451  22.856  46.407  1.00  0.00    -0.332 OA
ENDROOT
BRANCH   1   7
ATOM      7  C   UNL     1      12.217  21.430  44.498  1.00  0.00     0.198 C 
BRANCH   7   8
ATOM      8  O   UNL     1      13.178  20.851  43.629  1.00  0.00    -0.347 OA
BRANCH   8   9
ATOM      9  C   UNL     1      14.441  20.629  44.247  1.00  0.00     0.281 C 
ATOM     10  C   UNL     1      16.373  17.564  44.871  1.00  0.00     0.041 C 
ATOM     11  C   UNL     1      15.929  19.015  45.070  1.00  0.00     0.150 C 
ATOM     12  C   UNL     1      17.124  19.999  44.847  1.00  0.00     0.174 C 
ATOM     13  O   UNL     1      14.833  19.261  44.197  1.00  0.00    -0.344 OA
ATOM     14  C   UNL     1      16.898  20.835  43.572  1.00  0.00     0.179 C 
ATOM     15  C   UNL     1      15.538  21.564  43.658  1.00  0.00     0.202 C 
BRANCH  12  16
ATOM     16  O   UNL     1      17.238  20.844  45.965  1.00  0.00    -0.388 OA
ATOM     17  H   UNL     1      18.126  20.671  46.375  1.00  0.00     0.211 HD
ENDBRANCH  12  16
BRANCH  14  18
ATOM     18  O   UNL     1      17.926  21.776  43.404  1.00  0.00    -0.387 OA
ATOM     19  H   UNL     1      18.489  21.454  42.652  1.00  0.00     0.211 HD
ENDBRANCH  14  18
BRANCH  15  20
ATOM     20  O   UNL     1      15.165  22.116  42.416  1.00  0.00    -0.385 OA
ATOM     21  H   UNL     1      15.032  23.092  42.531  1.00  0.00     0.211 HD
ENDBRANCH  15  20
ENDBRANCH   8   9
ENDBRANCH   7   8
ENDBRANCH   1   7
BRANCH   2  22
ATOM     22  O   UNL     1      12.729  19.202  46.400  1.00  0.00    -0.387 OA
ATOM     23  H   UNL     1      13.359  18.834  47.071  1.00  0.00     0.211 HD
ENDBRANCH   2  22
BRANCH   3  24
ATOM     24  O   UNL     1      14.210  20.250  48.413  1.00  0.00    -0.387 OA
ATOM     25  H   UNL     1      14.811  21.016  48.242  1.00  0.00     0.211 HD
ENDBRANCH   3  24
BRANCH   5  26
ATOM     26  O   UNL     1      14.542  23.178  47.401  1.00  0.00    -0.462 OA
BRANCH  26  27
ATOM     27  C   UNL     1      15.283  24.186  46.762  1.00  0.00     0.130 A 
ATOM     28  C   UNL     1      15.614  25.411  47.375  1.00  0.00     0.093 A 
ATOM     29  C   UNL     1      15.696  23.952  45.447  1.00  0.00     0.094 A 
ATOM     30  C   UNL     1      16.363  26.376  46.686  1.00  0.00     0.133 A 
ATOM     31  C   UNL     1      16.416  24.916  44.741  1.00  0.00     0.138 A 
ATOM     32  C   UNL     1      16.771  26.128  45.359  1.00  0.00     0.102 A 
ATOM     33  O   UNL     1      16.786  24.663  43.416  1.00  0.00    -0.484 OA
ATOM     34  C   UNL     1      17.607  27.078  44.586  1.00  0.00     0.174 C 
ATOM     35  C   UNL     1      17.262  25.694  42.547  1.00  0.00     0.211 C 
ATOM     36  O   UNL     1      17.855  28.236  45.020  1.00  0.00    -0.294 OA
ATOM     37  C   UNL     1      18.227  26.627  43.295  1.00  0.00     0.131 C 
BRANCH  30  38
ATOM     38  O   UNL     1      16.707  27.568  47.322  1.00  0.00    -0.507 OA
ATOM     39  H   UNL     1      17.451  27.612  48.010  1.00  0.00     0.293 HD
ENDBRANCH  30  38
BRANCH  35  40
ATOM     40  C   UNL     1      17.937  25.082  41.343  1.00  0.00    -0.003 A 
ATOM     41  C   UNL     1      17.171  24.516  40.311  1.00  0.00     0.057 A 
ATOM     42  C   UNL     1      19.335  25.125  41.213  1.00  0.00     0.011 A 
ATOM     43  C   UNL     1      17.796  23.977  39.179  1.00  0.00     0.158 A 
ATOM     44  C   UNL     1      19.958  24.596  40.079  1.00  0.00     0.051 A 
ATOM     45  C   UNL     1      19.191  24.014  39.053  1.00  0.00     0.160 A 
BRANCH  43  46
ATOM     46  O   UNL     1      17.031  23.405  38.162  1.00  0.00    -0.504 OA
ATOM     47  H   UNL     1      17.367  23.359  37.205  1.00  0.00     0.293 HD
ENDBRANCH  43  46
BRANCH  45  48
ATOM     48  O   UNL     1      19.776  23.471  37.898  1.00  0.00    -0.493 OA
ATOM     49  C   UNL     1      20.120  22.099  37.740  1.00  0.00     0.278 C 
ENDBRANCH  45  48
ENDBRANCH  35  40
ENDBRANCH  26  27
ENDBRANCH   5  26
BRANCH   4  50
ATOM     50  O   UNL     1      13.441  22.397  49.904  1.00  0.00    -0.384 OA
ATOM     51  H   UNL     1      14.050  23.158  49.718  1.00  0.00     0.211 HD
ENDBRANCH   4  50
TORSDOF 15
ENDMDL
