MODEL 1
REMARK VINA RESULT:    -3.793      0.000      0.000
REMARK INTER + INTRA:          -4.921
REMARK INTER:                  -5.345
REMARK INTRA:                   0.423
REMARK UNBOUND:                 0.423
REMARK SMILES CC1=CCC(=C(C)C)C(=O)CC(C)=CCC1
REMARK SMILES IDX 12 1 14 2 13 3 15 4 16 5 2 6 1 7 3 8 11 10 9 11 10 12 5 13
REMARK SMILES IDX 6 14 7 15 8 16 4 17
REMARK H PARENT
REMARK Flexibility Score: 60.00
ROOT
ATOM      1  C   UNL     1       7.967  -1.894  -2.370  1.00  0.00    -0.070 C 
ATOM      2  C   UNL     1       7.352  -1.285  -1.329  1.00  0.00    -0.027 C 
ATOM      3  C   UNL     1       9.379  -2.384  -2.169  1.00  0.00     0.039 C 
ENDROOT
BRANCH   2   4
ATOM      4  C   UNL     1       5.925  -0.791  -1.304  1.00  0.00     0.032 C 
BRANCH   4   5
ATOM      5  C   UNL     1       5.053  -1.524  -0.269  1.00  0.00     0.034 C 
BRANCH   5   6
ATOM      6  C   UNL     1       5.183  -3.033  -0.360  1.00  0.00    -0.077 C 
ATOM      7  C   UNL     1       5.820  -3.767   0.794  1.00  0.00     0.039 C 
ATOM      8  C   UNL     1       4.781  -3.762  -1.427  1.00  0.00    -0.023 CG0
ATOM      9  G   UNL     1       4.178  -3.212  -2.698  1.00  0.00     0.000 G0
ENDBRANCH   5   6
ENDBRANCH   4   5
ENDBRANCH   2   4
BRANCH   1  10
ATOM     10  C   UNL     1       7.311  -2.131  -3.719  1.00  0.00     0.111 C 
BRANCH  10  11
ATOM     11  C   UNL     1       6.547  -3.431  -3.766  1.00  0.00     0.163 C 
ATOM     12  O   UNL     1       7.187  -4.502  -3.585  1.00  0.00    -0.294 OA
BRANCH  11  13
ATOM     13  C   UNL     1       5.062  -3.483  -3.936  1.00  0.00    -0.002 C 
ATOM     14  C   UNL     1       4.514  -3.630  -5.177  1.00  0.00    -0.069 C 
ATOM     15  C   UNL     1       3.018  -3.578  -5.387  1.00  0.00     0.039 C 
ATOM     16  C   UNL     1       5.381  -3.801  -6.405  1.00  0.00     0.039 C 
BRANCH  13  17
ATOM     17  C   UNL     1       4.185  -3.217  -2.719  1.00  0.00     0.066 CG0
ATOM     18  G   UNL     1       4.802  -3.767  -1.454  1.00  0.00     0.000 G0
ENDBRANCH  13  17
ENDBRANCH  11  13
ENDBRANCH  10  11
ENDBRANCH   1  10
TORSDOF 0
ENDMDL
MODEL 2
REMARK VINA RESULT:    -3.765      2.133      4.276
REMARK INTER + INTRA:          -4.882
REMARK INTER:                  -5.290
REMARK INTRA:                   0.409
REMARK UNBOUND:                 0.423
REMARK SMILES CC1=CCC(=C(C)C)C(=O)CC(C)=CCC1
REMARK SMILES IDX 12 1 14 2 13 3 15 4 16 5 2 6 1 7 3 8 11 10 9 11 10 12 5 13
REMARK SMILES IDX 6 14 7 15 8 16 4 17
REMARK H PARENT
REMARK Flexibility Score: 60.00
ROOT
ATOM      1  C   UNL     1       5.547  -1.254  -0.685  1.00  0.00    -0.070 C 
ATOM      2  C   UNL     1       4.873  -1.257  -1.859  1.00  0.00    -0.027 C 
ATOM      3  C   UNL     1       4.838  -0.728   0.537  1.00  0.00     0.039 C 
ENDROOT
BRANCH   2   4
ATOM      4  C   UNL     1       5.376  -1.804  -3.174  1.00  0.00     0.032 C 
BRANCH   4   5
ATOM      5  C   UNL     1       4.511  -2.955  -3.716  1.00  0.00     0.034 C 
BRANCH   5   6
ATOM      6  C   UNL     1       4.344  -4.082  -2.714  1.00  0.00    -0.077 C 
ATOM      7  C   UNL     1       2.951  -4.428  -2.251  1.00  0.00     0.039 C 
ATOM      8  C   UNL     1       5.375  -4.786  -2.191  1.00  0.00    -0.023 CG0
ATOM      9  G   UNL     1       6.840  -4.557  -2.480  1.00  0.00     0.000 G0
ENDBRANCH   5   6
ENDBRANCH   4   5
ENDBRANCH   2   4
BRANCH   1  10
ATOM     10  C   UNL     1       6.967  -1.768  -0.525  1.00  0.00     0.111 C 
BRANCH  10  11
ATOM     11  C   UNL     1       7.013  -3.251  -0.246  1.00  0.00     0.163 C 
ATOM     12  O   UNL     1       6.452  -3.676   0.799  1.00  0.00    -0.294 OA
BRANCH  11  13
ATOM     13  C   UNL     1       7.624  -4.227  -1.199  1.00  0.00    -0.002 C 
ATOM     14  C   UNL     1       8.898  -4.676  -1.006  1.00  0.00    -0.069 C 
ATOM     15  C   UNL     1       9.575  -5.579  -2.012  1.00  0.00     0.039 C 
ATOM     16  C   UNL     1       9.709  -4.250   0.198  1.00  0.00     0.039 C 
BRANCH  13  17
ATOM     17  C   UNL     1       6.851  -4.586  -2.462  1.00  0.00     0.066 CG0
ATOM     18  G   UNL     1       5.379  -4.777  -2.181  1.00  0.00     0.000 G0
ENDBRANCH  13  17
ENDBRANCH  11  13
ENDBRANCH  10  11
ENDBRANCH   1  10
TORSDOF 0
ENDMDL
MODEL 3
REMARK VINA RESULT:    -3.743      1.903      3.389
REMARK INTER + INTRA:          -4.851
REMARK INTER:                  -4.969
REMARK INTRA:                   0.118
REMARK UNBOUND:                 0.423
REMARK SMILES CC1=CCC(=C(C)C)C(=O)CC(C)=CCC1
REMARK SMILES IDX 12 1 14 2 13 3 15 4 16 5 2 6 1 7 3 8 11 10 9 11 10 12 5 13
REMARK SMILES IDX 6 14 7 15 8 16 4 17
REMARK H PARENT
REMARK Flexibility Score: 60.00
ROOT
ATOM      1  C   UNL     1       5.510  -1.197  -1.004  1.00  0.00    -0.070 C 
ATOM      2  C   UNL     1       6.823  -1.065  -0.698  1.00  0.00    -0.027 C 
ATOM      3  C   UNL     1       4.498  -0.669  -0.019  1.00  0.00     0.039 C 
ENDROOT
BRANCH   2   4
ATOM      4  C   UNL     1       7.986  -1.461  -1.576  1.00  0.00     0.032 C 
BRANCH   4   5
ATOM      5  C   UNL     1       8.394  -2.935  -1.403  1.00  0.00     0.034 C 
BRANCH   5   6
ATOM      6  C   UNL     1       8.729  -3.607  -2.722  1.00  0.00    -0.077 C 
ATOM      7  C   UNL     1       9.977  -3.173  -3.449  1.00  0.00     0.039 C 
ATOM      8  C   UNL     1       7.962  -4.561  -3.298  1.00  0.00    -0.023 CG0
ATOM      9  G   UNL     1       6.651  -5.087  -2.762  1.00  0.00     0.000 G0
ENDBRANCH   5   6
ENDBRANCH   4   5
ENDBRANCH   2   4
BRANCH   1  10
ATOM     10  C   UNL     1       5.001  -1.826  -2.289  1.00  0.00     0.111 C 
BRANCH  10  11
ATOM     11  C   UNL     1       4.861  -3.325  -2.178  1.00  0.00     0.163 C 
ATOM     12  O   UNL     1       4.165  -3.788  -1.235  1.00  0.00    -0.294 OA
BRANCH  11  13
ATOM     13  C   UNL     1       5.445  -4.261  -3.187  1.00  0.00    -0.002 C 
ATOM     14  C   UNL     1       4.836  -4.443  -4.394  1.00  0.00    -0.069 C 
ATOM     15  C   UNL     1       5.347  -5.462  -5.387  1.00  0.00     0.039 C 
ATOM     16  C   UNL     1       3.593  -3.669  -4.773  1.00  0.00     0.039 C 
BRANCH  13  17
ATOM     17  C   UNL     1       6.640  -5.113  -2.776  1.00  0.00     0.066 CG0
ATOM     18  G   UNL     1       7.938  -4.549  -3.303  1.00  0.00     0.000 G0
ENDBRANCH  13  17
ENDBRANCH  11  13
ENDBRANCH  10  11
ENDBRANCH   1  10
TORSDOF 0
ENDMDL
MODEL 4
REMARK VINA RESULT:    -3.602      1.448      4.158
REMARK INTER + INTRA:          -4.652
REMARK INTER:                  -5.416
REMARK INTRA:                   0.764
REMARK UNBOUND:                 0.423
REMARK SMILES CC1=CCC(=C(C)C)C(=O)CC(C)=CCC1
REMARK SMILES IDX 12 1 14 2 13 3 15 4 16 5 2 6 1 7 3 8 11 10 9 11 10 12 5 13
REMARK SMILES IDX 6 14 7 15 8 16 4 17
REMARK H PARENT
REMARK Flexibility Score: 60.00
ROOT
ATOM      1  C   UNL     1       7.920  -1.762  -2.105  1.00  0.00    -0.070 C 
ATOM      2  C   UNL     1       7.767  -2.454  -3.259  1.00  0.00    -0.027 C 
ATOM      3  C   UNL     1       9.173  -1.997  -1.300  1.00  0.00     0.039 C 
ENDROOT
BRANCH   2   4
ATOM      4  C   UNL     1       6.626  -2.312  -4.238  1.00  0.00     0.032 C 
BRANCH   4   5
ATOM      5  C   UNL     1       5.949  -3.653  -4.570  1.00  0.00     0.034 C 
BRANCH   5   6
ATOM      6  C   UNL     1       4.563  -3.774  -3.964  1.00  0.00    -0.077 C 
ATOM      7  C   UNL     1       3.371  -3.726  -4.888  1.00  0.00     0.039 C 
ATOM      8  C   UNL     1       4.328  -3.902  -2.638  1.00  0.00    -0.023 CG0
ATOM      9  G   UNL     1       5.376  -3.911  -1.550  1.00  0.00     0.000 G0
ENDBRANCH   5   6
ENDBRANCH   4   5
ENDBRANCH   2   4
BRANCH   1  10
ATOM     10  C   UNL     1       6.913  -0.750  -1.587  1.00  0.00     0.111 C 
BRANCH  10  11
ATOM     11  C   UNL     1       5.546  -1.355  -1.378  1.00  0.00     0.163 C 
ATOM     12  O   UNL     1       4.551  -0.756  -1.865  1.00  0.00    -0.294 OA
BRANCH  11  13
ATOM     13  C   UNL     1       5.347  -2.669  -0.691  1.00  0.00    -0.002 C 
ATOM     14  C   UNL     1       5.287  -2.734   0.670  1.00  0.00    -0.069 C 
ATOM     15  C   UNL     1       5.194  -4.060   1.391  1.00  0.00     0.039 C 
ATOM     16  C   UNL     1       5.361  -1.486   1.522  1.00  0.00     0.039 C 
BRANCH  13  17
ATOM     17  C   UNL     1       5.368  -3.937  -1.536  1.00  0.00     0.066 CG0
ATOM     18  G   UNL     1       4.324  -3.900  -2.627  1.00  0.00     0.000 G0
ENDBRANCH  13  17
ENDBRANCH  11  13
ENDBRANCH  10  11
ENDBRANCH   1  10
TORSDOF 0
ENDMDL
MODEL 5
REMARK VINA RESULT:    -3.480      1.886      3.241
REMARK INTER + INTRA:          -4.481
REMARK INTER:                  -5.149
REMARK INTRA:                   0.668
REMARK UNBOUND:                 0.423
REMARK SMILES CC1=CCC(=C(C)C)C(=O)CC(C)=CCC1
REMARK SMILES IDX 12 1 14 2 13 3 15 4 16 5 2 6 1 7 3 8 11 10 9 11 10 12 5 13
REMARK SMILES IDX 6 14 7 15 8 16 4 17
REMARK H PARENT
REMARK Flexibility Score: 60.00
ROOT
ATOM      1  C   UNL     1       5.123  -2.251  -3.307  1.00  0.00    -0.070 C 
ATOM      2  C   UNL     1       4.493  -1.496  -2.377  1.00  0.00    -0.027 C 
ATOM      3  C   UNL     1       4.300  -3.244  -4.088  1.00  0.00     0.039 C 
ENDROOT
BRANCH   2   4
ATOM      4  C   UNL     1       5.119  -0.402  -1.545  1.00  0.00     0.032 C 
BRANCH   4   5
ATOM      5  C   UNL     1       6.371  -0.870  -0.782  1.00  0.00     0.034 C 
BRANCH   5   6
ATOM      6  C   UNL     1       6.098  -2.066   0.112  1.00  0.00    -0.077 C 
ATOM      7  C   UNL     1       5.070  -1.921   1.206  1.00  0.00     0.039 C 
ATOM      8  C   UNL     1       6.738  -3.253   0.000  1.00  0.00    -0.023 CG0
ATOM      9  G   UNL     1       7.834  -3.578  -0.987  1.00  0.00     0.000 G0
ENDBRANCH   5   6
ENDBRANCH   4   5
ENDBRANCH   2   4
BRANCH   1  10
ATOM     10  C   UNL     1       6.604  -2.140  -3.623  1.00  0.00     0.111 C 
BRANCH  10  11
ATOM     11  C   UNL     1       7.317  -3.465  -3.506  1.00  0.00     0.163 C 
ATOM     12  O   UNL     1       7.967  -3.880  -4.502  1.00  0.00    -0.294 OA
BRANCH  11  13
ATOM     13  C   UNL     1       7.345  -4.251  -2.233  1.00  0.00    -0.002 C 
ATOM     14  C   UNL     1       6.799  -5.501  -2.182  1.00  0.00    -0.069 C 
ATOM     15  C   UNL     1       6.720  -6.271  -0.883  1.00  0.00     0.039 C 
ATOM     16  C   UNL     1       6.205  -6.151  -3.411  1.00  0.00     0.039 C 
BRANCH  13  17
ATOM     17  C   UNL     1       7.854  -3.566  -0.971  1.00  0.00     0.066 CG0
ATOM     18  G   UNL     1       6.733  -3.271  -0.003  1.00  0.00     0.000 G0
ENDBRANCH  13  17
ENDBRANCH  11  13
ENDBRANCH  10  11
ENDBRANCH   1  10
TORSDOF 0
ENDMDL
MODEL 6
REMARK VINA RESULT:    -3.414      1.724      2.578
REMARK INTER + INTRA:          -4.388
REMARK INTER:                  -4.747
REMARK INTRA:                   0.359
REMARK UNBOUND:                 0.423
REMARK SMILES CC1=CCC(=C(C)C)C(=O)CC(C)=CCC1
REMARK SMILES IDX 12 1 14 2 13 3 15 4 16 5 2 6 1 7 3 8 11 10 9 11 10 12 5 13
REMARK SMILES IDX 6 14 7 15 8 16 4 17
REMARK H PARENT
REMARK Flexibility Score: 60.00
ROOT
ATOM      1  C   UNL     1       7.293  -1.407  -2.043  1.00  0.00    -0.070 C 
ATOM      2  C   UNL     1       6.517  -0.719  -1.173  1.00  0.00    -0.027 C 
ATOM      3  C   UNL     1       8.728  -1.667  -1.659  1.00  0.00     0.039 C 
ENDROOT
BRANCH   2   4
ATOM      4  C   UNL     1       5.046  -0.419  -1.337  1.00  0.00     0.032 C 
BRANCH   4   5
ATOM      5  C   UNL     1       4.140  -1.464  -0.663  1.00  0.00     0.034 C 
BRANCH   5   6
ATOM      6  C   UNL     1       4.880  -2.304   0.362  1.00  0.00    -0.077 C 
ATOM      7  C   UNL     1       5.252  -1.665   1.677  1.00  0.00     0.039 C 
ATOM      8  C   UNL     1       5.248  -3.590   0.159  1.00  0.00    -0.023 CG0
ATOM      9  G   UNL     1       5.023  -4.387  -1.104  1.00  0.00     0.000 G0
ENDBRANCH   5   6
ENDBRANCH   4   5
ENDBRANCH   2   4
BRANCH   1  10
ATOM     10  C   UNL     1       6.797  -1.949  -3.372  1.00  0.00     0.111 C 
BRANCH  10  11
ATOM     11  C   UNL     1       5.893  -3.146  -3.204  1.00  0.00     0.163 C 
ATOM     12  O   UNL     1       4.962  -3.308  -4.037  1.00  0.00    -0.294 OA
BRANCH  11  13
ATOM     13  C   UNL     1       6.117  -4.176  -2.143  1.00  0.00    -0.002 C 
ATOM     14  C   UNL     1       7.213  -4.987  -2.188  1.00  0.00    -0.069 C 
ATOM     15  C   UNL     1       7.405  -6.105  -1.188  1.00  0.00     0.039 C 
ATOM     16  C   UNL     1       8.259  -4.837  -3.270  1.00  0.00     0.039 C 
BRANCH  13  17
ATOM     17  C   UNL     1       5.021  -4.396  -1.107  1.00  0.00     0.066 CG0
ATOM     18  G   UNL     1       5.269  -3.594   0.149  1.00  0.00     0.000 G0
ENDBRANCH  13  17
ENDBRANCH  11  13
ENDBRANCH  10  11
ENDBRANCH   1  10
TORSDOF 0
ENDMDL
MODEL 7
REMARK VINA RESULT:    -3.371      2.112      4.632
REMARK INTER + INTRA:          -4.326
REMARK INTER:                  -4.984
REMARK INTRA:                   0.658
REMARK UNBOUND:                 0.423
REMARK SMILES CC1=CCC(=C(C)C)C(=O)CC(C)=CCC1
REMARK SMILES IDX 12 1 14 2 13 3 15 4 16 5 2 6 1 7 3 8 11 10 9 11 10 12 5 13
REMARK SMILES IDX 6 14 7 15 8 16 4 17
REMARK H PARENT
REMARK Flexibility Score: 60.00
ROOT
ATOM      1  C   UNL     1       4.248  -4.225  -2.877  1.00  0.00    -0.070 C 
ATOM      2  C   UNL     1       5.064  -5.305  -2.901  1.00  0.00    -0.027 C 
ATOM      3  C   UNL     1       2.819  -4.427  -2.441  1.00  0.00     0.039 C 
ENDROOT
BRANCH   2   4
ATOM      4  C   UNL     1       6.536  -5.302  -3.237  1.00  0.00     0.032 C 
BRANCH   4   5
ATOM      5  C   UNL     1       7.413  -5.856  -2.101  1.00  0.00     0.034 C 
BRANCH   5   6
ATOM      6  C   UNL     1       8.302  -4.796  -1.478  1.00  0.00    -0.077 C 
ATOM      7  C   UNL     1       9.782  -4.842  -1.769  1.00  0.00     0.039 C 
ATOM      8  C   UNL     1       7.851  -3.819  -0.659  1.00  0.00    -0.023 CG0
ATOM      9  G   UNL     1       6.423  -3.637  -0.201  1.00  0.00     0.000 G0
ENDBRANCH   5   6
ENDBRANCH   4   5
ENDBRANCH   2   4
BRANCH   1  10
ATOM     10  C   UNL     1       4.694  -2.821  -3.244  1.00  0.00     0.111 C 
BRANCH  10  11
ATOM     11  C   UNL     1       5.799  -2.316  -2.348  1.00  0.00     0.163 C 
ATOM     12  O   UNL     1       6.768  -1.713  -2.882  1.00  0.00    -0.294 OA
BRANCH  11  13
ATOM     13  C   UNL     1       5.739  -2.435  -0.858  1.00  0.00    -0.002 C 
ATOM     14  C   UNL     1       5.220  -1.422  -0.105  1.00  0.00    -0.069 C 
ATOM     15  C   UNL     1       5.246  -1.473   1.405  1.00  0.00     0.039 C 
ATOM     16  C   UNL     1       4.640  -0.181  -0.747  1.00  0.00     0.039 C 
BRANCH  13  17
ATOM     17  C   UNL     1       6.407  -3.637  -0.201  1.00  0.00     0.066 CG0
ATOM     18  G   UNL     1       7.837  -3.802  -0.659  1.00  0.00     0.000 G0
ENDBRANCH  13  17
ENDBRANCH  11  13
ENDBRANCH  10  11
ENDBRANCH   1  10
TORSDOF 0
ENDMDL
MODEL 8
REMARK VINA RESULT:    -3.341      2.024      3.822
REMARK INTER + INTRA:          -4.285
REMARK INTER:                  -4.753
REMARK INTRA:                   0.468
REMARK UNBOUND:                 0.423
REMARK SMILES CC1=CCC(=C(C)C)C(=O)CC(C)=CCC1
REMARK SMILES IDX 12 1 14 2 13 3 15 4 16 5 2 6 1 7 3 8 11 10 9 11 10 12 5 13
REMARK SMILES IDX 6 14 7 15 8 16 4 17
REMARK H PARENT
REMARK Flexibility Score: 60.00
ROOT
ATOM      1  C   UNL     1       8.402  -2.373  -2.518  1.00  0.00    -0.070 C 
ATOM      2  C   UNL     1       9.089  -3.510  -2.256  1.00  0.00    -0.027 C 
ATOM      3  C   UNL     1       8.794  -1.123  -1.772  1.00  0.00     0.039 C 
ENDROOT
BRANCH   2   4
ATOM      4  C   UNL     1       8.901  -4.842  -2.942  1.00  0.00     0.032 C 
BRANCH   4   5
ATOM      5  C   UNL     1       8.261  -5.903  -2.029  1.00  0.00     0.034 C 
BRANCH   5   6
ATOM      6  C   UNL     1       6.771  -6.062  -2.274  1.00  0.00    -0.077 C 
ATOM      7  C   UNL     1       6.312  -7.156  -3.206  1.00  0.00     0.039 C 
ATOM      8  C   UNL     1       5.827  -5.267  -1.721  1.00  0.00    -0.023 CG0
ATOM      9  G   UNL     1       6.084  -4.087  -0.813  1.00  0.00     0.000 G0
ENDBRANCH   5   6
ENDBRANCH   4   5
ENDBRANCH   2   4
BRANCH   1  10
ATOM     10  C   UNL     1       7.276  -2.281  -3.532  1.00  0.00     0.111 C 
BRANCH  10  11
ATOM     11  C   UNL     1       5.933  -2.621  -2.932  1.00  0.00     0.163 C 
ATOM     12  O   UNL     1       4.977  -2.863  -3.715  1.00  0.00    -0.294 OA
BRANCH  11  13
ATOM     13  C   UNL     1       5.726  -2.760  -1.457  1.00  0.00    -0.002 C 
ATOM     14  C   UNL     1       5.367  -1.679  -0.706  1.00  0.00    -0.069 C 
ATOM     15  C   UNL     1       5.256  -1.770   0.799  1.00  0.00     0.039 C 
ATOM     16  C   UNL     1       5.111  -0.330  -1.340  1.00  0.00     0.039 C 
BRANCH  13  17
ATOM     17  C   UNL     1       6.074  -4.090  -0.800  1.00  0.00     0.066 CG0
ATOM     18  G   UNL     1       5.808  -5.256  -1.723  1.00  0.00     0.000 G0
ENDBRANCH  13  17
ENDBRANCH  11  13
ENDBRANCH  10  11
ENDBRANCH   1  10
TORSDOF 0
ENDMDL
MODEL 9
REMARK VINA RESULT:    -3.282     12.580     14.244
REMARK INTER + INTRA:          -4.201
REMARK INTER:                  -4.370
REMARK INTRA:                   0.168
REMARK UNBOUND:                 0.423
REMARK SMILES CC1=CCC(=C(C)C)C(=O)CC(C)=CCC1
REMARK SMILES IDX 12 1 14 2 13 3 15 4 16 5 2 6 1 7 3 8 11 10 9 11 10 12 5 13
REMARK SMILES IDX 6 14 7 15 8 16 4 17
REMARK H PARENT
REMARK Flexibility Score: 60.00
ROOT
ATOM      1  C   UNL     1      -4.340  -6.341   0.342  1.00  0.00    -0.070 C 
ATOM      2  C   UNL     1      -4.156  -7.304  -0.591  1.00  0.00    -0.027 C 
ATOM      3  C   UNL     1      -3.162  -5.474   0.706  1.00  0.00     0.039 C 
ENDROOT
BRANCH   2   4
ATOM      4  C   UNL     1      -5.218  -8.225  -1.143  1.00  0.00     0.032 C 
BRANCH   4   5
ATOM      5  C   UNL     1      -5.497  -9.434  -0.234  1.00  0.00     0.034 C 
BRANCH   5   6
ATOM      6  C   UNL     1      -6.980  -9.709  -0.065  1.00  0.00    -0.077 C 
ATOM      7  C   UNL     1      -7.777 -10.100  -1.285  1.00  0.00     0.039 C 
ATOM      8  C   UNL     1      -7.638  -9.604   1.112  1.00  0.00    -0.023 CG0
ATOM      9  G   UNL     1      -7.035  -9.171   2.428  1.00  0.00     0.000 G0
ENDBRANCH   5   6
ENDBRANCH   4   5
ENDBRANCH   2   4
BRANCH   1  10
ATOM     10  C   UNL     1      -5.669  -6.071   1.027  1.00  0.00     0.111 C 
BRANCH  10  11
ATOM     11  C   UNL     1      -5.833  -6.871   2.296  1.00  0.00     0.163 C 
ATOM     12  O   UNL     1      -4.915  -6.813   3.157  1.00  0.00    -0.294 OA
BRANCH  11  13
ATOM     13  C   UNL     1      -7.072  -7.653   2.596  1.00  0.00    -0.002 C 
ATOM     14  C   UNL     1      -8.168  -7.035   3.125  1.00  0.00    -0.069 C 
ATOM     15  C   UNL     1      -9.392  -7.821   3.535  1.00  0.00     0.039 C 
ATOM     16  C   UNL     1      -8.188  -5.543   3.370  1.00  0.00     0.039 C 
BRANCH  13  17
ATOM     17  C   UNL     1      -7.026  -9.168   2.441  1.00  0.00     0.066 CG0
ATOM     18  G   UNL     1      -7.632  -9.615   1.131  1.00  0.00     0.000 G0
ENDBRANCH  13  17
ENDBRANCH  11  13
ENDBRANCH  10  11
ENDBRANCH   1  10
TORSDOF 0
ENDMDL
