MODEL 1
REMARK VINA RESULT:    -4.381      0.000      0.000
REMARK INTER + INTRA:          -6.672
REMARK INTER:                  -6.430
REMARK INTRA:                  -0.242
REMARK UNBOUND:                -0.242
REMARK SMILES O=C([O-])CCCCCCCC(=O)[O-]
REMARK SMILES IDX 7 1 6 2 5 3 4 4 2 5 1 6 3 7 8 8 9 9 10 10 11 11 12 12 13 13
REMARK H PARENT
REMARK Flexibility Score: inf
ROOT
ATOM      1  C   UNL     1      46.077   8.184  18.840  1.00  0.00     0.000 C 
ENDROOT
BRANCH   1   2
ATOM      2  C   UNL     1      46.763   6.889  18.368  1.00  0.00     0.000 C 
BRANCH   2   3
ATOM      3  C   UNL     1      46.657   6.613  16.858  1.00  0.00     0.006 C 
BRANCH   3   4
ATOM      4  C   UNL     1      47.538   5.445  16.400  1.00  0.00     0.053 C 
BRANCH   4   5
ATOM      5  C   UNL     1      47.554   5.356  14.906  1.00  0.00     0.041 C 
ATOM      6  O   UNL     1      48.279   4.503  14.330  1.00  0.00    -0.550 OA
ATOM      7  O   UNL     1      46.807   6.249  14.149  1.00  0.00    -0.550 OA
ENDBRANCH   4   5
ENDBRANCH   3   4
ENDBRANCH   2   3
ENDBRANCH   1   2
BRANCH   1   8
ATOM      8  C   UNL     1      46.054   8.323  20.372  1.00  0.00     0.000 C 
BRANCH   8   9
ATOM      9  C   UNL     1      46.857   7.217  21.081  1.00  0.00     0.006 C 
BRANCH   9  10
ATOM     10  C   UNL     1      47.646   7.702  22.308  1.00  0.00     0.053 C 
BRANCH  10  11
ATOM     11  C   UNL     1      46.881   8.714  23.106  1.00  0.00     0.041 C 
ATOM     12  O   UNL     1      47.228   9.924  23.092  1.00  0.00    -0.550 OA
ATOM     13  O   UNL     1      45.766   8.325  23.835  1.00  0.00    -0.550 OA
ENDBRANCH  10  11
ENDBRANCH   9  10
ENDBRANCH   8   9
ENDBRANCH   1   8
TORSDOF 8
ENDMDL
MODEL 2
REMARK VINA RESULT:    -4.347      1.297      1.835
REMARK INTER + INTRA:          -6.621
REMARK INTER:                  -6.140
REMARK INTRA:                  -0.481
REMARK UNBOUND:                -0.242
REMARK SMILES O=C([O-])CCCCCCCC(=O)[O-]
REMARK SMILES IDX 7 1 6 2 5 3 4 4 2 5 1 6 3 7 8 8 9 9 10 10 11 11 12 12 13 13
REMARK H PARENT
REMARK Flexibility Score: inf
ROOT
ATOM      1  C   UNL     1      44.748   8.212  18.230  1.00  0.00     0.000 C 
ENDROOT
BRANCH   1   2
ATOM      2  C   UNL     1      45.134   7.402  16.978  1.00  0.00     0.000 C 
BRANCH   2   3
ATOM      3  C   UNL     1      46.644   7.342  16.686  1.00  0.00     0.006 C 
BRANCH   3   4
ATOM      4  C   UNL     1      47.179   5.908  16.601  1.00  0.00     0.053 C 
BRANCH   4   5
ATOM      5  C   UNL     1      47.332   5.491  15.172  1.00  0.00     0.041 C 
ATOM      6  O   UNL     1      46.873   6.214  14.248  1.00  0.00    -0.550 OA
ATOM      7  O   UNL     1      47.938   4.280  14.862  1.00  0.00    -0.550 OA
ENDBRANCH   4   5
ENDBRANCH   3   4
ENDBRANCH   2   3
ENDBRANCH   1   2
BRANCH   1   8
ATOM      8  C   UNL     1      45.970   8.659  19.051  1.00  0.00     0.000 C 
BRANCH   8   9
ATOM      9  C   UNL     1      45.956   8.105  20.488  1.00  0.00     0.006 C 
BRANCH   9  10
ATOM     10  C   UNL     1      47.050   7.064  20.772  1.00  0.00     0.053 C 
BRANCH  10  11
ATOM     11  C   UNL     1      47.688   7.270  22.112  1.00  0.00     0.041 C 
ATOM     12  O   UNL     1      47.696   8.412  22.641  1.00  0.00    -0.550 OA
ATOM     13  O   UNL     1      48.242   6.193  22.791  1.00  0.00    -0.550 OA
ENDBRANCH  10  11
ENDBRANCH   9  10
ENDBRANCH   8   9
ENDBRANCH   1   8
TORSDOF 8
ENDMDL
MODEL 3
REMARK VINA RESULT:    -4.346      1.397      6.616
REMARK INTER + INTRA:          -6.621
REMARK INTER:                  -6.100
REMARK INTRA:                  -0.521
REMARK UNBOUND:                -0.242
REMARK SMILES O=C([O-])CCCCCCCC(=O)[O-]
REMARK SMILES IDX 7 1 6 2 5 3 4 4 2 5 1 6 3 7 8 8 9 9 10 10 11 11 12 12 13 13
REMARK H PARENT
REMARK Flexibility Score: inf
ROOT
ATOM      1  C   UNL     1      44.552   8.160  18.291  1.00  0.00     0.000 C 
ENDROOT
BRANCH   1   2
ATOM      2  C   UNL     1      45.715   8.862  19.015  1.00  0.00     0.000 C 
BRANCH   2   3
ATOM      3  C   UNL     1      45.923   8.428  20.477  1.00  0.00     0.006 C 
BRANCH   3   4
ATOM      4  C   UNL     1      46.864   7.225  20.615  1.00  0.00     0.053 C 
BRANCH   4   5
ATOM      5  C   UNL     1      47.561   7.256  21.939  1.00  0.00     0.041 C 
ATOM      6  O   UNL     1      48.296   6.296  22.290  1.00  0.00    -0.550 OA
ATOM      7  O   UNL     1      47.360   8.322  22.805  1.00  0.00    -0.550 OA
ENDBRANCH   4   5
ENDBRANCH   3   4
ENDBRANCH   2   3
ENDBRANCH   1   2
BRANCH   1   8
ATOM      8  C   UNL     1      44.989   7.475  16.984  1.00  0.00     0.000 C 
BRANCH   8   9
ATOM      9  C   UNL     1      46.519   7.456  16.806  1.00  0.00     0.006 C 
BRANCH   9  10
ATOM     10  C   UNL     1      47.125   6.046  16.728  1.00  0.00     0.053 C 
BRANCH  10  11
ATOM     11  C   UNL     1      47.271   5.574  15.313  1.00  0.00     0.041 C 
ATOM     12  O   UNL     1      46.924   6.317  14.359  1.00  0.00    -0.550 OA
ATOM     13  O   UNL     1      47.821   4.327  15.050  1.00  0.00    -0.550 OA
ENDBRANCH  10  11
ENDBRANCH   9  10
ENDBRANCH   8   9
ENDBRANCH   1   8
TORSDOF 8
ENDMDL
MODEL 4
REMARK VINA RESULT:    -4.329      2.328      3.076
REMARK INTER + INTRA:          -6.596
REMARK INTER:                  -6.183
REMARK INTRA:                  -0.413
REMARK UNBOUND:                -0.242
REMARK SMILES O=C([O-])CCCCCCCC(=O)[O-]
REMARK SMILES IDX 7 1 6 2 5 3 4 4 2 5 1 6 3 7 8 8 9 9 10 10 11 11 12 12 13 13
REMARK H PARENT
REMARK Flexibility Score: inf
ROOT
ATOM      1  C   UNL     1      47.094   6.578  20.997  1.00  0.00     0.000 C 
ENDROOT
BRANCH   1   2
ATOM      2  C   UNL     1      46.682   7.418  19.774  1.00  0.00     0.000 C 
BRANCH   2   3
ATOM      3  C   UNL     1      46.672   6.654  18.438  1.00  0.00     0.006 C 
BRANCH   3   4
ATOM      4  C   UNL     1      46.385   7.559  17.234  1.00  0.00     0.053 C 
BRANCH   4   5
ATOM      5  C   UNL     1      44.962   7.409  16.794  1.00  0.00     0.041 C 
ATOM      6  O   UNL     1      44.029   7.872  17.501  1.00  0.00    -0.550 OA
ATOM      7  O   UNL     1      44.665   6.714  15.630  1.00  0.00    -0.550 OA
ENDBRANCH   4   5
ENDBRANCH   3   4
ENDBRANCH   2   3
ENDBRANCH   1   2
BRANCH   1   8
ATOM      8  C   UNL     1      47.679   7.430  22.137  1.00  0.00     0.000 C 
BRANCH   8   9
ATOM      9  C   UNL     1      46.834   8.682  22.436  1.00  0.00     0.006 C 
BRANCH   9  10
ATOM     10  C   UNL     1      45.799   8.489  23.556  1.00  0.00     0.053 C 
BRANCH  10  11
ATOM     11  C   UNL     1      44.397   8.689  23.067  1.00  0.00     0.041 C 
ATOM     12  O   UNL     1      44.071   8.316  21.910  1.00  0.00    -0.550 OA
ATOM     13  O   UNL     1      43.443   9.255  23.902  1.00  0.00    -0.550 OA
ENDBRANCH  10  11
ENDBRANCH   9  10
ENDBRANCH   8   9
ENDBRANCH   1   8
TORSDOF 8
ENDMDL
MODEL 5
REMARK VINA RESULT:    -4.298      0.636      7.326
REMARK INTER + INTRA:          -6.550
REMARK INTER:                  -6.320
REMARK INTRA:                  -0.230
REMARK UNBOUND:                -0.242
REMARK SMILES O=C([O-])CCCCCCCC(=O)[O-]
REMARK SMILES IDX 7 1 6 2 5 3 4 4 2 5 1 6 3 7 8 8 9 9 10 10 11 11 12 12 13 13
REMARK H PARENT
REMARK Flexibility Score: inf
ROOT
ATOM      1  C   UNL     1      46.751   6.901  19.276  1.00  0.00     0.000 C 
ENDROOT
BRANCH   1   2
ATOM      2  C   UNL     1      46.690   7.612  20.640  1.00  0.00     0.000 C 
BRANCH   2   3
ATOM      3  C   UNL     1      47.550   6.969  21.743  1.00  0.00     0.006 C 
BRANCH   3   4
ATOM      4  C   UNL     1      48.079   7.989  22.759  1.00  0.00     0.053 C 
BRANCH   4   5
ATOM      5  C   UNL     1      46.976   8.893  23.214  1.00  0.00     0.041 C 
ATOM      6  O   UNL     1      47.046  10.133  23.005  1.00  0.00    -0.550 OA
ATOM      7  O   UNL     1      45.895   8.373  23.913  1.00  0.00    -0.550 OA
ENDBRANCH   4   5
ENDBRANCH   3   4
ENDBRANCH   2   3
ENDBRANCH   1   2
BRANCH   1   8
ATOM      8  C   UNL     1      45.969   7.644  18.180  1.00  0.00     0.000 C 
BRANCH   8   9
ATOM      9  C   UNL     1      46.503   7.351  16.765  1.00  0.00     0.006 C 
BRANCH   9  10
ATOM     10  C   UNL     1      47.220   5.998  16.632  1.00  0.00     0.053 C 
BRANCH  10  11
ATOM     11  C   UNL     1      47.336   5.561  15.203  1.00  0.00     0.041 C 
ATOM     12  O   UNL     1      47.921   4.485  14.916  1.00  0.00    -0.550 OA
ATOM     13  O   UNL     1      46.766   6.326  14.194  1.00  0.00    -0.550 OA
ENDBRANCH  10  11
ENDBRANCH   9  10
ENDBRANCH   8   9
ENDBRANCH   1   8
TORSDOF 8
ENDMDL
MODEL 6
REMARK VINA RESULT:    -4.247      1.823      6.958
REMARK INTER + INTRA:          -6.475
REMARK INTER:                  -6.141
REMARK INTRA:                  -0.334
REMARK UNBOUND:                -0.242
REMARK SMILES O=C([O-])CCCCCCCC(=O)[O-]
REMARK SMILES IDX 7 1 6 2 5 3 4 4 2 5 1 6 3 7 8 8 9 9 10 10 11 11 12 12 13 13
REMARK H PARENT
REMARK Flexibility Score: inf
ROOT
ATOM      1  C   UNL     1      46.379   8.095  18.004  1.00  0.00     0.000 C 
ENDROOT
BRANCH   1   2
ATOM      2  C   UNL     1      46.012   8.525  19.436  1.00  0.00     0.000 C 
BRANCH   2   3
ATOM      3  C   UNL     1      46.432   7.534  20.536  1.00  0.00     0.006 C 
BRANCH   3   4
ATOM      4  C   UNL     1      46.625   8.204  21.902  1.00  0.00     0.053 C 
BRANCH   4   5
ATOM      5  C   UNL     1      47.915   7.765  22.521  1.00  0.00     0.041 C 
ATOM      6  O   UNL     1      48.694   8.614  23.029  1.00  0.00    -0.550 OA
ATOM      7  O   UNL     1      48.280   6.426  22.494  1.00  0.00    -0.550 OA
ENDBRANCH   4   5
ENDBRANCH   3   4
ENDBRANCH   2   3
ENDBRANCH   1   2
BRANCH   1   8
ATOM      8  C   UNL     1      46.654   6.586  17.885  1.00  0.00     0.000 C 
BRANCH   8   9
ATOM      9  C   UNL     1      47.135   6.179  16.480  1.00  0.00     0.006 C 
BRANCH   9  10
ATOM     10  C   UNL     1      46.331   6.809  15.332  1.00  0.00     0.053 C 
BRANCH  10  11
ATOM     11  C   UNL     1      45.118   6.002  14.985  1.00  0.00     0.041 C 
ATOM     12  O   UNL     1      45.204   5.052  14.165  1.00  0.00    -0.550 OA
ATOM     13  O   UNL     1      43.901   6.278  15.594  1.00  0.00    -0.550 OA
ENDBRANCH  10  11
ENDBRANCH   9  10
ENDBRANCH   8   9
ENDBRANCH   1   8
TORSDOF 8
ENDMDL
MODEL 7
REMARK VINA RESULT:    -4.213      1.390      1.951
REMARK INTER + INTRA:          -6.426
REMARK INTER:                  -6.108
REMARK INTRA:                  -0.318
REMARK UNBOUND:                -0.242
REMARK SMILES O=C([O-])CCCCCCCC(=O)[O-]
REMARK SMILES IDX 7 1 6 2 5 3 4 4 2 5 1 6 3 7 8 8 9 9 10 10 11 11 12 12 13 13
REMARK H PARENT
REMARK Flexibility Score: inf
ROOT
ATOM      1  C   UNL     1      46.025   8.333  18.819  1.00  0.00     0.000 C 
ENDROOT
BRANCH   1   2
ATOM      2  C   UNL     1      46.571   6.987  18.307  1.00  0.00     0.000 C 
BRANCH   2   3
ATOM      3  C   UNL     1      46.296   6.701  16.820  1.00  0.00     0.006 C 
BRANCH   3   4
ATOM      4  C   UNL     1      44.862   7.045  16.401  1.00  0.00     0.053 C 
BRANCH   4   5
ATOM      5  C   UNL     1      44.569   6.496  15.039  1.00  0.00     0.041 C 
ATOM      6  O   UNL     1      43.379   6.403  14.636  1.00  0.00    -0.550 OA
ATOM      7  O   UNL     1      45.606   6.040  14.236  1.00  0.00    -0.550 OA
ENDBRANCH   4   5
ENDBRANCH   3   4
ENDBRANCH   2   3
ENDBRANCH   1   2
BRANCH   1   8
ATOM      8  C   UNL     1      46.042   8.438  20.354  1.00  0.00     0.000 C 
BRANCH   8   9
ATOM      9  C   UNL     1      46.794   7.272  21.021  1.00  0.00     0.006 C 
BRANCH   9  10
ATOM     10  C   UNL     1      47.625   7.680  22.249  1.00  0.00     0.053 C 
BRANCH  10  11
ATOM     11  C   UNL     1      46.881   8.624  23.143  1.00  0.00     0.041 C 
ATOM     12  O   UNL     1      47.253   9.822  23.250  1.00  0.00    -0.550 OA
ATOM     13  O   UNL     1      45.756   8.190  23.831  1.00  0.00    -0.550 OA
ENDBRANCH  10  11
ENDBRANCH   9  10
ENDBRANCH   8   9
ENDBRANCH   1   8
TORSDOF 8
ENDMDL
MODEL 8
REMARK VINA RESULT:    -4.204      1.934      2.482
REMARK INTER + INTRA:          -6.412
REMARK INTER:                  -6.199
REMARK INTRA:                  -0.213
REMARK UNBOUND:                -0.242
REMARK SMILES O=C([O-])CCCCCCCC(=O)[O-]
REMARK SMILES IDX 7 1 6 2 5 3 4 4 2 5 1 6 3 7 8 8 9 9 10 10 11 11 12 12 13 13
REMARK H PARENT
REMARK Flexibility Score: inf
ROOT
ATOM      1  C   UNL     1      46.377   7.683  18.863  1.00  0.00     0.000 C 
ENDROOT
BRANCH   1   2
ATOM      2  C   UNL     1      46.621   6.629  17.768  1.00  0.00     0.000 C 
BRANCH   2   3
ATOM      3  C   UNL     1      46.165   7.044  16.358  1.00  0.00     0.006 C 
BRANCH   3   4
ATOM      4  C   UNL     1      44.643   6.988  16.181  1.00  0.00     0.053 C 
BRANCH   4   5
ATOM      5  C   UNL     1      44.291   6.328  14.885  1.00  0.00     0.041 C 
ATOM      6  O   UNL     1      45.098   5.530  14.341  1.00  0.00    -0.550 OA
ATOM      7  O   UNL     1      43.093   6.633  14.252  1.00  0.00    -0.550 OA
ENDBRANCH   4   5
ENDBRANCH   3   4
ENDBRANCH   2   3
ENDBRANCH   1   2
BRANCH   1   8
ATOM      8  C   UNL     1      46.724   7.172  20.272  1.00  0.00     0.000 C 
BRANCH   8   9
ATOM      9  C   UNL     1      46.430   8.210  21.370  1.00  0.00     0.006 C 
BRANCH   9  10
ATOM     10  C   UNL     1      44.933   8.434  21.639  1.00  0.00     0.053 C 
BRANCH  10  11
ATOM     11  C   UNL     1      44.650   8.659  23.093  1.00  0.00     0.041 C 
ATOM     12  O   UNL     1      43.517   9.065  23.462  1.00  0.00    -0.550 OA
ATOM     13  O   UNL     1      45.627   8.388  24.042  1.00  0.00    -0.550 OA
ENDBRANCH  10  11
ENDBRANCH   9  10
ENDBRANCH   8   9
ENDBRANCH   1   8
TORSDOF 8
ENDMDL
MODEL 9
REMARK VINA RESULT:    -4.175      2.141      6.623
REMARK INTER + INTRA:          -6.369
REMARK INTER:                  -5.763
REMARK INTRA:                  -0.606
REMARK UNBOUND:                -0.242
REMARK SMILES O=C([O-])CCCCCCCC(=O)[O-]
REMARK SMILES IDX 7 1 6 2 5 3 4 4 2 5 1 6 3 7 8 8 9 9 10 10 11 11 12 12 13 13
REMARK H PARENT
REMARK Flexibility Score: inf
ROOT
ATOM      1  C   UNL     1      44.426   7.112  16.465  1.00  0.00     0.000 C 
ENDROOT
BRANCH   1   2
ATOM      2  C   UNL     1      45.072   8.464  16.819  1.00  0.00     0.000 C 
BRANCH   2   3
ATOM      3  C   UNL     1      46.390   8.364  17.609  1.00  0.00     0.006 C 
BRANCH   3   4
ATOM      4  C   UNL     1      46.427   7.161  18.558  1.00  0.00     0.053 C 
BRANCH   4   5
ATOM      5  C   UNL     1      46.427   7.620  19.983  1.00  0.00     0.041 C 
ATOM      6  O   UNL     1      47.209   7.094  20.818  1.00  0.00    -0.550 OA
ATOM      7  O   UNL     1      45.528   8.593  20.400  1.00  0.00    -0.550 OA
ENDBRANCH   4   5
ENDBRANCH   3   4
ENDBRANCH   2   3
ENDBRANCH   1   2
BRANCH   1   8
ATOM      8  C   UNL     1      44.285   6.897  14.948  1.00  0.00     0.000 C 
BRANCH   8   9
ATOM      9  C   UNL     1      45.201   5.778  14.419  1.00  0.00     0.006 C 
BRANCH   9  10
ATOM     10  C   UNL     1      46.695   6.140  14.409  1.00  0.00     0.053 C 
BRANCH  10  11
ATOM     11  C   UNL     1      47.536   5.079  15.051  1.00  0.00     0.041 C 
ATOM     12  O   UNL     1      47.818   5.150  16.275  1.00  0.00    -0.550 OA
ATOM     13  O   UNL     1      47.977   3.995  14.304  1.00  0.00    -0.550 OA
ENDBRANCH  10  11
ENDBRANCH   9  10
ENDBRANCH   8   9
ENDBRANCH   1   8
TORSDOF 8
ENDMDL
