MODEL 1
REMARK VINA RESULT:    -3.548      0.000      0.000
REMARK INTER + INTRA:          -3.548
REMARK INTER:                  -3.548
REMARK INTRA:                   0.000
REMARK UNBOUND:                 0.000
REMARK SMILES O=C1CCCCC1
REMARK SMILES IDX 5 1 4 2 3 3 2 4 1 5 7 6 6 7
REMARK H PARENT
REMARK Flexibility Score: inf
ROOT
ATOM      1  C   UNL     1     164.260 170.509 166.670  1.00  0.00     0.001 C 
ATOM      2  C   UNL     1     164.357 170.073 168.141  1.00  0.00     0.008 C 
ATOM      3  C   UNL     1     164.038 171.234 169.091  1.00  0.00     0.075 C 
ATOM      4  C   UNL     1     164.849 172.447 168.726  1.00  0.00     0.132 C 
ATOM      5  O   UNL     1     165.382 173.116 169.598  1.00  0.00    -0.300 OA
ATOM      6  C   UNL     1     164.917 172.879 167.288  1.00  0.00     0.075 C 
ATOM      7  C   UNL     1     165.214 171.678 166.382  1.00  0.00     0.008 C 
ENDROOT
TORSDOF 0
ENDMDL
MODEL 2
REMARK VINA RESULT:    -3.543      8.469      8.873
REMARK INTER + INTRA:          -3.543
REMARK INTER:                  -3.543
REMARK INTRA:                   0.000
REMARK UNBOUND:                 0.000
REMARK SMILES O=C1CCCCC1
REMARK SMILES IDX 5 1 4 2 3 3 2 4 1 5 7 6 6 7
REMARK H PARENT
REMARK Flexibility Score: inf
ROOT
ATOM      1  C   UNL     1     170.498 166.948 166.721  1.00  0.00     0.001 C 
ATOM      2  C   UNL     1     170.064 166.851 168.192  1.00  0.00     0.008 C 
ATOM      3  C   UNL     1     171.227 167.166 169.142  1.00  0.00     0.075 C 
ATOM      4  C   UNL     1     172.436 166.352 168.775  1.00  0.00     0.132 C 
ATOM      5  O   UNL     1     173.105 165.816 169.646  1.00  0.00    -0.300 OA
ATOM      6  C   UNL     1     172.867 166.283 167.336  1.00  0.00     0.075 C 
ATOM      7  C   UNL     1     171.665 165.991 166.431  1.00  0.00     0.008 C 
ENDROOT
TORSDOF 0
ENDMDL
MODEL 3
REMARK VINA RESULT:    -3.542      8.441      8.843
REMARK INTER + INTRA:          -3.542
REMARK INTER:                  -3.542
REMARK INTRA:                   0.000
REMARK UNBOUND:                 0.000
REMARK SMILES O=C1CCCCC1
REMARK SMILES IDX 5 1 4 2 3 3 2 4 1 5 7 6 6 7
REMARK H PARENT
REMARK Flexibility Score: inf
ROOT
ATOM      1  C   UNL     1     160.735 164.304 166.622  1.00  0.00     0.001 C 
ATOM      2  C   UNL     1     161.164 164.387 168.095  1.00  0.00     0.008 C 
ATOM      3  C   UNL     1     160.000 164.053 169.037  1.00  0.00     0.075 C 
ATOM      4  C   UNL     1     158.786 164.863 168.675  1.00  0.00     0.132 C 
ATOM      5  O   UNL     1     158.111 165.384 169.550  1.00  0.00    -0.300 OA
ATOM      6  C   UNL     1     158.360 164.944 167.236  1.00  0.00     0.075 C 
ATOM      7  C   UNL     1     159.563 165.256 166.338  1.00  0.00     0.008 C 
ENDROOT
TORSDOF 0
ENDMDL
MODEL 4
REMARK VINA RESULT:    -3.536     11.373     12.519
REMARK INTER + INTRA:          -3.536
REMARK INTER:                  -3.536
REMARK INTRA:                   0.000
REMARK UNBOUND:                 0.000
REMARK SMILES O=C1CCCCC1
REMARK SMILES IDX 5 1 4 2 3 3 2 4 1 5 7 6 6 7
REMARK H PARENT
REMARK Flexibility Score: inf
ROOT
ATOM      1  C   UNL     1     166.893 160.744 166.656  1.00  0.00     0.001 C 
ATOM      2  C   UNL     1     166.821 161.178 168.129  1.00  0.00     0.008 C 
ATOM      3  C   UNL     1     167.183 160.024 169.072  1.00  0.00     0.075 C 
ATOM      4  C   UNL     1     166.388 158.797 168.726  1.00  0.00     0.132 C 
ATOM      5  O   UNL     1     165.888 158.117 169.609  1.00  0.00    -0.300 OA
ATOM      6  C   UNL     1     166.296 158.362 167.289  1.00  0.00     0.075 C 
ATOM      7  C   UNL     1     165.956 159.556 166.390  1.00  0.00     0.008 C 
ENDROOT
TORSDOF 0
ENDMDL
MODEL 5
REMARK VINA RESULT:    -3.189      8.339      8.902
REMARK INTER + INTRA:          -3.189
REMARK INTER:                  -3.189
REMARK INTRA:                   0.000
REMARK UNBOUND:                 0.000
REMARK SMILES O=C1CCCCC1
REMARK SMILES IDX 5 1 4 2 3 3 2 4 1 5 7 6 6 7
REMARK H PARENT
REMARK Flexibility Score: inf
ROOT
ATOM      1  C   UNL     1     160.945 164.044 169.362  1.00  0.00     0.001 C 
ATOM      2  C   UNL     1     159.794 164.882 169.939  1.00  0.00     0.008 C 
ATOM      3  C   UNL     1     158.532 164.772 169.073  1.00  0.00     0.075 C 
ATOM      4  C   UNL     1     158.862 165.043 167.632  1.00  0.00     0.132 C 
ATOM      5  O   UNL     1     158.129 165.746 166.954  1.00  0.00    -0.300 OA
ATOM      6  C   UNL     1     160.051 164.364 167.010  1.00  0.00     0.075 C 
ATOM      7  C   UNL     1     161.275 164.483 167.926  1.00  0.00     0.008 C 
ENDROOT
TORSDOF 0
ENDMDL
MODEL 6
REMARK VINA RESULT:    -3.184      1.231      2.162
REMARK INTER + INTRA:          -3.184
REMARK INTER:                  -3.184
REMARK INTRA:                   0.000
REMARK UNBOUND:                 0.000
REMARK SMILES O=C1CCCCC1
REMARK SMILES IDX 5 1 4 2 3 3 2 4 1 5 7 6 6 7
REMARK H PARENT
REMARK Flexibility Score: inf
ROOT
ATOM      1  C   UNL     1     164.027 170.290 169.407  1.00  0.00     0.001 C 
ATOM      2  C   UNL     1     164.863 171.434 170.002  1.00  0.00     0.008 C 
ATOM      3  C   UNL     1     164.756 172.706 169.151  1.00  0.00     0.075 C 
ATOM      4  C   UNL     1     165.031 172.394 167.706  1.00  0.00     0.132 C 
ATOM      5  O   UNL     1     165.736 173.135 167.039  1.00  0.00    -0.300 OA
ATOM      6  C   UNL     1     164.353 171.213 167.068  1.00  0.00     0.075 C 
ATOM      7  C   UNL     1     164.469 169.978 167.969  1.00  0.00     0.008 C 
ENDROOT
TORSDOF 0
ENDMDL
MODEL 7
REMARK VINA RESULT:    -3.170      8.366      8.922
REMARK INTER + INTRA:          -3.170
REMARK INTER:                  -3.170
REMARK INTRA:                   0.000
REMARK UNBOUND:                 0.000
REMARK SMILES O=C1CCCCC1
REMARK SMILES IDX 5 1 4 2 3 3 2 4 1 5 7 6 6 7
REMARK H PARENT
REMARK Flexibility Score: inf
ROOT
ATOM      1  C   UNL     1     170.373 167.115 169.319  1.00  0.00     0.001 C 
ATOM      2  C   UNL     1     171.613 166.264 169.636  1.00  0.00     0.008 C 
ATOM      3  C   UNL     1     172.692 166.424 168.557  1.00  0.00     0.075 C 
ATOM      4  C   UNL     1     172.101 166.213 167.191  1.00  0.00     0.132 C 
ATOM      5  O   UNL     1     172.698 165.548 166.358  1.00  0.00    -0.300 OA
ATOM      6  C   UNL     1     170.818 166.908 166.831  1.00  0.00     0.075 C 
ATOM      7  C   UNL     1     169.784 166.737 167.951  1.00  0.00     0.008 C 
ENDROOT
TORSDOF 0
ENDMDL
MODEL 8
REMARK VINA RESULT:    -3.132     11.304     12.439
REMARK INTER + INTRA:          -3.132
REMARK INTER:                  -3.132
REMARK INTRA:                   0.000
REMARK UNBOUND:                 0.000
REMARK SMILES O=C1CCCCC1
REMARK SMILES IDX 5 1 4 2 3 3 2 4 1 5 7 6 6 7
REMARK H PARENT
REMARK Flexibility Score: inf
ROOT
ATOM      1  C   UNL     1     167.126 161.037 169.516  1.00  0.00     0.001 C 
ATOM      2  C   UNL     1     166.273 159.909 170.117  1.00  0.00     0.008 C 
ATOM      3  C   UNL     1     166.424 158.607 169.320  1.00  0.00     0.075 C 
ATOM      4  C   UNL     1     166.210 158.863 167.854  1.00  0.00     0.132 C 
ATOM      5  O   UNL     1     165.539 158.091 167.186  1.00  0.00    -0.300 OA
ATOM      6  C   UNL     1     166.906 160.024 167.201  1.00  0.00     0.075 C 
ATOM      7  C   UNL     1     166.744 161.291 168.050  1.00  0.00     0.008 C 
ENDROOT
TORSDOF 0
ENDMDL
MODEL 9
REMARK VINA RESULT:    -3.022      8.405      8.970
REMARK INTER + INTRA:          -3.022
REMARK INTER:                  -3.022
REMARK INTRA:                   0.000
REMARK UNBOUND:                 0.000
REMARK SMILES O=C1CCCCC1
REMARK SMILES IDX 5 1 4 2 3 3 2 4 1 5 7 6 6 7
REMARK H PARENT
REMARK Flexibility Score: inf
ROOT
ATOM      1  C   UNL     1     161.424 164.506 167.897  1.00  0.00     0.001 C 
ATOM      2  C   UNL     1     160.130 164.275 167.101  1.00  0.00     0.008 C 
ATOM      3  C   UNL     1     158.961 165.077 167.689  1.00  0.00     0.075 C 
ATOM      4  C   UNL     1     158.855 164.839 169.169  1.00  0.00     0.132 C 
ATOM      5  O   UNL     1     157.764 164.659 169.688  1.00  0.00    -0.300 OA
ATOM      6  C   UNL     1     160.095 164.919 170.016  1.00  0.00     0.075 C 
ATOM      7  C   UNL     1     161.236 164.123 169.372  1.00  0.00     0.008 C 
ENDROOT
TORSDOF 0
ENDMDL
