MODEL 1
REMARK VINA RESULT:    -6.138      0.000      0.000
REMARK INTER + INTRA:          -7.770
REMARK INTER:                  -7.394
REMARK INTRA:                  -0.375
REMARK UNBOUND:                -0.375
REMARK SMILES Oc1cc(O)c2c(c1)O[C@H](c1ccc(O)c(O)c1)[C@H](O)C2
REMARK SMILES IDX 21 1 19 2 10 3 9 4 7 5 8 6 2 7 3 8 4 9 6 10 20 11 11 13
REMARK SMILES IDX 18 14 12 15 16 16 13 17 14 18 17 19 15 21 5 23 1 25
REMARK H PARENT 20 12 17 20 15 22 5 24 1 26
REMARK Flexibility Score: inf
ROOT
ATOM      1  C   UNL     1      -0.123  68.855 166.351  1.00  0.00     0.079 C 
ATOM      2  C   UNL     1      -1.581  68.428 166.592  1.00  0.00     0.164 C 
ATOM      3  C   UNL     1      -2.042  67.484 165.460  1.00  0.00     0.232 C 
ATOM      4  O   UNL     1      -1.856  68.109 164.186  1.00  0.00    -0.482 OA
ATOM      5  C   UNL     1      -0.770  68.949 163.908  1.00  0.00     0.131 A 
ATOM      6  C   UNL     1      -0.555  69.385 162.595  1.00  0.00     0.093 A 
ATOM      7  C   UNL     1       0.545  70.189 162.289  1.00  0.00     0.122 A 
ATOM      8  C   UNL     1       1.440  70.560 163.306  1.00  0.00     0.092 A 
ATOM      9  C   UNL     1       1.223  70.149 164.631  1.00  0.00     0.126 A 
ATOM     10  C   UNL     1       0.099  69.358 164.943  1.00  0.00     0.039 A 
ENDROOT
BRANCH   2  11
ATOM     11  O   UNL     1      -2.402  69.570 166.640  1.00  0.00    -0.389 OA
ATOM     12  H   UNL     1      -3.266  69.332 166.213  1.00  0.00     0.211 HD
ENDBRANCH   2  11
BRANCH   3  13
ATOM     13  C   UNL     1      -3.476  67.029 165.645  1.00  0.00    -0.001 A 
ATOM     14  C   UNL     1      -3.849  66.181 166.710  1.00  0.00     0.057 A 
ATOM     15  C   UNL     1      -4.462  67.465 164.741  1.00  0.00     0.012 A 
ATOM     16  C   UNL     1      -5.192  65.807 166.879  1.00  0.00     0.157 A 
ATOM     17  C   UNL     1      -5.789  67.058 164.886  1.00  0.00     0.050 A 
ATOM     18  C   UNL     1      -6.163  66.241 165.963  1.00  0.00     0.157 A 
BRANCH  16  19
ATOM     19  O   UNL     1      -5.575  65.013 167.959  1.00  0.00    -0.504 OA
ATOM     20  H   UNL     1      -4.908  64.414 168.432  1.00  0.00     0.293 HD
ENDBRANCH  16  19
BRANCH  18  21
ATOM     21  O   UNL     1      -7.496  65.863 166.136  1.00  0.00    -0.504 OA
ATOM     22  H   UNL     1      -7.990  66.046 167.006  1.00  0.00     0.293 HD
ENDBRANCH  18  21
ENDBRANCH   3  13
BRANCH   9  23
ATOM     23  O   UNL     1       2.130  70.508 165.632  1.00  0.00    -0.507 OA
ATOM     24  H   UNL     1       2.808  71.253 165.484  1.00  0.00     0.293 HD
ENDBRANCH   9  23
BRANCH   7  25
ATOM     25  O   UNL     1       0.749  70.603 160.968  1.00  0.00    -0.508 OA
ATOM     26  H   UNL     1       0.744  71.584 160.706  1.00  0.00     0.293 HD
ENDBRANCH   7  25
TORSDOF 6
ENDMDL
MODEL 2
REMARK VINA RESULT:    -6.120      1.567      3.280
REMARK INTER + INTRA:          -7.747
REMARK INTER:                  -7.512
REMARK INTRA:                  -0.235
REMARK UNBOUND:                -0.375
REMARK SMILES Oc1cc(O)c2c(c1)O[C@H](c1ccc(O)c(O)c1)[C@H](O)C2
REMARK SMILES IDX 21 1 19 2 10 3 9 4 7 5 8 6 2 7 3 8 4 9 6 10 20 11 11 13
REMARK SMILES IDX 18 14 12 15 16 16 13 17 14 18 17 19 15 21 5 23 1 25
REMARK H PARENT 20 12 17 20 15 22 5 24 1 26
REMARK Flexibility Score: inf
ROOT
ATOM      1  C   UNL     1      -0.446  69.831 164.249  1.00  0.00     0.079 C 
ATOM      2  C   UNL     1      -1.499  68.709 164.258  1.00  0.00     0.164 C 
ATOM      3  C   UNL     1      -2.114  68.583 165.670  1.00  0.00     0.232 C 
ATOM      4  O   UNL     1      -1.084  68.377 166.643  1.00  0.00    -0.482 OA
ATOM      5  C   UNL     1       0.173  68.988 166.551  1.00  0.00     0.131 A 
ATOM      6  C   UNL     1       1.068  68.883 167.623  1.00  0.00     0.093 A 
ATOM      7  C   UNL     1       2.311  69.518 167.569  1.00  0.00     0.122 A 
ATOM      8  C   UNL     1       2.662  70.266 166.433  1.00  0.00     0.092 A 
ATOM      9  C   UNL     1       1.783  70.358 165.342  1.00  0.00     0.126 A 
ATOM     10  C   UNL     1       0.539  69.697 165.387  1.00  0.00     0.039 A 
ENDROOT
BRANCH   2  11
ATOM     11  O   UNL     1      -0.896  67.496 163.877  1.00  0.00    -0.389 OA
ATOM     12  H   UNL     1      -1.296  66.778 164.435  1.00  0.00     0.211 HD
ENDBRANCH   2  11
BRANCH   3  13
ATOM     13  C   UNL     1      -3.161  67.489 165.740  1.00  0.00    -0.001 A 
ATOM     14  C   UNL     1      -4.510  67.737 165.402  1.00  0.00     0.057 A 
ATOM     15  C   UNL     1      -2.785  66.195 166.144  1.00  0.00     0.012 A 
ATOM     16  C   UNL     1      -5.451  66.695 165.438  1.00  0.00     0.157 A 
ATOM     17  C   UNL     1      -3.731  65.171 166.221  1.00  0.00     0.050 A 
ATOM     18  C   UNL     1      -5.063  65.412 165.854  1.00  0.00     0.157 A 
BRANCH  16  19
ATOM     19  O   UNL     1      -6.771  66.921 165.055  1.00  0.00    -0.504 OA
ATOM     20  H   UNL     1      -7.535  66.395 165.466  1.00  0.00     0.293 HD
ENDBRANCH  16  19
BRANCH  18  21
ATOM     21  O   UNL     1      -6.005  64.381 165.890  1.00  0.00    -0.504 OA
ATOM     22  H   UNL     1      -6.262  63.929 166.764  1.00  0.00     0.293 HD
ENDBRANCH  18  21
ENDBRANCH   3  13
BRANCH   9  23
ATOM     23  O   UNL     1       2.134  71.120 164.224  1.00  0.00    -0.507 OA
ATOM     24  H   UNL     1       1.569  71.916 163.931  1.00  0.00     0.293 HD
ENDBRANCH   9  23
BRANCH   7  25
ATOM     25  O   UNL     1       3.186  69.413 168.657  1.00  0.00    -0.508 OA
ATOM     26  H   UNL     1       3.851  68.651 168.738  1.00  0.00     0.293 HD
ENDBRANCH   7  25
TORSDOF 6
ENDMDL
MODEL 3
REMARK VINA RESULT:    -5.374      2.600      7.245
REMARK INTER + INTRA:          -6.848
REMARK INTER:                  -6.668
REMARK INTRA:                  -0.180
REMARK UNBOUND:                -0.375
REMARK SMILES Oc1cc(O)c2c(c1)O[C@H](c1ccc(O)c(O)c1)[C@H](O)C2
REMARK SMILES IDX 21 1 19 2 10 3 9 4 7 5 8 6 2 7 3 8 4 9 6 10 20 11 11 13
REMARK SMILES IDX 18 14 12 15 16 16 13 17 14 18 17 19 15 21 5 23 1 25
REMARK H PARENT 20 12 17 20 15 22 5 24 1 26
REMARK Flexibility Score: inf
ROOT
ATOM      1  C   UNL     1      -2.007  70.649 165.802  1.00  0.00     0.079 C 
ATOM      2  C   UNL     1      -0.699  70.718 166.609  1.00  0.00     0.164 C 
ATOM      3  C   UNL     1       0.255  69.592 166.151  1.00  0.00     0.232 C 
ATOM      4  O   UNL     1      -0.391  68.319 166.260  1.00  0.00    -0.482 OA
ATOM      5  C   UNL     1      -1.756  68.141 165.997  1.00  0.00     0.131 A 
ATOM      6  C   UNL     1      -2.283  66.845 165.953  1.00  0.00     0.093 A 
ATOM      7  C   UNL     1      -3.632  66.641 165.651  1.00  0.00     0.122 A 
ATOM      8  C   UNL     1      -4.461  67.746 165.391  1.00  0.00     0.092 A 
ATOM      9  C   UNL     1      -3.949  69.051 165.456  1.00  0.00     0.126 A 
ATOM     10  C   UNL     1      -2.594  69.257 165.784  1.00  0.00     0.039 A 
ENDROOT
BRANCH   2  11
ATOM     11  O   UNL     1      -0.986  70.588 167.980  1.00  0.00    -0.389 OA
ATOM     12  H   UNL     1      -0.190  70.182 168.413  1.00  0.00     0.211 HD
ENDBRANCH   2  11
BRANCH   3  13
ATOM     13  C   UNL     1       1.565  69.610 166.914  1.00  0.00    -0.001 A 
ATOM     14  C   UNL     1       2.681  70.336 166.446  1.00  0.00     0.057 A 
ATOM     15  C   UNL     1       1.673  68.892 168.120  1.00  0.00     0.012 A 
ATOM     16  C   UNL     1       3.870  70.366 167.194  1.00  0.00     0.157 A 
ATOM     17  C   UNL     1       2.870  68.889 168.839  1.00  0.00     0.050 A 
ATOM     18  C   UNL     1       3.967  69.637 168.388  1.00  0.00     0.157 A 
BRANCH  16  19
ATOM     19  O   UNL     1       4.957  71.125 166.763  1.00  0.00    -0.504 OA
ATOM     20  H   UNL     1       5.702  70.710 166.214  1.00  0.00     0.293 HD
ENDBRANCH  16  19
BRANCH  18  21
ATOM     21  O   UNL     1       5.153  69.669 169.125  1.00  0.00    -0.504 OA
ATOM     22  H   UNL     1       5.644  68.815 169.377  1.00  0.00     0.293 HD
ENDBRANCH  18  21
ENDBRANCH   3  13
BRANCH   9  23
ATOM     23  O   UNL     1      -4.777  70.142 165.176  1.00  0.00    -0.507 OA
ATOM     24  H   UNL     1      -5.484  70.449 165.843  1.00  0.00     0.293 HD
ENDBRANCH   9  23
BRANCH   7  25
ATOM     25  O   UNL     1      -4.137  65.337 165.598  1.00  0.00    -0.508 OA
ATOM     26  H   UNL     1      -3.694  64.570 166.092  1.00  0.00     0.293 HD
ENDBRANCH   7  25
TORSDOF 6
ENDMDL
MODEL 4
REMARK VINA RESULT:    -4.931      4.204      5.858
REMARK INTER + INTRA:          -6.316
REMARK INTER:                  -5.967
REMARK INTRA:                  -0.348
REMARK UNBOUND:                -0.375
REMARK SMILES Oc1cc(O)c2c(c1)O[C@H](c1ccc(O)c(O)c1)[C@H](O)C2
REMARK SMILES IDX 21 1 19 2 10 3 9 4 7 5 8 6 2 7 3 8 4 9 6 10 20 11 11 13
REMARK SMILES IDX 18 14 12 15 16 16 13 17 14 18 17 19 15 21 5 23 1 25
REMARK H PARENT 20 12 17 20 15 22 5 24 1 26
REMARK Flexibility Score: inf
ROOT
ATOM      1  C   UNL     1       1.309  70.104 163.469  1.00  0.00     0.079 C 
ATOM      2  C   UNL     1       0.256  69.933 162.360  1.00  0.00     0.164 C 
ATOM      3  C   UNL     1      -0.781  71.075 162.445  1.00  0.00     0.232 C 
ATOM      4  O   UNL     1      -1.363  71.120 163.752  1.00  0.00    -0.482 OA
ATOM      5  C   UNL     1      -0.632  70.839 164.913  1.00  0.00     0.131 A 
ATOM      6  C   UNL     1      -1.214  71.072 166.165  1.00  0.00     0.093 A 
ATOM      7  C   UNL     1      -0.489  70.837 167.336  1.00  0.00     0.122 A 
ATOM      8  C   UNL     1       0.832  70.367 167.253  1.00  0.00     0.092 A 
ATOM      9  C   UNL     1       1.419  70.107 166.005  1.00  0.00     0.126 A 
ATOM     10  C   UNL     1       0.678  70.321 164.825  1.00  0.00     0.039 A 
ENDROOT
BRANCH   2  11
ATOM     11  O   UNL     1      -0.377  68.685 162.503  1.00  0.00    -0.389 OA
ATOM     12  H   UNL     1       0.094  68.043 161.910  1.00  0.00     0.211 HD
ENDBRANCH   2  11
BRANCH   3  13
ATOM     13  C   UNL     1      -1.846  70.958 161.373  1.00  0.00    -0.001 A 
ATOM     14  C   UNL     1      -3.220  71.052 161.686  1.00  0.00     0.057 A 
ATOM     15  C   UNL     1      -1.462  70.757 160.035  1.00  0.00     0.012 A 
ATOM     16  C   UNL     1      -4.184  70.979 160.667  1.00  0.00     0.157 A 
ATOM     17  C   UNL     1      -2.424  70.641 159.029  1.00  0.00     0.050 A 
ATOM     18  C   UNL     1      -3.786  70.767 159.338  1.00  0.00     0.157 A 
BRANCH  16  19
ATOM     19  O   UNL     1      -5.538  71.124 160.962  1.00  0.00    -0.504 OA
ATOM     20  H   UNL     1      -5.916  72.013 161.270  1.00  0.00     0.293 HD
ENDBRANCH  16  19
BRANCH  18  21
ATOM     21  O   UNL     1      -4.751  70.692 158.330  1.00  0.00    -0.504 OA
ATOM     22  H   UNL     1      -5.744  70.656 158.548  1.00  0.00     0.293 HD
ENDBRANCH  18  21
ENDBRANCH   3  13
BRANCH   9  23
ATOM     23  O   UNL     1       2.741  69.657 165.933  1.00  0.00    -0.507 OA
ATOM     24  H   UNL     1       3.510  70.228 166.281  1.00  0.00     0.293 HD
ENDBRANCH   9  23
BRANCH   7  25
ATOM     25  O   UNL     1      -1.084  71.089 168.577  1.00  0.00    -0.508 OA
ATOM     26  H   UNL     1      -1.826  70.502 168.946  1.00  0.00     0.293 HD
ENDBRANCH   7  25
TORSDOF 6
ENDMDL
MODEL 5
REMARK VINA RESULT:    -4.791      1.746      6.916
REMARK INTER + INTRA:          -6.146
REMARK INTER:                  -6.486
REMARK INTRA:                   0.339
REMARK UNBOUND:                -0.375
REMARK SMILES Oc1cc(O)c2c(c1)O[C@H](c1ccc(O)c(O)c1)[C@H](O)C2
REMARK SMILES IDX 21 1 19 2 10 3 9 4 7 5 8 6 2 7 3 8 4 9 6 10 20 11 11 13
REMARK SMILES IDX 18 14 12 15 16 16 13 17 14 18 17 19 15 21 5 23 1 25
REMARK H PARENT 20 12 17 20 15 22 5 24 1 26
REMARK Flexibility Score: inf
ROOT
ATOM      1  C   UNL     1      -3.057  66.924 166.892  1.00  0.00     0.079 C 
ATOM      2  C   UNL     1      -2.088  67.447 165.818  1.00  0.00     0.164 C 
ATOM      3  C   UNL     1      -2.784  68.539 164.975  1.00  0.00     0.232 C 
ATOM      4  O   UNL     1      -4.002  68.033 164.417  1.00  0.00    -0.482 OA
ATOM      5  C   UNL     1      -4.831  67.137 165.103  1.00  0.00     0.131 A 
ATOM      6  C   UNL     1      -6.088  66.820 164.573  1.00  0.00     0.093 A 
ATOM      7  C   UNL     1      -6.948  65.960 165.261  1.00  0.00     0.122 A 
ATOM      8  C   UNL     1      -6.546  65.412 166.490  1.00  0.00     0.092 A 
ATOM      9  C   UNL     1      -5.279  65.703 167.020  1.00  0.00     0.126 A 
ATOM     10  C   UNL     1      -4.402  66.551 166.313  1.00  0.00     0.039 A 
ENDROOT
BRANCH   2  11
ATOM     11  O   UNL     1      -1.679  66.381 164.996  1.00  0.00    -0.389 OA
ATOM     12  H   UNL     1      -1.841  66.653 164.055  1.00  0.00     0.211 HD
ENDBRANCH   2  11
BRANCH   3  13
ATOM     13  C   UNL     1      -1.874  69.092 163.897  1.00  0.00    -0.001 A 
ATOM     14  C   UNL     1      -0.674  68.440 163.538  1.00  0.00     0.057 A 
ATOM     15  C   UNL     1      -2.232  70.280 163.232  1.00  0.00     0.012 A 
ATOM     16  C   UNL     1       0.130  68.956 162.508  1.00  0.00     0.157 A 
ATOM     17  C   UNL     1      -1.409  70.813 162.238  1.00  0.00     0.050 A 
ATOM     18  C   UNL     1      -0.234  70.147 161.862  1.00  0.00     0.157 A 
BRANCH  16  19
ATOM     19  O   UNL     1       1.288  68.287 162.114  1.00  0.00    -0.504 OA
ATOM     20  H   UNL     1       2.172  68.776 162.026  1.00  0.00     0.293 HD
ENDBRANCH  16  19
BRANCH  18  21
ATOM     21  O   UNL     1       0.573  70.655 160.840  1.00  0.00    -0.504 OA
ATOM     22  H   UNL     1       1.086  70.039 160.215  1.00  0.00     0.293 HD
ENDBRANCH  18  21
ENDBRANCH   3  13
BRANCH   9  23
ATOM     23  O   UNL     1      -4.897  65.167 168.253  1.00  0.00    -0.507 OA
ATOM     24  H   UNL     1      -4.042  65.471 168.716  1.00  0.00     0.293 HD
ENDBRANCH   9  23
BRANCH   7  25
ATOM     25  O   UNL     1      -8.206  65.668 164.721  1.00  0.00    -0.508 OA
ATOM     26  H   UNL     1      -8.506  66.043 163.827  1.00  0.00     0.293 HD
ENDBRANCH   7  25
TORSDOF 6
ENDMDL
MODEL 6
REMARK VINA RESULT:    -4.685      3.765      6.463
REMARK INTER + INTRA:          -6.019
REMARK INTER:                  -5.709
REMARK INTRA:                  -0.309
REMARK UNBOUND:                -0.375
REMARK SMILES Oc1cc(O)c2c(c1)O[C@H](c1ccc(O)c(O)c1)[C@H](O)C2
REMARK SMILES IDX 21 1 19 2 10 3 9 4 7 5 8 6 2 7 3 8 4 9 6 10 20 11 11 13
REMARK SMILES IDX 18 14 12 15 16 16 13 17 14 18 17 19 15 21 5 23 1 25
REMARK H PARENT 20 12 17 20 15 22 5 24 1 26
REMARK Flexibility Score: inf
ROOT
ATOM      1  C   UNL     1      -2.080  70.648 164.577  1.00  0.00     0.079 C 
ATOM      2  C   UNL     1      -1.037  70.147 165.590  1.00  0.00     0.164 C 
ATOM      3  C   UNL     1       0.307  70.872 165.356  1.00  0.00     0.232 C 
ATOM      4  O   UNL     1       0.733  70.702 164.000  1.00  0.00    -0.482 OA
ATOM      5  C   UNL     1      -0.165  70.669 162.926  1.00  0.00     0.131 A 
ATOM      6  C   UNL     1       0.329  70.676 161.616  1.00  0.00     0.093 A 
ATOM      7  C   UNL     1      -0.549  70.684 160.530  1.00  0.00     0.122 A 
ATOM      8  C   UNL     1      -1.936  70.686 160.756  1.00  0.00     0.092 A 
ATOM      9  C   UNL     1      -2.443  70.656 162.065  1.00  0.00     0.126 A 
ATOM     10  C   UNL     1      -1.557  70.622 163.159  1.00  0.00     0.039 A 
ENDROOT
BRANCH   2  11
ATOM     11  O   UNL     1      -0.874  68.757 165.448  1.00  0.00    -0.389 OA
ATOM     12  H   UNL     1      -0.248  68.608 164.691  1.00  0.00     0.211 HD
ENDBRANCH   2  11
BRANCH   3  13
ATOM     13  C   UNL     1       1.377  70.418 166.329  1.00  0.00    -0.001 A 
ATOM     14  C   UNL     1       2.696  70.151 165.902  1.00  0.00     0.057 A 
ATOM     15  C   UNL     1       1.054  70.262 167.689  1.00  0.00     0.012 A 
ATOM     16  C   UNL     1       3.677  69.768 166.832  1.00  0.00     0.157 A 
ATOM     17  C   UNL     1       2.020  69.840 168.605  1.00  0.00     0.050 A 
ATOM     18  C   UNL     1       3.337  69.606 168.184  1.00  0.00     0.157 A 
BRANCH  16  19
ATOM     19  O   UNL     1       4.993  69.555 166.425  1.00  0.00    -0.504 OA
ATOM     20  H   UNL     1       5.530  68.770 166.776  1.00  0.00     0.293 HD
ENDBRANCH  16  19
BRANCH  18  21
ATOM     21  O   UNL     1       4.317  69.223 169.103  1.00  0.00    -0.504 OA
ATOM     22  H   UNL     1       4.373  68.269 169.451  1.00  0.00     0.293 HD
ENDBRANCH  18  21
ENDBRANCH   3  13
BRANCH   9  23
ATOM     23  O   UNL     1      -3.825  70.677 162.279  1.00  0.00    -0.507 OA
ATOM     24  H   UNL     1      -4.308  69.873 162.676  1.00  0.00     0.293 HD
ENDBRANCH   9  23
BRANCH   7  25
ATOM     25  O   UNL     1      -0.035  70.704 159.228  1.00  0.00    -0.508 OA
ATOM     26  H   UNL     1      -0.173  71.498 158.610  1.00  0.00     0.293 HD
ENDBRANCH   7  25
TORSDOF 6
ENDMDL
MODEL 7
REMARK VINA RESULT:    -4.134      3.923      5.738
REMARK INTER + INTRA:          -5.355
REMARK INTER:                  -5.426
REMARK INTRA:                   0.070
REMARK UNBOUND:                -0.375
REMARK SMILES Oc1cc(O)c2c(c1)O[C@H](c1ccc(O)c(O)c1)[C@H](O)C2
REMARK SMILES IDX 21 1 19 2 10 3 9 4 7 5 8 6 2 7 3 8 4 9 6 10 20 11 11 13
REMARK SMILES IDX 18 14 12 15 16 16 13 17 14 18 17 19 15 21 5 23 1 25
REMARK H PARENT 20 12 17 20 15 22 5 24 1 26
REMARK Flexibility Score: inf
ROOT
ATOM      1  C   UNL     1       0.124  69.106 166.781  1.00  0.00     0.079 C 
ATOM      2  C   UNL     1      -0.716  69.599 165.590  1.00  0.00     0.164 C 
ATOM      3  C   UNL     1       0.064  69.375 164.275  1.00  0.00     0.232 C 
ATOM      4  O   UNL     1       1.345  70.010 164.344  1.00  0.00    -0.482 OA
ATOM      5  C   UNL     1       2.097  70.067 165.524  1.00  0.00     0.131 A 
ATOM      6  C   UNL     1       3.412  70.546 165.480  1.00  0.00     0.093 A 
ATOM      7  C   UNL     1       4.192  70.573 166.638  1.00  0.00     0.122 A 
ATOM      8  C   UNL     1       3.653  70.116 167.852  1.00  0.00     0.092 A 
ATOM      9  C   UNL     1       2.328  69.656 167.914  1.00  0.00     0.126 A 
ATOM     10  C   UNL     1       1.533  69.651 166.750  1.00  0.00     0.039 A 
ENDROOT
BRANCH   2  11
ATOM     11  O   UNL     1      -1.011  70.965 165.757  1.00  0.00    -0.389 OA
ATOM     12  H   UNL     1      -1.744  71.030 166.424  1.00  0.00     0.211 HD
ENDBRANCH   2  11
BRANCH   3  13
ATOM     13  C   UNL     1      -0.717  69.844 163.063  1.00  0.00    -0.001 A 
ATOM     14  C   UNL     1      -0.102  69.987 161.800  1.00  0.00     0.057 A 
ATOM     15  C   UNL     1      -2.086  70.139 163.194  1.00  0.00     0.012 A 
ATOM     16  C   UNL     1      -0.859  70.386 160.686  1.00  0.00     0.157 A 
ATOM     17  C   UNL     1      -2.827  70.577 162.095  1.00  0.00     0.050 A 
ATOM     18  C   UNL     1      -2.222  70.688 160.834  1.00  0.00     0.157 A 
BRANCH  16  19
ATOM     19  O   UNL     1      -0.270  70.478 159.427  1.00  0.00    -0.504 OA
ATOM     20  H   UNL     1       0.730  70.365 159.306  1.00  0.00     0.293 HD
ENDBRANCH  16  19
BRANCH  18  21
ATOM     21  O   UNL     1      -2.968  71.087 159.723  1.00  0.00    -0.504 OA
ATOM     22  H   UNL     1      -3.228  70.426 158.995  1.00  0.00     0.293 HD
ENDBRANCH  18  21
ENDBRANCH   3  13
BRANCH   9  23
ATOM     23  O   UNL     1       1.807  69.185 169.123  1.00  0.00    -0.507 OA
ATOM     24  H   UNL     1       2.046  69.632 170.007  1.00  0.00     0.293 HD
ENDBRANCH   9  23
BRANCH   7  25
ATOM     25  O   UNL     1       5.509  71.042 166.570  1.00  0.00    -0.508 OA
ATOM     26  H   UNL     1       6.090  70.894 165.750  1.00  0.00     0.293 HD
ENDBRANCH   7  25
TORSDOF 6
ENDMDL
MODEL 8
REMARK VINA RESULT:    -3.382      3.359      6.944
REMARK INTER + INTRA:          -4.450
REMARK INTER:                  -4.511
REMARK INTRA:                   0.061
REMARK UNBOUND:                -0.375
REMARK SMILES Oc1cc(O)c2c(c1)O[C@H](c1ccc(O)c(O)c1)[C@H](O)C2
REMARK SMILES IDX 21 1 19 2 10 3 9 4 7 5 8 6 2 7 3 8 4 9 6 10 20 11 11 13
REMARK SMILES IDX 18 14 12 15 16 16 13 17 14 18 17 19 15 21 5 23 1 25
REMARK H PARENT 20 12 17 20 15 22 5 24 1 26
REMARK Flexibility Score: inf
ROOT
ATOM      1  C   UNL     1      -0.260  69.608 162.902  1.00  0.00     0.079 C 
ATOM      2  C   UNL     1       0.915  69.760 163.883  1.00  0.00     0.164 C 
ATOM      3  C   UNL     1       0.549  69.113 165.238  1.00  0.00     0.232 C 
ATOM      4  O   UNL     1      -0.665  69.675 165.745  1.00  0.00    -0.482 OA
ATOM      5  C   UNL     1      -1.729  70.048 164.913  1.00  0.00     0.131 A 
ATOM      6  C   UNL     1      -2.949  70.426 165.485  1.00  0.00     0.093 A 
ATOM      7  C   UNL     1      -4.035  70.763 164.674  1.00  0.00     0.122 A 
ATOM      8  C   UNL     1      -3.900  70.719 163.276  1.00  0.00     0.092 A 
ATOM      9  C   UNL     1      -2.674  70.364 162.691  1.00  0.00     0.126 A 
ATOM     10  C   UNL     1      -1.572  70.049 163.510  1.00  0.00     0.039 A 
ENDROOT
BRANCH   2  11
ATOM     11  O   UNL     1       1.208  71.125 164.057  1.00  0.00    -0.389 OA
ATOM     12  H   UNL     1       0.345  71.599 164.185  1.00  0.00     0.211 HD
ENDBRANCH   2  11
BRANCH   3  13
ATOM     13  C   UNL     1       1.673  69.232 166.248  1.00  0.00    -0.001 A 
ATOM     14  C   UNL     1       2.965  69.656 165.867  1.00  0.00     0.057 A 
ATOM     15  C   UNL     1       1.427  68.921 167.598  1.00  0.00     0.012 A 
ATOM     16  C   UNL     1       3.977  69.795 166.831  1.00  0.00     0.157 A 
ATOM     17  C   UNL     1       2.446  69.019 168.547  1.00  0.00     0.050 A 
ATOM     18  C   UNL     1       3.720  69.470 168.172  1.00  0.00     0.157 A 
BRANCH  16  19
ATOM     19  O   UNL     1       5.239  70.264 166.469  1.00  0.00    -0.504 OA
ATOM     20  H   UNL     1       5.852  70.699 167.149  1.00  0.00     0.293 HD
ENDBRANCH  16  19
BRANCH  18  21
ATOM     21  O   UNL     1       4.732  69.608 169.124  1.00  0.00    -0.504 OA
ATOM     22  H   UNL     1       5.590  69.066 169.068  1.00  0.00     0.293 HD
ENDBRANCH  18  21
ENDBRANCH   3  13
BRANCH   9  23
ATOM     23  O   UNL     1      -2.555  70.306 161.299  1.00  0.00    -0.507 OA
ATOM     24  H   UNL     1      -2.955  71.032 160.706  1.00  0.00     0.293 HD
ENDBRANCH   9  23
BRANCH   7  25
ATOM     25  O   UNL     1      -5.251  71.125 165.265  1.00  0.00    -0.508 OA
ATOM     26  H   UNL     1      -6.131  70.706 164.982  1.00  0.00     0.293 HD
ENDBRANCH   7  25
TORSDOF 6
ENDMDL
