MODEL 1
REMARK VINA RESULT:    -2.816      0.000      0.000
REMARK INTER + INTRA:          -3.378
REMARK INTER:                  -3.310
REMARK INTRA:                  -0.068
REMARK UNBOUND:                -0.068
REMARK SMILES O=C([O-])CCC(=O)[O-]
REMARK SMILES IDX 4 1 2 2 1 3 3 4 5 5 6 6 7 7 8 8
REMARK H PARENT
REMARK Flexibility Score: inf
ROOT
ATOM      1  C   UNL     1      18.297  26.573  26.885  1.00  0.00     0.059 C 
ENDROOT
BRANCH   1   2
ATOM      2  C   UNL     1      18.718  25.591  27.934  1.00  0.00     0.042 C 
ATOM      3  O   UNL     1      18.765  24.361  27.667  1.00  0.00    -0.550 OA
ATOM      4  O   UNL     1      19.099  26.036  29.193  1.00  0.00    -0.550 OA
ENDBRANCH   1   2
BRANCH   1   5
ATOM      5  C   UNL     1      17.549  27.765  27.492  1.00  0.00     0.059 C 
BRANCH   5   6
ATOM      6  C   UNL     1      18.431  28.969  27.607  1.00  0.00     0.042 C 
ATOM      7  O   UNL     1      18.212  29.833  28.498  1.00  0.00    -0.550 OA
ATOM      8  O   UNL     1      19.520  29.119  26.757  1.00  0.00    -0.550 OA
ENDBRANCH   5   6
ENDBRANCH   1   5
TORSDOF 3
ENDMDL
MODEL 2
REMARK VINA RESULT:    -2.796      1.004      3.375
REMARK INTER + INTRA:          -3.355
REMARK INTER:                  -3.167
REMARK INTRA:                  -0.188
REMARK UNBOUND:                -0.068
REMARK SMILES O=C([O-])CCC(=O)[O-]
REMARK SMILES IDX 4 1 2 2 1 3 3 4 5 5 6 6 7 7 8 8
REMARK H PARENT
REMARK Flexibility Score: inf
ROOT
ATOM      1  C   UNL     1      17.638  27.628  27.232  1.00  0.00     0.059 C 
ENDROOT
BRANCH   1   2
ATOM      2  C   UNL     1      18.928  28.251  26.795  1.00  0.00     0.042 C 
ATOM      3  O   UNL     1      19.461  27.905  25.707  1.00  0.00    -0.550 OA
ATOM      4  O   UNL     1      19.519  29.242  27.566  1.00  0.00    -0.550 OA
ENDBRANCH   1   2
BRANCH   1   5
ATOM      5  C   UNL     1      17.764  26.974  28.612  1.00  0.00     0.059 C 
BRANCH   5   6
ATOM      6  C   UNL     1      18.800  25.893  28.618  1.00  0.00     0.042 C 
ATOM      7  O   UNL     1      19.739  25.920  29.457  1.00  0.00    -0.550 OA
ATOM      8  O   UNL     1      18.707  24.834  27.724  1.00  0.00    -0.550 OA
ENDBRANCH   5   6
ENDBRANCH   1   5
TORSDOF 3
ENDMDL
MODEL 3
REMARK VINA RESULT:    -2.787      1.005      1.939
REMARK INTER + INTRA:          -3.343
REMARK INTER:                  -3.154
REMARK INTRA:                  -0.189
REMARK UNBOUND:                -0.068
REMARK SMILES O=C([O-])CCC(=O)[O-]
REMARK SMILES IDX 4 1 2 2 1 3 3 4 5 5 6 6 7 7 8 8
REMARK H PARENT
REMARK Flexibility Score: inf
ROOT
ATOM      1  C   UNL     1      17.728  27.008  28.605  1.00  0.00     0.059 C 
ENDROOT
BRANCH   1   2
ATOM      2  C   UNL     1      18.783  25.947  28.683  1.00  0.00     0.042 C 
ATOM      3  O   UNL     1      19.700  26.028  29.542  1.00  0.00    -0.550 OA
ATOM      4  O   UNL     1      18.729  24.848  27.836  1.00  0.00    -0.550 OA
ENDBRANCH   1   2
BRANCH   1   5
ATOM      5  C   UNL     1      17.637  27.614  27.200  1.00  0.00     0.059 C 
BRANCH   5   6
ATOM      6  C   UNL     1      18.930  28.248  26.788  1.00  0.00     0.042 C 
ATOM      7  O   UNL     1      19.510  27.877  25.733  1.00  0.00    -0.550 OA
ATOM      8  O   UNL     1      19.475  29.276  27.547  1.00  0.00    -0.550 OA
ENDBRANCH   5   6
ENDBRANCH   1   5
TORSDOF 3
ENDMDL
MODEL 4
REMARK VINA RESULT:    -2.779      1.934      4.363
REMARK INTER + INTRA:          -3.335
REMARK INTER:                  -3.294
REMARK INTRA:                  -0.041
REMARK UNBOUND:                -0.068
REMARK SMILES O=C([O-])CCC(=O)[O-]
REMARK SMILES IDX 4 1 2 2 1 3 3 4 5 5 6 6 7 7 8 8
REMARK H PARENT
REMARK Flexibility Score: inf
ROOT
ATOM      1  C   UNL     1      18.379  29.494  29.096  1.00  0.00     0.059 C 
ENDROOT
BRANCH   1   2
ATOM      2  C   UNL     1      18.425  30.991  29.063  1.00  0.00     0.042 C 
ATOM      3  O   UNL     1      18.495  31.598  27.962  1.00  0.00    -0.550 OA
ATOM      4  O   UNL     1      18.349  31.717  30.245  1.00  0.00    -0.550 OA
ENDBRANCH   1   2
BRANCH   1   5
ATOM      5  C   UNL     1      18.333  28.898  27.685  1.00  0.00     0.059 C 
BRANCH   5   6
ATOM      6  C   UNL     1      17.934  27.455  27.709  1.00  0.00     0.042 C 
ATOM      7  O   UNL     1      17.575  26.914  28.788  1.00  0.00    -0.550 OA
ATOM      8  O   UNL     1      17.919  26.717  26.532  1.00  0.00    -0.550 OA
ENDBRANCH   5   6
ENDBRANCH   1   5
TORSDOF 3
ENDMDL
MODEL 5
REMARK VINA RESULT:    -2.759      1.570      3.602
REMARK INTER + INTRA:          -3.310
REMARK INTER:                  -3.230
REMARK INTRA:                  -0.081
REMARK UNBOUND:                -0.068
REMARK SMILES O=C([O-])CCC(=O)[O-]
REMARK SMILES IDX 4 1 2 2 1 3 3 4 5 5 6 6 7 7 8 8
REMARK H PARENT
REMARK Flexibility Score: inf
ROOT
ATOM      1  C   UNL     1      18.333  29.500  28.005  1.00  0.00     0.059 C 
ENDROOT
BRANCH   1   2
ATOM      2  C   UNL     1      18.286  29.551  29.501  1.00  0.00     0.042 C 
ATOM      3  O   UNL     1      18.435  30.647  30.102  1.00  0.00    -0.550 OA
ATOM      4  O   UNL     1      18.036  28.395  30.229  1.00  0.00    -0.550 OA
ENDBRANCH   1   2
BRANCH   1   5
ATOM      5  C   UNL     1      17.637  28.249  27.458  1.00  0.00     0.059 C 
BRANCH   5   6
ATOM      6  C   UNL     1      18.610  27.314  26.810  1.00  0.00     0.042 C 
ATOM      7  O   UNL     1      18.644  26.101  27.147  1.00  0.00    -0.550 OA
ATOM      8  O   UNL     1      19.453  27.772  25.805  1.00  0.00    -0.550 OA
ENDBRANCH   5   6
ENDBRANCH   1   5
TORSDOF 3
ENDMDL
MODEL 6
REMARK VINA RESULT:    -2.757      1.593      2.549
REMARK INTER + INTRA:          -3.309
REMARK INTER:                  -3.224
REMARK INTRA:                  -0.085
REMARK UNBOUND:                -0.068
REMARK SMILES O=C([O-])CCC(=O)[O-]
REMARK SMILES IDX 4 1 2 2 1 3 3 4 5 5 6 6 7 7 8 8
REMARK H PARENT
REMARK Flexibility Score: inf
ROOT
ATOM      1  C   UNL     1      17.658  28.259  27.473  1.00  0.00     0.059 C 
ENDROOT
BRANCH   1   2
ATOM      2  C   UNL     1      18.628  27.328  26.813  1.00  0.00     0.042 C 
ATOM      3  O   UNL     1      18.686  26.120  27.166  1.00  0.00    -0.550 OA
ATOM      4  O   UNL     1      19.437  27.783  25.780  1.00  0.00    -0.550 OA
ENDBRANCH   1   2
BRANCH   1   5
ATOM      5  C   UNL     1      18.359  29.495  28.046  1.00  0.00     0.059 C 
BRANCH   5   6
ATOM      6  C   UNL     1      18.299  29.520  29.542  1.00  0.00     0.042 C 
ATOM      7  O   UNL     1      18.283  30.618  30.157  1.00  0.00    -0.550 OA
ATOM      8  O   UNL     1      18.221  28.331  30.256  1.00  0.00    -0.550 OA
ENDBRANCH   5   6
ENDBRANCH   1   5
TORSDOF 3
ENDMDL
MODEL 7
REMARK VINA RESULT:    -2.746      2.005      2.772
REMARK INTER + INTRA:          -3.295
REMARK INTER:                  -3.259
REMARK INTRA:                  -0.037
REMARK UNBOUND:                -0.068
REMARK SMILES O=C([O-])CCC(=O)[O-]
REMARK SMILES IDX 4 1 2 2 1 3 3 4 5 5 6 6 7 7 8 8
REMARK H PARENT
REMARK Flexibility Score: inf
ROOT
ATOM      1  C   UNL     1      18.375  28.332  29.245  1.00  0.00     0.059 C 
ENDROOT
BRANCH   1   2
ATOM      2  C   UNL     1      17.997  27.174  28.374  1.00  0.00     0.042 C 
ATOM      3  O   UNL     1      18.314  26.001  28.707  1.00  0.00    -0.550 OA
ATOM      4  O   UNL     1      17.257  27.384  27.218  1.00  0.00    -0.550 OA
ENDBRANCH   1   2
BRANCH   1   5
ATOM      5  C   UNL     1      18.375  29.651  28.465  1.00  0.00     0.059 C 
BRANCH   5   6
ATOM      6  C   UNL     1      18.384  30.835  29.382  1.00  0.00     0.042 C 
ATOM      7  O   UNL     1      18.400  32.002  28.910  1.00  0.00    -0.550 OA
ATOM      8  O   UNL     1      18.333  30.650  30.758  1.00  0.00    -0.550 OA
ENDBRANCH   5   6
ENDBRANCH   1   5
TORSDOF 3
ENDMDL
MODEL 8
REMARK VINA RESULT:    -2.727      6.914      7.725
REMARK INTER + INTRA:          -3.274
REMARK INTER:                  -3.197
REMARK INTRA:                  -0.077
REMARK UNBOUND:                -0.068
REMARK SMILES O=C([O-])CCC(=O)[O-]
REMARK SMILES IDX 4 1 2 2 1 3 3 4 5 5 6 6 7 7 8 8
REMARK H PARENT
REMARK Flexibility Score: inf
ROOT
ATOM      1  C   UNL     1      18.281  28.747  34.803  1.00  0.00     0.059 C 
ENDROOT
BRANCH   1   2
ATOM      2  C   UNL     1      19.235  29.183  35.872  1.00  0.00     0.042 C 
ATOM      3  O   UNL     1      19.092  30.304  36.429  1.00  0.00    -0.550 OA
ATOM      4  O   UNL     1      20.255  28.335  36.284  1.00  0.00    -0.550 OA
ENDBRANCH   1   2
BRANCH   1   5
ATOM      5  C   UNL     1      17.015  29.611  34.786  1.00  0.00     0.059 C 
BRANCH   5   6
ATOM      6  C   UNL     1      16.922  30.427  33.534  1.00  0.00     0.042 C 
ATOM      7  O   UNL     1      16.479  31.605  33.577  1.00  0.00    -0.550 OA
ATOM      8  O   UNL     1      17.361  29.901  32.325  1.00  0.00    -0.550 OA
ENDBRANCH   5   6
ENDBRANCH   1   5
TORSDOF 3
ENDMDL
MODEL 9
REMARK VINA RESULT:    -2.677      2.665      4.435
REMARK INTER + INTRA:          -3.215
REMARK INTER:                  -3.182
REMARK INTRA:                  -0.033
REMARK UNBOUND:                -0.068
REMARK SMILES O=C([O-])CCC(=O)[O-]
REMARK SMILES IDX 4 1 2 2 1 3 3 4 5 5 6 6 7 7 8 8
REMARK H PARENT
REMARK Flexibility Score: inf
ROOT
ATOM      1  C   UNL     1      18.005  28.485  30.584  1.00  0.00     0.059 C 
ENDROOT
BRANCH   1   2
ATOM      2  C   UNL     1      17.971  29.839  31.224  1.00  0.00     0.042 C 
ATOM      3  O   UNL     1      17.656  29.958  32.437  1.00  0.00    -0.550 OA
ATOM      4  O   UNL     1      18.330  30.964  30.492  1.00  0.00    -0.550 OA
ENDBRANCH   1   2
BRANCH   1   5
ATOM      5  C   UNL     1      18.412  28.565  29.109  1.00  0.00     0.059 C 
BRANCH   5   6
ATOM      6  C   UNL     1      17.986  27.345  28.352  1.00  0.00     0.042 C 
ATOM      7  O   UNL     1      18.239  26.198  28.805  1.00  0.00    -0.550 OA
ATOM      8  O   UNL     1      17.274  27.474  27.166  1.00  0.00    -0.550 OA
ENDBRANCH   5   6
ENDBRANCH   1   5
TORSDOF 3
ENDMDL
