MODEL 1
REMARK VINA RESULT:    -4.312      0.000      0.000
REMARK INTER + INTRA:          -7.144
REMARK INTER:                  -6.580
REMARK INTRA:                  -0.564
REMARK UNBOUND:                -0.564
REMARK SMILES O=C([O-])CCCCCCCCC(=O)[O-]
REMARK SMILES IDX 7 1 6 2 5 3 4 4 2 5 1 6 3 7 8 8 9 9 10 10 11 11 12 12 13 13
REMARK SMILES IDX 14 14
REMARK H PARENT
REMARK Flexibility Score: inf
ROOT
ATOM      1  C   UNL     1      16.301  12.437 -15.267  1.00  0.00     0.000 C 
ENDROOT
BRANCH   1   2
ATOM      2  C   UNL     1      15.673  12.252 -13.877  1.00  0.00     0.000 C 
BRANCH   2   3
ATOM      3  C   UNL     1      14.484  11.275 -13.885  1.00  0.00     0.006 C 
BRANCH   3   4
ATOM      4  C   UNL     1      14.537  10.222 -15.004  1.00  0.00     0.053 C 
BRANCH   4   5
ATOM      5  C   UNL     1      15.181   8.949 -14.547  1.00  0.00     0.041 C 
ATOM      6  O   UNL     1      14.524   7.875 -14.535  1.00  0.00    -0.550 OA
ATOM      7  O   UNL     1      16.497   8.955 -14.102  1.00  0.00    -0.550 OA
ENDBRANCH   4   5
ENDBRANCH   3   4
ENDBRANCH   2   3
ENDBRANCH   1   2
BRANCH   1   8
ATOM      8  C   UNL     1      17.831  12.492 -15.175  1.00  0.00     0.000 C 
BRANCH   8   9
ATOM      9  C   UNL     1      18.330  11.807 -13.894  1.00  0.00     0.000 C 
BRANCH   9  10
ATOM     10  C   UNL     1      19.802  12.122 -13.590  1.00  0.00     0.006 C 
BRANCH  10  11
ATOM     11  C   UNL     1      20.296  13.386 -14.307  1.00  0.00     0.053 C 
BRANCH  11  12
ATOM     12  C   UNL     1      21.621  13.812 -13.760  1.00  0.00     0.041 C 
ATOM     13  O   UNL     1      22.018  13.375 -12.647  1.00  0.00    -0.550 OA
ATOM     14  O   UNL     1      22.399  14.729 -14.455  1.00  0.00    -0.550 OA
ENDBRANCH  11  12
ENDBRANCH  10  11
ENDBRANCH   9  10
ENDBRANCH   8   9
ENDBRANCH   1   8
TORSDOF 9
ENDMDL
MODEL 2
REMARK VINA RESULT:    -4.255      0.175      6.659
REMARK INTER + INTRA:          -7.058
REMARK INTER:                  -6.522
REMARK INTRA:                  -0.536
REMARK UNBOUND:                -0.564
REMARK SMILES O=C([O-])CCCCCCCCC(=O)[O-]
REMARK SMILES IDX 7 1 6 2 5 3 4 4 2 5 1 6 3 7 8 8 9 9 10 10 11 11 12 12 13 13
REMARK SMILES IDX 14 14
REMARK H PARENT
REMARK Flexibility Score: inf
ROOT
ATOM      1  C   UNL     1      17.773  12.683 -15.062  1.00  0.00     0.000 C 
ENDROOT
BRANCH   1   2
ATOM      2  C   UNL     1      18.437  11.772 -14.018  1.00  0.00     0.000 C 
BRANCH   2   3
ATOM      3  C   UNL     1      19.796  12.311 -13.535  1.00  0.00     0.006 C 
BRANCH   3   4
ATOM      4  C   UNL     1      20.348  13.478 -14.371  1.00  0.00     0.053 C 
BRANCH   4   5
ATOM      5  C   UNL     1      21.621  14.024 -13.802  1.00  0.00     0.041 C 
ATOM      6  O   UNL     1      22.194  15.000 -14.354  1.00  0.00    -0.550 OA
ATOM      7  O   UNL     1      22.192  13.434 -12.682  1.00  0.00    -0.550 OA
ENDBRANCH   4   5
ENDBRANCH   3   4
ENDBRANCH   2   3
ENDBRANCH   1   2
BRANCH   1   8
ATOM      8  C   UNL     1      16.287  12.340 -15.223  1.00  0.00     0.000 C 
BRANCH   8   9
ATOM      9  C   UNL     1      15.569  12.355 -13.865  1.00  0.00     0.000 C 
BRANCH   9  10
ATOM     10  C   UNL     1      14.558  11.208 -13.717  1.00  0.00     0.006 C 
BRANCH  10  11
ATOM     11  C   UNL     1      14.567  10.254 -14.919  1.00  0.00     0.053 C 
BRANCH  11  12
ATOM     12  C   UNL     1      15.214   8.958 -14.552  1.00  0.00     0.041 C 
ATOM     13  O   UNL     1      14.554   7.886 -14.587  1.00  0.00    -0.550 OA
ATOM     14  O   UNL     1      16.535   8.937 -14.122  1.00  0.00    -0.550 OA
ENDBRANCH  11  12
ENDBRANCH  10  11
ENDBRANCH   9  10
ENDBRANCH   8   9
ENDBRANCH   1   8
TORSDOF 9
ENDMDL
MODEL 3
REMARK VINA RESULT:    -4.143      1.885      6.443
REMARK INTER + INTRA:          -6.886
REMARK INTER:                  -6.180
REMARK INTRA:                  -0.706
REMARK UNBOUND:                -0.564
REMARK SMILES O=C([O-])CCCCCCCCC(=O)[O-]
REMARK SMILES IDX 7 1 6 2 5 3 4 4 2 5 1 6 3 7 8 8 9 9 10 10 11 11 12 12 13 13
REMARK SMILES IDX 14 14
REMARK H PARENT
REMARK Flexibility Score: inf
ROOT
ATOM      1  C   UNL     1      18.733  11.610 -13.379  1.00  0.00     0.000 C 
ENDROOT
BRANCH   1   2
ATOM      2  C   UNL     1      18.846  12.601 -14.548  1.00  0.00     0.000 C 
BRANCH   2   3
ATOM      3  C   UNL     1      20.123  13.458 -14.481  1.00  0.00     0.006 C 
BRANCH   3   4
ATOM      4  C   UNL     1      21.328  12.750 -13.840  1.00  0.00     0.053 C 
BRANCH   4   5
ATOM      5  C   UNL     1      22.247  13.715 -13.155  1.00  0.00     0.041 C 
ATOM      6  O   UNL     1      22.821  13.390 -12.083  1.00  0.00    -0.550 OA
ATOM      7  O   UNL     1      22.443  14.984 -13.684  1.00  0.00    -0.550 OA
ENDBRANCH   4   5
ENDBRANCH   3   4
ENDBRANCH   2   3
ENDBRANCH   1   2
BRANCH   1   8
ATOM      8  C   UNL     1      18.488  10.184 -13.891  1.00  0.00     0.000 C 
BRANCH   8   9
ATOM      9  C   UNL     1      17.388  10.166 -14.963  1.00  0.00     0.000 C 
BRANCH   9  10
ATOM     10  C   UNL     1      16.025   9.731 -14.405  1.00  0.00     0.006 C 
BRANCH  10  11
ATOM     11  C   UNL     1      14.872  10.609 -14.910  1.00  0.00     0.053 C 
BRANCH  11  12
ATOM     12  C   UNL     1      15.181  12.055 -14.689  1.00  0.00     0.041 C 
ATOM     13  O   UNL     1      15.293  12.508 -13.519  1.00  0.00    -0.550 OA
ATOM     14  O   UNL     1      15.299  12.916 -15.773  1.00  0.00    -0.550 OA
ENDBRANCH  11  12
ENDBRANCH  10  11
ENDBRANCH   9  10
ENDBRANCH   8   9
ENDBRANCH   1   8
TORSDOF 9
ENDMDL
MODEL 4
REMARK VINA RESULT:    -4.045      1.867      6.037
REMARK INTER + INTRA:          -6.738
REMARK INTER:                  -5.861
REMARK INTRA:                  -0.877
REMARK UNBOUND:                -0.564
REMARK SMILES O=C([O-])CCCCCCCCC(=O)[O-]
REMARK SMILES IDX 7 1 6 2 5 3 4 4 2 5 1 6 3 7 8 8 9 9 10 10 11 11 12 12 13 13
REMARK SMILES IDX 14 14
REMARK H PARENT
REMARK Flexibility Score: inf
ROOT
ATOM      1  C   UNL     1      18.611  10.116 -15.183  1.00  0.00     0.000 C 
ENDROOT
BRANCH   1   2
ATOM      2  C   UNL     1      18.711  10.403 -13.677  1.00  0.00     0.000 C 
BRANCH   2   3
ATOM      3  C   UNL     1      18.736  11.909 -13.358  1.00  0.00     0.006 C 
BRANCH   3   4
ATOM      4  C   UNL     1      19.164  12.799 -14.537  1.00  0.00     0.053 C 
BRANCH   4   5
ATOM      5  C   UNL     1      20.438  13.533 -14.253  1.00  0.00     0.041 C 
ATOM      6  O   UNL     1      20.828  14.447 -15.026  1.00  0.00    -0.550 OA
ATOM      7  O   UNL     1      21.212  13.184 -13.154  1.00  0.00    -0.550 OA
ENDBRANCH   4   5
ENDBRANCH   3   4
ENDBRANCH   2   3
ENDBRANCH   1   2
BRANCH   1   8
ATOM      8  C   UNL     1      17.494   9.107 -15.476  1.00  0.00     0.000 C 
BRANCH   8   9
ATOM      9  C   UNL     1      16.574   8.935 -14.258  1.00  0.00     0.000 C 
BRANCH   9  10
ATOM     10  C   UNL     1      15.085   9.005 -14.627  1.00  0.00     0.006 C 
BRANCH  10  11
ATOM     11  C   UNL     1      14.732  10.271 -15.421  1.00  0.00     0.053 C 
BRANCH  11  12
ATOM     12  C   UNL     1      14.831  11.480 -14.547  1.00  0.00     0.041 C 
ATOM     13  O   UNL     1      14.158  11.552 -13.485  1.00  0.00    -0.550 OA
ATOM     14  O   UNL     1      15.631  12.550 -14.928  1.00  0.00    -0.550 OA
ENDBRANCH  11  12
ENDBRANCH  10  11
ENDBRANCH   9  10
ENDBRANCH   8   9
ENDBRANCH   1   8
TORSDOF 9
ENDMDL
MODEL 5
REMARK VINA RESULT:    -4.028      1.838      2.641
REMARK INTER + INTRA:          -6.711
REMARK INTER:                  -5.882
REMARK INTRA:                  -0.829
REMARK UNBOUND:                -0.564
REMARK SMILES O=C([O-])CCCCCCCCC(=O)[O-]
REMARK SMILES IDX 7 1 6 2 5 3 4 4 2 5 1 6 3 7 8 8 9 9 10 10 11 11 12 12 13 13
REMARK SMILES IDX 14 14
REMARK H PARENT
REMARK Flexibility Score: inf
ROOT
ATOM      1  C   UNL     1      17.473   9.023 -15.441  1.00  0.00     0.000 C 
ENDROOT
BRANCH   1   2
ATOM      2  C   UNL     1      16.521   8.994 -14.236  1.00  0.00     0.000 C 
BRANCH   2   3
ATOM      3  C   UNL     1      15.041   8.889 -14.647  1.00  0.00     0.006 C 
BRANCH   3   4
ATOM      4  C   UNL     1      14.485  10.145 -15.338  1.00  0.00     0.053 C 
BRANCH   4   5
ATOM      5  C   UNL     1      14.808  11.394 -14.577  1.00  0.00     0.041 C 
ATOM      6  O   UNL     1      15.576  12.259 -15.075  1.00  0.00    -0.550 OA
ATOM      7  O   UNL     1      14.288  11.587 -13.303  1.00  0.00    -0.550 OA
ENDBRANCH   4   5
ENDBRANCH   3   4
ENDBRANCH   2   3
ENDBRANCH   1   2
BRANCH   1   8
ATOM      8  C   UNL     1      18.536  10.115 -15.275  1.00  0.00     0.000 C 
BRANCH   8   9
ATOM      9  C   UNL     1      18.829  10.376 -13.790  1.00  0.00     0.000 C 
BRANCH   9  10
ATOM     10  C   UNL     1      18.760  11.867 -13.426  1.00  0.00     0.006 C 
BRANCH  10  11
ATOM     11  C   UNL     1      19.149  12.780 -14.597  1.00  0.00     0.053 C 
BRANCH  11  12
ATOM     12  C   UNL     1      20.388  13.549 -14.270  1.00  0.00     0.041 C 
ATOM     13  O   UNL     1      20.738  14.523 -14.988  1.00  0.00    -0.550 OA
ATOM     14  O   UNL     1      21.185  13.163 -13.200  1.00  0.00    -0.550 OA
ENDBRANCH  11  12
ENDBRANCH  10  11
ENDBRANCH   9  10
ENDBRANCH   8   9
ENDBRANCH   1   8
TORSDOF 9
ENDMDL
MODEL 6
REMARK VINA RESULT:    -3.899      1.980      2.629
REMARK INTER + INTRA:          -6.514
REMARK INTER:                  -5.853
REMARK INTRA:                  -0.661
REMARK UNBOUND:                -0.564
REMARK SMILES O=C([O-])CCCCCCCCC(=O)[O-]
REMARK SMILES IDX 7 1 6 2 5 3 4 4 2 5 1 6 3 7 8 8 9 9 10 10 11 11 12 12 13 13
REMARK SMILES IDX 14 14
REMARK H PARENT
REMARK Flexibility Score: inf
ROOT
ATOM      1  C   UNL     1      18.130   9.913 -14.837  1.00  0.00     0.000 C 
ENDROOT
BRANCH   1   2
ATOM      2  C   UNL     1      16.878   9.250 -14.243  1.00  0.00     0.000 C 
BRANCH   2   3
ATOM      3  C   UNL     1      15.622   9.467 -15.106  1.00  0.00     0.006 C 
BRANCH   3   4
ATOM      4  C   UNL     1      14.591  10.429 -14.494  1.00  0.00     0.053 C 
BRANCH   4   5
ATOM      5  C   UNL     1      15.086  11.843 -14.473  1.00  0.00     0.041 C 
ATOM      6  O   UNL     1      15.329  12.412 -13.377  1.00  0.00    -0.550 OA
ATOM      7  O   UNL     1      15.245  12.542 -15.662  1.00  0.00    -0.550 OA
ENDBRANCH   4   5
ENDBRANCH   3   4
ENDBRANCH   2   3
ENDBRANCH   1   2
BRANCH   1   8
ATOM      8  C   UNL     1      18.797  10.843 -13.815  1.00  0.00     0.000 C 
BRANCH   8   9
ATOM      9  C   UNL     1      18.731  12.306 -14.277  1.00  0.00     0.000 C 
BRANCH   9  10
ATOM     10  C   UNL     1      20.063  12.805 -14.856  1.00  0.00     0.006 C 
BRANCH  10  11
ATOM     11  C   UNL     1      20.937  13.507 -13.806  1.00  0.00     0.053 C 
BRANCH  11  12
ATOM     12  C   UNL     1      22.104  12.647 -13.439  1.00  0.00     0.041 C 
ATOM     13  O   UNL     1      22.877  12.992 -12.507  1.00  0.00    -0.550 OA
ATOM     14  O   UNL     1      22.367  11.488 -14.159  1.00  0.00    -0.550 OA
ENDBRANCH  11  12
ENDBRANCH  10  11
ENDBRANCH   9  10
ENDBRANCH   8   9
ENDBRANCH   1   8
TORSDOF 9
ENDMDL
MODEL 7
REMARK VINA RESULT:    -3.688      1.617      7.547
REMARK INTER + INTRA:          -6.193
REMARK INTER:                  -5.831
REMARK INTRA:                  -0.362
REMARK UNBOUND:                -0.564
REMARK SMILES O=C([O-])CCCCCCCCC(=O)[O-]
REMARK SMILES IDX 7 1 6 2 5 3 4 4 2 5 1 6 3 7 8 8 9 9 10 10 11 11 12 12 13 13
REMARK SMILES IDX 14 14
REMARK H PARENT
REMARK Flexibility Score: inf
ROOT
ATOM      1  C   UNL     1      19.743  12.202 -13.594  1.00  0.00     0.000 C 
ENDROOT
BRANCH   1   2
ATOM      2  C   UNL     1      21.010  13.064 -13.491  1.00  0.00     0.000 C 
BRANCH   2   3
ATOM      3  C   UNL     1      21.008  14.247 -14.477  1.00  0.00     0.006 C 
BRANCH   3   4
ATOM      4  C   UNL     1      22.406  14.791 -14.815  1.00  0.00     0.053 C 
BRANCH   4   5
ATOM      5  C   UNL     1      22.488  16.277 -14.642  1.00  0.00     0.041 C 
ATOM      6  O   UNL     1      22.007  17.044 -15.517  1.00  0.00    -0.550 OA
ATOM      7  O   UNL     1      23.125  16.814 -13.531  1.00  0.00    -0.550 OA
ENDBRANCH   4   5
ENDBRANCH   3   4
ENDBRANCH   2   3
ENDBRANCH   1   2
BRANCH   1   8
ATOM      8  C   UNL     1      18.809  12.728 -14.691  1.00  0.00     0.000 C 
BRANCH   8   9
ATOM      9  C   UNL     1      17.674  11.732 -14.971  1.00  0.00     0.000 C 
BRANCH   9  10
ATOM     10  C   UNL     1      16.283  12.378 -14.878  1.00  0.00     0.006 C 
BRANCH  10  11
ATOM     11  C   UNL     1      15.355  11.644 -13.900  1.00  0.00     0.053 C 
BRANCH  11  12
ATOM     12  C   UNL     1      14.880  10.359 -14.497  1.00  0.00     0.041 C 
ATOM     13  O   UNL     1      14.107  10.368 -15.491  1.00  0.00    -0.550 OA
ATOM     14  O   UNL     1      15.250   9.148 -13.925  1.00  0.00    -0.550 OA
ENDBRANCH  11  12
ENDBRANCH  10  11
ENDBRANCH   9  10
ENDBRANCH   8   9
ENDBRANCH   1   8
TORSDOF 9
ENDMDL
MODEL 8
REMARK VINA RESULT:    -3.686      1.945      2.759
REMARK INTER + INTRA:          -6.189
REMARK INTER:                  -5.818
REMARK INTRA:                  -0.371
REMARK UNBOUND:                -0.564
REMARK SMILES O=C([O-])CCCCCCCCC(=O)[O-]
REMARK SMILES IDX 7 1 6 2 5 3 4 4 2 5 1 6 3 7 8 8 9 9 10 10 11 11 12 12 13 13
REMARK SMILES IDX 14 14
REMARK H PARENT
REMARK Flexibility Score: inf
ROOT
ATOM      1  C   UNL     1      18.593  11.887 -13.517  1.00  0.00     0.000 C 
ENDROOT
BRANCH   1   2
ATOM      2  C   UNL     1      17.656  12.283 -14.668  1.00  0.00     0.000 C 
BRANCH   2   3
ATOM      3  C   UNL     1      17.074  11.065 -15.409  1.00  0.00     0.006 C 
BRANCH   3   4
ATOM      4  C   UNL     1      16.243  10.123 -14.522  1.00  0.00     0.053 C 
BRANCH   4   5
ATOM      5  C   UNL     1      14.810  10.551 -14.435  1.00  0.00     0.041 C 
ATOM      6  O   UNL     1      13.977  10.152 -15.290  1.00  0.00    -0.550 OA
ATOM      7  O   UNL     1      14.403  11.418 -13.429  1.00  0.00    -0.550 OA
ENDBRANCH   4   5
ENDBRANCH   3   4
ENDBRANCH   2   3
ENDBRANCH   1   2
BRANCH   1   8
ATOM      8  C   UNL     1      20.046  11.787 -14.001  1.00  0.00     0.000 C 
BRANCH   8   9
ATOM      9  C   UNL     1      20.889  12.949 -13.452  1.00  0.00     0.000 C 
BRANCH   9  10
ATOM     10  C   UNL     1      21.112  14.059 -14.489  1.00  0.00     0.006 C 
BRANCH  10  11
ATOM     11  C   UNL     1      22.396  14.859 -14.231  1.00  0.00     0.053 C 
BRANCH  11  12
ATOM     12  C   UNL     1      22.290  16.224 -14.832  1.00  0.00     0.041 C 
ATOM     13  O   UNL     1      21.495  16.438 -15.785  1.00  0.00    -0.550 OA
ATOM     14  O   UNL     1      23.105  17.252 -14.373  1.00  0.00    -0.550 OA
ENDBRANCH  11  12
ENDBRANCH  10  11
ENDBRANCH   9  10
ENDBRANCH   8   9
ENDBRANCH   1   8
TORSDOF 9
ENDMDL
MODEL 9
REMARK VINA RESULT:    -3.576      1.661      2.365
REMARK INTER + INTRA:          -6.021
REMARK INTER:                  -5.623
REMARK INTRA:                  -0.398
REMARK UNBOUND:                -0.564
REMARK SMILES O=C([O-])CCCCCCCCC(=O)[O-]
REMARK SMILES IDX 7 1 6 2 5 3 4 4 2 5 1 6 3 7 8 8 9 9 10 10 11 11 12 12 13 13
REMARK SMILES IDX 14 14
REMARK H PARENT
REMARK Flexibility Score: inf
ROOT
ATOM      1  C   UNL     1      17.404  11.387 -15.986  1.00  0.00     0.000 C 
ENDROOT
BRANCH   1   2
ATOM      2  C   UNL     1      17.785   9.953 -15.588  1.00  0.00     0.000 C 
BRANCH   2   3
ATOM      3  C   UNL     1      16.561   9.032 -15.432  1.00  0.00     0.006 C 
BRANCH   3   4
ATOM      4  C   UNL     1      15.634   9.404 -14.263  1.00  0.00     0.053 C 
BRANCH   4   5
ATOM      5  C   UNL     1      14.481  10.250 -14.708  1.00  0.00     0.041 C 
ATOM      6  O   UNL     1      14.167  11.284 -14.061  1.00  0.00    -0.550 OA
ATOM      7  O   UNL     1      13.731   9.878 -15.816  1.00  0.00    -0.550 OA
ENDBRANCH   4   5
ENDBRANCH   3   4
ENDBRANCH   2   3
ENDBRANCH   1   2
BRANCH   1   8
ATOM      8  C   UNL     1      17.922  12.399 -14.956  1.00  0.00     0.000 C 
BRANCH   8   9
ATOM      9  C   UNL     1      18.731  13.512 -15.638  1.00  0.00     0.000 C 
BRANCH   9  10
ATOM     10  C   UNL     1      20.110  13.721 -14.994  1.00  0.00     0.006 C 
BRANCH  10  11
ATOM     11  C   UNL     1      20.327  12.832 -13.761  1.00  0.00     0.053 C 
BRANCH  11  12
ATOM     12  C   UNL     1      21.786  12.691 -13.470  1.00  0.00     0.041 C 
ATOM     13  O   UNL     1      22.481  11.852 -14.103  1.00  0.00    -0.550 OA
ATOM     14  O   UNL     1      22.373  13.451 -12.466  1.00  0.00    -0.550 OA
ENDBRANCH  11  12
ENDBRANCH  10  11
ENDBRANCH   9  10
ENDBRANCH   8   9
ENDBRANCH   1   8
TORSDOF 9
ENDMDL
