MODEL 1
REMARK VINA RESULT:    -5.421      0.000      0.000
REMARK INTER + INTRA:         -10.185
REMARK INTER:                  -7.481
REMARK INTRA:                  -2.705
REMARK UNBOUND:                -2.705
REMARK SMILES CC[C@@H](CC[C@@H](C)[C@H]1CC[C@H]2C3=CC[C@@H]4C[C@@H](O)CC[C@@]4(C)[C@H]3CC[C@@]12C)C(C)C
REMARK SMILES IDX 5 1 4 2 3 3 2 4 1 5 28 6 29 7 30 8 6 9 7 10 8 11 9 12 26 13
REMARK SMILES IDX 10 14 11 15 25 16 27 17 12 18 24 19 23 20 13 21 21 22 14 23
REMARK SMILES IDX 15 24 20 25 22 26 16 27 19 28 17 29 18 30
REMARK H PARENT 18 31
REMARK Flexibility Score: inf
ROOT
ATOM      1  C   UNL     1     136.574 140.079 142.158  1.00  0.00     0.004 C 
ENDROOT
BRANCH   1   2
ATOM      2  C   UNL     1     137.052 141.488 141.729  1.00  0.00     0.004 C 
BRANCH   2   3
ATOM      3  C   UNL     1     138.475 141.795 142.278  1.00  0.00    -0.009 C 
BRANCH   3   4
ATOM      4  C   UNL     1     138.518 143.182 142.982  1.00  0.00     0.000 C 
ATOM      5  C   UNL     1     137.137 143.828 143.140  1.00  0.00     0.004 C 
ENDBRANCH   3   4
BRANCH   3   6
ATOM      6  C   UNL     1     139.546 141.622 141.131  1.00  0.00    -0.014 C 
ATOM      7  C   UNL     1     140.909 142.204 141.535  1.00  0.00     0.007 C 
ATOM      8  C   UNL     1     139.141 142.171 139.750  1.00  0.00     0.007 C 
ENDBRANCH   3   6
ENDBRANCH   2   3
ENDBRANCH   1   2
BRANCH   1   9
ATOM      9  C   UNL     1     137.595 139.322 143.055  1.00  0.00    -0.011 C 
ATOM     10  C   UNL     1     136.881 138.875 144.358  1.00  0.00     0.008 C 
BRANCH   9  11
ATOM     11  C   UNL     1     138.290 138.134 142.279  1.00  0.00    -0.002 C 
ATOM     12  C   UNL     1     138.292 138.388 140.760  1.00  0.00     0.005 C 
ATOM     13  C   UNL     1     139.793 137.769 142.615  1.00  0.00    -0.023 C 
ATOM     14  C   UNL     1     139.337 137.466 140.180  1.00  0.00     0.009 C 
ATOM     15  C   UNL     1     140.441 137.368 141.230  1.00  0.00     0.021 C 
ATOM     16  C   UNL     1     140.575 138.981 143.254  1.00  0.00     0.008 C 
ATOM     17  C   UNL     1     139.854 136.530 143.556  1.00  0.00     0.012 C 
ATOM     18  C   UNL     1     141.751 138.114 140.974  1.00  0.00    -0.067 C 
ATOM     19  C   UNL     1     142.117 138.824 143.321  1.00  0.00     0.009 C 
ATOM     20  C   UNL     1     142.719 138.011 142.136  1.00  0.00     0.021 C 
ATOM     21  C   UNL     1     141.966 138.988 139.960  1.00  0.00    -0.027 C 
ATOM     22  C   UNL     1     144.201 138.342 141.726  1.00  0.00    -0.023 C 
ATOM     23  C   UNL     1     143.288 139.679 139.723  1.00  0.00     0.031 C 
ATOM     24  C   UNL     1     144.208 139.700 140.961  1.00  0.00     0.002 C 
ATOM     25  C   UNL     1     145.113 138.471 142.986  1.00  0.00     0.010 C 
ATOM     26  C   UNL     1     144.730 137.167 140.826  1.00  0.00     0.012 C 
ATOM     27  C   UNL     1     145.637 140.156 140.597  1.00  0.00     0.036 C 
ATOM     28  C   UNL     1     146.532 138.982 142.656  1.00  0.00     0.032 C 
ATOM     29  C   UNL     1     146.510 140.293 141.852  1.00  0.00     0.114 C 
BRANCH  29  30
ATOM     30  O   UNL     1     146.053 141.343 142.665  1.00  0.00    -0.393 OA
ATOM     31  H   UNL     1     145.070 141.246 142.717  1.00  0.00     0.210 HD
ENDBRANCH  29  30
ENDBRANCH   9  11
ENDBRANCH   1   9
TORSDOF 7
ENDMDL
MODEL 2
REMARK VINA RESULT:    -5.400      1.706      2.869
REMARK INTER + INTRA:         -10.157
REMARK INTER:                  -7.144
REMARK INTRA:                  -3.012
REMARK UNBOUND:                -2.705
REMARK SMILES CC[C@@H](CC[C@@H](C)[C@H]1CC[C@H]2C3=CC[C@@H]4C[C@@H](O)CC[C@@]4(C)[C@H]3CC[C@@]12C)C(C)C
REMARK SMILES IDX 5 1 4 2 3 3 2 4 1 5 28 6 29 7 30 8 6 9 7 10 8 11 9 12 26 13
REMARK SMILES IDX 10 14 11 15 25 16 27 17 12 18 24 19 23 20 13 21 21 22 14 23
REMARK SMILES IDX 15 24 20 25 22 26 16 27 19 28 17 29 18 30
REMARK H PARENT 18 31
REMARK Flexibility Score: inf
ROOT
ATOM      1  C   UNL     1     138.364 144.030 140.759  1.00  0.00     0.004 C 
ENDROOT
BRANCH   1   2
ATOM      2  C   UNL     1     139.668 144.865 140.708  1.00  0.00     0.004 C 
BRANCH   2   3
ATOM      3  C   UNL     1     140.788 144.219 141.574  1.00  0.00    -0.009 C 
BRANCH   3   4
ATOM      4  C   UNL     1     141.186 145.146 142.759  1.00  0.00     0.000 C 
ATOM      5  C   UNL     1     141.006 144.489 144.133  1.00  0.00     0.004 C 
ENDBRANCH   3   4
BRANCH   3   6
ATOM      6  C   UNL     1     142.000 143.791 140.657  1.00  0.00    -0.014 C 
ATOM      7  C   UNL     1     141.520 143.220 139.313  1.00  0.00     0.007 C 
ATOM      8  C   UNL     1     143.011 142.820 141.296  1.00  0.00     0.007 C 
ENDBRANCH   3   6
ENDBRANCH   2   3
ENDBRANCH   1   2
BRANCH   1   9
ATOM      9  C   UNL     1     138.300 143.050 141.966  1.00  0.00    -0.011 C 
ATOM     10  C   UNL     1     137.126 143.470 142.889  1.00  0.00     0.008 C 
BRANCH   9  11
ATOM     11  C   UNL     1     138.223 141.543 141.496  1.00  0.00    -0.002 C 
ATOM     12  C   UNL     1     138.600 141.405 140.009  1.00  0.00     0.005 C 
ATOM     13  C   UNL     1     139.116 140.462 142.227  1.00  0.00    -0.023 C 
ATOM     14  C   UNL     1     138.929 139.948 139.791  1.00  0.00     0.009 C 
ATOM     15  C   UNL     1     139.574 139.465 141.089  1.00  0.00     0.021 C 
ATOM     16  C   UNL     1     140.374 141.102 142.932  1.00  0.00     0.008 C 
ATOM     17  C   UNL     1     138.267 139.663 143.259  1.00  0.00     0.012 C 
ATOM     18  C   UNL     1     141.086 139.234 141.103  1.00  0.00    -0.067 C 
ATOM     19  C   UNL     1     141.465 140.101 143.395  1.00  0.00     0.009 C 
ATOM     20  C   UNL     1     141.605 138.851 142.474  1.00  0.00     0.021 C 
ATOM     21  C   UNL     1     141.936 139.571 140.103  1.00  0.00    -0.027 C 
ATOM     22  C   UNL     1     143.018 138.161 142.420  1.00  0.00    -0.023 C 
ATOM     23  C   UNL     1     143.420 139.296 140.143  1.00  0.00     0.031 C 
ATOM     24  C   UNL     1     143.968 139.054 141.564  1.00  0.00     0.002 C 
ATOM     25  C   UNL     1     143.623 138.014 143.852  1.00  0.00     0.010 C 
ATOM     26  C   UNL     1     142.838 136.734 141.788  1.00  0.00     0.012 C 
ATOM     27  C   UNL     1     145.409 138.504 141.530  1.00  0.00     0.036 C 
ATOM     28  C   UNL     1     145.086 137.520 143.843  1.00  0.00     0.032 C 
ATOM     29  C   UNL     1     145.990 138.384 142.946  1.00  0.00     0.114 C 
BRANCH  29  30
ATOM     30  O   UNL     1     146.161 139.653 143.524  1.00  0.00    -0.393 OA
ATOM     31  H   UNL     1     145.277 139.917 143.880  1.00  0.00     0.210 HD
ENDBRANCH  29  30
ENDBRANCH   9  11
ENDBRANCH   1   9
TORSDOF 7
ENDMDL
MODEL 3
REMARK VINA RESULT:    -5.375      1.726      3.173
REMARK INTER + INTRA:         -10.122
REMARK INTER:                  -7.145
REMARK INTRA:                  -2.978
REMARK UNBOUND:                -2.705
REMARK SMILES CC[C@@H](CC[C@@H](C)[C@H]1CC[C@H]2C3=CC[C@@H]4C[C@@H](O)CC[C@@]4(C)[C@H]3CC[C@@]12C)C(C)C
REMARK SMILES IDX 5 1 4 2 3 3 2 4 1 5 28 6 29 7 30 8 6 9 7 10 8 11 9 12 26 13
REMARK SMILES IDX 10 14 11 15 25 16 27 17 12 18 24 19 23 20 13 21 21 22 14 23
REMARK SMILES IDX 15 24 20 25 22 26 16 27 19 28 17 29 18 30
REMARK H PARENT 18 31
REMARK Flexibility Score: inf
ROOT
ATOM      1  C   UNL     1     138.145 144.234 140.977  1.00  0.00     0.004 C 
ENDROOT
BRANCH   1   2
ATOM      2  C   UNL     1     139.530 144.895 140.770  1.00  0.00     0.004 C 
BRANCH   2   3
ATOM      3  C   UNL     1     140.652 144.099 141.496  1.00  0.00    -0.009 C 
BRANCH   3   4
ATOM      4  C   UNL     1     141.267 144.929 142.659  1.00  0.00     0.000 C 
ATOM      5  C   UNL     1     141.101 144.268 144.033  1.00  0.00     0.004 C 
ENDBRANCH   3   4
BRANCH   3   6
ATOM      6  C   UNL     1     141.711 143.579 140.446  1.00  0.00    -0.014 C 
ATOM      7  C   UNL     1     141.032 142.973 139.208  1.00  0.00     0.007 C 
ATOM      8  C   UNL     1     142.764 142.594 140.990  1.00  0.00     0.007 C 
ENDBRANCH   3   6
ENDBRANCH   2   3
ENDBRANCH   1   2
BRANCH   1   9
ATOM      9  C   UNL     1     138.115 143.205 142.144  1.00  0.00    -0.011 C 
ATOM     10  C   UNL     1     137.196 143.752 143.269  1.00  0.00     0.008 C 
BRANCH   9  11
ATOM     11  C   UNL     1     137.708 141.762 141.645  1.00  0.00    -0.002 C 
ATOM     12  C   UNL     1     137.736 141.678 140.108  1.00  0.00     0.005 C 
ATOM     13  C   UNL     1     138.558 140.515 142.119  1.00  0.00    -0.023 C 
ATOM     14  C   UNL     1     137.782 140.208 139.767  1.00  0.00     0.009 C 
ATOM     15  C   UNL     1     138.605 139.546 140.871  1.00  0.00     0.021 C 
ATOM     16  C   UNL     1     140.020 140.917 142.554  1.00  0.00     0.008 C 
ATOM     17  C   UNL     1     137.834 139.774 143.281  1.00  0.00     0.012 C 
ATOM     18  C   UNL     1     140.031 139.103 140.542  1.00  0.00    -0.067 C 
ATOM     19  C   UNL     1     141.017 139.741 142.726  1.00  0.00     0.009 C 
ATOM     20  C   UNL     1     140.764 138.553 141.750  1.00  0.00     0.021 C 
ATOM     21  C   UNL     1     140.691 139.385 139.393  1.00  0.00    -0.027 C 
ATOM     22  C   UNL     1     142.009 137.675 141.359  1.00  0.00    -0.023 C 
ATOM     23  C   UNL     1     142.090 138.900 139.094  1.00  0.00     0.031 C 
ATOM     24  C   UNL     1     142.882 138.481 140.350  1.00  0.00     0.002 C 
ATOM     25  C   UNL     1     142.873 137.341 142.615  1.00  0.00     0.010 C 
ATOM     26  C   UNL     1     141.481 136.336 140.727  1.00  0.00     0.012 C 
ATOM     27  C   UNL     1     144.181 137.735 139.978  1.00  0.00     0.036 C 
ATOM     28  C   UNL     1     144.207 136.646 142.265  1.00  0.00     0.032 C 
ATOM     29  C   UNL     1     145.023 137.433 141.226  1.00  0.00     0.114 C 
BRANCH  29  30
ATOM     30  O   UNL     1     145.506 138.621 141.800  1.00  0.00    -0.393 OA
ATOM     31  H   UNL     1     145.813 138.384 142.710  1.00  0.00     0.210 HD
ENDBRANCH  29  30
ENDBRANCH   9  11
ENDBRANCH   1   9
TORSDOF 7
ENDMDL
MODEL 4
REMARK VINA RESULT:    -5.357      1.585      2.626
REMARK INTER + INTRA:         -10.098
REMARK INTER:                  -7.512
REMARK INTRA:                  -2.585
REMARK UNBOUND:                -2.705
REMARK SMILES CC[C@@H](CC[C@@H](C)[C@H]1CC[C@H]2C3=CC[C@@H]4C[C@@H](O)CC[C@@]4(C)[C@H]3CC[C@@]12C)C(C)C
REMARK SMILES IDX 5 1 4 2 3 3 2 4 1 5 28 6 29 7 30 8 6 9 7 10 8 11 9 12 26 13
REMARK SMILES IDX 10 14 11 15 25 16 27 17 12 18 24 19 23 20 13 21 21 22 14 23
REMARK SMILES IDX 15 24 20 25 22 26 16 27 19 28 17 29 18 30
REMARK H PARENT 18 31
REMARK Flexibility Score: inf
ROOT
ATOM      1  C   UNL     1     138.723 142.733 141.635  1.00  0.00     0.004 C 
ENDROOT
BRANCH   1   2
ATOM      2  C   UNL     1     139.494 143.561 142.692  1.00  0.00     0.004 C 
BRANCH   2   3
ATOM      3  C   UNL     1     140.861 144.055 142.138  1.00  0.00    -0.009 C 
BRANCH   3   4
ATOM      4  C   UNL     1     141.398 143.098 141.034  1.00  0.00     0.000 C 
ATOM      5  C   UNL     1     142.050 143.833 139.856  1.00  0.00     0.004 C 
ENDBRANCH   3   4
BRANCH   3   6
ATOM      6  C   UNL     1     141.871 144.296 143.328  1.00  0.00    -0.014 C 
ATOM      7  C   UNL     1     142.905 143.163 143.432  1.00  0.00     0.007 C 
ATOM      8  C   UNL     1     141.233 144.539 144.708  1.00  0.00     0.007 C 
ENDBRANCH   3   6
ENDBRANCH   2   3
ENDBRANCH   1   2
BRANCH   1   9
ATOM      9  C   UNL     1     138.081 141.436 142.208  1.00  0.00    -0.011 C 
ATOM     10  C   UNL     1     136.537 141.580 142.161  1.00  0.00     0.008 C 
BRANCH   9  11
ATOM     11  C   UNL     1     138.615 140.143 141.474  1.00  0.00    -0.002 C 
ATOM     12  C   UNL     1     139.145 140.481 140.068  1.00  0.00     0.005 C 
ATOM     13  C   UNL     1     139.781 139.306 142.139  1.00  0.00    -0.023 C 
ATOM     14  C   UNL     1     140.014 139.318 139.654  1.00  0.00     0.009 C 
ATOM     15  C   UNL     1     140.677 138.812 140.934  1.00  0.00     0.021 C 
ATOM     16  C   UNL     1     140.641 140.169 143.141  1.00  0.00     0.008 C 
ATOM     17  C   UNL     1     139.207 138.052 142.862  1.00  0.00     0.012 C 
ATOM     18  C   UNL     1     142.157 139.126 141.153  1.00  0.00    -0.067 C 
ATOM     19  C   UNL     1     141.983 139.534 143.592  1.00  0.00     0.009 C 
ATOM     20  C   UNL     1     142.660 138.652 142.502  1.00  0.00     0.021 C 
ATOM     21  C   UNL     1     142.903 139.952 140.380  1.00  0.00    -0.027 C 
ATOM     22  C   UNL     1     144.228 138.528 142.558  1.00  0.00    -0.023 C 
ATOM     23  C   UNL     1     144.373 140.210 140.613  1.00  0.00     0.031 C 
ATOM     24  C   UNL     1     144.845 139.862 142.040  1.00  0.00     0.002 C 
ATOM     25  C   UNL     1     144.716 138.284 144.021  1.00  0.00     0.010 C 
ATOM     26  C   UNL     1     144.652 137.307 141.664  1.00  0.00     0.012 C 
ATOM     27  C   UNL     1     146.384 139.871 142.145  1.00  0.00     0.036 C 
ATOM     28  C   UNL     1     146.252 138.346 144.164  1.00  0.00     0.032 C 
ATOM     29  C   UNL     1     146.842 139.648 143.593  1.00  0.00     0.114 C 
BRANCH  29  30
ATOM     30  O   UNL     1     146.474 140.733 144.405  1.00  0.00    -0.393 OA
ATOM     31  H   UNL     1     146.254 141.477 143.792  1.00  0.00     0.210 HD
ENDBRANCH  29  30
ENDBRANCH   9  11
ENDBRANCH   1   9
TORSDOF 7
ENDMDL
MODEL 5
REMARK VINA RESULT:    -5.285      4.200      7.902
REMARK INTER + INTRA:          -9.998
REMARK INTER:                  -8.321
REMARK INTRA:                  -1.677
REMARK UNBOUND:                -2.705
REMARK SMILES CC[C@@H](CC[C@@H](C)[C@H]1CC[C@H]2C3=CC[C@@H]4C[C@@H](O)CC[C@@]4(C)[C@H]3CC[C@@]12C)C(C)C
REMARK SMILES IDX 5 1 4 2 3 3 2 4 1 5 28 6 29 7 30 8 6 9 7 10 8 11 9 12 26 13
REMARK SMILES IDX 10 14 11 15 25 16 27 17 12 18 24 19 23 20 13 21 21 22 14 23
REMARK SMILES IDX 15 24 20 25 22 26 16 27 19 28 17 29 18 30
REMARK H PARENT 18 31
REMARK Flexibility Score: inf
ROOT
ATOM      1  C   UNL     1     143.320 140.068 142.450  1.00  0.00     0.004 C 
ENDROOT
BRANCH   1   2
ATOM      2  C   UNL     1     143.658 140.032 140.940  1.00  0.00     0.004 C 
BRANCH   2   3
ATOM      3  C   UNL     1     145.069 139.426 140.689  1.00  0.00    -0.009 C 
BRANCH   3   4
ATOM      4  C   UNL     1     145.000 137.877 140.558  1.00  0.00     0.000 C 
ATOM      5  C   UNL     1     144.121 137.402 139.395  1.00  0.00     0.004 C 
ENDBRANCH   3   4
BRANCH   3   6
ATOM      6  C   UNL     1     146.079 139.934 141.792  1.00  0.00    -0.014 C 
ATOM      7  C   UNL     1     146.942 141.097 141.278  1.00  0.00     0.007 C 
ATOM      8  C   UNL     1     146.986 138.856 142.416  1.00  0.00     0.007 C 
ENDBRANCH   3   6
ENDBRANCH   2   3
ENDBRANCH   1   2
BRANCH   1   9
ATOM      9  C   UNL     1     142.386 138.909 142.906  1.00  0.00    -0.011 C 
ATOM     10  C   UNL     1     141.444 138.535 141.731  1.00  0.00     0.008 C 
BRANCH   9  11
ATOM     11  C   UNL     1     143.206 137.682 143.472  1.00  0.00    -0.002 C 
ATOM     12  C   UNL     1     144.139 138.117 144.616  1.00  0.00     0.005 C 
ATOM     13  C   UNL     1     142.424 136.439 144.058  1.00  0.00    -0.023 C 
ATOM     14  C   UNL     1     144.513 136.857 145.358  1.00  0.00     0.009 C 
ATOM     15  C   UNL     1     143.285 135.950 145.290  1.00  0.00     0.021 C 
ATOM     16  C   UNL     1     140.965 136.815 144.526  1.00  0.00     0.008 C 
ATOM     17  C   UNL     1     142.374 135.285 143.013  1.00  0.00     0.012 C 
ATOM     18  C   UNL     1     142.438 135.784 146.552  1.00  0.00    -0.067 C 
ATOM     19  C   UNL     1     140.244 135.752 145.398  1.00  0.00     0.009 C 
ATOM     20  C   UNL     1     141.202 134.938 146.318  1.00  0.00     0.021 C 
ATOM     21  C   UNL     1     142.592 136.496 147.695  1.00  0.00    -0.027 C 
ATOM     22  C   UNL     1     140.593 134.367 147.652  1.00  0.00    -0.023 C 
ATOM     23  C   UNL     1     141.754 136.278 148.932  1.00  0.00     0.031 C 
ATOM     24  C   UNL     1     140.424 135.545 148.658  1.00  0.00     0.002 C 
ATOM     25  C   UNL     1     139.195 133.721 147.395  1.00  0.00     0.010 C 
ATOM     26  C   UNL     1     141.574 133.270 148.203  1.00  0.00     0.012 C 
ATOM     27  C   UNL     1     139.744 135.097 149.969  1.00  0.00     0.036 C 
ATOM     28  C   UNL     1     138.468 133.317 148.696  1.00  0.00     0.032 C 
ATOM     29  C   UNL     1     138.365 134.482 149.695  1.00  0.00     0.114 C 
BRANCH  29  30
ATOM     30  O   UNL     1     137.474 135.452 149.206  1.00  0.00    -0.393 OA
ATOM     31  H   UNL     1     137.785 136.320 149.563  1.00  0.00     0.210 HD
ENDBRANCH  29  30
ENDBRANCH   9  11
ENDBRANCH   1   9
TORSDOF 7
ENDMDL
MODEL 6
REMARK VINA RESULT:    -5.249      6.025      9.955
REMARK INTER + INTRA:          -9.948
REMARK INTER:                  -7.533
REMARK INTRA:                  -2.415
REMARK UNBOUND:                -2.705
REMARK SMILES CC[C@@H](CC[C@@H](C)[C@H]1CC[C@H]2C3=CC[C@@H]4C[C@@H](O)CC[C@@]4(C)[C@H]3CC[C@@]12C)C(C)C
REMARK SMILES IDX 5 1 4 2 3 3 2 4 1 5 28 6 29 7 30 8 6 9 7 10 8 11 9 12 26 13
REMARK SMILES IDX 10 14 11 15 25 16 27 17 12 18 24 19 23 20 13 21 21 22 14 23
REMARK SMILES IDX 15 24 20 25 22 26 16 27 19 28 17 29 18 30
REMARK H PARENT 18 31
REMARK Flexibility Score: inf
ROOT
ATOM      1  C   UNL     1     142.640 137.238 146.419  1.00  0.00     0.004 C 
ENDROOT
BRANCH   1   2
ATOM      2  C   UNL     1     142.370 137.302 144.895  1.00  0.00     0.004 C 
BRANCH   2   3
ATOM      3  C   UNL     1     141.746 135.975 144.374  1.00  0.00    -0.009 C 
BRANCH   3   4
ATOM      4  C   UNL     1     142.598 135.370 143.221  1.00  0.00     0.000 C 
ATOM      5  C   UNL     1     143.504 134.218 143.673  1.00  0.00     0.004 C 
ENDBRANCH   3   4
BRANCH   3   6
ATOM      6  C   UNL     1     140.228 136.201 144.003  1.00  0.00    -0.014 C 
ATOM      7  C   UNL     1     139.977 137.626 143.486  1.00  0.00     0.007 C 
ATOM      8  C   UNL     1     139.212 135.870 145.112  1.00  0.00     0.007 C 
ENDBRANCH   3   6
ENDBRANCH   2   3
ENDBRANCH   1   2
BRANCH   1   9
ATOM      9  C   UNL     1     143.191 135.863 146.895  1.00  0.00    -0.011 C 
ATOM     10  C   UNL     1     144.741 135.918 146.896  1.00  0.00     0.008 C 
BRANCH   9  11
ATOM     11  C   UNL     1     142.576 135.434 148.287  1.00  0.00    -0.002 C 
ATOM     12  C   UNL     1     141.611 136.508 148.822  1.00  0.00     0.005 C 
ATOM     13  C   UNL     1     141.751 134.087 148.381  1.00  0.00    -0.023 C 
ATOM     14  C   UNL     1     140.766 135.830 149.872  1.00  0.00     0.009 C 
ATOM     15  C   UNL     1     140.577 134.391 149.395  1.00  0.00     0.021 C 
ATOM     16  C   UNL     1     141.167 133.643 146.985  1.00  0.00     0.008 C 
ATOM     17  C   UNL     1     142.631 132.952 148.984  1.00  0.00     0.012 C 
ATOM     18  C   UNL     1     139.214 133.990 148.829  1.00  0.00    -0.067 C 
ATOM     19  C   UNL     1     140.092 132.525 147.032  1.00  0.00     0.009 C 
ATOM     20  C   UNL     1     139.194 132.568 148.305  1.00  0.00     0.021 C 
ATOM     21  C   UNL     1     138.195 134.845 148.569  1.00  0.00    -0.027 C 
ATOM     22  C   UNL     1     137.738 131.988 148.169  1.00  0.00    -0.023 C 
ATOM     23  C   UNL     1     136.851 134.403 148.040  1.00  0.00     0.031 C 
ATOM     24  C   UNL     1     136.874 133.012 147.373  1.00  0.00     0.002 C 
ATOM     25  C   UNL     1     137.747 130.632 147.397  1.00  0.00     0.010 C 
ATOM     26  C   UNL     1     137.172 131.753 149.617  1.00  0.00     0.012 C 
ATOM     27  C   UNL     1     135.447 132.488 147.108  1.00  0.00     0.036 C 
ATOM     28  C   UNL     1     136.330 130.114 147.068  1.00  0.00     0.032 C 
ATOM     29  C   UNL     1     135.479 131.163 146.333  1.00  0.00     0.114 C 
BRANCH  29  30
ATOM     30  O   UNL     1     135.979 131.357 145.035  1.00  0.00    -0.393 OA
ATOM     31  H   UNL     1     136.865 130.917 145.009  1.00  0.00     0.210 HD
ENDBRANCH  29  30
ENDBRANCH   9  11
ENDBRANCH   1   9
TORSDOF 7
ENDMDL
MODEL 7
REMARK VINA RESULT:    -5.245      2.963      5.257
REMARK INTER + INTRA:          -9.943
REMARK INTER:                  -7.638
REMARK INTRA:                  -2.306
REMARK UNBOUND:                -2.705
REMARK SMILES CC[C@@H](CC[C@@H](C)[C@H]1CC[C@H]2C3=CC[C@@H]4C[C@@H](O)CC[C@@]4(C)[C@H]3CC[C@@]12C)C(C)C
REMARK SMILES IDX 5 1 4 2 3 3 2 4 1 5 28 6 29 7 30 8 6 9 7 10 8 11 9 12 26 13
REMARK SMILES IDX 10 14 11 15 25 16 27 17 12 18 24 19 23 20 13 21 21 22 14 23
REMARK SMILES IDX 15 24 20 25 22 26 16 27 19 28 17 29 18 30
REMARK H PARENT 18 31
REMARK Flexibility Score: inf
ROOT
ATOM      1  C   UNL     1     139.073 144.173 141.364  1.00  0.00     0.004 C 
ENDROOT
BRANCH   1   2
ATOM      2  C   UNL     1     140.502 144.446 141.893  1.00  0.00     0.004 C 
BRANCH   2   3
ATOM      3  C   UNL     1     140.779 143.661 143.208  1.00  0.00    -0.009 C 
BRANCH   3   4
ATOM      4  C   UNL     1     141.075 144.629 144.389  1.00  0.00     0.000 C 
ATOM      5  C   UNL     1     142.406 144.341 145.093  1.00  0.00     0.004 C 
ENDBRANCH   3   4
BRANCH   3   6
ATOM      6  C   UNL     1     141.904 142.580 142.964  1.00  0.00    -0.014 C 
ATOM      7  C   UNL     1     142.515 142.703 141.560  1.00  0.00     0.007 C 
ATOM      8  C   UNL     1     141.493 141.117 143.219  1.00  0.00     0.007 C 
ENDBRANCH   3   6
ENDBRANCH   2   3
ENDBRANCH   1   2
BRANCH   1   9
ATOM      9  C   UNL     1     138.337 143.030 142.121  1.00  0.00    -0.011 C 
ATOM     10  C   UNL     1     137.119 143.631 142.872  1.00  0.00     0.008 C 
BRANCH   9  11
ATOM     11  C   UNL     1     137.956 141.837 141.157  1.00  0.00    -0.002 C 
ATOM     12  C   UNL     1     139.135 141.466 140.239  1.00  0.00     0.005 C 
ATOM     13  C   UNL     1     137.500 140.457 141.782  1.00  0.00    -0.023 C 
ATOM     14  C   UNL     1     138.839 140.085 139.709  1.00  0.00     0.009 C 
ATOM     15  C   UNL     1     138.111 139.350 140.833  1.00  0.00     0.021 C 
ATOM     16  C   UNL     1     138.026 140.265 143.257  1.00  0.00     0.008 C 
ATOM     17  C   UNL     1     135.949 140.328 141.741  1.00  0.00     0.012 C 
ATOM     18  C   UNL     1     138.879 138.285 141.616  1.00  0.00    -0.067 C 
ATOM     19  C   UNL     1     137.904 138.828 143.830  1.00  0.00     0.009 C 
ATOM     20  C   UNL     1     138.071 137.707 142.761  1.00  0.00     0.021 C 
ATOM     21  C   UNL     1     140.206 138.038 141.503  1.00  0.00    -0.027 C 
ATOM     22  C   UNL     1     138.628 136.323 143.262  1.00  0.00    -0.023 C 
ATOM     23  C   UNL     1     140.921 136.953 142.272  1.00  0.00     0.031 C 
ATOM     24  C   UNL     1     140.157 136.474 143.524  1.00  0.00     0.002 C 
ATOM     25  C   UNL     1     137.932 135.889 144.590  1.00  0.00     0.010 C 
ATOM     26  C   UNL     1     138.333 135.250 142.152  1.00  0.00     0.012 C 
ATOM     27  C   UNL     1     140.777 135.188 144.109  1.00  0.00     0.036 C 
ATOM     28  C   UNL     1     138.571 134.637 145.227  1.00  0.00     0.032 C 
ATOM     29  C   UNL     1     140.089 134.790 145.423  1.00  0.00     0.114 C 
BRANCH  29  30
ATOM     30  O   UNL     1     140.347 135.737 146.428  1.00  0.00    -0.393 OA
ATOM     31  H   UNL     1     140.415 136.613 145.973  1.00  0.00     0.210 HD
ENDBRANCH  29  30
ENDBRANCH   9  11
ENDBRANCH   1   9
TORSDOF 7
ENDMDL
MODEL 8
REMARK VINA RESULT:    -5.233      2.053      4.756
REMARK INTER + INTRA:          -9.926
REMARK INTER:                  -7.613
REMARK INTRA:                  -2.313
REMARK UNBOUND:                -2.705
REMARK SMILES CC[C@@H](CC[C@@H](C)[C@H]1CC[C@H]2C3=CC[C@@H]4C[C@@H](O)CC[C@@]4(C)[C@H]3CC[C@@]12C)C(C)C
REMARK SMILES IDX 5 1 4 2 3 3 2 4 1 5 28 6 29 7 30 8 6 9 7 10 8 11 9 12 26 13
REMARK SMILES IDX 10 14 11 15 25 16 27 17 12 18 24 19 23 20 13 21 21 22 14 23
REMARK SMILES IDX 15 24 20 25 22 26 16 27 19 28 17 29 18 30
REMARK H PARENT 18 31
REMARK Flexibility Score: inf
ROOT
ATOM      1  C   UNL     1     138.050 143.761 142.359  1.00  0.00     0.004 C 
ENDROOT
BRANCH   1   2
ATOM      2  C   UNL     1     137.115 142.532 142.472  1.00  0.00     0.004 C 
BRANCH   2   3
ATOM      3  C   UNL     1     137.811 141.240 141.955  1.00  0.00    -0.009 C 
BRANCH   3   4
ATOM      4  C   UNL     1     136.929 140.509 140.902  1.00  0.00     0.000 C 
ATOM      5  C   UNL     1     135.549 141.151 140.713  1.00  0.00     0.004 C 
ENDBRANCH   3   4
BRANCH   3   6
ATOM      6  C   UNL     1     138.242 140.334 143.174  1.00  0.00    -0.014 C 
ATOM      7  C   UNL     1     139.586 139.635 142.914  1.00  0.00     0.007 C 
ATOM      8  C   UNL     1     137.203 139.294 143.634  1.00  0.00     0.007 C 
ENDBRANCH   3   6
ENDBRANCH   2   3
ENDBRANCH   1   2
BRANCH   1   9
ATOM      9  C   UNL     1     138.655 143.953 140.938  1.00  0.00    -0.011 C 
ATOM     10  C   UNL     1     137.827 145.026 140.183  1.00  0.00     0.008 C 
BRANCH   9  11
ATOM     11  C   UNL     1     140.201 144.277 140.997  1.00  0.00    -0.002 C 
ATOM     12  C   UNL     1     140.688 144.395 142.453  1.00  0.00     0.005 C 
ATOM     13  C   UNL     1     141.224 143.275 140.324  1.00  0.00    -0.023 C 
ATOM     14  C   UNL     1     142.190 144.251 142.408  1.00  0.00     0.009 C 
ATOM     15  C   UNL     1     142.484 143.267 141.277  1.00  0.00     0.021 C 
ATOM     16  C   UNL     1     140.633 141.819 140.185  1.00  0.00     0.008 C 
ATOM     17  C   UNL     1     141.672 143.811 138.932  1.00  0.00     0.012 C 
ATOM     18  C   UNL     1     142.912 141.847 141.649  1.00  0.00    -0.067 C 
ATOM     19  C   UNL     1     141.659 140.709 139.837  1.00  0.00     0.009 C 
ATOM     20  C   UNL     1     143.077 140.951 140.437  1.00  0.00     0.021 C 
ATOM     21  C   UNL     1     142.906 141.332 142.903  1.00  0.00    -0.027 C 
ATOM     22  C   UNL     1     143.951 139.677 140.735  1.00  0.00    -0.023 C 
ATOM     23  C   UNL     1     143.368 139.933 143.231  1.00  0.00     0.031 C 
ATOM     24  C   UNL     1     143.390 138.985 142.014  1.00  0.00     0.002 C 
ATOM     25  C   UNL     1     143.886 138.666 139.548  1.00  0.00     0.010 C 
ATOM     26  C   UNL     1     145.438 140.144 140.934  1.00  0.00     0.012 C 
ATOM     27  C   UNL     1     144.128 137.668 142.335  1.00  0.00     0.036 C 
ATOM     28  C   UNL     1     144.568 137.317 139.865  1.00  0.00     0.032 C 
ATOM     29  C   UNL     1     144.037 136.682 141.162  1.00  0.00     0.114 C 
BRANCH  29  30
ATOM     30  O   UNL     1     142.713 136.252 140.974  1.00  0.00    -0.393 OA
ATOM     31  H   UNL     1     142.643 135.369 141.413  1.00  0.00     0.210 HD
ENDBRANCH  29  30
ENDBRANCH   9  11
ENDBRANCH   1   9
TORSDOF 7
ENDMDL
MODEL 9
REMARK VINA RESULT:    -5.186      2.477      7.051
REMARK INTER + INTRA:          -9.862
REMARK INTER:                  -6.833
REMARK INTRA:                  -3.029
REMARK UNBOUND:                -2.705
REMARK SMILES CC[C@@H](CC[C@@H](C)[C@H]1CC[C@H]2C3=CC[C@@H]4C[C@@H](O)CC[C@@]4(C)[C@H]3CC[C@@]12C)C(C)C
REMARK SMILES IDX 5 1 4 2 3 3 2 4 1 5 28 6 29 7 30 8 6 9 7 10 8 11 9 12 26 13
REMARK SMILES IDX 10 14 11 15 25 16 27 17 12 18 24 19 23 20 13 21 21 22 14 23
REMARK SMILES IDX 15 24 20 25 22 26 16 27 19 28 17 29 18 30
REMARK H PARENT 18 31
REMARK Flexibility Score: inf
ROOT
ATOM      1  C   UNL     1     145.892 138.482 141.729  1.00  0.00     0.004 C 
ENDROOT
BRANCH   1   2
ATOM      2  C   UNL     1     145.006 137.272 141.343  1.00  0.00     0.004 C 
BRANCH   2   3
ATOM      3  C   UNL     1     143.571 137.411 141.927  1.00  0.00    -0.009 C 
BRANCH   3   4
ATOM      4  C   UNL     1     143.350 136.432 143.116  1.00  0.00     0.000 C 
ATOM      5  C   UNL     1     142.883 137.128 144.400  1.00  0.00     0.004 C 
ENDBRANCH   3   4
BRANCH   3   6
ATOM      6  C   UNL     1     142.502 137.272 140.772  1.00  0.00    -0.014 C 
ATOM      7  C   UNL     1     142.972 137.957 139.479  1.00  0.00     0.007 C 
ATOM      8  C   UNL     1     141.078 137.748 141.119  1.00  0.00     0.007 C 
ENDBRANCH   3   6
ENDBRANCH   2   3
ENDBRANCH   1   2
BRANCH   1   9
ATOM      9  C   UNL     1     145.208 139.459 142.728  1.00  0.00    -0.011 C 
ATOM     10  C   UNL     1     146.097 139.585 143.993  1.00  0.00     0.008 C 
BRANCH   9  11
ATOM     11  C   UNL     1     144.873 140.849 142.054  1.00  0.00    -0.002 C 
ATOM     12  C   UNL     1     144.873 140.735 140.518  1.00  0.00     0.005 C 
ATOM     13  C   UNL     1     143.501 141.559 142.392  1.00  0.00    -0.023 C 
ATOM     14  C   UNL     1     144.124 141.942 140.006  1.00  0.00     0.009 C 
ATOM     15  C   UNL     1     143.037 142.231 141.039  1.00  0.00     0.021 C 
ATOM     16  C   UNL     1     142.408 140.540 142.899  1.00  0.00     0.008 C 
ATOM     17  C   UNL     1     143.717 142.686 143.445  1.00  0.00     0.012 C 
ATOM     18  C   UNL     1     141.592 141.874 140.687  1.00  0.00    -0.067 C 
ATOM     19  C   UNL     1     140.956 141.083 142.949  1.00  0.00     0.009 C 
ATOM     20  C   UNL     1     140.634 142.123 141.834  1.00  0.00     0.021 C 
ATOM     21  C   UNL     1     141.206 141.176 139.592  1.00  0.00    -0.027 C 
ATOM     22  C   UNL     1     139.135 142.222 141.366  1.00  0.00    -0.023 C 
ATOM     23  C   UNL     1     139.763 140.871 139.265  1.00  0.00     0.031 C 
ATOM     24  C   UNL     1     138.815 140.983 140.476  1.00  0.00     0.002 C 
ATOM     25  C   UNL     1     138.166 142.225 142.590  1.00  0.00     0.010 C 
ATOM     26  C   UNL     1     138.963 143.567 140.570  1.00  0.00     0.012 C 
ATOM     27  C   UNL     1     137.334 140.944 140.043  1.00  0.00     0.036 C 
ATOM     28  C   UNL     1     136.680 142.128 142.185  1.00  0.00     0.032 C 
ATOM     29  C   UNL     1     136.401 140.930 141.262  1.00  0.00     0.114 C 
BRANCH  29  30
ATOM     30  O   UNL     1     136.540 139.732 141.982  1.00  0.00    -0.393 OA
ATOM     31  H   UNL     1     135.819 139.133 141.665  1.00  0.00     0.210 HD
ENDBRANCH  29  30
ENDBRANCH   9  11
ENDBRANCH   1   9
TORSDOF 7
ENDMDL
