MODEL 1
REMARK VINA RESULT:    -2.321      0.000      0.000
REMARK INTER + INTRA:          -2.321
REMARK INTER:                  -2.321
REMARK INTRA:                   0.000
REMARK UNBOUND:                 0.000
REMARK SMILES CC(=O)[O-]
REMARK SMILES IDX 1 1 2 2 3 3 4 4
REMARK H PARENT
REMARK Flexibility Score: inf
ROOT
ATOM      1  C   UNL     1      53.171  57.655  94.052  1.00  0.00     0.063 C 
ATOM      2  C   UNL     1      52.071  57.276  94.985  1.00  0.00     0.038 C 
ATOM      3  O   UNL     1      50.920  57.763  94.837  1.00  0.00    -0.550 OA
ATOM      4  O   UNL     1      52.301  56.342  95.987  1.00  0.00    -0.550 OA
ENDROOT
TORSDOF 0
ENDMDL
MODEL 2
REMARK VINA RESULT:    -2.284      1.922      2.641
REMARK INTER + INTRA:          -2.284
REMARK INTER:                  -2.284
REMARK INTRA:                   0.000
REMARK UNBOUND:                 0.000
REMARK SMILES CC(=O)[O-]
REMARK SMILES IDX 1 1 2 2 3 3 4 4
REMARK H PARENT
REMARK Flexibility Score: inf
ROOT
ATOM      1  C   UNL     1      50.103  57.639  93.067  1.00  0.00     0.063 C 
ATOM      2  C   UNL     1      50.425  57.947  94.490  1.00  0.00     0.038 C 
ATOM      3  O   UNL     1      51.520  57.575  94.986  1.00  0.00    -0.550 OA
ATOM      4  O   UNL     1      49.539  58.694  95.257  1.00  0.00    -0.550 OA
ENDROOT
TORSDOF 0
ENDMDL
MODEL 3
REMARK VINA RESULT:    -2.282      3.502      3.874
REMARK INTER + INTRA:          -2.282
REMARK INTER:                  -2.282
REMARK INTRA:                   0.000
REMARK UNBOUND:                 0.000
REMARK SMILES CC(=O)[O-]
REMARK SMILES IDX 1 1 2 2 3 3 4 4
REMARK H PARENT
REMARK Flexibility Score: inf
ROOT
ATOM      1  C   UNL     1      50.587  57.225  92.596  1.00  0.00     0.063 C 
ATOM      2  C   UNL     1      51.784  57.248  91.707  1.00  0.00     0.038 C 
ATOM      3  O   UNL     1      51.915  56.386  90.800  1.00  0.00    -0.550 OA
ATOM      4  O   UNL     1      52.731  58.256  91.841  1.00  0.00    -0.550 OA
ENDROOT
TORSDOF 0
ENDMDL
MODEL 4
REMARK VINA RESULT:    -2.272      2.950      3.447
REMARK INTER + INTRA:          -2.272
REMARK INTER:                  -2.272
REMARK INTRA:                   0.000
REMARK UNBOUND:                 0.000
REMARK SMILES CC(=O)[O-]
REMARK SMILES IDX 1 1 2 2 3 3 4 4
REMARK H PARENT
REMARK Flexibility Score: inf
ROOT
ATOM      1  C   UNL     1      53.138  58.022  93.657  1.00  0.00     0.063 C 
ATOM      2  C   UNL     1      52.740  58.202  92.230  1.00  0.00     0.038 C 
ATOM      3  O   UNL     1      53.292  59.088  91.527  1.00  0.00    -0.550 OA
ATOM      4  O   UNL     1      51.800  57.354  91.659  1.00  0.00    -0.550 OA
ENDROOT
TORSDOF 0
ENDMDL
MODEL 5
REMARK VINA RESULT:    -2.233      2.943      3.422
REMARK INTER + INTRA:          -2.233
REMARK INTER:                  -2.233
REMARK INTRA:                   0.000
REMARK UNBOUND:                 0.000
REMARK SMILES CC(=O)[O-]
REMARK SMILES IDX 1 1 2 2 3 3 4 4
REMARK H PARENT
REMARK Flexibility Score: inf
ROOT
ATOM      1  C   UNL     1      52.748  58.302  92.250  1.00  0.00     0.063 C 
ATOM      2  C   UNL     1      51.760  57.254  91.864  1.00  0.00     0.038 C 
ATOM      3  O   UNL     1      51.995  56.492  90.890  1.00  0.00    -0.550 OA
ATOM      4  O   UNL     1      50.604  57.079  92.614  1.00  0.00    -0.550 OA
ENDROOT
TORSDOF 0
ENDMDL
MODEL 6
REMARK VINA RESULT:    -2.203      2.900      3.095
REMARK INTER + INTRA:          -2.203
REMARK INTER:                  -2.203
REMARK INTRA:                   0.000
REMARK UNBOUND:                 0.000
REMARK SMILES CC(=O)[O-]
REMARK SMILES IDX 1 1 2 2 3 3 4 4
REMARK H PARENT
REMARK Flexibility Score: inf
ROOT
ATOM      1  C   UNL     1      49.895  58.401  94.916  1.00  0.00     0.063 C 
ATOM      2  C   UNL     1      50.448  58.175  93.549  1.00  0.00     0.038 C 
ATOM      3  O   UNL     1      51.373  58.908  93.112  1.00  0.00    -0.550 OA
ATOM      4  O   UNL     1      49.982  57.118  92.777  1.00  0.00    -0.550 OA
ENDROOT
TORSDOF 0
ENDMDL
MODEL 7
REMARK VINA RESULT:    -2.200      2.047      2.356
REMARK INTER + INTRA:          -2.200
REMARK INTER:                  -2.200
REMARK INTRA:                   0.000
REMARK UNBOUND:                 0.000
REMARK SMILES CC(=O)[O-]
REMARK SMILES IDX 1 1 2 2 3 3 4 4
REMARK H PARENT
REMARK Flexibility Score: inf
ROOT
ATOM      1  C   UNL     1      52.300  56.867  95.427  1.00  0.00     0.063 C 
ATOM      2  C   UNL     1      52.752  57.267  94.063  1.00  0.00     0.038 C 
ATOM      3  O   UNL     1      53.621  58.166  93.924  1.00  0.00    -0.550 OA
ATOM      4  O   UNL     1      52.254  56.610  92.945  1.00  0.00    -0.550 OA
ENDROOT
TORSDOF 0
ENDMDL
MODEL 8
REMARK VINA RESULT:    -2.196      2.053      2.692
REMARK INTER + INTRA:          -2.196
REMARK INTER:                  -2.196
REMARK INTRA:                   0.000
REMARK UNBOUND:                 0.000
REMARK SMILES CC(=O)[O-]
REMARK SMILES IDX 1 1 2 2 3 3 4 4
REMARK H PARENT
REMARK Flexibility Score: inf
ROOT
ATOM      1  C   UNL     1      53.083  58.683  91.888  1.00  0.00     0.063 C 
ATOM      2  C   UNL     1      52.701  58.393  93.300  1.00  0.00     0.038 C 
ATOM      3  O   UNL     1      53.558  57.952  94.109  1.00  0.00    -0.550 OA
ATOM      4  O   UNL     1      51.411  58.663  93.740  1.00  0.00    -0.550 OA
ENDROOT
TORSDOF 0
ENDMDL
MODEL 9
REMARK VINA RESULT:    -2.192      2.483      2.558
REMARK INTER + INTRA:          -2.192
REMARK INTER:                  -2.192
REMARK INTRA:                   0.000
REMARK UNBOUND:                 0.000
REMARK SMILES CC(=O)[O-]
REMARK SMILES IDX 1 1 2 2 3 3 4 4
REMARK H PARENT
REMARK Flexibility Score: inf
ROOT
ATOM      1  C   UNL     1      51.652  56.907  91.316  1.00  0.00     0.063 C 
ATOM      2  C   UNL     1      51.157  56.973  92.721  1.00  0.00     0.038 C 
ATOM      3  O   UNL     1      49.962  57.288  92.957  1.00  0.00    -0.550 OA
ATOM      4  O   UNL     1      52.001  56.633  93.772  1.00  0.00    -0.550 OA
ENDROOT
TORSDOF 0
ENDMDL
