MODEL 1
REMARK VINA RESULT:    -7.052      0.000      0.000
REMARK INTER + INTRA:          -8.368
REMARK INTER:                  -8.083
REMARK INTRA:                  -0.286
REMARK UNBOUND:                -0.286
REMARK SMILES O=C1C[C@H](c2ccc(O)cc2)Oc2cc(O)cc(O)c21
REMARK SMILES IDX 3 1 4 2 12 3 13 4 14 5 15 6 17 7 18 8 20 9 2 10 1 11 5 12
REMARK SMILES IDX 6 13 11 14 7 15 10 16 8 17 9 18 19 20 16 22
REMARK H PARENT 9 19 19 21 16 23
REMARK Flexibility Score: inf
ROOT
ATOM      1  C   UNL     1      26.818  10.755 -31.485  1.00  0.00     0.131 C 
ATOM      2  C   UNL     1      26.309   9.783 -32.558  1.00  0.00     0.211 C 
ATOM      3  O   UNL     1      27.406   9.166 -33.239  1.00  0.00    -0.484 OA
ATOM      4  C   UNL     1      28.573   9.863 -33.579  1.00  0.00     0.138 A 
ATOM      5  C   UNL     1      29.472   9.282 -34.476  1.00  0.00     0.093 A 
ATOM      6  C   UNL     1      30.635   9.957 -34.847  1.00  0.00     0.123 A 
ATOM      7  C   UNL     1      30.917  11.211 -34.293  1.00  0.00     0.093 A 
ATOM      8  C   UNL     1      30.049  11.795 -33.362  1.00  0.00     0.133 A 
ATOM      9  C   UNL     1      28.842  11.131 -33.020  1.00  0.00     0.102 A 
ATOM     10  C   UNL     1      27.818  11.687 -32.100  1.00  0.00     0.174 C 
ATOM     11  O   UNL     1      27.735  12.922 -31.869  1.00  0.00    -0.294 OA
ENDROOT
BRANCH   2  12
ATOM     12  C   UNL     1      25.421   8.727 -31.944  1.00  0.00    -0.007 A 
ATOM     13  C   UNL     1      24.170   8.429 -32.511  1.00  0.00     0.011 A 
ATOM     14  C   UNL     1      25.862   7.993 -30.831  1.00  0.00     0.011 A 
ATOM     15  C   UNL     1      23.364   7.429 -31.957  1.00  0.00     0.046 A 
ATOM     16  C   UNL     1      25.053   6.994 -30.279  1.00  0.00     0.046 A 
ATOM     17  C   UNL     1      23.804   6.710 -30.839  1.00  0.00     0.115 A 
BRANCH  17  18
ATOM     18  O   UNL     1      23.010   5.713 -30.278  1.00  0.00    -0.508 OA
ATOM     19  H   UNL     1      22.749   5.732 -29.299  1.00  0.00     0.293 HD
ENDBRANCH  17  18
ENDBRANCH   2  12
BRANCH   8  20
ATOM     20  O   UNL     1      30.446  13.004 -32.785  1.00  0.00    -0.507 OA
ATOM     21  H   UNL     1      31.406  13.252 -32.599  1.00  0.00     0.293 HD
ENDBRANCH   8  20
BRANCH   6  22
ATOM     22  O   UNL     1      31.509   9.370 -35.759  1.00  0.00    -0.508 OA
ATOM     23  H   UNL     1      31.839   8.419 -35.640  1.00  0.00     0.293 HD
ENDBRANCH   6  22
TORSDOF 4
ENDMDL
MODEL 2
REMARK VINA RESULT:    -6.657      1.480      1.943
REMARK INTER + INTRA:          -7.916
REMARK INTER:                  -7.627
REMARK INTRA:                  -0.288
REMARK UNBOUND:                -0.286
REMARK SMILES O=C1C[C@H](c2ccc(O)cc2)Oc2cc(O)cc(O)c21
REMARK SMILES IDX 3 1 4 2 12 3 13 4 14 5 15 6 17 7 18 8 20 9 2 10 1 11 5 12
REMARK SMILES IDX 6 13 11 14 7 15 10 16 8 17 9 18 19 20 16 22
REMARK H PARENT 9 19 19 21 16 23
REMARK Flexibility Score: inf
ROOT
ATOM      1  C   UNL     1      25.925   9.711 -31.863  1.00  0.00     0.131 C 
ATOM      2  C   UNL     1      26.014   8.855 -33.134  1.00  0.00     0.211 C 
ATOM      3  O   UNL     1      27.373   8.726 -33.561  1.00  0.00    -0.484 OA
ATOM      4  C   UNL     1      28.289   9.785 -33.496  1.00  0.00     0.138 A 
ATOM      5  C   UNL     1      29.503   9.672 -34.178  1.00  0.00     0.093 A 
ATOM      6  C   UNL     1      30.429  10.716 -34.147  1.00  0.00     0.123 A 
ATOM      7  C   UNL     1      30.153  11.868 -33.403  1.00  0.00     0.093 A 
ATOM      8  C   UNL     1      28.959  11.985 -32.679  1.00  0.00     0.133 A 
ATOM      9  C   UNL     1      27.995  10.946 -32.749  1.00  0.00     0.102 A 
ATOM     10  C   UNL     1      26.670  10.994 -32.081  1.00  0.00     0.174 C 
ATOM     11  O   UNL     1      26.135  12.083 -31.746  1.00  0.00    -0.294 OA
ENDROOT
BRANCH   2  12
ATOM     12  C   UNL     1      25.413   7.490 -32.901  1.00  0.00    -0.007 A 
ATOM     13  C   UNL     1      25.882   6.670 -31.860  1.00  0.00     0.011 A 
ATOM     14  C   UNL     1      24.339   7.046 -33.691  1.00  0.00     0.011 A 
ATOM     15  C   UNL     1      25.301   5.420 -31.629  1.00  0.00     0.046 A 
ATOM     16  C   UNL     1      23.761   5.794 -33.458  1.00  0.00     0.046 A 
ATOM     17  C   UNL     1      24.240   4.978 -32.429  1.00  0.00     0.115 A 
BRANCH  17  18
ATOM     18  O   UNL     1      23.654   3.733 -32.209  1.00  0.00    -0.508 OA
ATOM     19  H   UNL     1      22.729   3.515 -32.558  1.00  0.00     0.293 HD
ENDBRANCH  17  18
ENDBRANCH   2  12
BRANCH   8  20
ATOM     20  O   UNL     1      28.798  13.125 -31.887  1.00  0.00    -0.507 OA
ATOM     21  H   UNL     1      28.704  13.105 -30.883  1.00  0.00     0.293 HD
ENDBRANCH   8  20
BRANCH   6  22
ATOM     22  O   UNL     1      31.625  10.594 -34.851  1.00  0.00    -0.508 OA
ATOM     23  H   UNL     1      31.641  10.541 -35.863  1.00  0.00     0.293 HD
ENDBRANCH   6  22
TORSDOF 4
ENDMDL
MODEL 3
REMARK VINA RESULT:    -6.403      1.717      7.081
REMARK INTER + INTRA:          -7.624
REMARK INTER:                  -7.334
REMARK INTRA:                  -0.291
REMARK UNBOUND:                -0.286
REMARK SMILES O=C1C[C@H](c2ccc(O)cc2)Oc2cc(O)cc(O)c21
REMARK SMILES IDX 3 1 4 2 12 3 13 4 14 5 15 6 17 7 18 8 20 9 2 10 1 11 5 12
REMARK SMILES IDX 6 13 11 14 7 15 10 16 8 17 9 18 19 20 16 22
REMARK H PARENT 9 19 19 21 16 23
REMARK Flexibility Score: inf
ROOT
ATOM      1  C   UNL     1      25.551   8.636 -33.005  1.00  0.00     0.131 C 
ATOM      2  C   UNL     1      26.568   9.148 -31.976  1.00  0.00     0.211 C 
ATOM      3  O   UNL     1      26.937   8.105 -31.069  1.00  0.00    -0.484 OA
ATOM      4  C   UNL     1      26.014   7.173 -30.574  1.00  0.00     0.138 A 
ATOM      5  C   UNL     1      26.380   6.367 -29.493  1.00  0.00     0.093 A 
ATOM      6  C   UNL     1      25.479   5.441 -28.968  1.00  0.00     0.123 A 
ATOM      7  C   UNL     1      24.213   5.298 -29.546  1.00  0.00     0.093 A 
ATOM      8  C   UNL     1      23.840   6.067 -30.655  1.00  0.00     0.133 A 
ATOM      9  C   UNL     1      24.737   7.044 -31.161  1.00  0.00     0.102 A 
ATOM     10  C   UNL     1      24.422   7.960 -32.285  1.00  0.00     0.174 C 
ATOM     11  O   UNL     1      23.234   8.226 -32.611  1.00  0.00    -0.294 OA
ENDROOT
BRANCH   2  12
ATOM     12  C   UNL     1      27.796   9.693 -32.665  1.00  0.00    -0.007 A 
ATOM     13  C   UNL     1      28.176  11.035 -32.492  1.00  0.00     0.011 A 
ATOM     14  C   UNL     1      28.603   8.847 -33.444  1.00  0.00     0.011 A 
ATOM     15  C   UNL     1      29.331  11.527 -33.108  1.00  0.00     0.046 A 
ATOM     16  C   UNL     1      29.757   9.343 -34.059  1.00  0.00     0.046 A 
ATOM     17  C   UNL     1      30.124  10.682 -33.894  1.00  0.00     0.115 A 
BRANCH  17  18
ATOM     18  O   UNL     1      31.276  11.161 -34.513  1.00  0.00    -0.508 OA
ATOM     19  H   UNL     1      31.943  11.739 -34.016  1.00  0.00     0.293 HD
ENDBRANCH  17  18
ENDBRANCH   2  12
BRANCH   8  20
ATOM     20  O   UNL     1      22.596   5.800 -31.233  1.00  0.00    -0.507 OA
ATOM     21  H   UNL     1      21.910   5.177 -30.833  1.00  0.00     0.293 HD
ENDBRANCH   8  20
BRANCH   6  22
ATOM     22  O   UNL     1      25.854   4.662 -27.875  1.00  0.00    -0.508 OA
ATOM     23  H   UNL     1      26.738   4.165 -27.858  1.00  0.00     0.293 HD
ENDBRANCH   6  22
TORSDOF 4
ENDMDL
MODEL 4
REMARK VINA RESULT:    -5.910     12.624     14.191
REMARK INTER + INTRA:          -7.059
REMARK INTER:                  -6.758
REMARK INTRA:                  -0.302
REMARK UNBOUND:                -0.286
REMARK SMILES O=C1C[C@H](c2ccc(O)cc2)Oc2cc(O)cc(O)c21
REMARK SMILES IDX 3 1 4 2 12 3 13 4 14 5 15 6 17 7 18 8 20 9 2 10 1 11 5 12
REMARK SMILES IDX 6 13 11 14 7 15 10 16 8 17 9 18 19 20 16 22
REMARK H PARENT 9 19 19 21 16 23
REMARK Flexibility Score: inf
ROOT
ATOM      1  C   UNL     1      34.726   7.291 -21.431  1.00  0.00     0.131 C 
ATOM      2  C   UNL     1      34.872   5.776 -21.630  1.00  0.00     0.211 C 
ATOM      3  O   UNL     1      33.892   5.293 -22.555  1.00  0.00    -0.484 OA
ATOM      4  C   UNL     1      32.574   5.767 -22.575  1.00  0.00     0.138 A 
ATOM      5  C   UNL     1      31.612   5.064 -23.304  1.00  0.00     0.093 A 
ATOM      6  C   UNL     1      30.288   5.502 -23.331  1.00  0.00     0.123 A 
ATOM      7  C   UNL     1      29.927   6.669 -22.649  1.00  0.00     0.093 A 
ATOM      8  C   UNL     1      30.883   7.412 -21.944  1.00  0.00     0.133 A 
ATOM      9  C   UNL     1      32.221   6.942 -21.875  1.00  0.00     0.102 A 
ATOM     10  C   UNL     1      33.298   7.608 -21.102  1.00  0.00     0.174 C 
ATOM     11  O   UNL     1      33.044   8.387 -20.145  1.00  0.00    -0.294 OA
ENDROOT
BRANCH   2  12
ATOM     12  C   UNL     1      36.258   5.433 -22.119  1.00  0.00    -0.007 A 
ATOM     13  C   UNL     1      37.284   6.393 -22.092  1.00  0.00     0.011 A 
ATOM     14  C   UNL     1      36.551   4.130 -22.556  1.00  0.00     0.011 A 
ATOM     15  C   UNL     1      38.574   6.062 -22.517  1.00  0.00     0.046 A 
ATOM     16  C   UNL     1      37.843   3.802 -22.981  1.00  0.00     0.046 A 
ATOM     17  C   UNL     1      38.856   4.765 -22.964  1.00  0.00     0.115 A 
BRANCH  17  18
ATOM     18  O   UNL     1      40.137   4.423 -23.391  1.00  0.00    -0.508 OA
ATOM     19  H   UNL     1      40.785   3.935 -22.784  1.00  0.00     0.293 HD
ENDBRANCH  17  18
ENDBRANCH   2  12
BRANCH   8  20
ATOM     20  O   UNL     1      30.465   8.614 -21.367  1.00  0.00    -0.507 OA
ATOM     21  H   UNL     1      30.048   9.373 -21.885  1.00  0.00     0.293 HD
ENDBRANCH   8  20
BRANCH   6  22
ATOM     22  O   UNL     1      29.339   4.775 -24.047  1.00  0.00    -0.508 OA
ATOM     23  H   UNL     1      29.040   5.061 -24.972  1.00  0.00     0.293 HD
ENDBRANCH   6  22
TORSDOF 4
ENDMDL
MODEL 5
REMARK VINA RESULT:    -5.857     12.618     14.076
REMARK INTER + INTRA:          -6.999
REMARK INTER:                  -6.696
REMARK INTRA:                  -0.302
REMARK UNBOUND:                -0.286
REMARK SMILES O=C1C[C@H](c2ccc(O)cc2)Oc2cc(O)cc(O)c21
REMARK SMILES IDX 3 1 4 2 12 3 13 4 14 5 15 6 17 7 18 8 20 9 2 10 1 11 5 12
REMARK SMILES IDX 6 13 11 14 7 15 10 16 8 17 9 18 19 20 16 22
REMARK H PARENT 9 19 19 21 16 23
REMARK Flexibility Score: inf
ROOT
ATOM      1  C   UNL     1      35.040   6.225 -21.771  1.00  0.00     0.131 C 
ATOM      2  C   UNL     1      34.621   4.749 -21.794  1.00  0.00     0.211 C 
ATOM      3  O   UNL     1      33.418   4.578 -22.550  1.00  0.00    -0.484 OA
ATOM      4  C   UNL     1      32.357   5.494 -22.499  1.00  0.00     0.138 A 
ATOM      5  C   UNL     1      31.121   5.128 -23.037  1.00  0.00     0.093 A 
ATOM      6  C   UNL     1      30.042   6.011 -22.987  1.00  0.00     0.123 A 
ATOM      7  C   UNL     1      30.207   7.280 -22.422  1.00  0.00     0.093 A 
ATOM      8  C   UNL     1      31.448   7.682 -21.913  1.00  0.00     0.133 A 
ATOM      9  C   UNL     1      32.535   6.769 -21.919  1.00  0.00     0.102 A 
ATOM     10  C   UNL     1      33.871   7.062 -21.345  1.00  0.00     0.174 C 
ATOM     11  O   UNL     1      34.037   7.954 -20.471  1.00  0.00    -0.294 OA
ENDROOT
BRANCH   2  12
ATOM     12  C   UNL     1      35.720   3.890 -22.371  1.00  0.00    -0.007 A 
ATOM     13  C   UNL     1      37.014   4.410 -22.550  1.00  0.00     0.011 A 
ATOM     14  C   UNL     1      35.474   2.543 -22.684  1.00  0.00     0.011 A 
ATOM     15  C   UNL     1      38.036   3.602 -23.056  1.00  0.00     0.046 A 
ATOM     16  C   UNL     1      36.499   1.737 -23.190  1.00  0.00     0.046 A 
ATOM     17  C   UNL     1      37.780   2.263 -23.378  1.00  0.00     0.115 A 
BRANCH  17  18
ATOM     18  O   UNL     1      38.791   1.448 -23.884  1.00  0.00    -0.508 OA
ATOM     19  H   UNL     1      39.762   1.592 -23.634  1.00  0.00     0.293 HD
ENDBRANCH  17  18
ENDBRANCH   2  12
BRANCH   8  20
ATOM     20  O   UNL     1      31.558   8.997 -21.452  1.00  0.00    -0.507 OA
ATOM     21  H   UNL     1      32.428   9.428 -21.180  1.00  0.00     0.293 HD
ENDBRANCH   8  20
BRANCH   6  22
ATOM     22  O   UNL     1      28.811   5.620 -23.509  1.00  0.00    -0.508 OA
ATOM     23  H   UNL     1      28.188   5.007 -22.996  1.00  0.00     0.293 HD
ENDBRANCH   6  22
TORSDOF 4
ENDMDL
MODEL 6
REMARK VINA RESULT:    -5.695     13.082     14.921
REMARK INTER + INTRA:          -6.813
REMARK INTER:                  -6.501
REMARK INTRA:                  -0.312
REMARK UNBOUND:                -0.286
REMARK SMILES O=C1C[C@H](c2ccc(O)cc2)Oc2cc(O)cc(O)c21
REMARK SMILES IDX 3 1 4 2 12 3 13 4 14 5 15 6 17 7 18 8 20 9 2 10 1 11 5 12
REMARK SMILES IDX 6 13 11 14 7 15 10 16 8 17 9 18 19 20 16 22
REMARK H PARENT 9 19 19 21 16 23
REMARK Flexibility Score: inf
ROOT
ATOM      1  C   UNL     1      33.620   3.175 -21.175  1.00  0.00     0.131 C 
ATOM      2  C   UNL     1      34.188   3.908 -22.398  1.00  0.00     0.211 C 
ATOM      3  O   UNL     1      33.980   5.319 -22.281  1.00  0.00    -0.484 OA
ATOM      4  C   UNL     1      32.801   5.868 -21.758  1.00  0.00     0.138 A 
ATOM      5  C   UNL     1      32.555   7.232 -21.929  1.00  0.00     0.093 A 
ATOM      6  C   UNL     1      31.384   7.805 -21.435  1.00  0.00     0.123 A 
ATOM      7  C   UNL     1      30.464   7.015 -20.736  1.00  0.00     0.093 A 
ATOM      8  C   UNL     1      30.709   5.654 -20.518  1.00  0.00     0.133 A 
ATOM      9  C   UNL     1      31.877   5.058 -21.062  1.00  0.00     0.102 A 
ATOM     10  C   UNL     1      32.203   3.614 -20.953  1.00  0.00     0.174 C 
ATOM     11  O   UNL     1      31.315   2.748 -20.735  1.00  0.00    -0.294 OA
ENDROOT
BRANCH   2  12
ATOM     12  C   UNL     1      35.660   3.614 -22.560  1.00  0.00    -0.007 A 
ATOM     13  C   UNL     1      36.107   2.298 -22.769  1.00  0.00     0.011 A 
ATOM     14  C   UNL     1      36.594   4.663 -22.558  1.00  0.00     0.011 A 
ATOM     15  C   UNL     1      37.468   2.034 -22.949  1.00  0.00     0.046 A 
ATOM     16  C   UNL     1      37.956   4.396 -22.738  1.00  0.00     0.046 A 
ATOM     17  C   UNL     1      38.396   3.083 -22.933  1.00  0.00     0.115 A 
BRANCH  17  18
ATOM     18  O   UNL     1      39.755   2.833 -23.110  1.00  0.00    -0.508 OA
ATOM     19  H   UNL     1      40.180   1.971 -22.790  1.00  0.00     0.293 HD
ENDBRANCH  17  18
ENDBRANCH   2  12
BRANCH   8  20
ATOM     20  O   UNL     1      29.790   4.954 -19.732  1.00  0.00    -0.507 OA
ATOM     21  H   UNL     1      29.835   3.960 -19.561  1.00  0.00     0.293 HD
ENDBRANCH   8  20
BRANCH   6  22
ATOM     22  O   UNL     1      31.146   9.164 -21.634  1.00  0.00    -0.508 OA
ATOM     23  H   UNL     1      31.660   9.695 -22.328  1.00  0.00     0.293 HD
ENDBRANCH   6  22
TORSDOF 4
ENDMDL
MODEL 7
REMARK VINA RESULT:    -5.675     12.744     14.228
REMARK INTER + INTRA:          -6.791
REMARK INTER:                  -6.476
REMARK INTRA:                  -0.315
REMARK UNBOUND:                -0.286
REMARK SMILES O=C1C[C@H](c2ccc(O)cc2)Oc2cc(O)cc(O)c21
REMARK SMILES IDX 3 1 4 2 12 3 13 4 14 5 15 6 17 7 18 8 20 9 2 10 1 11 5 12
REMARK SMILES IDX 6 13 11 14 7 15 10 16 8 17 9 18 19 20 16 22
REMARK H PARENT 9 19 19 21 16 23
REMARK Flexibility Score: inf
ROOT
ATOM      1  C   UNL     1      34.958   5.304 -22.551  1.00  0.00     0.131 C 
ATOM      2  C   UNL     1      34.437   4.114 -21.734  1.00  0.00     0.211 C 
ATOM      3  O   UNL     1      33.008   4.139 -21.662  1.00  0.00    -0.484 OA
ATOM      4  C   UNL     1      32.280   5.327 -21.507  1.00  0.00     0.138 A 
ATOM      5  C   UNL     1      30.926   5.252 -21.170  1.00  0.00     0.093 A 
ATOM      6  C   UNL     1      30.179   6.416 -20.993  1.00  0.00     0.123 A 
ATOM      7  C   UNL     1      30.779   7.665 -21.185  1.00  0.00     0.093 A 
ATOM      8  C   UNL     1      32.124   7.762 -21.563  1.00  0.00     0.133 A 
ATOM      9  C   UNL     1      32.900   6.581 -21.696  1.00  0.00     0.102 A 
ATOM     10  C   UNL     1      34.348   6.568 -22.023  1.00  0.00     0.174 C 
ATOM     11  O   UNL     1      35.083   7.570 -21.817  1.00  0.00    -0.294 OA
ENDROOT
BRANCH   2  12
ATOM     12  C   UNL     1      34.902   2.810 -22.334  1.00  0.00    -0.007 A 
ATOM     13  C   UNL     1      36.202   2.686 -22.855  1.00  0.00     0.011 A 
ATOM     14  C   UNL     1      34.057   1.688 -22.327  1.00  0.00     0.011 A 
ATOM     15  C   UNL     1      36.639   1.467 -23.381  1.00  0.00     0.046 A 
ATOM     16  C   UNL     1      34.497   0.469 -22.855  1.00  0.00     0.046 A 
ATOM     17  C   UNL     1      35.786   0.356 -23.384  1.00  0.00     0.115 A 
BRANCH  17  18
ATOM     18  O   UNL     1      36.210  -0.864 -23.908  1.00  0.00    -0.508 OA
ATOM     19  H   UNL     1      36.406  -1.657 -23.309  1.00  0.00     0.293 HD
ENDBRANCH  17  18
ENDBRANCH   2  12
BRANCH   8  20
ATOM     20  O   UNL     1      32.627   9.039 -21.826  1.00  0.00    -0.507 OA
ATOM     21  H   UNL     1      32.085   9.887 -21.745  1.00  0.00     0.293 HD
ENDBRANCH   8  20
BRANCH   6  22
ATOM     22  O   UNL     1      28.835   6.321 -20.635  1.00  0.00    -0.508 OA
ATOM     23  H   UNL     1      28.518   5.653 -19.941  1.00  0.00     0.293 HD
ENDBRANCH   6  22
TORSDOF 4
ENDMDL
MODEL 8
REMARK VINA RESULT:    -5.672     10.351     12.939
REMARK INTER + INTRA:          -6.787
REMARK INTER:                  -6.483
REMARK INTRA:                  -0.303
REMARK UNBOUND:                -0.286
REMARK SMILES O=C1C[C@H](c2ccc(O)cc2)Oc2cc(O)cc(O)c21
REMARK SMILES IDX 3 1 4 2 12 3 13 4 14 5 15 6 17 7 18 8 20 9 2 10 1 11 5 12
REMARK SMILES IDX 6 13 11 14 7 15 10 16 8 17 9 18 19 20 16 22
REMARK H PARENT 9 19 19 21 16 23
REMARK Flexibility Score: inf
ROOT
ATOM      1  C   UNL     1      25.777  -4.021 -33.421  1.00  0.00     0.131 C 
ATOM      2  C   UNL     1      26.430  -3.700 -32.070  1.00  0.00     0.211 C 
ATOM      3  O   UNL     1      26.318  -2.305 -31.776  1.00  0.00    -0.484 OA
ATOM      4  C   UNL     1      26.466  -1.312 -32.754  1.00  0.00     0.138 A 
ATOM      5  C   UNL     1      26.620   0.017 -32.352  1.00  0.00     0.093 A 
ATOM      6  C   UNL     1      26.786   1.026 -33.301  1.00  0.00     0.123 A 
ATOM      7  C   UNL     1      26.766   0.709 -34.663  1.00  0.00     0.093 A 
ATOM      8  C   UNL     1      26.573  -0.611 -35.090  1.00  0.00     0.133 A 
ATOM      9  C   UNL     1      26.453  -1.646 -34.125  1.00  0.00     0.102 A 
ATOM     10  C   UNL     1      26.315  -3.085 -34.462  1.00  0.00     0.174 C 
ATOM     11  O   UNL     1      26.689  -3.545 -35.573  1.00  0.00    -0.294 OA
ENDROOT
BRANCH   2  12
ATOM     12  C   UNL     1      25.799  -4.514 -30.966  1.00  0.00    -0.007 A 
ATOM     13  C   UNL     1      26.329  -5.766 -30.608  1.00  0.00     0.011 A 
ATOM     14  C   UNL     1      24.706  -4.002 -30.247  1.00  0.00     0.011 A 
ATOM     15  C   UNL     1      25.761  -6.502 -29.564  1.00  0.00     0.046 A 
ATOM     16  C   UNL     1      24.139  -4.741 -29.203  1.00  0.00     0.046 A 
ATOM     17  C   UNL     1      24.663  -5.991 -28.861  1.00  0.00     0.115 A 
BRANCH  17  18
ATOM     18  O   UNL     1      24.087  -6.716 -27.820  1.00  0.00    -0.508 OA
ATOM     19  H   UNL     1      23.897  -6.291 -26.920  1.00  0.00     0.293 HD
ENDBRANCH  17  18
ENDBRANCH   2  12
BRANCH   8  20
ATOM     20  O   UNL     1      26.473  -0.833 -36.465  1.00  0.00    -0.507 OA
ATOM     21  H   UNL     1      25.937  -1.582 -36.878  1.00  0.00     0.293 HD
ENDBRANCH   8  20
BRANCH   6  22
ATOM     22  O   UNL     1      26.960   2.343 -32.880  1.00  0.00    -0.508 OA
ATOM     23  H   UNL     1      26.803   3.124 -33.506  1.00  0.00     0.293 HD
ENDBRANCH   6  22
TORSDOF 4
ENDMDL
MODEL 9
REMARK VINA RESULT:    -5.599     14.120     14.936
REMARK INTER + INTRA:          -6.704
REMARK INTER:                  -6.386
REMARK INTRA:                  -0.317
REMARK UNBOUND:                -0.286
REMARK SMILES O=C1C[C@H](c2ccc(O)cc2)Oc2cc(O)cc(O)c21
REMARK SMILES IDX 3 1 4 2 12 3 13 4 14 5 15 6 17 7 18 8 20 9 2 10 1 11 5 12
REMARK SMILES IDX 6 13 11 14 7 15 10 16 8 17 9 18 19 20 16 22
REMARK H PARENT 9 19 19 21 16 23
REMARK Flexibility Score: inf
ROOT
ATOM      1  C   UNL     1      36.977   5.710 -22.071  1.00  0.00     0.131 C 
ATOM      2  C   UNL     1      35.582   5.488 -22.670  1.00  0.00     0.211 C 
ATOM      3  O   UNL     1      35.237   4.100 -22.644  1.00  0.00    -0.484 OA
ATOM      4  C   UNL     1      36.165   3.085 -22.916  1.00  0.00     0.138 A 
ATOM      5  C   UNL     1      35.701   1.787 -23.143  1.00  0.00     0.093 A 
ATOM      6  C   UNL     1      36.599   0.759 -23.432  1.00  0.00     0.123 A 
ATOM      7  C   UNL     1      37.972   1.023 -23.464  1.00  0.00     0.093 A 
ATOM      8  C   UNL     1      38.461   2.308 -23.200  1.00  0.00     0.133 A 
ATOM      9  C   UNL     1      37.548   3.367 -22.954  1.00  0.00     0.102 A 
ATOM     10  C   UNL     1      37.949   4.778 -22.731  1.00  0.00     0.174 C 
ATOM     11  O   UNL     1      39.058   5.223 -23.130  1.00  0.00    -0.294 OA
ENDROOT
BRANCH   2  12
ATOM     12  C   UNL     1      34.546   6.293 -21.924  1.00  0.00    -0.007 A 
ATOM     13  C   UNL     1      33.228   5.822 -21.799  1.00  0.00     0.011 A 
ATOM     14  C   UNL     1      34.905   7.498 -21.297  1.00  0.00     0.011 A 
ATOM     15  C   UNL     1      32.280   6.556 -21.080  1.00  0.00     0.046 A 
ATOM     16  C   UNL     1      33.954   8.231 -20.579  1.00  0.00     0.046 A 
ATOM     17  C   UNL     1      32.641   7.763 -20.469  1.00  0.00     0.115 A 
BRANCH  17  18
ATOM     18  O   UNL     1      31.704   8.504 -19.752  1.00  0.00    -0.508 OA
ATOM     19  H   UNL     1      31.972   9.057 -18.946  1.00  0.00     0.293 HD
ENDBRANCH  17  18
ENDBRANCH   2  12
BRANCH   8  20
ATOM     20  O   UNL     1      39.848   2.472 -23.159  1.00  0.00    -0.507 OA
ATOM     21  H   UNL     1      40.316   3.357 -23.280  1.00  0.00     0.293 HD
ENDBRANCH   8  20
BRANCH   6  22
ATOM     22  O   UNL     1      36.116  -0.525 -23.677  1.00  0.00    -0.508 OA
ATOM     23  H   UNL     1      36.505  -1.336 -23.209  1.00  0.00     0.293 HD
ENDBRANCH   6  22
TORSDOF 4
ENDMDL
