MODEL 1
REMARK VINA RESULT:    -4.899      0.000      0.000
REMARK INTER + INTRA:          -6.142
REMARK INTER:                  -5.901
REMARK INTRA:                  -0.240
REMARK UNBOUND:                -0.240
REMARK SMILES C=CCc1ccc(O)c(OC)c1
REMARK SMILES IDX 9 1 7 2 6 3 5 4 4 5 12 6 10 7 11 8 8 9 3 11 2 12 1 13
REMARK H PARENT 8 10
REMARK Flexibility Score: inf
ROOT
ATOM      1  C   UNL     1     128.473 137.389 126.669  1.00  0.00     0.160 A 
ATOM      2  C   UNL     1     128.860 136.128 127.159  1.00  0.00     0.157 A 
ATOM      3  C   UNL     1     128.515 134.968 126.459  1.00  0.00     0.050 A 
ATOM      4  C   UNL     1     127.788 135.049 125.271  1.00  0.00     0.008 A 
ATOM      5  C   UNL     1     127.403 136.297 124.761  1.00  0.00    -0.040 A 
ATOM      6  C   UNL     1     127.740 137.464 125.466  1.00  0.00     0.054 A 
ENDROOT
BRANCH   1   7
ATOM      7  O   UNL     1     128.826 138.537 127.395  1.00  0.00    -0.493 OA
ATOM      8  C   UNL     1     127.992 139.176 128.355  1.00  0.00     0.278 C 
ENDBRANCH   1   7
BRANCH   2   9
ATOM      9  O   UNL     1     129.587 136.008 128.344  1.00  0.00    -0.504 OA
ATOM     10  H   UNL     1     129.804 135.108 128.754  1.00  0.00     0.293 HD
ENDBRANCH   2   9
BRANCH   5  11
ATOM     11  C   UNL     1     126.594 136.379 123.493  1.00  0.00     0.062 C 
BRANCH  11  12
ATOM     12  C   UNL     1     127.347 137.126 122.429  1.00  0.00    -0.030 C 
ATOM     13  C   UNL     1     128.563 136.742 122.028  1.00  0.00     0.004 C 
ENDBRANCH  11  12
ENDBRANCH   5  11
TORSDOF 4
ENDMDL
MODEL 2
REMARK VINA RESULT:    -4.852     13.451     15.154
REMARK INTER + INTRA:          -6.085
REMARK INTER:                  -5.883
REMARK INTRA:                  -0.203
REMARK UNBOUND:                -0.240
REMARK SMILES C=CCc1ccc(O)c(OC)c1
REMARK SMILES IDX 9 1 7 2 6 3 5 4 4 5 12 6 10 7 11 8 8 9 3 11 2 12 1 13
REMARK H PARENT 8 10
REMARK Flexibility Score: inf
ROOT
ATOM      1  C   UNL     1     130.740 121.559 126.571  1.00  0.00     0.160 A 
ATOM      2  C   UNL     1     130.341 122.812 127.070  1.00  0.00     0.157 A 
ATOM      3  C   UNL     1     130.678 123.981 126.380  1.00  0.00     0.050 A 
ATOM      4  C   UNL     1     131.409 123.916 125.193  1.00  0.00     0.008 A 
ATOM      5  C   UNL     1     131.806 122.675 124.675  1.00  0.00    -0.040 A 
ATOM      6  C   UNL     1     131.477 121.499 125.370  1.00  0.00     0.054 A 
ENDROOT
BRANCH   1   7
ATOM      7  O   UNL     1     130.394 120.402 127.286  1.00  0.00    -0.493 OA
ATOM      8  C   UNL     1     131.137 119.875 128.380  1.00  0.00     0.278 C 
ENDBRANCH   1   7
BRANCH   2   9
ATOM      9  O   UNL     1     129.609 122.917 128.253  1.00  0.00    -0.504 OA
ATOM     10  H   UNL     1     129.692 122.238 129.000  1.00  0.00     0.293 HD
ENDBRANCH   2   9
BRANCH   5  11
ATOM     11  C   UNL     1     132.620 122.610 123.409  1.00  0.00     0.062 C 
BRANCH  11  12
ATOM     12  C   UNL     1     131.907 121.806 122.359  1.00  0.00    -0.030 C 
ATOM     13  C   UNL     1     130.688 122.140 121.925  1.00  0.00     0.004 C 
ENDBRANCH  11  12
ENDBRANCH   5  11
TORSDOF 4
ENDMDL
MODEL 3
REMARK VINA RESULT:    -4.820     10.683     12.666
REMARK INTER + INTRA:          -6.046
REMARK INTER:                  -5.773
REMARK INTRA:                  -0.273
REMARK UNBOUND:                -0.240
REMARK SMILES C=CCc1ccc(O)c(OC)c1
REMARK SMILES IDX 9 1 7 2 6 3 5 4 4 5 12 6 10 7 11 8 8 9 3 11 2 12 1 13
REMARK H PARENT 8 10
REMARK Flexibility Score: inf
ROOT
ATOM      1  C   UNL     1     126.222 127.819 132.781  1.00  0.00     0.160 A 
ATOM      2  C   UNL     1     125.728 128.441 131.620  1.00  0.00     0.157 A 
ATOM      3  C   UNL     1     124.393 128.854 131.560  1.00  0.00     0.050 A 
ATOM      4  C   UNL     1     123.543 128.657 132.649  1.00  0.00     0.008 A 
ATOM      5  C   UNL     1     124.021 128.048 133.818  1.00  0.00    -0.040 A 
ATOM      6  C   UNL     1     125.359 127.624 133.878  1.00  0.00     0.054 A 
ENDROOT
BRANCH   1   7
ATOM      7  O   UNL     1     127.564 127.409 132.811  1.00  0.00    -0.493 OA
ATOM      8  C   UNL     1     128.628 128.161 133.385  1.00  0.00     0.278 C 
ENDBRANCH   1   7
BRANCH   2   9
ATOM      9  O   UNL     1     126.548 128.655 130.511  1.00  0.00    -0.504 OA
ATOM     10  H   UNL     1     127.235 129.399 130.485  1.00  0.00     0.293 HD
ENDBRANCH   2   9
BRANCH   5  11
ATOM     11  C   UNL     1     123.093 127.810 134.980  1.00  0.00     0.062 C 
BRANCH  11  12
ATOM     12  C   UNL     1     121.705 127.495 134.496  1.00  0.00    -0.030 C 
ATOM     13  C   UNL     1     121.270 126.236 134.382  1.00  0.00     0.004 C 
ENDBRANCH  11  12
ENDBRANCH   5  11
TORSDOF 4
ENDMDL
MODEL 4
REMARK VINA RESULT:    -4.692      2.982      5.230
REMARK INTER + INTRA:          -5.893
REMARK INTER:                  -5.631
REMARK INTRA:                  -0.262
REMARK UNBOUND:                -0.240
REMARK SMILES C=CCc1ccc(O)c(OC)c1
REMARK SMILES IDX 9 1 7 2 6 3 5 4 4 5 12 6 10 7 11 8 8 9 3 11 2 12 1 13
REMARK H PARENT 8 10
REMARK Flexibility Score: inf
ROOT
ATOM      1  C   UNL     1     127.646 135.364 123.441  1.00  0.00     0.160 A 
ATOM      2  C   UNL     1     126.900 136.552 123.336  1.00  0.00     0.157 A 
ATOM      3  C   UNL     1     127.147 137.614 124.212  1.00  0.00     0.050 A 
ATOM      4  C   UNL     1     128.134 137.506 125.193  1.00  0.00     0.008 A 
ATOM      5  C   UNL     1     128.895 136.333 125.305  1.00  0.00    -0.040 A 
ATOM      6  C   UNL     1     128.643 135.262 124.433  1.00  0.00     0.054 A 
ENDROOT
BRANCH   1   7
ATOM      7  O   UNL     1     127.372 134.312 122.553  1.00  0.00    -0.493 OA
ATOM      8  C   UNL     1     128.099 134.054 121.356  1.00  0.00     0.278 C 
ENDBRANCH   1   7
BRANCH   2   9
ATOM      9  O   UNL     1     125.906 136.697 122.369  1.00  0.00    -0.504 OA
ATOM     10  H   UNL     1     125.846 137.515 121.774  1.00  0.00     0.293 HD
ENDBRANCH   2   9
BRANCH   5  11
ATOM     11  C   UNL     1     129.938 136.210 126.384  1.00  0.00     0.062 C 
BRANCH  11  12
ATOM     12  C   UNL     1     129.495 135.241 127.444  1.00  0.00    -0.030 C 
ATOM     13  C   UNL     1     128.865 135.649 128.550  1.00  0.00     0.004 C 
ENDBRANCH  11  12
ENDBRANCH   5  11
TORSDOF 4
ENDMDL
MODEL 5
REMARK VINA RESULT:    -4.664     12.760     14.551
REMARK INTER + INTRA:          -5.859
REMARK INTER:                  -5.621
REMARK INTRA:                  -0.238
REMARK UNBOUND:                -0.240
REMARK SMILES C=CCc1ccc(O)c(OC)c1
REMARK SMILES IDX 9 1 7 2 6 3 5 4 4 5 12 6 10 7 11 8 8 9 3 11 2 12 1 13
REMARK H PARENT 8 10
REMARK Flexibility Score: inf
ROOT
ATOM      1  C   UNL     1     131.296 123.596 123.380  1.00  0.00     0.160 A 
ATOM      2  C   UNL     1     132.156 122.504 123.161  1.00  0.00     0.157 A 
ATOM      3  C   UNL     1     132.080 121.376 123.985  1.00  0.00     0.050 A 
ATOM      4  C   UNL     1     131.152 121.323 125.026  1.00  0.00     0.008 A 
ATOM      5  C   UNL     1     130.280 122.397 125.252  1.00  0.00    -0.040 A 
ATOM      6  C   UNL     1     130.359 123.535 124.432  1.00  0.00     0.054 A 
ENDROOT
BRANCH   1   7
ATOM      7  O   UNL     1     131.398 124.718 122.542  1.00  0.00    -0.493 OA
ATOM      8  C   UNL     1     131.961 125.967 122.929  1.00  0.00     0.278 C 
ENDBRANCH   1   7
BRANCH   2   9
ATOM      9  O   UNL     1     133.096 122.522 122.131  1.00  0.00    -0.504 OA
ATOM     10  H   UNL     1     133.936 123.084 122.177  1.00  0.00     0.293 HD
ENDBRANCH   2   9
BRANCH   5  11
ATOM     11  C   UNL     1     129.300 122.347 126.395  1.00  0.00     0.062 C 
BRANCH  11  12
ATOM     12  C   UNL     1     129.385 123.599 127.223  1.00  0.00    -0.030 C 
ATOM     13  C   UNL     1     129.928 123.598 128.444  1.00  0.00     0.004 C 
ENDBRANCH  11  12
ENDBRANCH   5  11
TORSDOF 4
ENDMDL
MODEL 6
REMARK VINA RESULT:    -4.640     12.554     14.111
REMARK INTER + INTRA:          -5.830
REMARK INTER:                  -5.550
REMARK INTRA:                  -0.280
REMARK UNBOUND:                -0.240
REMARK SMILES C=CCc1ccc(O)c(OC)c1
REMARK SMILES IDX 9 1 7 2 6 3 5 4 4 5 12 6 10 7 11 8 8 9 3 11 2 12 1 13
REMARK H PARENT 8 10
REMARK Flexibility Score: inf
ROOT
ATOM      1  C   UNL     1     130.352 123.991 126.984  1.00  0.00     0.160 A 
ATOM      2  C   UNL     1     130.288 122.867 127.827  1.00  0.00     0.157 A 
ATOM      3  C   UNL     1     130.406 121.580 127.291  1.00  0.00     0.050 A 
ATOM      4  C   UNL     1     130.591 121.401 125.920  1.00  0.00     0.008 A 
ATOM      5  C   UNL     1     130.669 122.510 125.065  1.00  0.00    -0.040 A 
ATOM      6  C   UNL     1     130.541 123.802 125.599  1.00  0.00     0.054 A 
ENDROOT
BRANCH   1   7
ATOM      7  O   UNL     1     130.224 125.270 127.548  1.00  0.00    -0.493 OA
ATOM      8  C   UNL     1     128.999 125.987 127.655  1.00  0.00     0.278 C 
ENDBRANCH   1   7
BRANCH   2   9
ATOM      9  O   UNL     1     130.104 123.007 129.203  1.00  0.00    -0.504 OA
ATOM     10  H   UNL     1     130.486 123.789 129.721  1.00  0.00     0.293 HD
ENDBRANCH   2   9
BRANCH   5  11
ATOM     11  C   UNL     1     130.839 122.310 123.582  1.00  0.00     0.062 C 
BRANCH  11  12
ATOM     12  C   UNL     1     132.015 121.420 123.297  1.00  0.00    -0.030 C 
ATOM     13  C   UNL     1     133.273 121.855 123.422  1.00  0.00     0.004 C 
ENDBRANCH  11  12
ENDBRANCH   5  11
TORSDOF 4
ENDMDL
MODEL 7
REMARK VINA RESULT:    -4.621      1.174      2.780
REMARK INTER + INTRA:          -5.807
REMARK INTER:                  -5.531
REMARK INTRA:                  -0.276
REMARK UNBOUND:                -0.240
REMARK SMILES C=CCc1ccc(O)c(OC)c1
REMARK SMILES IDX 9 1 7 2 6 3 5 4 4 5 12 6 10 7 11 8 8 9 3 11 2 12 1 13
REMARK H PARENT 8 10
REMARK Flexibility Score: inf
ROOT
ATOM      1  C   UNL     1     128.280 135.136 126.546  1.00  0.00     0.160 A 
ATOM      2  C   UNL     1     128.891 136.167 127.284  1.00  0.00     0.157 A 
ATOM      3  C   UNL     1     128.760 137.497 126.871  1.00  0.00     0.050 A 
ATOM      4  C   UNL     1     128.023 137.813 125.729  1.00  0.00     0.008 A 
ATOM      5  C   UNL     1     127.399 136.800 124.987  1.00  0.00    -0.040 A 
ATOM      6  C   UNL     1     127.536 135.463 125.394  1.00  0.00     0.054 A 
ENDROOT
BRANCH   1   7
ATOM      7  O   UNL     1     128.433 133.810 126.980  1.00  0.00    -0.493 OA
ATOM      8  C   UNL     1     129.403 132.900 126.473  1.00  0.00     0.278 C 
ENDBRANCH   1   7
BRANCH   2   9
ATOM      9  O   UNL     1     129.635 135.890 128.431  1.00  0.00    -0.504 OA
ATOM     10  H   UNL     1     130.232 136.582 128.867  1.00  0.00     0.293 HD
ENDBRANCH   2   9
BRANCH   5  11
ATOM     11  C   UNL     1     126.629 137.142 123.739  1.00  0.00     0.062 C 
BRANCH  11  12
ATOM     12  C   UNL     1     127.259 136.502 122.534  1.00  0.00    -0.030 C 
ATOM     13  C   UNL     1     128.448 136.898 122.068  1.00  0.00     0.004 C 
ENDBRANCH  11  12
ENDBRANCH   5  11
TORSDOF 4
ENDMDL
MODEL 8
REMARK VINA RESULT:    -4.591     11.797     13.617
REMARK INTER + INTRA:          -5.771
REMARK INTER:                  -5.522
REMARK INTRA:                  -0.249
REMARK UNBOUND:                -0.240
REMARK SMILES C=CCc1ccc(O)c(OC)c1
REMARK SMILES IDX 9 1 7 2 6 3 5 4 4 5 12 6 10 7 11 8 8 9 3 11 2 12 1 13
REMARK H PARENT 8 10
REMARK Flexibility Score: inf
ROOT
ATOM      1  C   UNL     1     130.152 122.566 126.608  1.00  0.00     0.160 A 
ATOM      2  C   UNL     1     130.272 122.693 128.004  1.00  0.00     0.157 A 
ATOM      3  C   UNL     1     129.768 123.827 128.651  1.00  0.00     0.050 A 
ATOM      4  C   UNL     1     129.143 124.838 127.920  1.00  0.00     0.008 A 
ATOM      5  C   UNL     1     129.005 124.724 126.529  1.00  0.00    -0.040 A 
ATOM      6  C   UNL     1     129.517 123.591 125.875  1.00  0.00     0.054 A 
ENDROOT
BRANCH   1   7
ATOM      7  O   UNL     1     130.672 121.421 125.984  1.00  0.00    -0.493 OA
ATOM      8  C   UNL     1     131.398 121.426 124.760  1.00  0.00     0.278 C 
ENDBRANCH   1   7
BRANCH   2   9
ATOM      9  O   UNL     1     130.891 121.703 128.768  1.00  0.00    -0.504 OA
ATOM     10  H   UNL     1     131.643 121.132 128.402  1.00  0.00     0.293 HD
ENDBRANCH   2   9
BRANCH   5  11
ATOM     11  C   UNL     1     128.355 125.830 125.740  1.00  0.00     0.062 C 
BRANCH  11  12
ATOM     12  C   UNL     1     127.027 126.200 126.338  1.00  0.00    -0.030 C 
ATOM     13  C   UNL     1     125.875 125.781 125.804  1.00  0.00     0.004 C 
ENDBRANCH  11  12
ENDBRANCH   5  11
TORSDOF 4
ENDMDL
MODEL 9
REMARK VINA RESULT:    -4.473     12.699     14.568
REMARK INTER + INTRA:          -5.629
REMARK INTER:                  -5.403
REMARK INTRA:                  -0.226
REMARK UNBOUND:                -0.240
REMARK SMILES C=CCc1ccc(O)c(OC)c1
REMARK SMILES IDX 9 1 7 2 6 3 5 4 4 5 12 6 10 7 11 8 8 9 3 11 2 12 1 13
REMARK H PARENT 8 10
REMARK Flexibility Score: inf
ROOT
ATOM      1  C   UNL     1     130.727 121.560 126.299  1.00  0.00     0.160 A 
ATOM      2  C   UNL     1     131.124 121.884 124.989  1.00  0.00     0.157 A 
ATOM      3  C   UNL     1     130.784 123.125 124.440  1.00  0.00     0.050 A 
ATOM      4  C   UNL     1     130.052 124.051 125.185  1.00  0.00     0.008 A 
ATOM      5  C   UNL     1     129.657 123.749 126.497  1.00  0.00    -0.040 A 
ATOM      6  C   UNL     1     129.989 122.501 127.047  1.00  0.00     0.054 A 
ENDROOT
BRANCH   1   7
ATOM      7  O   UNL     1     131.076 120.305 126.822  1.00  0.00    -0.493 OA
ATOM      8  C   UNL     1     131.080 119.980 128.208  1.00  0.00     0.278 C 
ENDBRANCH   1   7
BRANCH   2   9
ATOM      9  O   UNL     1     131.856 120.985 124.214  1.00  0.00    -0.504 OA
ATOM     10  H   UNL     1     131.672 120.848 123.228  1.00  0.00     0.293 HD
ENDBRANCH   2   9
BRANCH   5  11
ATOM     11  C   UNL     1     128.842 124.739 127.287  1.00  0.00     0.062 C 
BRANCH  11  12
ATOM     12  C   UNL     1     128.201 125.747 126.376  1.00  0.00    -0.030 C 
ATOM     13  C   UNL     1     126.902 125.686 126.063  1.00  0.00     0.004 C 
ENDBRANCH  11  12
ENDBRANCH   5  11
TORSDOF 4
ENDMDL
