MODEL 1
REMARK VINA RESULT:    -5.109      0.000      0.000
REMARK INTER + INTRA:          -5.109
REMARK INTER:                  -5.109
REMARK INTRA:                   0.000
REMARK UNBOUND:                 0.000
REMARK SMILES CC1(C)[C@@H]2CC[C@@]1(C)C(=O)C2
REMARK SMILES IDX 1 1 2 2 4 3 5 4 6 5 7 6 9 7 10 8 11 9 8 10 3 11
REMARK H PARENT
REMARK Flexibility Score: inf
ROOT
ATOM      1  C   UNL     1      -1.027  11.107 -19.105  1.00  0.00     0.012 C 
ATOM      2  C   UNL     1      -1.264  10.995 -17.567  1.00  0.00    -0.020 C 
ATOM      3  C   UNL     1      -1.849  12.281 -16.935  1.00  0.00     0.003 C 
ATOM      4  C   UNL     1      -2.138  11.843 -15.472  1.00  0.00     0.005 C 
ATOM      5  C   UNL     1      -2.591  10.370 -15.634  1.00  0.00     0.015 C 
ATOM      6  C   UNL     1      -2.492  10.152 -17.164  1.00  0.00     0.032 C 
ATOM      7  C   UNL     1      -3.607  10.987 -17.744  1.00  0.00     0.139 C 
ATOM      8  O   UNL     1      -4.676  10.568 -18.161  1.00  0.00    -0.299 OA
ATOM      9  C   UNL     1      -3.231  12.431 -17.629  1.00  0.00     0.080 C 
ATOM     10  C   UNL     1      -2.487   8.683 -17.604  1.00  0.00     0.020 C 
ATOM     11  C   UNL     1       0.092  10.547 -16.942  1.00  0.00     0.012 C 
ENDROOT
TORSDOF 0
ENDMDL
MODEL 2
REMARK VINA RESULT:    -5.036      1.914      3.173
REMARK INTER + INTRA:          -5.036
REMARK INTER:                  -5.036
REMARK INTRA:                   0.000
REMARK UNBOUND:                 0.000
REMARK SMILES CC1(C)[C@@H]2CC[C@@]1(C)C(=O)C2
REMARK SMILES IDX 1 1 2 2 4 3 5 4 6 5 7 6 9 7 10 8 11 9 8 10 3 11
REMARK H PARENT
REMARK Flexibility Score: inf
ROOT
ATOM      1  C   UNL     1      -2.875   9.342 -15.894  1.00  0.00     0.012 C 
ATOM      2  C   UNL     1      -2.845  10.420 -17.022  1.00  0.00    -0.020 C 
ATOM      3  C   UNL     1      -2.699  11.867 -16.493  1.00  0.00     0.003 C 
ATOM      4  C   UNL     1      -2.527  12.692 -17.798  1.00  0.00     0.005 C 
ATOM      5  C   UNL     1      -1.702  11.744 -18.703  1.00  0.00     0.015 C 
ATOM      6  C   UNL     1      -1.519  10.495 -17.807  1.00  0.00     0.032 C 
ATOM      7  C   UNL     1      -0.575  10.941 -16.717  1.00  0.00     0.139 C 
ATOM      8  O   UNL     1       0.614  10.670 -16.642  1.00  0.00    -0.299 OA
ATOM      9  C   UNL     1      -1.312  11.859 -15.793  1.00  0.00     0.080 C 
ATOM     10  C   UNL     1      -1.092   9.226 -18.553  1.00  0.00     0.020 C 
ATOM     11  C   UNL     1      -4.123  10.191 -17.885  1.00  0.00     0.012 C 
ENDROOT
TORSDOF 0
ENDMDL
MODEL 3
REMARK VINA RESULT:    -5.032      1.526      2.944
REMARK INTER + INTRA:          -5.032
REMARK INTER:                  -5.032
REMARK INTRA:                   0.000
REMARK UNBOUND:                 0.000
REMARK SMILES CC1(C)[C@@H]2CC[C@@]1(C)C(=O)C2
REMARK SMILES IDX 1 1 2 2 4 3 5 4 6 5 7 6 9 7 10 8 11 9 8 10 3 11
REMARK H PARENT
REMARK Flexibility Score: inf
ROOT
ATOM      1  C   UNL     1      -1.694  12.543 -16.371  1.00  0.00     0.012 C 
ATOM      2  C   UNL     1      -2.393  11.425 -17.206  1.00  0.00    -0.020 C 
ATOM      3  C   UNL     1      -2.359  10.034 -16.530  1.00  0.00     0.003 C 
ATOM      4  C   UNL     1      -3.251   9.175 -17.469  1.00  0.00     0.005 C 
ATOM      5  C   UNL     1      -4.346  10.174 -17.918  1.00  0.00     0.015 C 
ATOM      6  C   UNL     1      -3.935  11.477 -17.189  1.00  0.00     0.032 C 
ATOM      7  C   UNL     1      -4.207  11.203 -15.730  1.00  0.00     0.139 C 
ATOM      8  O   UNL     1      -5.157  11.621 -15.086  1.00  0.00    -0.299 OA
ATOM      9  C   UNL     1      -3.174  10.245 -15.224  1.00  0.00     0.080 C 
ATOM     10  C   UNL     1      -4.583  12.753 -17.739  1.00  0.00     0.020 C 
ATOM     11  C   UNL     1      -1.736  11.454 -18.620  1.00  0.00     0.012 C 
ENDROOT
TORSDOF 0
ENDMDL
MODEL 4
REMARK VINA RESULT:    -5.020      1.087      2.854
REMARK INTER + INTRA:          -5.020
REMARK INTER:                  -5.020
REMARK INTRA:                   0.000
REMARK UNBOUND:                 0.000
REMARK SMILES CC1(C)[C@@H]2CC[C@@]1(C)C(=O)C2
REMARK SMILES IDX 1 1 2 2 4 3 5 4 6 5 7 6 9 7 10 8 11 9 8 10 3 11
REMARK H PARENT
REMARK Flexibility Score: inf
ROOT
ATOM      1  C   UNL     1      -3.127  10.997 -15.064  1.00  0.00     0.012 C 
ATOM      2  C   UNL     1      -2.198  10.980 -16.318  1.00  0.00    -0.020 C 
ATOM      3  C   UNL     1      -1.898   9.558 -16.848  1.00  0.00     0.003 C 
ATOM      4  C   UNL     1      -1.118   9.840 -18.162  1.00  0.00     0.005 C 
ATOM      5  C   UNL     1      -1.807  11.115 -18.709  1.00  0.00     0.015 C 
ATOM      6  C   UNL     1      -2.883  11.405 -17.634  1.00  0.00     0.032 C 
ATOM      7  C   UNL     1      -3.894  10.296 -17.793  1.00  0.00     0.139 C 
ATOM      8  O   UNL     1      -4.986  10.392 -18.331  1.00  0.00    -0.299 OA
ATOM      9  C   UNL     1      -3.295   9.026 -17.273  1.00  0.00     0.080 C 
ATOM     10  C   UNL     1      -3.466  12.822 -17.675  1.00  0.00     0.020 C 
ATOM     11  C   UNL     1      -0.923  11.791 -15.933  1.00  0.00     0.012 C 
ENDROOT
TORSDOF 0
ENDMDL
MODEL 5
REMARK VINA RESULT:    -5.013      1.415      2.148
REMARK INTER + INTRA:          -5.013
REMARK INTER:                  -5.013
REMARK INTRA:                   0.000
REMARK UNBOUND:                 0.000
REMARK SMILES CC1(C)[C@@H]2CC[C@@]1(C)C(=O)C2
REMARK SMILES IDX 1 1 2 2 4 3 5 4 6 5 7 6 9 7 10 8 11 9 8 10 3 11
REMARK H PARENT
REMARK Flexibility Score: inf
ROOT
ATOM      1  C   UNL     1      -1.598   9.855 -18.210  1.00  0.00     0.012 C 
ATOM      2  C   UNL     1      -2.488  10.036 -16.941  1.00  0.00    -0.020 C 
ATOM      3  C   UNL     1      -1.859  10.959 -15.870  1.00  0.00     0.003 C 
ATOM      4  C   UNL     1      -2.999  11.097 -14.824  1.00  0.00     0.005 C 
ATOM      5  C   UNL     1      -4.276  11.110 -15.702  1.00  0.00     0.015 C 
ATOM      6  C   UNL     1      -3.704  10.966 -17.133  1.00  0.00     0.032 C 
ATOM      7  C   UNL     1      -3.011  12.279 -17.404  1.00  0.00     0.139 C 
ATOM      8  O   UNL     1      -3.438  13.186 -18.101  1.00  0.00    -0.299 OA
ATOM      9  C   UNL     1      -1.755  12.332 -16.590  1.00  0.00     0.080 C 
ATOM     10  C   UNL     1      -4.727  10.544 -18.194  1.00  0.00     0.020 C 
ATOM     11  C   UNL     1      -2.815   8.603 -16.422  1.00  0.00     0.012 C 
ENDROOT
TORSDOF 0
ENDMDL
MODEL 6
REMARK VINA RESULT:    -4.959      1.770      3.217
REMARK INTER + INTRA:          -4.959
REMARK INTER:                  -4.959
REMARK INTRA:                   0.000
REMARK UNBOUND:                 0.000
REMARK SMILES CC1(C)[C@@H]2CC[C@@]1(C)C(=O)C2
REMARK SMILES IDX 1 1 2 2 4 3 5 4 6 5 7 6 9 7 10 8 11 9 8 10 3 11
REMARK H PARENT
REMARK Flexibility Score: inf
ROOT
ATOM      1  C   UNL     1      -3.750  12.669 -17.711  1.00  0.00     0.012 C 
ATOM      2  C   UNL     1      -3.579  11.139 -17.458  1.00  0.00    -0.020 C 
ATOM      3  C   UNL     1      -2.192  10.593 -17.873  1.00  0.00     0.003 C 
ATOM      4  C   UNL     1      -2.236   9.126 -17.365  1.00  0.00     0.005 C 
ATOM      5  C   UNL     1      -3.045   9.237 -16.049  1.00  0.00     0.015 C 
ATOM      6  C   UNL     1      -3.370  10.749 -15.979  1.00  0.00     0.032 C 
ATOM      7  C   UNL     1      -2.045  11.415 -15.700  1.00  0.00     0.139 C 
ATOM      8  O   UNL     1      -1.676  11.857 -14.622  1.00  0.00    -0.299 OA
ATOM      9  C   UNL     1      -1.208  11.352 -16.940  1.00  0.00     0.080 C 
ATOM     10  C   UNL     1      -4.497  11.120 -15.008  1.00  0.00     0.020 C 
ATOM     11  C   UNL     1      -4.773  10.438 -18.174  1.00  0.00     0.012 C 
ENDROOT
TORSDOF 0
ENDMDL
MODEL 7
REMARK VINA RESULT:    -4.952      1.590      2.659
REMARK INTER + INTRA:          -4.952
REMARK INTER:                  -4.952
REMARK INTRA:                   0.000
REMARK UNBOUND:                 0.000
REMARK SMILES CC1(C)[C@@H]2CC[C@@]1(C)C(=O)C2
REMARK SMILES IDX 1 1 2 2 4 3 5 4 6 5 7 6 9 7 10 8 11 9 8 10 3 11
REMARK H PARENT
REMARK Flexibility Score: inf
ROOT
ATOM      1  C   UNL     1      -1.551  11.863 -15.347  1.00  0.00     0.012 C 
ATOM      2  C   UNL     1      -2.733  11.130 -16.053  1.00  0.00    -0.020 C 
ATOM      3  C   UNL     1      -3.664  12.076 -16.848  1.00  0.00     0.003 C 
ATOM      4  C   UNL     1      -4.623  11.088 -17.569  1.00  0.00     0.005 C 
ATOM      5  C   UNL     1      -3.700   9.889 -17.900  1.00  0.00     0.015 C 
ATOM      6  C   UNL     1      -2.338  10.338 -17.317  1.00  0.00     0.032 C 
ATOM      7  C   UNL     1      -1.886  11.460 -18.219  1.00  0.00     0.139 C 
ATOM      8  O   UNL     1      -1.031  11.383 -19.088  1.00  0.00    -0.299 OA
ATOM      9  C   UNL     1      -2.734  12.663 -17.945  1.00  0.00     0.080 C 
ATOM     10  C   UNL     1      -1.318   9.210 -17.127  1.00  0.00     0.020 C 
ATOM     11  C   UNL     1      -3.465  10.308 -14.948  1.00  0.00     0.012 C 
ENDROOT
TORSDOF 0
ENDMDL
MODEL 8
REMARK VINA RESULT:    -4.933      1.533      2.999
REMARK INTER + INTRA:          -4.933
REMARK INTER:                  -4.933
REMARK INTRA:                   0.000
REMARK UNBOUND:                 0.000
REMARK SMILES CC1(C)[C@@H]2CC[C@@]1(C)C(=O)C2
REMARK SMILES IDX 1 1 2 2 4 3 5 4 6 5 7 6 9 7 10 8 11 9 8 10 3 11
REMARK H PARENT
REMARK Flexibility Score: inf
ROOT
ATOM      1  C   UNL     1      -0.538   9.887 -17.068  1.00  0.00     0.012 C 
ATOM      2  C   UNL     1      -1.812  10.633 -17.575  1.00  0.00    -0.020 C 
ATOM      3  C   UNL     1      -3.096   9.770 -17.523  1.00  0.00     0.003 C 
ATOM      4  C   UNL     1      -4.207  10.787 -17.908  1.00  0.00     0.005 C 
ATOM      5  C   UNL     1      -3.716  12.102 -17.253  1.00  0.00     0.015 C 
ATOM      6  C   UNL     1      -2.384  11.674 -16.589  1.00  0.00     0.032 C 
ATOM      7  C   UNL     1      -2.796  10.779 -15.446  1.00  0.00     0.139 C 
ATOM      8  O   UNL     1      -2.817  11.088 -14.265  1.00  0.00    -0.299 OA
ATOM      9  C   UNL     1      -3.276   9.477 -16.008  1.00  0.00     0.080 C 
ATOM     10  C   UNL     1      -1.457  12.832 -16.203  1.00  0.00     0.020 C 
ATOM     11  C   UNL     1      -1.472  11.171 -18.997  1.00  0.00     0.012 C 
ENDROOT
TORSDOF 0
ENDMDL
MODEL 9
REMARK VINA RESULT:    -4.811      1.520      2.873
REMARK INTER + INTRA:          -4.811
REMARK INTER:                  -4.811
REMARK INTRA:                   0.000
REMARK UNBOUND:                 0.000
REMARK SMILES CC1(C)[C@@H]2CC[C@@]1(C)C(=O)C2
REMARK SMILES IDX 1 1 2 2 4 3 5 4 6 5 7 6 9 7 10 8 11 9 8 10 3 11
REMARK H PARENT
REMARK Flexibility Score: inf
ROOT
ATOM      1  C   UNL     1      -4.538  10.403 -18.027  1.00  0.00     0.012 C 
ATOM      2  C   UNL     1      -3.459  11.165 -17.195  1.00  0.00    -0.020 C 
ATOM      3  C   UNL     1      -3.490  10.828 -15.684  1.00  0.00     0.003 C 
ATOM      4  C   UNL     1      -2.238  11.571 -15.143  1.00  0.00     0.005 C 
ATOM      5  C   UNL     1      -1.219  11.424 -16.300  1.00  0.00     0.015 C 
ATOM      6  C   UNL     1      -2.021  10.629 -17.359  1.00  0.00     0.032 C 
ATOM      7  C   UNL     1      -2.169   9.248 -16.770  1.00  0.00     0.139 C 
ATOM      8  O   UNL     1      -1.534   8.257 -17.095  1.00  0.00    -0.299 OA
ATOM      9  C   UNL     1      -3.153   9.312 -15.643  1.00  0.00     0.080 C 
ATOM     10  C   UNL     1      -1.434  10.669 -18.774  1.00  0.00     0.020 C 
ATOM     11  C   UNL     1      -3.651  12.680 -17.506  1.00  0.00     0.012 C 
ENDROOT
TORSDOF 0
ENDMDL
