MODEL 1
REMARK VINA RESULT:    -5.906      0.000      0.000
REMARK INTER + INTRA:         -10.147
REMARK INTER:                  -8.668
REMARK INTRA:                  -1.479
REMARK UNBOUND:                -1.479
REMARK SMILES Cc1cc2c(C(C)C)c(O)c(O)c(C=O)c2c(O)c1-c1c(C)cc2c(C(C)C)c(O)c(O)c(C=O)c2c1O
REMARK SMILES IDX 1 1 2 2 3 3 4 4 16 5 13 6 11 7 9 8 5 9 17 10 19 11 20 12
REMARK SMILES IDX 37 13 21 14 36 15 23 16 22 17 24 18 33 19 25 20 31 21 29 22
REMARK SMILES IDX 38 23 34 25 35 26 26 27 27 28 28 29 32 30 30 32 18 34 6 36
REMARK SMILES IDX 7 37 8 38 14 39 15 40 10 41 12 43
REMARK H PARENT 38 24 32 31 30 33 18 35 10 42 12 44
REMARK Flexibility Score: inf
ROOT
ATOM      1  C   UNL     1     187.849 179.787 189.574  1.00  0.00     0.045 C 
ATOM      2  C   UNL     1     187.496 178.682 188.608  1.00  0.00    -0.039 A 
ATOM      3  C   UNL     1     188.309 178.455 187.495  1.00  0.00     0.013 A 
ATOM      4  C   UNL     1     188.018 177.441 186.557  1.00  0.00    -0.006 A 
ATOM      5  C   UNL     1     186.785 176.735 186.675  1.00  0.00     0.039 A 
ATOM      6  C   UNL     1     186.370 175.889 185.606  1.00  0.00     0.072 A 
ATOM      7  C   UNL     1     187.202 175.709 184.484  1.00  0.00     0.169 A 
ATOM      8  C   UNL     1     188.449 176.357 184.408  1.00  0.00     0.162 A 
ATOM      9  C   UNL     1     188.914 177.143 185.486  1.00  0.00     0.008 A 
ATOM     10  C   UNL     1     186.026 176.881 187.872  1.00  0.00     0.132 A 
ATOM     11  C   UNL     1     186.377 177.862 188.825  1.00  0.00     0.031 A 
ENDROOT
BRANCH  11  12
ATOM     12  C   UNL     1     185.558 178.040 190.052  1.00  0.00     0.031 A 
ATOM     13  C   UNL     1     185.853 177.300 191.215  1.00  0.00     0.132 A 
ATOM     14  C   UNL     1     184.498 178.959 190.056  1.00  0.00    -0.039 A 
ATOM     15  C   UNL     1     185.049 177.445 192.386  1.00  0.00     0.039 A 
ATOM     16  C   UNL     1     183.784 179.181 191.236  1.00  0.00     0.013 A 
ATOM     17  C   UNL     1     184.161 179.763 188.824  1.00  0.00     0.045 C 
ATOM     18  C   UNL     1     184.066 178.480 192.427  1.00  0.00    -0.006 A 
ATOM     19  C   UNL     1     185.214 176.603 193.522  1.00  0.00     0.072 A 
ATOM     20  C   UNL     1     183.400 178.792 193.657  1.00  0.00     0.008 A 
ATOM     21  C   UNL     1     184.502 176.865 194.703  1.00  0.00     0.169 A 
ATOM     22  C   UNL     1     183.651 177.982 194.791  1.00  0.00     0.162 A 
BRANCH  13  23
ATOM     23  O   UNL     1     186.969 176.457 191.226  1.00  0.00    -0.507 OA
ATOM     24  H   UNL     1     186.933 175.469 191.004  1.00  0.00     0.293 HD
ENDBRANCH  13  23
BRANCH  19  25
ATOM     25  C   UNL     1     186.012 175.353 193.463  1.00  0.00     0.264 C 
ATOM     26  O   UNL     1     187.119 175.262 194.058  1.00  0.00    -0.298 OA
ENDBRANCH  19  25
BRANCH  20  27
ATOM     27  C   UNL     1     182.427 179.978 193.826  1.00  0.00     0.017 C 
ATOM     28  C   UNL     1     181.097 179.741 193.096  1.00  0.00     0.012 C 
ATOM     29  C   UNL     1     183.049 181.358 193.526  1.00  0.00     0.012 C 
ENDBRANCH  20  27
BRANCH  21  30
ATOM     30  O   UNL     1     184.629 175.969 195.771  1.00  0.00    -0.504 OA
ATOM     31  H   UNL     1     183.900 175.775 196.444  1.00  0.00     0.293 HD
ENDBRANCH  21  30
BRANCH  22  32
ATOM     32  O   UNL     1     183.038 178.305 196.008  1.00  0.00    -0.504 OA
ATOM     33  H   UNL     1     182.465 179.124 196.159  1.00  0.00     0.293 HD
ENDBRANCH  22  32
ENDBRANCH  11  12
BRANCH  10  34
ATOM     34  O   UNL     1     184.949 176.026 188.133  1.00  0.00    -0.507 OA
ATOM     35  H   UNL     1     183.999 176.208 187.835  1.00  0.00     0.293 HD
ENDBRANCH  10  34
BRANCH   9  36
ATOM     36  C   UNL     1     190.361 177.668 185.483  1.00  0.00     0.017 C 
ATOM     37  C   UNL     1     190.536 178.799 184.464  1.00  0.00     0.012 C 
ATOM     38  C   UNL     1     191.417 176.564 185.282  1.00  0.00     0.012 C 
ENDBRANCH   9  36
BRANCH   6  39
ATOM     39  C   UNL     1     185.016 175.286 185.562  1.00  0.00     0.264 C 
ATOM     40  O   UNL     1     184.048 175.901 185.040  1.00  0.00    -0.298 OA
ENDBRANCH   6  39
BRANCH   8  41
ATOM     41  O   UNL     1     189.231 176.271 183.251  1.00  0.00    -0.504 OA
ATOM     42  H   UNL     1     189.003 175.714 182.441  1.00  0.00     0.293 HD
ENDBRANCH   8  41
BRANCH   7  43
ATOM     43  O   UNL     1     186.753 174.875 183.452  1.00  0.00    -0.504 OA
ATOM     44  H   UNL     1     185.789 174.780 183.168  1.00  0.00     0.293 HD
ENDBRANCH   7  43
TORSDOF 11
ENDMDL
MODEL 2
REMARK VINA RESULT:    -5.859      0.847      9.061
REMARK INTER + INTRA:         -10.078
REMARK INTER:                  -8.444
REMARK INTRA:                  -1.634
REMARK UNBOUND:                -1.479
REMARK SMILES Cc1cc2c(C(C)C)c(O)c(O)c(C=O)c2c(O)c1-c1c(C)cc2c(C(C)C)c(O)c(O)c(C=O)c2c1O
REMARK SMILES IDX 1 1 2 2 3 3 4 4 16 5 13 6 11 7 9 8 5 9 17 10 19 11 20 12
REMARK SMILES IDX 37 13 21 14 36 15 23 16 22 17 24 18 33 19 25 20 31 21 29 22
REMARK SMILES IDX 38 23 34 25 35 26 26 27 27 28 28 29 32 30 30 32 18 34 6 36
REMARK SMILES IDX 7 37 8 38 14 39 15 40 10 41 12 43
REMARK H PARENT 38 24 32 31 30 33 18 35 10 42 12 44
REMARK Flexibility Score: inf
ROOT
ATOM      1  C   UNL     1     184.473 180.409 188.747  1.00  0.00     0.045 C 
ATOM      2  C   UNL     1     184.669 179.543 189.967  1.00  0.00    -0.039 A 
ATOM      3  C   UNL     1     183.815 179.694 191.063  1.00  0.00     0.013 A 
ATOM      4  C   UNL     1     183.962 178.915 192.231  1.00  0.00    -0.006 A 
ATOM      5  C   UNL     1     185.099 178.064 192.346  1.00  0.00     0.039 A 
ATOM      6  C   UNL     1     185.388 177.465 193.606  1.00  0.00     0.072 A 
ATOM      7  C   UNL     1     184.521 177.664 194.698  1.00  0.00     0.169 A 
ATOM      8  C   UNL     1     183.362 178.453 194.556  1.00  0.00     0.162 A 
ATOM      9  C   UNL     1     183.018 178.998 193.299  1.00  0.00     0.008 A 
ATOM     10  C   UNL     1     185.891 177.821 191.186  1.00  0.00     0.132 A 
ATOM     11  C   UNL     1     185.680 178.571 190.008  1.00  0.00     0.031 A 
ENDROOT
BRANCH  11  12
ATOM     12  C   UNL     1     186.536 178.344 188.815  1.00  0.00     0.031 A 
ATOM     13  C   UNL     1     186.160 177.396 187.842  1.00  0.00     0.132 A 
ATOM     14  C   UNL     1     187.714 179.089 188.649  1.00  0.00    -0.039 A 
ATOM     15  C   UNL     1     186.995 177.152 186.710  1.00  0.00     0.039 A 
ATOM     16  C   UNL     1     188.470 178.929 187.486  1.00  0.00     0.013 A 
ATOM     17  C   UNL     1     188.139 180.110 189.676  1.00  0.00     0.045 C 
ATOM     18  C   UNL     1     188.113 178.010 186.477  1.00  0.00    -0.006 A 
ATOM     19  C   UNL     1     186.733 176.095 185.794  1.00  0.00     0.072 A 
ATOM     20  C   UNL     1     188.836 177.931 185.242  1.00  0.00     0.008 A 
ATOM     21  C   UNL     1     187.494 175.974 184.620  1.00  0.00     0.169 A 
ATOM     22  C   UNL     1     188.493 176.916 184.317  1.00  0.00     0.162 A 
BRANCH  13  23
ATOM     23  O   UNL     1     184.938 176.727 187.973  1.00  0.00    -0.507 OA
ATOM     24  H   UNL     1     184.119 176.933 187.414  1.00  0.00     0.293 HD
ENDBRANCH  13  23
BRANCH  19  25
ATOM     25  C   UNL     1     185.768 175.011 186.102  1.00  0.00     0.264 C 
ATOM     26  O   UNL     1     184.656 174.945 185.513  1.00  0.00    -0.298 OA
ENDBRANCH  19  25
BRANCH  20  27
ATOM     27  C   UNL     1     189.967 178.906 184.850  1.00  0.00     0.017 C 
ATOM     28  C   UNL     1     191.224 178.706 185.710  1.00  0.00     0.012 C 
ATOM     29  C   UNL     1     189.527 180.382 184.747  1.00  0.00     0.012 C 
ENDBRANCH  20  27
BRANCH  21  30
ATOM     30  O   UNL     1     187.261 174.875 183.784  1.00  0.00    -0.504 OA
ATOM     31  H   UNL     1     186.914 174.941 182.837  1.00  0.00     0.293 HD
ENDBRANCH  21  30
BRANCH  22  32
ATOM     32  O   UNL     1     189.165 176.859 183.089  1.00  0.00    -0.504 OA
ATOM     33  H   UNL     1     188.709 176.756 182.193  1.00  0.00     0.293 HD
ENDBRANCH  22  32
ENDBRANCH  11  12
BRANCH  10  34
ATOM     34  O   UNL     1     186.857 176.808 191.191  1.00  0.00    -0.507 OA
ATOM     35  H   UNL     1     186.849 176.023 191.829  1.00  0.00     0.293 HD
ENDBRANCH  10  34
BRANCH   9  36
ATOM     36  C   UNL     1     181.647 179.672 193.106  1.00  0.00     0.017 C 
ATOM     37  C   UNL     1     181.555 180.974 193.910  1.00  0.00     0.012 C 
ATOM     38  C   UNL     1     180.455 178.743 193.405  1.00  0.00     0.012 C 
ENDBRANCH   9  36
BRANCH   6  39
ATOM     39  C   UNL     1     186.654 176.737 193.858  1.00  0.00     0.264 C 
ATOM     40  O   UNL     1     186.678 175.479 193.927  1.00  0.00    -0.298 OA
ENDBRANCH   6  39
BRANCH   8  41
ATOM     41  O   UNL     1     182.556 178.746 195.661  1.00  0.00    -0.504 OA
ATOM     42  H   UNL     1     182.242 179.669 195.917  1.00  0.00     0.293 HD
ENDBRANCH   8  41
BRANCH   7  43
ATOM     43  O   UNL     1     184.844 177.064 195.921  1.00  0.00    -0.504 OA
ATOM     44  H   UNL     1     184.220 177.002 196.713  1.00  0.00     0.293 HD
ENDBRANCH   7  43
TORSDOF 11
ENDMDL
MODEL 3
REMARK VINA RESULT:    -5.777      3.462      8.546
REMARK INTER + INTRA:          -9.957
REMARK INTER:                  -8.745
REMARK INTRA:                  -1.213
REMARK UNBOUND:                -1.479
REMARK SMILES Cc1cc2c(C(C)C)c(O)c(O)c(C=O)c2c(O)c1-c1c(C)cc2c(C(C)C)c(O)c(O)c(C=O)c2c1O
REMARK SMILES IDX 1 1 2 2 3 3 4 4 16 5 13 6 11 7 9 8 5 9 17 10 19 11 20 12
REMARK SMILES IDX 37 13 21 14 36 15 23 16 22 17 24 18 33 19 25 20 31 21 29 22
REMARK SMILES IDX 38 23 34 25 35 26 26 27 27 28 28 29 32 30 30 32 18 34 6 36
REMARK SMILES IDX 7 37 8 38 14 39 15 40 10 41 12 43
REMARK H PARENT 38 24 32 31 30 33 18 35 10 42 12 44
REMARK Flexibility Score: inf
ROOT
ATOM      1  C   UNL     1     187.110 178.916 190.781  1.00  0.00     0.045 C 
ATOM      2  C   UNL     1     185.958 178.633 191.713  1.00  0.00    -0.039 A 
ATOM      3  C   UNL     1     186.136 177.746 192.778  1.00  0.00     0.013 A 
ATOM      4  C   UNL     1     185.088 177.441 193.673  1.00  0.00    -0.006 A 
ATOM      5  C   UNL     1     183.782 177.937 193.391  1.00  0.00     0.039 A 
ATOM      6  C   UNL     1     182.678 177.440 194.142  1.00  0.00     0.072 A 
ATOM      7  C   UNL     1     182.891 176.522 195.188  1.00  0.00     0.169 A 
ATOM      8  C   UNL     1     184.194 176.089 195.504  1.00  0.00     0.162 A 
ATOM      9  C   UNL     1     185.310 176.622 194.822  1.00  0.00     0.008 A 
ATOM     10  C   UNL     1     183.633 178.936 192.384  1.00  0.00     0.132 A 
ATOM     11  C   UNL     1     184.718 179.268 191.543  1.00  0.00     0.031 A 
ENDROOT
BRANCH  11  12
ATOM     12  C   UNL     1     184.546 180.279 190.467  1.00  0.00     0.031 A 
ATOM     13  C   UNL     1     184.233 179.871 189.154  1.00  0.00     0.132 A 
ATOM     14  C   UNL     1     184.681 181.644 190.764  1.00  0.00    -0.039 A 
ATOM     15  C   UNL     1     184.098 180.836 188.111  1.00  0.00     0.039 A 
ATOM     16  C   UNL     1     184.438 182.591 189.767  1.00  0.00     0.013 A 
ATOM     17  C   UNL     1     185.016 182.106 192.161  1.00  0.00     0.045 C 
ATOM     18  C   UNL     1     184.096 182.224 188.449  1.00  0.00    -0.006 A 
ATOM     19  C   UNL     1     183.943 180.456 186.749  1.00  0.00     0.072 A 
ATOM     20  C   UNL     1     183.745 183.203 187.463  1.00  0.00     0.008 A 
ATOM     21  C   UNL     1     183.674 181.428 185.772  1.00  0.00     0.169 A 
ATOM     22  C   UNL     1     183.517 182.778 186.132  1.00  0.00     0.162 A 
BRANCH  13  23
ATOM     23  O   UNL     1     184.010 178.515 188.893  1.00  0.00    -0.507 OA
ATOM     24  H   UNL     1     184.734 177.869 188.602  1.00  0.00     0.293 HD
ENDBRANCH  13  23
BRANCH  19  25
ATOM     25  C   UNL     1     184.199 179.069 186.286  1.00  0.00     0.264 C 
ATOM     26  O   UNL     1     185.355 178.703 185.942  1.00  0.00    -0.298 OA
ENDBRANCH  19  25
BRANCH  20  27
ATOM     27  C   UNL     1     183.586 184.708 187.772  1.00  0.00     0.017 C 
ATOM     28  C   UNL     1     182.125 185.168 187.654  1.00  0.00     0.012 C 
ATOM     29  C   UNL     1     184.574 185.620 187.015  1.00  0.00     0.012 C 
ENDBRANCH  20  27
BRANCH  21  30
ATOM     30  O   UNL     1     183.608 181.026 184.432  1.00  0.00    -0.504 OA
ATOM     31  H   UNL     1     184.102 180.233 184.048  1.00  0.00     0.293 HD
ENDBRANCH  21  30
BRANCH  22  32
ATOM     32  O   UNL     1     183.131 183.723 185.172  1.00  0.00    -0.504 OA
ATOM     33  H   UNL     1     183.775 184.289 184.637  1.00  0.00     0.293 HD
ENDBRANCH  22  32
ENDBRANCH  11  12
BRANCH  10  34
ATOM     34  O   UNL     1     182.423 179.624 192.247  1.00  0.00    -0.507 OA
ATOM     35  H   UNL     1     181.650 179.300 191.679  1.00  0.00     0.293 HD
ENDBRANCH  10  34
BRANCH   9  36
ATOM     36  C   UNL     1     186.733 176.306 195.317  1.00  0.00     0.017 C 
ATOM     37  C   UNL     1     187.140 174.875 194.950  1.00  0.00     0.012 C 
ATOM     38  C   UNL     1     186.937 176.580 196.819  1.00  0.00     0.012 C 
ENDBRANCH   9  36
BRANCH   6  39
ATOM     39  C   UNL     1     181.275 177.750 193.775  1.00  0.00     0.264 C 
ATOM     40  O   UNL     1     180.587 178.552 194.462  1.00  0.00    -0.298 OA
ENDBRANCH   6  39
BRANCH   8  41
ATOM     41  O   UNL     1     184.404 175.096 196.466  1.00  0.00    -0.504 OA
ATOM     42  H   UNL     1     183.715 174.787 197.136  1.00  0.00     0.293 HD
ENDBRANCH   8  41
BRANCH   7  43
ATOM     43  O   UNL     1     181.779 176.052 195.896  1.00  0.00    -0.504 OA
ATOM     44  H   UNL     1     181.620 176.203 196.882  1.00  0.00     0.293 HD
ENDBRANCH   7  43
TORSDOF 11
ENDMDL
MODEL 4
REMARK VINA RESULT:    -5.677      2.083      2.698
REMARK INTER + INTRA:          -9.811
REMARK INTER:                  -8.235
REMARK INTRA:                  -1.576
REMARK UNBOUND:                -1.479
REMARK SMILES Cc1cc2c(C(C)C)c(O)c(O)c(C=O)c2c(O)c1-c1c(C)cc2c(C(C)C)c(O)c(O)c(C=O)c2c1O
REMARK SMILES IDX 1 1 2 2 3 3 4 4 16 5 13 6 11 7 9 8 5 9 17 10 19 11 20 12
REMARK SMILES IDX 37 13 21 14 36 15 23 16 22 17 24 18 33 19 25 20 31 21 29 22
REMARK SMILES IDX 38 23 34 25 35 26 26 27 27 28 28 29 32 30 30 32 18 34 6 36
REMARK SMILES IDX 7 37 8 38 14 39 15 40 10 41 12 43
REMARK H PARENT 38 24 32 31 30 33 18 35 10 42 12 44
REMARK Flexibility Score: inf
ROOT
ATOM      1  C   UNL     1     187.865 180.945 191.922  1.00  0.00     0.045 C 
ATOM      2  C   UNL     1     187.873 180.328 190.545  1.00  0.00    -0.039 A 
ATOM      3  C   UNL     1     188.993 180.489 189.725  1.00  0.00     0.013 A 
ATOM      4  C   UNL     1     189.046 179.939 188.425  1.00  0.00    -0.006 A 
ATOM      5  C   UNL     1     187.872 179.335 187.891  1.00  0.00     0.039 A 
ATOM      6  C   UNL     1     187.838 178.999 186.506  1.00  0.00     0.072 A 
ATOM      7  C   UNL     1     188.975 179.205 185.702  1.00  0.00     0.169 A 
ATOM      8  C   UNL     1     190.154 179.740 186.255  1.00  0.00     0.162 A 
ATOM      9  C   UNL     1     190.235 180.014 187.638  1.00  0.00     0.008 A 
ATOM     10  C   UNL     1     186.783 179.062 188.769  1.00  0.00     0.132 A 
ATOM     11  C   UNL     1     186.784 179.571 190.086  1.00  0.00     0.031 A 
ENDROOT
BRANCH  11  12
ATOM     12  C   UNL     1     185.627 179.321 190.985  1.00  0.00     0.031 A 
ATOM     13  C   UNL     1     185.593 178.166 191.793  1.00  0.00     0.132 A 
ATOM     14  C   UNL     1     184.573 180.246 191.041  1.00  0.00    -0.039 A 
ATOM     15  C   UNL     1     184.469 177.906 192.634  1.00  0.00     0.039 A 
ATOM     16  C   UNL     1     183.530 180.046 191.947  1.00  0.00     0.013 A 
ATOM     17  C   UNL     1     184.585 181.490 190.187  1.00  0.00     0.045 C 
ATOM     18  C   UNL     1     183.474 178.917 192.791  1.00  0.00    -0.006 A 
ATOM     19  C   UNL     1     184.325 176.678 193.339  1.00  0.00     0.072 A 
ATOM     20  C   UNL     1     182.456 178.776 193.790  1.00  0.00     0.008 A 
ATOM     21  C   UNL     1     183.280 176.514 194.263  1.00  0.00     0.169 A 
ATOM     22  C   UNL     1     182.392 177.572 194.531  1.00  0.00     0.162 A 
BRANCH  13  23
ATOM     23  O   UNL     1     186.692 177.299 191.796  1.00  0.00    -0.507 OA
ATOM     24  H   UNL     1     187.421 177.315 192.498  1.00  0.00     0.293 HD
ENDBRANCH  13  23
BRANCH  19  25
ATOM     25  C   UNL     1     185.160 175.491 193.029  1.00  0.00     0.264 C 
ATOM     26  O   UNL     1     186.019 175.070 193.848  1.00  0.00    -0.298 OA
ENDBRANCH  19  25
BRANCH  20  27
ATOM     27  C   UNL     1     181.424 179.876 194.121  1.00  0.00     0.017 C 
ATOM     28  C   UNL     1     180.257 179.889 193.123  1.00  0.00     0.012 C 
ATOM     29  C   UNL     1     182.037 181.272 194.360  1.00  0.00     0.012 C 
ENDBRANCH  20  27
BRANCH  21  30
ATOM     30  O   UNL     1     183.122 175.266 194.877  1.00  0.00    -0.504 OA
ATOM     31  H   UNL     1     182.861 175.133 195.844  1.00  0.00     0.293 HD
ENDBRANCH  21  30
BRANCH  22  32
ATOM     32  O   UNL     1     181.428 177.443 195.539  1.00  0.00    -0.504 OA
ATOM     33  H   UNL     1     180.518 177.881 195.518  1.00  0.00     0.293 HD
ENDBRANCH  22  32
ENDBRANCH  11  12
BRANCH  10  34
ATOM     34  O   UNL     1     185.721 178.253 188.347  1.00  0.00    -0.507 OA
ATOM     35  H   UNL     1     184.748 178.526 188.401  1.00  0.00     0.293 HD
ENDBRANCH  10  34
BRANCH   9  36
ATOM     36  C   UNL     1     191.589 180.393 188.266  1.00  0.00     0.017 C 
ATOM     37  C   UNL     1     192.038 181.786 187.812  1.00  0.00     0.012 C 
ATOM     38  C   UNL     1     192.692 179.343 188.032  1.00  0.00     0.012 C 
ENDBRANCH   9  36
BRANCH   6  39
ATOM     39  C   UNL     1     186.591 178.559 185.835  1.00  0.00     0.264 C 
ATOM     40  O   UNL     1     186.432 177.359 185.482  1.00  0.00    -0.298 OA
ENDBRANCH   6  39
BRANCH   8  41
ATOM     41  O   UNL     1     191.249 180.050 185.442  1.00  0.00    -0.504 OA
ATOM     42  H   UNL     1     191.197 180.561 184.573  1.00  0.00     0.293 HD
ENDBRANCH   8  41
BRANCH   7  43
ATOM     43  O   UNL     1     188.898 178.869 184.344  1.00  0.00    -0.504 OA
ATOM     44  H   UNL     1     188.461 178.034 183.984  1.00  0.00     0.293 HD
ENDBRANCH   7  43
TORSDOF 11
ENDMDL
MODEL 5
REMARK VINA RESULT:    -5.666      2.872      4.467
REMARK INTER + INTRA:          -9.795
REMARK INTER:                  -8.178
REMARK INTRA:                  -1.617
REMARK UNBOUND:                -1.479
REMARK SMILES Cc1cc2c(C(C)C)c(O)c(O)c(C=O)c2c(O)c1-c1c(C)cc2c(C(C)C)c(O)c(O)c(C=O)c2c1O
REMARK SMILES IDX 1 1 2 2 3 3 4 4 16 5 13 6 11 7 9 8 5 9 17 10 19 11 20 12
REMARK SMILES IDX 37 13 21 14 36 15 23 16 22 17 24 18 33 19 25 20 31 21 29 22
REMARK SMILES IDX 38 23 34 25 35 26 26 27 27 28 28 29 32 30 30 32 18 34 6 36
REMARK SMILES IDX 7 37 8 38 14 39 15 40 10 41 12 43
REMARK H PARENT 38 24 32 31 30 33 18 35 10 42 12 44
REMARK Flexibility Score: inf
ROOT
ATOM      1  C   UNL     1     185.602 178.194 188.173  1.00  0.00     0.045 C 
ATOM      2  C   UNL     1     186.785 179.000 188.650  1.00  0.00    -0.039 A 
ATOM      3  C   UNL     1     187.826 179.286 187.763  1.00  0.00     0.013 A 
ATOM      4  C   UNL     1     188.960 180.027 188.162  1.00  0.00    -0.006 A 
ATOM      5  C   UNL     1     189.107 180.361 189.539  1.00  0.00     0.039 A 
ATOM      6  C   UNL     1     190.351 180.889 189.992  1.00  0.00     0.072 A 
ATOM      7  C   UNL     1     191.390 181.135 189.073  1.00  0.00     0.169 A 
ATOM      8  C   UNL     1     191.210 180.865 187.702  1.00  0.00     0.162 A 
ATOM      9  C   UNL     1     189.963 180.409 187.221  1.00  0.00     0.008 A 
ATOM     10  C   UNL     1     187.993 180.180 190.410  1.00  0.00     0.132 A 
ATOM     11  C   UNL     1     186.845 179.489 189.964  1.00  0.00     0.031 A 
ENDROOT
BRANCH  11  12
ATOM     12  C   UNL     1     185.702 179.265 190.889  1.00  0.00     0.031 A 
ATOM     13  C   UNL     1     185.655 178.106 191.690  1.00  0.00     0.132 A 
ATOM     14  C   UNL     1     184.677 180.219 190.975  1.00  0.00    -0.039 A 
ATOM     15  C   UNL     1     184.545 177.871 192.556  1.00  0.00     0.039 A 
ATOM     16  C   UNL     1     183.649 180.041 191.903  1.00  0.00     0.013 A 
ATOM     17  C   UNL     1     184.703 181.467 190.127  1.00  0.00     0.045 C 
ATOM     18  C   UNL     1     183.581 178.909 192.741  1.00  0.00    -0.006 A 
ATOM     19  C   UNL     1     184.382 176.643 193.257  1.00  0.00     0.072 A 
ATOM     20  C   UNL     1     182.583 178.790 193.763  1.00  0.00     0.008 A 
ATOM     21  C   UNL     1     183.355 176.503 194.204  1.00  0.00     0.169 A 
ATOM     22  C   UNL     1     182.503 177.583 194.499  1.00  0.00     0.162 A 
BRANCH  13  23
ATOM     23  O   UNL     1     186.729 177.210 191.663  1.00  0.00    -0.507 OA
ATOM     24  H   UNL     1     187.089 176.734 192.481  1.00  0.00     0.293 HD
ENDBRANCH  13  23
BRANCH  19  25
ATOM     25  C   UNL     1     185.176 175.436 192.920  1.00  0.00     0.264 C 
ATOM     26  O   UNL     1     186.034 174.980 193.722  1.00  0.00    -0.298 OA
ENDBRANCH  19  25
BRANCH  20  27
ATOM     27  C   UNL     1     181.590 179.915 194.124  1.00  0.00     0.017 C 
ATOM     28  C   UNL     1     180.448 180.025 193.103  1.00  0.00     0.012 C 
ATOM     29  C   UNL     1     182.255 181.271 194.444  1.00  0.00     0.012 C 
ENDBRANCH  20  27
BRANCH  21  30
ATOM     30  O   UNL     1     183.176 175.255 194.814  1.00  0.00    -0.504 OA
ATOM     31  H   UNL     1     182.306 174.743 194.822  1.00  0.00     0.293 HD
ENDBRANCH  21  30
BRANCH  22  32
ATOM     32  O   UNL     1     181.559 177.474 195.528  1.00  0.00    -0.504 OA
ATOM     33  H   UNL     1     180.677 177.966 195.548  1.00  0.00     0.293 HD
ENDBRANCH  22  32
ENDBRANCH  11  12
BRANCH  10  34
ATOM     34  O   UNL     1     188.011 180.720 191.701  1.00  0.00    -0.507 OA
ATOM     35  H   UNL     1     187.208 181.149 192.144  1.00  0.00     0.293 HD
ENDBRANCH  10  34
BRANCH   9  36
ATOM     36  C   UNL     1     189.713 180.325 185.704  1.00  0.00     0.017 C 
ATOM     37  C   UNL     1     190.506 179.173 185.077  1.00  0.00     0.012 C 
ATOM     38  C   UNL     1     189.967 181.651 184.962  1.00  0.00     0.012 C 
ENDBRANCH   9  36
BRANCH   6  39
ATOM     39  C   UNL     1     190.651 181.068 191.432  1.00  0.00     0.264 C 
ATOM     40  O   UNL     1     190.693 182.217 191.949  1.00  0.00    -0.298 OA
ENDBRANCH   6  39
BRANCH   8  41
ATOM     41  O   UNL     1     192.271 181.003 186.802  1.00  0.00    -0.504 OA
ATOM     42  H   UNL     1     193.052 180.368 186.728  1.00  0.00     0.293 HD
ENDBRANCH   8  41
BRANCH   7  43
ATOM     43  O   UNL     1     192.599 181.647 189.559  1.00  0.00    -0.504 OA
ATOM     44  H   UNL     1     193.220 181.156 190.186  1.00  0.00     0.293 HD
ENDBRANCH   7  43
TORSDOF 11
ENDMDL
MODEL 6
REMARK VINA RESULT:    -5.648      6.541      9.900
REMARK INTER + INTRA:          -9.768
REMARK INTER:                  -8.183
REMARK INTRA:                  -1.585
REMARK UNBOUND:                -1.479
REMARK SMILES Cc1cc2c(C(C)C)c(O)c(O)c(C=O)c2c(O)c1-c1c(C)cc2c(C(C)C)c(O)c(O)c(C=O)c2c1O
REMARK SMILES IDX 1 1 2 2 3 3 4 4 16 5 13 6 11 7 9 8 5 9 17 10 19 11 20 12
REMARK SMILES IDX 37 13 21 14 36 15 23 16 22 17 24 18 33 19 25 20 31 21 29 22
REMARK SMILES IDX 38 23 34 25 35 26 26 27 27 28 28 29 32 30 30 32 18 34 6 36
REMARK SMILES IDX 7 37 8 38 14 39 15 40 10 41 12 43
REMARK H PARENT 38 24 32 31 30 33 18 35 10 42 12 44
REMARK Flexibility Score: inf
ROOT
ATOM      1  C   UNL     1     187.146 180.633 193.178  1.00  0.00     0.045 C 
ATOM      2  C   UNL     1     185.663 180.748 193.432  1.00  0.00    -0.039 A 
ATOM      3  C   UNL     1     184.938 179.612 193.803  1.00  0.00     0.013 A 
ATOM      4  C   UNL     1     183.547 179.665 194.043  1.00  0.00    -0.006 A 
ATOM      5  C   UNL     1     182.849 180.873 193.753  1.00  0.00     0.039 A 
ATOM      6  C   UNL     1     181.424 180.864 193.756  1.00  0.00     0.072 A 
ATOM      7  C   UNL     1     180.726 179.692 194.105  1.00  0.00     0.169 A 
ATOM      8  C   UNL     1     181.426 178.521 194.456  1.00  0.00     0.162 A 
ATOM      9  C   UNL     1     182.836 178.526 194.529  1.00  0.00     0.008 A 
ATOM     10  C   UNL     1     183.605 182.055 193.498  1.00  0.00     0.132 A 
ATOM     11  C   UNL     1     185.004 181.983 193.326  1.00  0.00     0.031 A 
ENDROOT
BRANCH  11  12
ATOM     12  C   UNL     1     185.783 183.211 193.018  1.00  0.00     0.031 A 
ATOM     13  C   UNL     1     186.310 183.998 194.063  1.00  0.00     0.132 A 
ATOM     14  C   UNL     1     186.008 183.578 191.682  1.00  0.00    -0.039 A 
ATOM     15  C   UNL     1     187.032 185.195 193.772  1.00  0.00     0.039 A 
ATOM     16  C   UNL     1     186.809 184.687 191.400  1.00  0.00     0.013 A 
ATOM     17  C   UNL     1     185.454 182.754 190.546  1.00  0.00     0.045 C 
ATOM     18  C   UNL     1     187.376 185.483 192.417  1.00  0.00    -0.006 A 
ATOM     19  C   UNL     1     187.438 186.096 194.796  1.00  0.00     0.072 A 
ATOM     20  C   UNL     1     188.281 186.552 192.116  1.00  0.00     0.008 A 
ATOM     21  C   UNL     1     188.265 187.188 194.485  1.00  0.00     0.169 A 
ATOM     22  C   UNL     1     188.731 187.381 193.172  1.00  0.00     0.162 A 
BRANCH  13  23
ATOM     23  O   UNL     1     186.158 183.570 195.386  1.00  0.00    -0.507 OA
ATOM     24  H   UNL     1     185.692 182.711 195.652  1.00  0.00     0.293 HD
ENDBRANCH  13  23
BRANCH  19  25
ATOM     25  C   UNL     1     186.900 186.012 196.175  1.00  0.00     0.264 C 
ATOM     26  O   UNL     1     187.606 185.572 197.122  1.00  0.00    -0.298 OA
ENDBRANCH  19  25
BRANCH  20  27
ATOM     27  C   UNL     1     188.813 186.849 190.697  1.00  0.00     0.017 C 
ATOM     28  C   UNL     1     187.712 187.383 189.769  1.00  0.00     0.012 C 
ATOM     29  C   UNL     1     189.633 185.700 190.072  1.00  0.00     0.012 C 
ENDBRANCH  20  27
BRANCH  21  30
ATOM     30  O   UNL     1     188.577 188.098 195.503  1.00  0.00    -0.504 OA
ATOM     31  H   UNL     1     188.770 187.840 196.460  1.00  0.00     0.293 HD
ENDBRANCH  21  30
BRANCH  22  32
ATOM     32  O   UNL     1     189.650 188.400 192.894  1.00  0.00    -0.504 OA
ATOM     33  H   UNL     1     189.497 189.140 192.223  1.00  0.00     0.293 HD
ENDBRANCH  22  32
ENDBRANCH  11  12
BRANCH  10  34
ATOM     34  O   UNL     1     182.971 183.302 193.457  1.00  0.00    -0.507 OA
ATOM     35  H   UNL     1     183.017 183.932 192.666  1.00  0.00     0.293 HD
ENDBRANCH  10  34
BRANCH   9  36
ATOM     36  C   UNL     1     183.577 177.311 195.119  1.00  0.00     0.017 C 
ATOM     37  C   UNL     1     184.471 177.726 196.292  1.00  0.00     0.012 C 
ATOM     38  C   UNL     1     184.364 176.501 194.071  1.00  0.00     0.012 C 
ENDBRANCH   9  36
BRANCH   6  39
ATOM     39  C   UNL     1     180.631 182.018 193.270  1.00  0.00     0.264 C 
ATOM     40  O   UNL     1     179.999 182.756 194.073  1.00  0.00    -0.298 OA
ENDBRANCH   6  39
BRANCH   8  41
ATOM     41  O   UNL     1     180.743 177.325 194.696  1.00  0.00    -0.504 OA
ATOM     42  H   UNL     1     180.870 176.472 194.171  1.00  0.00     0.293 HD
ENDBRANCH   8  41
BRANCH   7  43
ATOM     43  O   UNL     1     179.326 179.723 194.089  1.00  0.00    -0.504 OA
ATOM     44  H   UNL     1     178.754 179.400 193.322  1.00  0.00     0.293 HD
ENDBRANCH   7  43
TORSDOF 11
ENDMDL
MODEL 7
REMARK VINA RESULT:    -5.523      2.642      8.901
REMARK INTER + INTRA:          -9.584
REMARK INTER:                  -8.010
REMARK INTRA:                  -1.574
REMARK UNBOUND:                -1.479
REMARK SMILES Cc1cc2c(C(C)C)c(O)c(O)c(C=O)c2c(O)c1-c1c(C)cc2c(C(C)C)c(O)c(O)c(C=O)c2c1O
REMARK SMILES IDX 1 1 2 2 3 3 4 4 16 5 13 6 11 7 9 8 5 9 17 10 19 11 20 12
REMARK SMILES IDX 37 13 21 14 36 15 23 16 22 17 24 18 33 19 25 20 31 21 29 22
REMARK SMILES IDX 38 23 34 25 35 26 26 27 27 28 28 29 32 30 30 32 18 34 6 36
REMARK SMILES IDX 7 37 8 38 14 39 15 40 10 41 12 43
REMARK H PARENT 38 24 32 31 30 33 18 35 10 42 12 44
REMARK Flexibility Score: inf
ROOT
ATOM      1  C   UNL     1     185.018 181.619 189.994  1.00  0.00     0.045 C 
ATOM      2  C   UNL     1     184.928 180.329 190.773  1.00  0.00    -0.039 A 
ATOM      3  C   UNL     1     183.844 180.116 191.628  1.00  0.00     0.013 A 
ATOM      4  C   UNL     1     183.717 178.931 192.385  1.00  0.00    -0.006 A 
ATOM      5  C   UNL     1     184.798 178.002 192.385  1.00  0.00     0.039 A 
ATOM      6  C   UNL     1     184.788 176.932 193.327  1.00  0.00     0.072 A 
ATOM      7  C   UNL     1     183.692 176.766 194.195  1.00  0.00     0.169 A 
ATOM      8  C   UNL     1     182.597 177.650 194.141  1.00  0.00     0.162 A 
ATOM      9  C   UNL     1     182.552 178.674 193.169  1.00  0.00     0.008 A 
ATOM     10  C   UNL     1     185.837 178.161 191.422  1.00  0.00     0.132 A 
ATOM     11  C   UNL     1     185.903 179.329 190.631  1.00  0.00     0.031 A 
ENDROOT
BRANCH  11  12
ATOM     12  C   UNL     1     187.012 179.511 189.659  1.00  0.00     0.031 A 
ATOM     13  C   UNL     1     188.227 180.097 190.069  1.00  0.00     0.132 A 
ATOM     14  C   UNL     1     186.854 179.083 188.331  1.00  0.00    -0.039 A 
ATOM     15  C   UNL     1     189.283 180.302 189.131  1.00  0.00     0.039 A 
ATOM     16  C   UNL     1     187.928 179.182 187.445  1.00  0.00     0.013 A 
ATOM     17  C   UNL     1     185.563 178.454 187.866  1.00  0.00     0.045 C 
ATOM     18  C   UNL     1     189.167 179.737 187.824  1.00  0.00    -0.006 A 
ATOM     19  C   UNL     1     190.458 181.032 189.467  1.00  0.00     0.072 A 
ATOM     20  C   UNL     1     190.294 179.736 186.939  1.00  0.00     0.008 A 
ATOM     21  C   UNL     1     191.532 181.093 188.564  1.00  0.00     0.169 A 
ATOM     22  C   UNL     1     191.476 180.403 187.340  1.00  0.00     0.162 A 
BRANCH  13  23
ATOM     23  O   UNL     1     188.405 180.434 191.415  1.00  0.00    -0.507 OA
ATOM     24  H   UNL     1     189.226 180.189 191.955  1.00  0.00     0.293 HD
ENDBRANCH  13  23
BRANCH  19  25
ATOM     25  C   UNL     1     190.541 181.866 190.691  1.00  0.00     0.264 C 
ATOM     26  O   UNL     1     191.251 181.512 191.670  1.00  0.00    -0.298 OA
ENDBRANCH  19  25
BRANCH  20  27
ATOM     27  C   UNL     1     190.301 179.031 185.565  1.00  0.00     0.017 C 
ATOM     28  C   UNL     1     189.371 179.723 184.557  1.00  0.00     0.012 C 
ATOM     29  C   UNL     1     190.095 177.503 185.634  1.00  0.00     0.012 C 
ENDBRANCH  20  27
BRANCH  21  30
ATOM     30  O   UNL     1     192.637 181.887 188.896  1.00  0.00    -0.504 OA
ATOM     31  H   UNL     1     192.580 182.771 189.382  1.00  0.00     0.293 HD
ENDBRANCH  21  30
BRANCH  22  32
ATOM     32  O   UNL     1     192.596 180.370 186.499  1.00  0.00    -0.504 OA
ATOM     33  H   UNL     1     193.183 179.558 186.362  1.00  0.00     0.293 HD
ENDBRANCH  22  32
ENDBRANCH  11  12
BRANCH  10  34
ATOM     34  O   UNL     1     186.777 177.144 191.222  1.00  0.00    -0.507 OA
ATOM     35  H   UNL     1     186.620 176.175 191.470  1.00  0.00     0.293 HD
ENDBRANCH  10  34
BRANCH   9  36
ATOM     36  C   UNL     1     181.262 179.493 192.979  1.00  0.00     0.017 C 
ATOM     37  C   UNL     1     181.157 180.607 194.027  1.00  0.00     0.012 C 
ATOM     38  C   UNL     1     179.985 178.633 192.944  1.00  0.00     0.012 C 
ENDBRANCH   9  36
BRANCH   6  39
ATOM     39  C   UNL     1     185.963 176.050 193.526  1.00  0.00     0.264 C 
ATOM     40  O   UNL     1     185.978 174.875 193.070  1.00  0.00    -0.298 OA
ENDBRANCH   6  39
BRANCH   8  41
ATOM     41  O   UNL     1     181.558 177.559 195.072  1.00  0.00    -0.504 OA
ATOM     42  H   UNL     1     180.990 178.334 195.381  1.00  0.00     0.293 HD
ENDBRANCH   8  41
BRANCH   7  43
ATOM     43  O   UNL     1     183.725 175.707 195.111  1.00  0.00    -0.504 OA
ATOM     44  H   UNL     1     184.468 175.545 195.775  1.00  0.00     0.293 HD
ENDBRANCH   7  43
TORSDOF 11
ENDMDL
MODEL 8
REMARK VINA RESULT:    -5.426      6.036      9.049
REMARK INTER + INTRA:          -9.442
REMARK INTER:                  -7.892
REMARK INTRA:                  -1.550
REMARK UNBOUND:                -1.479
REMARK SMILES Cc1cc2c(C(C)C)c(O)c(O)c(C=O)c2c(O)c1-c1c(C)cc2c(C(C)C)c(O)c(O)c(C=O)c2c1O
REMARK SMILES IDX 1 1 2 2 3 3 4 4 16 5 13 6 11 7 9 8 5 9 17 10 19 11 20 12
REMARK SMILES IDX 37 13 21 14 36 15 23 16 22 17 24 18 33 19 25 20 31 21 29 22
REMARK SMILES IDX 38 23 34 25 35 26 26 27 27 28 28 29 32 30 30 32 18 34 6 36
REMARK SMILES IDX 7 37 8 38 14 39 15 40 10 41 12 43
REMARK H PARENT 38 24 32 31 30 33 18 35 10 42 12 44
REMARK Flexibility Score: inf
ROOT
ATOM      1  C   UNL     1     185.630 182.054 190.248  1.00  0.00     0.045 C 
ATOM      2  C   UNL     1     185.978 183.092 191.287  1.00  0.00    -0.039 A 
ATOM      3  C   UNL     1     186.595 184.282 190.892  1.00  0.00     0.013 A 
ATOM      4  C   UNL     1     186.949 185.281 191.825  1.00  0.00    -0.006 A 
ATOM      5  C   UNL     1     186.806 184.998 193.215  1.00  0.00     0.039 A 
ATOM      6  C   UNL     1     187.383 185.892 194.163  1.00  0.00     0.072 A 
ATOM      7  C   UNL     1     188.025 187.067 193.727  1.00  0.00     0.169 A 
ATOM      8  C   UNL     1     188.101 187.371 192.354  1.00  0.00     0.162 A 
ATOM      9  C   UNL     1     187.476 186.538 191.400  1.00  0.00     0.008 A 
ATOM     10  C   UNL     1     186.065 183.844 193.605  1.00  0.00     0.132 A 
ATOM     11  C   UNL     1     185.668 182.892 192.641  1.00  0.00     0.031 A 
ENDROOT
BRANCH  11  12
ATOM     12  C   UNL     1     184.933 181.669 193.058  1.00  0.00     0.031 A 
ATOM     13  C   UNL     1     183.523 181.646 193.035  1.00  0.00     0.132 A 
ATOM     14  C   UNL     1     185.646 180.529 193.460  1.00  0.00    -0.039 A 
ATOM     15  C   UNL     1     182.813 180.484 193.464  1.00  0.00     0.039 A 
ATOM     16  C   UNL     1     184.952 179.358 193.771  1.00  0.00     0.013 A 
ATOM     17  C   UNL     1     187.155 180.528 193.494  1.00  0.00     0.045 C 
ATOM     18  C   UNL     1     183.544 179.287 193.734  1.00  0.00    -0.006 A 
ATOM     19  C   UNL     1     181.397 180.477 193.608  1.00  0.00     0.072 A 
ATOM     20  C   UNL     1     182.848 178.053 193.952  1.00  0.00     0.008 A 
ATOM     21  C   UNL     1     180.724 179.279 193.897  1.00  0.00     0.169 A 
ATOM     22  C   UNL     1     181.434 178.070 194.007  1.00  0.00     0.162 A 
BRANCH  13  23
ATOM     23  O   UNL     1     182.828 182.756 192.545  1.00  0.00    -0.507 OA
ATOM     24  H   UNL     1     182.099 182.702 191.844  1.00  0.00     0.293 HD
ENDBRANCH  13  23
BRANCH  19  25
ATOM     25  C   UNL     1     180.602 181.730 193.608  1.00  0.00     0.264 C 
ATOM     26  O   UNL     1     179.787 181.980 192.681  1.00  0.00    -0.298 OA
ENDBRANCH  19  25
BRANCH  20  27
ATOM     27  C   UNL     1     183.555 176.690 194.116  1.00  0.00     0.017 C 
ATOM     28  C   UNL     1     184.088 176.486 195.542  1.00  0.00     0.012 C 
ATOM     29  C   UNL     1     184.602 176.382 193.024  1.00  0.00     0.012 C 
ENDBRANCH  20  27
BRANCH  21  30
ATOM     30  O   UNL     1     179.341 179.327 194.111  1.00  0.00    -0.504 OA
ATOM     31  H   UNL     1     178.711 178.555 193.945  1.00  0.00     0.293 HD
ENDBRANCH  21  30
BRANCH  22  32
ATOM     32  O   UNL     1     180.745 176.862 194.176  1.00  0.00    -0.504 OA
ATOM     33  H   UNL     1     181.102 176.067 194.687  1.00  0.00     0.293 HD
ENDBRANCH  22  32
ENDBRANCH  11  12
BRANCH  10  34
ATOM     34  O   UNL     1     185.691 183.665 194.942  1.00  0.00    -0.507 OA
ATOM     35  H   UNL     1     184.840 184.038 195.344  1.00  0.00     0.293 HD
ENDBRANCH  10  34
BRANCH   9  36
ATOM     36  C   UNL     1     187.381 186.991 189.932  1.00  0.00     0.017 C 
ATOM     37  C   UNL     1     188.765 187.032 189.276  1.00  0.00     0.012 C 
ATOM     38  C   UNL     1     186.632 188.324 189.746  1.00  0.00     0.012 C 
ENDBRANCH   9  36
BRANCH   6  39
ATOM     39  C   UNL     1     187.454 185.565 195.607  1.00  0.00     0.264 C 
ATOM     40  O   UNL     1     186.722 186.158 196.444  1.00  0.00    -0.298 OA
ENDBRANCH   6  39
BRANCH   8  41
ATOM     41  O   UNL     1     188.832 188.477 191.906  1.00  0.00    -0.504 OA
ATOM     42  H   UNL     1     189.301 189.139 192.505  1.00  0.00     0.293 HD
ENDBRANCH   8  41
BRANCH   7  43
ATOM     43  O   UNL     1     188.585 187.914 194.690  1.00  0.00    -0.504 OA
ATOM     44  H   UNL     1     189.061 187.601 195.524  1.00  0.00     0.293 HD
ENDBRANCH   7  43
TORSDOF 11
ENDMDL
MODEL 9
REMARK VINA RESULT:    -4.380      5.067      7.514
REMARK INTER + INTRA:          -7.907
REMARK INTER:                  -6.392
REMARK INTRA:                  -1.515
REMARK UNBOUND:                -1.479
REMARK SMILES Cc1cc2c(C(C)C)c(O)c(O)c(C=O)c2c(O)c1-c1c(C)cc2c(C(C)C)c(O)c(O)c(C=O)c2c1O
REMARK SMILES IDX 1 1 2 2 3 3 4 4 16 5 13 6 11 7 9 8 5 9 17 10 19 11 20 12
REMARK SMILES IDX 37 13 21 14 36 15 23 16 22 17 24 18 33 19 25 20 31 21 29 22
REMARK SMILES IDX 38 23 34 25 35 26 26 27 27 28 28 29 32 30 30 32 18 34 6 36
REMARK SMILES IDX 7 37 8 38 14 39 15 40 10 41 12 43
REMARK H PARENT 38 24 32 31 30 33 18 35 10 42 12 44
REMARK Flexibility Score: inf
ROOT
ATOM      1  C   UNL     1     187.132 180.304 190.501  1.00  0.00     0.045 C 
ATOM      2  C   UNL     1     187.893 180.793 191.709  1.00  0.00    -0.039 A 
ATOM      3  C   UNL     1     189.287 180.870 191.659  1.00  0.00     0.013 A 
ATOM      4  C   UNL     1     190.046 181.311 192.765  1.00  0.00    -0.006 A 
ATOM      5  C   UNL     1     189.379 181.539 194.004  1.00  0.00     0.039 A 
ATOM      6  C   UNL     1     190.158 181.744 195.179  1.00  0.00     0.072 A 
ATOM      7  C   UNL     1     191.563 181.785 195.097  1.00  0.00     0.169 A 
ATOM      8  C   UNL     1     192.211 181.627 193.856  1.00  0.00     0.162 A 
ATOM      9  C   UNL     1     191.458 181.494 192.668  1.00  0.00     0.008 A 
ATOM     10  C   UNL     1     187.954 181.580 194.016  1.00  0.00     0.132 A 
ATOM     11  C   UNL     1     187.220 181.194 192.873  1.00  0.00     0.031 A 
ENDROOT
BRANCH  11  12
ATOM     12  C   UNL     1     185.733 181.197 192.904  1.00  0.00     0.031 A 
ATOM     13  C   UNL     1     185.029 180.028 193.256  1.00  0.00     0.132 A 
ATOM     14  C   UNL     1     185.032 182.374 192.598  1.00  0.00    -0.039 A 
ATOM     15  C   UNL     1     183.601 180.019 193.256  1.00  0.00     0.039 A 
ATOM     16  C   UNL     1     183.640 182.392 192.708  1.00  0.00     0.013 A 
ATOM     17  C   UNL     1     185.763 183.638 192.218  1.00  0.00     0.045 C 
ATOM     18  C   UNL     1     182.901 181.251 193.083  1.00  0.00    -0.006 A 
ATOM     19  C   UNL     1     182.856 178.821 193.447  1.00  0.00     0.072 A 
ATOM     20  C   UNL     1     181.485 181.310 193.296  1.00  0.00     0.008 A 
ATOM     21  C   UNL     1     181.459 178.873 193.580  1.00  0.00     0.169 A 
ATOM     22  C   UNL     1     180.786 180.109 193.566  1.00  0.00     0.162 A 
BRANCH  13  23
ATOM     23  O   UNL     1     185.741 178.890 193.648  1.00  0.00    -0.507 OA
ATOM     24  H   UNL     1     185.620 177.976 193.230  1.00  0.00     0.293 HD
ENDBRANCH  13  23
BRANCH  19  25
ATOM     25  C   UNL     1     183.489 177.482 193.367  1.00  0.00     0.264 C 
ATOM     26  O   UNL     1     183.627 176.766 194.395  1.00  0.00    -0.298 OA
ENDBRANCH  19  25
BRANCH  20  27
ATOM     27  C   UNL     1     180.669 182.621 193.264  1.00  0.00     0.017 C 
ATOM     28  C   UNL     1     180.866 183.390 191.950  1.00  0.00     0.012 C 
ATOM     29  C   UNL     1     180.836 183.504 194.519  1.00  0.00     0.012 C 
ENDBRANCH  20  27
BRANCH  21  30
ATOM     30  O   UNL     1     180.754 177.668 193.685  1.00  0.00    -0.504 OA
ATOM     31  H   UNL     1     180.019 177.379 193.054  1.00  0.00     0.293 HD
ENDBRANCH  21  30
BRANCH  22  32
ATOM     32  O   UNL     1     179.410 180.163 193.818  1.00  0.00    -0.504 OA
ATOM     33  H   UNL     1     178.706 180.326 193.112  1.00  0.00     0.293 HD
ENDBRANCH  22  32
ENDBRANCH  11  12
BRANCH  10  34
ATOM     34  O   UNL     1     187.271 182.042 195.147  1.00  0.00    -0.507 OA
ATOM     35  H   UNL     1     186.808 182.941 195.198  1.00  0.00     0.293 HD
ENDBRANCH  10  34
BRANCH   9  36
ATOM     36  C   UNL     1     192.169 181.539 191.302  1.00  0.00     0.017 C 
ATOM     37  C   UNL     1     192.947 180.245 191.042  1.00  0.00     0.012 C 
ATOM     38  C   UNL     1     193.062 182.779 191.113  1.00  0.00     0.012 C 
ENDBRANCH   9  36
BRANCH   6  39
ATOM     39  C   UNL     1     189.548 181.783 196.530  1.00  0.00     0.264 C 
ATOM     40  O   UNL     1     189.358 182.877 197.125  1.00  0.00    -0.298 OA
ENDBRANCH   6  39
BRANCH   8  41
ATOM     41  O   UNL     1     193.606 181.557 193.781  1.00  0.00    -0.504 OA
ATOM     42  H   UNL     1     194.209 181.254 194.531  1.00  0.00     0.293 HD
ENDBRANCH   8  41
BRANCH   7  43
ATOM     43  O   UNL     1     192.293 181.981 196.276  1.00  0.00    -0.504 OA
ATOM     44  H   UNL     1     192.389 181.297 197.012  1.00  0.00     0.293 HD
ENDBRANCH   7  43
TORSDOF 11
ENDMDL
