MODEL 1
REMARK VINA RESULT:    -4.041      0.000      0.000
REMARK INTER + INTRA:          -8.971
REMARK INTER:                  -7.112
REMARK INTRA:                  -1.859
REMARK UNBOUND:                -1.859
REMARK SMILES CCCCCCCCCCCCCCC(=O)[O-]
REMARK SMILES IDX 9 1 10 2 11 3 12 4 13 5 14 6 15 7 16 8 17 9 8 10 7 11 6 12
REMARK SMILES IDX 5 13 4 14 3 15 2 16 1 17
REMARK H PARENT
REMARK Flexibility Score: inf
ROOT
ATOM      1  C   UNL     1      -5.400  -3.904   5.217  1.00  0.00     0.000 C 
ENDROOT
BRANCH   1   2
ATOM      2  C   UNL     1      -5.387  -3.114   6.540  1.00  0.00     0.000 C 
BRANCH   2   3
ATOM      3  C   UNL     1      -4.010  -2.586   6.975  1.00  0.00     0.000 C 
BRANCH   3   4
ATOM      4  C   UNL     1      -3.980  -2.117   8.440  1.00  0.00     0.000 C 
BRANCH   4   5
ATOM      5  C   UNL     1      -3.535  -0.649   8.577  1.00  0.00     0.006 C 
BRANCH   5   6
ATOM      6  C   UNL     1      -3.470   0.112   7.242  1.00  0.00     0.053 C 
BRANCH   6   7
ATOM      7  C   UNL     1      -3.285   1.583   7.445  1.00  0.00     0.041 C 
ATOM      8  O   UNL     1      -2.515   2.004   8.348  1.00  0.00    -0.550 OA
ATOM      9  O   UNL     1      -3.971   2.493   6.647  1.00  0.00    -0.550 OA
ENDBRANCH   6   7
ENDBRANCH   5   6
ENDBRANCH   4   5
ENDBRANCH   3   4
ENDBRANCH   2   3
ENDBRANCH   1   2
BRANCH   1  10
ATOM     10  C   UNL     1      -6.736  -3.874   4.450  1.00  0.00     0.000 C 
BRANCH  10  11
ATOM     11  C   UNL     1      -7.533  -2.563   4.578  1.00  0.00    -0.000 C 
BRANCH  11  12
ATOM     12  C   UNL     1      -7.613  -1.771   3.263  1.00  0.00    -0.000 C 
BRANCH  12  13
ATOM     13  C   UNL     1      -7.028  -0.361   3.439  1.00  0.00    -0.000 C 
BRANCH  13  14
ATOM     14  C   UNL     1      -6.619  -0.059   4.888  1.00  0.00    -0.000 C 
BRANCH  14  15
ATOM     15  C   UNL     1      -7.134   1.303   5.385  1.00  0.00    -0.000 C 
BRANCH  15  16
ATOM     16  C   UNL     1      -7.216   1.331   6.914  1.00  0.00    -0.003 C 
ATOM     17  C   UNL     1      -7.206  -0.083   7.495  1.00  0.00     0.004 C 
ENDBRANCH  15  16
ENDBRANCH  14  15
ENDBRANCH  13  14
ENDBRANCH  12  13
ENDBRANCH  11  12
ENDBRANCH  10  11
ENDBRANCH   1  10
TORSDOF 13
ENDMDL
MODEL 2
REMARK VINA RESULT:    -3.982      1.024      3.481
REMARK INTER + INTRA:          -8.868
REMARK INTER:                  -7.221
REMARK INTRA:                  -1.647
REMARK UNBOUND:                -1.859
REMARK SMILES CCCCCCCCCCCCCCC(=O)[O-]
REMARK SMILES IDX 9 1 10 2 11 3 12 4 13 5 14 6 15 7 16 8 17 9 8 10 7 11 6 12
REMARK SMILES IDX 5 13 4 14 3 15 2 16 1 17
REMARK H PARENT
REMARK Flexibility Score: inf
ROOT
ATOM      1  C   UNL     1      -7.492   0.461   4.104  1.00  0.00     0.000 C 
ENDROOT
BRANCH   1   2
ATOM      2  C   UNL     1      -6.398   0.961   5.066  1.00  0.00     0.000 C 
BRANCH   2   3
ATOM      3  C   UNL     1      -6.567   0.532   6.533  1.00  0.00     0.000 C 
BRANCH   3   4
ATOM      4  C   UNL     1      -5.518   1.156   7.469  1.00  0.00     0.000 C 
BRANCH   4   5
ATOM      5  C   UNL     1      -4.205   1.493   6.739  1.00  0.00     0.006 C 
BRANCH   5   6
ATOM      6  C   UNL     1      -2.940   1.210   7.566  1.00  0.00     0.053 C 
BRANCH   6   7
ATOM      7  C   UNL     1      -2.795   2.163   8.712  1.00  0.00     0.041 C 
ATOM      8  O   UNL     1      -2.278   1.776   9.792  1.00  0.00    -0.550 OA
ATOM      9  O   UNL     1      -3.243   3.475   8.594  1.00  0.00    -0.550 OA
ENDBRANCH   6   7
ENDBRANCH   5   6
ENDBRANCH   4   5
ENDBRANCH   3   4
ENDBRANCH   2   3
ENDBRANCH   1   2
BRANCH   1  10
ATOM     10  C   UNL     1      -7.019  -0.558   3.048  1.00  0.00     0.000 C 
BRANCH  10  11
ATOM     11  C   UNL     1      -7.625  -1.966   3.182  1.00  0.00    -0.000 C 
BRANCH  11  12
ATOM     12  C   UNL     1      -7.430  -2.579   4.579  1.00  0.00    -0.000 C 
BRANCH  12  13
ATOM     13  C   UNL     1      -6.635  -3.891   4.494  1.00  0.00    -0.000 C 
BRANCH  13  14
ATOM     14  C   UNL     1      -5.328  -3.852   5.300  1.00  0.00    -0.000 C 
BRANCH  14  15
ATOM     15  C   UNL     1      -5.397  -2.904   6.509  1.00  0.00    -0.000 C 
BRANCH  15  16
ATOM     16  C   UNL     1      -4.020  -2.308   6.815  1.00  0.00    -0.003 C 
ATOM     17  C   UNL     1      -3.705  -2.379   8.308  1.00  0.00     0.004 C 
ENDBRANCH  15  16
ENDBRANCH  14  15
ENDBRANCH  13  14
ENDBRANCH  12  13
ENDBRANCH  11  12
ENDBRANCH  10  11
ENDBRANCH   1  10
TORSDOF 13
ENDMDL
MODEL 3
REMARK VINA RESULT:    -3.958      1.561      4.473
REMARK INTER + INTRA:          -8.825
REMARK INTER:                  -7.362
REMARK INTRA:                  -1.463
REMARK UNBOUND:                -1.859
REMARK SMILES CCCCCCCCCCCCCCC(=O)[O-]
REMARK SMILES IDX 9 1 10 2 11 3 12 4 13 5 14 6 15 7 16 8 17 9 8 10 7 11 6 12
REMARK SMILES IDX 5 13 4 14 3 15 2 16 1 17
REMARK H PARENT
REMARK Flexibility Score: inf
ROOT
ATOM      1  C   UNL     1      -5.461  -3.907   5.259  1.00  0.00     0.000 C 
ENDROOT
BRANCH   1   2
ATOM      2  C   UNL     1      -6.798  -3.852   4.495  1.00  0.00     0.000 C 
BRANCH   2   3
ATOM      3  C   UNL     1      -7.544  -2.510   4.574  1.00  0.00     0.000 C 
BRANCH   3   4
ATOM      4  C   UNL     1      -6.943  -1.431   3.657  1.00  0.00     0.000 C 
BRANCH   4   5
ATOM      5  C   UNL     1      -7.152  -0.009   4.208  1.00  0.00     0.006 C 
BRANCH   5   6
ATOM      6  C   UNL     1      -6.158   0.385   5.314  1.00  0.00     0.053 C 
BRANCH   6   7
ATOM      7  C   UNL     1      -6.846   1.001   6.492  1.00  0.00     0.041 C 
ATOM      8  O   UNL     1      -6.791   0.441   7.618  1.00  0.00    -0.550 OA
ATOM      9  O   UNL     1      -7.561   2.185   6.348  1.00  0.00    -0.550 OA
ENDBRANCH   6   7
ENDBRANCH   5   6
ENDBRANCH   4   5
ENDBRANCH   3   4
ENDBRANCH   2   3
ENDBRANCH   1   2
BRANCH   1  10
ATOM     10  C   UNL     1      -5.415  -3.076   6.557  1.00  0.00     0.000 C 
BRANCH  10  11
ATOM     11  C   UNL     1      -4.043  -2.463   6.891  1.00  0.00    -0.000 C 
BRANCH  11  12
ATOM     12  C   UNL     1      -3.848  -2.197   8.394  1.00  0.00    -0.000 C 
BRANCH  12  13
ATOM     13  C   UNL     1      -3.620  -0.701   8.658  1.00  0.00    -0.000 C 
BRANCH  13  14
ATOM     14  C   UNL     1      -3.177   0.068   7.404  1.00  0.00    -0.000 C 
BRANCH  14  15
ATOM     15  C   UNL     1      -2.513   1.416   7.731  1.00  0.00    -0.000 C 
BRANCH  15  16
ATOM     16  C   UNL     1      -3.564   2.518   7.888  1.00  0.00    -0.003 C 
ATOM     17  C   UNL     1      -3.580   3.068   9.314  1.00  0.00     0.004 C 
ENDBRANCH  15  16
ENDBRANCH  14  15
ENDBRANCH  13  14
ENDBRANCH  12  13
ENDBRANCH  11  12
ENDBRANCH  10  11
ENDBRANCH   1  10
TORSDOF 13
ENDMDL
MODEL 4
REMARK VINA RESULT:    -3.922      1.258      2.653
REMARK INTER + INTRA:          -8.761
REMARK INTER:                  -7.463
REMARK INTRA:                  -1.299
REMARK UNBOUND:                -1.859
REMARK SMILES CCCCCCCCCCCCCCC(=O)[O-]
REMARK SMILES IDX 9 1 10 2 11 3 12 4 13 5 14 6 15 7 16 8 17 9 8 10 7 11 6 12
REMARK SMILES IDX 5 13 4 14 3 15 2 16 1 17
REMARK H PARENT
REMARK Flexibility Score: inf
ROOT
ATOM      1  C   UNL     1      -3.961  -2.563   6.766  1.00  0.00     0.000 C 
ENDROOT
BRANCH   1   2
ATOM      2  C   UNL     1      -3.629  -2.341   8.255  1.00  0.00     0.000 C 
BRANCH   2   3
ATOM      3  C   UNL     1      -3.959  -0.942   8.799  1.00  0.00     0.000 C 
BRANCH   3   4
ATOM      4  C   UNL     1      -4.022   0.133   7.701  1.00  0.00     0.000 C 
BRANCH   4   5
ATOM      5  C   UNL     1      -2.716   0.944   7.597  1.00  0.00     0.006 C 
BRANCH   5   6
ATOM      6  C   UNL     1      -2.308   1.640   8.906  1.00  0.00     0.053 C 
BRANCH   6   7
ATOM      7  C   UNL     1      -3.251   2.744   9.271  1.00  0.00     0.041 C 
ATOM      8  O   UNL     1      -3.061   3.908   8.831  1.00  0.00    -0.550 OA
ATOM      9  O   UNL     1      -4.333   2.493  10.109  1.00  0.00    -0.550 OA
ENDBRANCH   6   7
ENDBRANCH   5   6
ENDBRANCH   4   5
ENDBRANCH   3   4
ENDBRANCH   2   3
ENDBRANCH   1   2
BRANCH   1  10
ATOM     10  C   UNL     1      -5.297  -3.282   6.494  1.00  0.00     0.000 C 
BRANCH  10  11
ATOM     11  C   UNL     1      -5.438  -3.884   5.084  1.00  0.00    -0.000 C 
BRANCH  11  12
ATOM     12  C   UNL     1      -6.891  -4.230   4.716  1.00  0.00    -0.000 C 
BRANCH  12  13
ATOM     13  C   UNL     1      -7.748  -2.959   4.625  1.00  0.00    -0.000 C 
BRANCH  13  14
ATOM     14  C   UNL     1      -7.636  -2.258   3.262  1.00  0.00    -0.000 C 
BRANCH  14  15
ATOM     15  C   UNL     1      -6.994  -0.864   3.357  1.00  0.00    -0.000 C 
BRANCH  15  16
ATOM     16  C   UNL     1      -6.843  -0.430   4.819  1.00  0.00    -0.003 C 
ATOM     17  C   UNL     1      -6.694   1.086   4.934  1.00  0.00     0.004 C 
ENDBRANCH  15  16
ENDBRANCH  14  15
ENDBRANCH  13  14
ENDBRANCH  12  13
ENDBRANCH  11  12
ENDBRANCH  10  11
ENDBRANCH   1  10
TORSDOF 13
ENDMDL
MODEL 5
REMARK VINA RESULT:    -3.875      2.242      4.988
REMARK INTER + INTRA:          -8.679
REMARK INTER:                  -6.875
REMARK INTRA:                  -1.804
REMARK UNBOUND:                -1.859
REMARK SMILES CCCCCCCCCCCCCCC(=O)[O-]
REMARK SMILES IDX 9 1 10 2 11 3 12 4 13 5 14 6 15 7 16 8 17 9 8 10 7 11 6 12
REMARK SMILES IDX 5 13 4 14 3 15 2 16 1 17
REMARK H PARENT
REMARK Flexibility Score: inf
ROOT
ATOM      1  C   UNL     1      -3.986  -2.015   7.130  1.00  0.00     0.000 C 
ENDROOT
BRANCH   1   2
ATOM      2  C   UNL     1      -4.675  -3.080   6.256  1.00  0.00     0.000 C 
BRANCH   2   3
ATOM      3  C   UNL     1      -6.041  -3.567   6.767  1.00  0.00     0.000 C 
BRANCH   3   4
ATOM      4  C   UNL     1      -6.894  -4.228   5.672  1.00  0.00     0.000 C 
BRANCH   4   5
ATOM      5  C   UNL     1      -6.578  -3.679   4.269  1.00  0.00     0.006 C 
BRANCH   5   6
ATOM      6  C   UNL     1      -7.607  -2.660   3.750  1.00  0.00     0.053 C 
BRANCH   6   7
ATOM      7  C   UNL     1      -7.071  -1.262   3.772  1.00  0.00     0.041 C 
ATOM      8  O   UNL     1      -6.780  -0.681   2.695  1.00  0.00    -0.550 OA
ATOM      9  O   UNL     1      -6.881  -0.604   4.983  1.00  0.00    -0.550 OA
ENDBRANCH   6   7
ENDBRANCH   5   6
ENDBRANCH   4   5
ENDBRANCH   3   4
ENDBRANCH   2   3
ENDBRANCH   1   2
BRANCH   1  10
ATOM     10  C   UNL     1      -3.957  -2.327   8.640  1.00  0.00     0.000 C 
BRANCH  10  11
ATOM     11  C   UNL     1      -4.417  -1.177   9.553  1.00  0.00    -0.000 C 
BRANCH  11  12
ATOM     12  C   UNL     1      -5.767  -0.571   9.131  1.00  0.00    -0.000 C 
BRANCH  12  13
ATOM     13  C   UNL     1      -5.674   0.960   9.042  1.00  0.00    -0.000 C 
BRANCH  13  14
ATOM     14  C   UNL     1      -5.888   1.490   7.615  1.00  0.00    -0.000 C 
BRANCH  14  15
ATOM     15  C   UNL     1      -4.575   1.652   6.833  1.00  0.00    -0.000 C 
BRANCH  15  16
ATOM     16  C   UNL     1      -3.469   2.215   7.731  1.00  0.00    -0.003 C 
ATOM     17  C   UNL     1      -2.263   1.278   7.779  1.00  0.00     0.004 C 
ENDBRANCH  15  16
ENDBRANCH  14  15
ENDBRANCH  13  14
ENDBRANCH  12  13
ENDBRANCH  11  12
ENDBRANCH  10  11
ENDBRANCH   1  10
TORSDOF 13
ENDMDL
MODEL 6
REMARK VINA RESULT:    -3.831      1.149      3.570
REMARK INTER + INTRA:          -8.602
REMARK INTER:                  -6.840
REMARK INTRA:                  -1.762
REMARK UNBOUND:                -1.859
REMARK SMILES CCCCCCCCCCCCCCC(=O)[O-]
REMARK SMILES IDX 9 1 10 2 11 3 12 4 13 5 14 6 15 7 16 8 17 9 8 10 7 11 6 12
REMARK SMILES IDX 5 13 4 14 3 15 2 16 1 17
REMARK H PARENT
REMARK Flexibility Score: inf
ROOT
ATOM      1  C   UNL     1      -6.994  -1.019   3.464  1.00  0.00     0.000 C 
ENDROOT
BRANCH   1   2
ATOM      2  C   UNL     1      -7.662   0.370   3.473  1.00  0.00     0.000 C 
BRANCH   2   3
ATOM      3  C   UNL     1      -7.199   1.313   4.595  1.00  0.00     0.000 C 
BRANCH   3   4
ATOM      4  C   UNL     1      -6.394   0.596   5.692  1.00  0.00     0.000 C 
BRANCH   4   5
ATOM      5  C   UNL     1      -5.057   1.298   5.995  1.00  0.00     0.006 C 
BRANCH   5   6
ATOM      6  C   UNL     1      -4.880   1.695   7.470  1.00  0.00     0.053 C 
BRANCH   6   7
ATOM      7  C   UNL     1      -3.452   1.998   7.800  1.00  0.00     0.041 C 
ATOM      8  O   UNL     1      -2.544   1.187   7.480  1.00  0.00    -0.550 OA
ATOM      9  O   UNL     1      -3.121   3.169   8.474  1.00  0.00    -0.550 OA
ENDBRANCH   6   7
ENDBRANCH   5   6
ENDBRANCH   4   5
ENDBRANCH   3   4
ENDBRANCH   2   3
ENDBRANCH   1   2
BRANCH   1  10
ATOM     10  C   UNL     1      -7.949  -2.206   3.701  1.00  0.00     0.000 C 
BRANCH  10  11
ATOM     11  C   UNL     1      -7.634  -3.059   4.943  1.00  0.00    -0.000 C 
BRANCH  11  12
ATOM     12  C   UNL     1      -6.615  -4.177   4.667  1.00  0.00    -0.000 C 
BRANCH  12  13
ATOM     13  C   UNL     1      -5.240  -3.818   5.249  1.00  0.00    -0.000 C 
BRANCH  13  14
ATOM     14  C   UNL     1      -5.325  -2.820   6.415  1.00  0.00    -0.000 C 
BRANCH  14  15
ATOM     15  C   UNL     1      -3.951  -2.489   7.022  1.00  0.00    -0.000 C 
BRANCH  15  16
ATOM     16  C   UNL     1      -4.104  -1.871   8.415  1.00  0.00    -0.003 C 
ATOM     17  C   UNL     1      -5.575  -1.774   8.819  1.00  0.00     0.004 C 
ENDBRANCH  15  16
ENDBRANCH  14  15
ENDBRANCH  13  14
ENDBRANCH  12  13
ENDBRANCH  11  12
ENDBRANCH  10  11
ENDBRANCH   1  10
TORSDOF 13
ENDMDL
MODEL 7
REMARK VINA RESULT:    -3.716      2.444      5.191
REMARK INTER + INTRA:          -8.399
REMARK INTER:                  -6.446
REMARK INTRA:                  -1.953
REMARK UNBOUND:                -1.859
REMARK SMILES CCCCCCCCCCCCCCC(=O)[O-]
REMARK SMILES IDX 9 1 10 2 11 3 12 4 13 5 14 6 15 7 16 8 17 9 8 10 7 11 6 12
REMARK SMILES IDX 5 13 4 14 3 15 2 16 1 17
REMARK H PARENT
REMARK Flexibility Score: inf
ROOT
ATOM      1  C   UNL     1      -4.041  -1.133   7.137  1.00  0.00     0.000 C 
ENDROOT
BRANCH   1   2
ATOM      2  C   UNL     1      -3.361   0.249   7.181  1.00  0.00     0.000 C 
BRANCH   2   3
ATOM      3  C   UNL     1      -4.249   1.431   6.758  1.00  0.00     0.000 C 
BRANCH   3   4
ATOM      4  C   UNL     1      -5.751   1.105   6.806  1.00  0.00     0.000 C 
BRANCH   4   5
ATOM      5  C   UNL     1      -6.388   1.062   5.405  1.00  0.00     0.006 C 
BRANCH   5   6
ATOM      6  C   UNL     1      -6.727  -0.356   4.916  1.00  0.00     0.053 C 
BRANCH   6   7
ATOM      7  C   UNL     1      -7.020  -0.388   3.448  1.00  0.00     0.041 C 
ATOM      8  O   UNL     1      -7.429  -1.449   2.909  1.00  0.00    -0.550 OA
ATOM      9  O   UNL     1      -6.830   0.750   2.670  1.00  0.00    -0.550 OA
ENDBRANCH   6   7
ENDBRANCH   5   6
ENDBRANCH   4   5
ENDBRANCH   3   4
ENDBRANCH   2   3
ENDBRANCH   1   2
BRANCH   1  10
ATOM     10  C   UNL     1      -3.745  -2.046   8.343  1.00  0.00     0.000 C 
BRANCH  10  11
ATOM     11  C   UNL     1      -4.973  -2.751   8.945  1.00  0.00    -0.000 C 
BRANCH  11  12
ATOM     12  C   UNL     1      -6.277  -1.958   8.762  1.00  0.00    -0.000 C 
BRANCH  12  13
ATOM     13  C   UNL     1      -7.304  -2.772   7.960  1.00  0.00    -0.000 C 
BRANCH  13  14
ATOM     14  C   UNL     1      -7.034  -4.284   8.004  1.00  0.00    -0.000 C 
BRANCH  14  15
ATOM     15  C   UNL     1      -7.011  -4.929   6.608  1.00  0.00    -0.000 C 
BRANCH  15  16
ATOM     16  C   UNL     1      -6.778  -3.874   5.523  1.00  0.00    -0.003 C 
ATOM     17  C   UNL     1      -5.324  -3.877   5.052  1.00  0.00     0.004 C 
ENDBRANCH  15  16
ENDBRANCH  14  15
ENDBRANCH  13  14
ENDBRANCH  12  13
ENDBRANCH  11  12
ENDBRANCH  10  11
ENDBRANCH   1  10
TORSDOF 13
ENDMDL
MODEL 8
REMARK VINA RESULT:    -3.635      2.636      5.522
REMARK INTER + INTRA:          -8.256
REMARK INTER:                  -6.276
REMARK INTRA:                  -1.981
REMARK UNBOUND:                -1.859
REMARK SMILES CCCCCCCCCCCCCCC(=O)[O-]
REMARK SMILES IDX 9 1 10 2 11 3 12 4 13 5 14 6 15 7 16 8 17 9 8 10 7 11 6 12
REMARK SMILES IDX 5 13 4 14 3 15 2 16 1 17
REMARK H PARENT
REMARK Flexibility Score: inf
ROOT
ATOM      1  C   UNL     1      -6.823   1.553   6.515  1.00  0.00     0.000 C 
ENDROOT
BRANCH   1   2
ATOM      2  C   UNL     1      -6.199   0.921   5.255  1.00  0.00     0.000 C 
BRANCH   2   3
ATOM      3  C   UNL     1      -7.190   0.594   4.126  1.00  0.00     0.000 C 
BRANCH   3   4
ATOM      4  C   UNL     1      -6.968  -0.800   3.514  1.00  0.00     0.000 C 
BRANCH   4   5
ATOM      5  C   UNL     1      -7.558  -1.925   4.384  1.00  0.00     0.006 C 
BRANCH   5   6
ATOM      6  C   UNL     1      -6.947  -3.310   4.113  1.00  0.00     0.053 C 
BRANCH   6   7
ATOM      7  C   UNL     1      -6.231  -3.850   5.311  1.00  0.00     0.041 C 
ATOM      8  O   UNL     1      -4.990  -3.676   5.436  1.00  0.00    -0.550 OA
ATOM      9  O   UNL     1      -6.927  -4.559   6.285  1.00  0.00    -0.550 OA
ENDBRANCH   6   7
ENDBRANCH   5   6
ENDBRANCH   4   5
ENDBRANCH   3   4
ENDBRANCH   2   3
ENDBRANCH   1   2
BRANCH   1  10
ATOM     10  C   UNL     1      -7.049   0.582   7.691  1.00  0.00     0.000 C 
BRANCH  10  11
ATOM     11  C   UNL     1      -6.327  -0.772   7.568  1.00  0.00    -0.000 C 
BRANCH  11  12
ATOM     12  C   UNL     1      -5.009  -0.830   8.359  1.00  0.00    -0.000 C 
BRANCH  12  13
ATOM     13  C   UNL     1      -3.810  -0.993   7.412  1.00  0.00    -0.000 C 
BRANCH  13  14
ATOM     14  C   UNL     1      -3.113   0.339   7.093  1.00  0.00    -0.000 C 
BRANCH  14  15
ATOM     15  C   UNL     1      -2.829   1.181   8.348  1.00  0.00    -0.000 C 
BRANCH  15  16
ATOM     16  C   UNL     1      -3.354   2.610   8.178  1.00  0.00    -0.003 C 
ATOM     17  C   UNL     1      -4.518   2.889   9.128  1.00  0.00     0.004 C 
ENDBRANCH  15  16
ENDBRANCH  14  15
ENDBRANCH  13  14
ENDBRANCH  12  13
ENDBRANCH  11  12
ENDBRANCH  10  11
ENDBRANCH   1  10
TORSDOF 13
ENDMDL
MODEL 9
REMARK VINA RESULT:    -3.610      1.977      4.079
REMARK INTER + INTRA:          -8.212
REMARK INTER:                  -6.591
REMARK INTRA:                  -1.621
REMARK UNBOUND:                -1.859
REMARK SMILES CCCCCCCCCCCCCCC(=O)[O-]
REMARK SMILES IDX 9 1 10 2 11 3 12 4 13 5 14 6 15 7 16 8 17 9 8 10 7 11 6 12
REMARK SMILES IDX 5 13 4 14 3 15 2 16 1 17
REMARK H PARENT
REMARK Flexibility Score: inf
ROOT
ATOM      1  C   UNL     1      -6.997  -1.379   3.381  1.00  0.00     0.000 C 
ENDROOT
BRANCH   1   2
ATOM      2  C   UNL     1      -7.900  -2.521   3.885  1.00  0.00     0.000 C 
BRANCH   2   3
ATOM      3  C   UNL     1      -7.159  -3.772   4.384  1.00  0.00     0.000 C 
BRANCH   3   4
ATOM      4  C   UNL     1      -5.722  -3.478   4.846  1.00  0.00     0.000 C 
BRANCH   4   5
ATOM      5  C   UNL     1      -5.622  -3.294   6.372  1.00  0.00     0.006 C 
BRANCH   5   6
ATOM      6  C   UNL     1      -4.290  -2.685   6.841  1.00  0.00     0.053 C 
BRANCH   6   7
ATOM      7  C   UNL     1      -4.267  -2.461   8.321  1.00  0.00     0.041 C 
ATOM      8  O   UNL     1      -3.274  -2.833   9.000  1.00  0.00    -0.550 OA
ATOM      9  O   UNL     1      -5.346  -1.855   8.956  1.00  0.00    -0.550 OA
ENDBRANCH   6   7
ENDBRANCH   5   6
ENDBRANCH   4   5
ENDBRANCH   3   4
ENDBRANCH   2   3
ENDBRANCH   1   2
BRANCH   1  10
ATOM     10  C   UNL     1      -7.087  -0.068   4.188  1.00  0.00     0.000 C 
BRANCH  10  11
ATOM     11  C   UNL     1      -7.597  -0.225   5.632  1.00  0.00    -0.000 C 
BRANCH  11  12
ATOM     12  C   UNL     1      -6.679   0.437   6.673  1.00  0.00    -0.000 C 
BRANCH  12  13
ATOM     13  C   UNL     1      -5.499   1.145   5.990  1.00  0.00    -0.000 C 
BRANCH  13  14
ATOM     14  C   UNL     1      -4.168   0.938   6.728  1.00  0.00    -0.000 C 
BRANCH  14  15
ATOM     15  C   UNL     1      -3.722   2.179   7.520  1.00  0.00    -0.000 C 
BRANCH  15  16
ATOM     16  C   UNL     1      -3.640   1.870   9.018  1.00  0.00    -0.003 C 
ATOM     17  C   UNL     1      -2.191   1.855   9.501  1.00  0.00     0.004 C 
ENDBRANCH  15  16
ENDBRANCH  14  15
ENDBRANCH  13  14
ENDBRANCH  12  13
ENDBRANCH  11  12
ENDBRANCH  10  11
ENDBRANCH   1  10
TORSDOF 13
ENDMDL
