MODEL 1
REMARK VINA RESULT:    -4.458      0.000      0.000
REMARK INTER + INTRA:         -13.383
REMARK INTER:                 -10.192
REMARK INTRA:                  -3.191
REMARK UNBOUND:                -3.191
REMARK SMILES CCCCCCCCCCCCCCCCCCCCCCCC(=O)[O-]
REMARK SMILES IDX 13 1 14 2 15 3 16 4 17 5 18 6 19 7 20 8 21 9 22 10 23 11
REMARK SMILES IDX 24 12 25 13 26 14 12 15 11 16 10 17 9 18 8 19 7 20 6 21 5 22
REMARK SMILES IDX 4 23 3 24 2 25 1 26
REMARK H PARENT
REMARK Flexibility Score: inf
ROOT
ATOM      1  C   UNL     1      42.811  16.765  20.734  1.00  0.00     0.000 C 
ENDROOT
BRANCH   1   2
ATOM      2  C   UNL     1      41.639  15.940  21.294  1.00  0.00     0.000 C 
BRANCH   2   3
ATOM      3  C   UNL     1      42.058  15.056  22.479  1.00  0.00     0.000 C 
BRANCH   3   4
ATOM      4  C   UNL     1      41.677  15.667  23.839  1.00  0.00     0.000 C 
BRANCH   4   5
ATOM      5  C   UNL     1      41.418  14.599  24.914  1.00  0.00     0.000 C 
BRANCH   5   6
ATOM      6  C   UNL     1      41.188  13.200  24.315  1.00  0.00     0.000 C 
BRANCH   6   7
ATOM      7  C   UNL     1      41.633  12.075  25.275  1.00  0.00     0.000 C 
BRANCH   7   8
ATOM      8  C   UNL     1      40.471  11.201  25.780  1.00  0.00     0.000 C 
BRANCH   8   9
ATOM      9  C   UNL     1      39.157  11.982  25.930  1.00  0.00     0.000 C 
BRANCH   9  10
ATOM     10  C   UNL     1      38.208  11.354  26.966  1.00  0.00     0.006 C 
BRANCH  10  11
ATOM     11  C   UNL     1      36.988  10.685  26.318  1.00  0.00     0.053 C 
BRANCH  11  12
ATOM     12  C   UNL     1      36.899   9.249  26.727  1.00  0.00     0.041 C 
ATOM     13  O   UNL     1      37.846   8.457  26.471  1.00  0.00    -0.550 OA
ATOM     14  O   UNL     1      35.751   8.771  27.343  1.00  0.00    -0.550 OA
ENDBRANCH  11  12
ENDBRANCH  10  11
ENDBRANCH   9  10
ENDBRANCH   8   9
ENDBRANCH   7   8
ENDBRANCH   6   7
ENDBRANCH   5   6
ENDBRANCH   4   5
ENDBRANCH   3   4
ENDBRANCH   2   3
ENDBRANCH   1   2
BRANCH   1  15
ATOM     15  C   UNL     1      44.180  16.137  21.042  1.00  0.00     0.000 C 
BRANCH  15  16
ATOM     16  C   UNL     1      45.172  17.135  21.655  1.00  0.00     0.000 C 
BRANCH  16  17
ATOM     17  C   UNL     1      46.005  16.472  22.762  1.00  0.00     0.000 C 
BRANCH  17  18
ATOM     18  C   UNL     1      45.317  16.525  24.136  1.00  0.00    -0.000 C 
BRANCH  18  19
ATOM     19  C   UNL     1      45.145  15.134  24.769  1.00  0.00    -0.000 C 
BRANCH  19  20
ATOM     20  C   UNL     1      45.809  14.015  23.945  1.00  0.00    -0.000 C 
BRANCH  20  21
ATOM     21  C   UNL     1      44.842  12.964  23.373  1.00  0.00    -0.000 C 
BRANCH  21  22
ATOM     22  C   UNL     1      45.088  12.673  21.886  1.00  0.00    -0.000 C 
BRANCH  22  23
ATOM     23  C   UNL     1      45.043  11.166  21.604  1.00  0.00    -0.000 C 
BRANCH  23  24
ATOM     24  C   UNL     1      43.829  10.516  22.285  1.00  0.00    -0.000 C 
BRANCH  24  25
ATOM     25  C   UNL     1      44.065   9.038  22.628  1.00  0.00    -0.003 C 
ATOM     26  C   UNL     1      43.746   8.103  21.461  1.00  0.00     0.004 C 
ENDBRANCH  24  25
ENDBRANCH  23  24
ENDBRANCH  22  23
ENDBRANCH  21  22
ENDBRANCH  20  21
ENDBRANCH  19  20
ENDBRANCH  18  19
ENDBRANCH  17  18
ENDBRANCH  16  17
ENDBRANCH  15  16
ENDBRANCH   1  15
TORSDOF 22
ENDMDL
MODEL 2
REMARK VINA RESULT:    -4.351      1.320      2.083
REMARK INTER + INTRA:         -13.137
REMARK INTER:                  -9.774
REMARK INTRA:                  -3.363
REMARK UNBOUND:                -3.191
REMARK SMILES CCCCCCCCCCCCCCCCCCCCCCCC(=O)[O-]
REMARK SMILES IDX 13 1 14 2 15 3 16 4 17 5 18 6 19 7 20 8 21 9 22 10 23 11
REMARK SMILES IDX 24 12 25 13 26 14 12 15 11 16 10 17 9 18 8 19 7 20 6 21 5 22
REMARK SMILES IDX 4 23 3 24 2 25 1 26
REMARK H PARENT
REMARK Flexibility Score: inf
ROOT
ATOM      1  C   UNL     1      42.122  15.200  22.653  1.00  0.00     0.000 C 
ENDROOT
BRANCH   1   2
ATOM      2  C   UNL     1      41.270  13.927  22.507  1.00  0.00     0.000 C 
BRANCH   2   3
ATOM      3  C   UNL     1      40.965  13.267  23.861  1.00  0.00     0.000 C 
BRANCH   3   4
ATOM      4  C   UNL     1      41.889  13.766  24.985  1.00  0.00     0.000 C 
BRANCH   4   5
ATOM      5  C   UNL     1      42.612  12.618  25.710  1.00  0.00     0.000 C 
BRANCH   5   6
ATOM      6  C   UNL     1      42.440  11.267  24.993  1.00  0.00     0.000 C 
BRANCH   6   7
ATOM      7  C   UNL     1      42.111  10.122  25.977  1.00  0.00     0.000 C 
BRANCH   7   8
ATOM      8  C   UNL     1      40.936  10.440  26.920  1.00  0.00     0.000 C 
BRANCH   8   9
ATOM      9  C   UNL     1      39.570  10.359  26.221  1.00  0.00     0.000 C 
BRANCH   9  10
ATOM     10  C   UNL     1      38.669  11.565  26.539  1.00  0.00     0.006 C 
BRANCH  10  11
ATOM     11  C   UNL     1      37.176  11.244  26.374  1.00  0.00     0.053 C 
BRANCH  11  12
ATOM     12  C   UNL     1      36.581  10.838  27.685  1.00  0.00     0.041 C 
ATOM     13  O   UNL     1      35.824   9.832  27.753  1.00  0.00    -0.550 OA
ATOM     14  O   UNL     1      36.815  11.599  28.822  1.00  0.00    -0.550 OA
ENDBRANCH  11  12
ENDBRANCH  10  11
ENDBRANCH   9  10
ENDBRANCH   8   9
ENDBRANCH   7   8
ENDBRANCH   6   7
ENDBRANCH   5   6
ENDBRANCH   4   5
ENDBRANCH   3   4
ENDBRANCH   2   3
ENDBRANCH   1   2
BRANCH   1  15
ATOM     15  C   UNL     1      41.946  16.170  21.473  1.00  0.00     0.000 C 
BRANCH  15  16
ATOM     16  C   UNL     1      43.234  16.363  20.660  1.00  0.00     0.000 C 
BRANCH  16  17
ATOM     17  C   UNL     1      44.432  16.632  21.584  1.00  0.00     0.000 C 
BRANCH  17  18
ATOM     18  C   UNL     1      45.719  15.940  21.105  1.00  0.00    -0.000 C 
BRANCH  18  19
ATOM     19  C   UNL     1      45.662  14.411  21.257  1.00  0.00    -0.000 C 
BRANCH  19  20
ATOM     20  C   UNL     1      45.992  13.938  22.685  1.00  0.00    -0.000 C 
BRANCH  20  21
ATOM     21  C   UNL     1      45.278  12.648  23.127  1.00  0.00    -0.000 C 
BRANCH  21  22
ATOM     22  C   UNL     1      44.526  11.960  21.979  1.00  0.00    -0.000 C 
BRANCH  22  23
ATOM     23  C   UNL     1      45.227  10.662  21.560  1.00  0.00    -0.000 C 
BRANCH  23  24
ATOM     24  C   UNL     1      45.544   9.789  22.784  1.00  0.00    -0.000 C 
BRANCH  24  25
ATOM     25  C   UNL     1      44.637   8.554  22.880  1.00  0.00    -0.003 C 
ATOM     26  C   UNL     1      43.885   8.273  21.579  1.00  0.00     0.004 C 
ENDBRANCH  24  25
ENDBRANCH  23  24
ENDBRANCH  22  23
ENDBRANCH  21  22
ENDBRANCH  20  21
ENDBRANCH  19  20
ENDBRANCH  18  19
ENDBRANCH  17  18
ENDBRANCH  16  17
ENDBRANCH  15  16
ENDBRANCH   1  15
TORSDOF 22
ENDMDL
MODEL 3
REMARK VINA RESULT:    -4.311      2.463      3.091
REMARK INTER + INTRA:         -13.046
REMARK INTER:                 -10.096
REMARK INTRA:                  -2.950
REMARK UNBOUND:                -3.191
REMARK SMILES CCCCCCCCCCCCCCCCCCCCCCCC(=O)[O-]
REMARK SMILES IDX 13 1 14 2 15 3 16 4 17 5 18 6 19 7 20 8 21 9 22 10 23 11
REMARK SMILES IDX 24 12 25 13 26 14 12 15 11 16 10 17 9 18 8 19 7 20 6 21 5 22
REMARK SMILES IDX 4 23 3 24 2 25 1 26
REMARK H PARENT
REMARK Flexibility Score: inf
ROOT
ATOM      1  C   UNL     1      41.634  15.962  21.257  1.00  0.00     0.000 C 
ENDROOT
BRANCH   1   2
ATOM      2  C   UNL     1      41.926  15.155  22.533  1.00  0.00     0.000 C 
BRANCH   2   3
ATOM      3  C   UNL     1      41.375  13.722  22.460  1.00  0.00     0.000 C 
BRANCH   3   4
ATOM      4  C   UNL     1      40.814  13.233  23.806  1.00  0.00     0.000 C 
BRANCH   4   5
ATOM      5  C   UNL     1      41.143  14.188  24.966  1.00  0.00     0.000 C 
BRANCH   5   6
ATOM      6  C   UNL     1      40.649  13.660  26.324  1.00  0.00     0.000 C 
BRANCH   6   7
ATOM      7  C   UNL     1      40.074  12.230  26.221  1.00  0.00     0.000 C 
BRANCH   7   8
ATOM      8  C   UNL     1      39.081  11.883  27.344  1.00  0.00     0.000 C 
BRANCH   8   9
ATOM      9  C   UNL     1      38.545  13.124  28.074  1.00  0.00     0.000 C 
BRANCH   9  10
ATOM     10  C   UNL     1      37.098  13.465  27.680  1.00  0.00     0.006 C 
BRANCH  10  11
ATOM     11  C   UNL     1      36.635  14.814  28.248  1.00  0.00     0.053 C 
BRANCH  11  12
ATOM     12  C   UNL     1      35.141  14.893  28.256  1.00  0.00     0.041 C 
ATOM     13  O   UNL     1      34.467  14.071  28.932  1.00  0.00    -0.550 OA
ATOM     14  O   UNL     1      34.491  15.838  27.474  1.00  0.00    -0.550 OA
ENDBRANCH  11  12
ENDBRANCH  10  11
ENDBRANCH   9  10
ENDBRANCH   8   9
ENDBRANCH   7   8
ENDBRANCH   6   7
ENDBRANCH   5   6
ENDBRANCH   4   5
ENDBRANCH   3   4
ENDBRANCH   2   3
ENDBRANCH   1   2
BRANCH   1  15
ATOM     15  C   UNL     1      42.738  16.982  20.933  1.00  0.00     0.000 C 
BRANCH  15  16
ATOM     16  C   UNL     1      44.062  16.322  20.525  1.00  0.00     0.000 C 
BRANCH  16  17
ATOM     17  C   UNL     1      45.186  16.695  21.503  1.00  0.00     0.000 C 
BRANCH  17  18
ATOM     18  C   UNL     1      45.810  15.467  22.188  1.00  0.00    -0.000 C 
BRANCH  18  19
ATOM     19  C   UNL     1      45.795  14.217  21.294  1.00  0.00    -0.000 C 
BRANCH  19  20
ATOM     20  C   UNL     1      45.213  12.980  22.002  1.00  0.00    -0.000 C 
BRANCH  20  21
ATOM     21  C   UNL     1      44.803  13.200  23.469  1.00  0.00    -0.000 C 
BRANCH  21  22
ATOM     22  C   UNL     1      44.400  11.899  24.178  1.00  0.00    -0.000 C 
BRANCH  22  23
ATOM     23  C   UNL     1      43.776  10.904  23.191  1.00  0.00    -0.000 C 
BRANCH  23  24
ATOM     24  C   UNL     1      44.435   9.522  23.314  1.00  0.00    -0.000 C 
BRANCH  24  25
ATOM     25  C   UNL     1      45.516   9.286  22.249  1.00  0.00    -0.003 C 
ATOM     26  C   UNL     1      44.965   9.358  20.825  1.00  0.00     0.004 C 
ENDBRANCH  24  25
ENDBRANCH  23  24
ENDBRANCH  22  23
ENDBRANCH  21  22
ENDBRANCH  20  21
ENDBRANCH  19  20
ENDBRANCH  18  19
ENDBRANCH  17  18
ENDBRANCH  16  17
ENDBRANCH  15  16
ENDBRANCH   1  15
TORSDOF 22
ENDMDL
MODEL 4
REMARK VINA RESULT:    -4.296      3.084      5.702
REMARK INTER + INTRA:         -13.012
REMARK INTER:                  -8.916
REMARK INTRA:                  -4.096
REMARK UNBOUND:                -3.191
REMARK SMILES CCCCCCCCCCCCCCCCCCCCCCCC(=O)[O-]
REMARK SMILES IDX 13 1 14 2 15 3 16 4 17 5 18 6 19 7 20 8 21 9 22 10 23 11
REMARK SMILES IDX 24 12 25 13 26 14 12 15 11 16 10 17 9 18 8 19 7 20 6 21 5 22
REMARK SMILES IDX 4 23 3 24 2 25 1 26
REMARK H PARENT
REMARK Flexibility Score: inf
ROOT
ATOM      1  C   UNL     1      41.670  13.734  22.694  1.00  0.00     0.000 C 
ENDROOT
BRANCH   1   2
ATOM      2  C   UNL     1      42.719  12.807  23.334  1.00  0.00     0.000 C 
BRANCH   2   3
ATOM      3  C   UNL     1      43.392  11.885  22.306  1.00  0.00     0.000 C 
BRANCH   3   4
ATOM      4  C   UNL     1      44.859  12.266  22.039  1.00  0.00     0.000 C 
BRANCH   4   5
ATOM      5  C   UNL     1      45.750  11.040  21.779  1.00  0.00     0.000 C 
BRANCH   5   6
ATOM      6  C   UNL     1      44.995   9.901  21.070  1.00  0.00     0.000 C 
BRANCH   6   7
ATOM      7  C   UNL     1      45.172   8.546  21.790  1.00  0.00     0.000 C 
BRANCH   7   8
ATOM      8  C   UNL     1      44.527   8.503  23.188  1.00  0.00     0.000 C 
BRANCH   8   9
ATOM      9  C   UNL     1      45.550   8.275  24.311  1.00  0.00     0.000 C 
BRANCH   9  10
ATOM     10  C   UNL     1      45.690   9.492  25.242  1.00  0.00     0.006 C 
BRANCH  10  11
ATOM     11  C   UNL     1      44.381  10.281  25.381  1.00  0.00     0.053 C 
BRANCH  11  12
ATOM     12  C   UNL     1      43.860  10.185  26.780  1.00  0.00     0.041 C 
ATOM     13  O   UNL     1      43.547  11.230  27.413  1.00  0.00    -0.550 OA
ATOM     14  O   UNL     1      43.771   8.950  27.407  1.00  0.00    -0.550 OA
ENDBRANCH  11  12
ENDBRANCH  10  11
ENDBRANCH   9  10
ENDBRANCH   8   9
ENDBRANCH   7   8
ENDBRANCH   6   7
ENDBRANCH   5   6
ENDBRANCH   4   5
ENDBRANCH   3   4
ENDBRANCH   2   3
ENDBRANCH   1   2
BRANCH   1  15
ATOM     15  C   UNL     1      42.080  15.215  22.741  1.00  0.00     0.000 C 
BRANCH  15  16
ATOM     16  C   UNL     1      41.663  15.991  21.484  1.00  0.00     0.000 C 
BRANCH  16  17
ATOM     17  C   UNL     1      42.891  16.568  20.763  1.00  0.00     0.000 C 
BRANCH  17  18
ATOM     18  C   UNL     1      44.215  15.979  21.280  1.00  0.00    -0.000 C 
BRANCH  18  19
ATOM     19  C   UNL     1      45.220  17.062  21.708  1.00  0.00    -0.000 C 
BRANCH  19  20
ATOM     20  C   UNL     1      45.689  16.902  23.166  1.00  0.00    -0.000 C 
BRANCH  20  21
ATOM     21  C   UNL     1      45.753  15.451  23.675  1.00  0.00    -0.000 C 
BRANCH  21  22
ATOM     22  C   UNL     1      44.944  15.236  24.963  1.00  0.00    -0.000 C 
BRANCH  22  23
ATOM     23  C   UNL     1      44.330  16.552  25.455  1.00  0.00    -0.000 C 
BRANCH  23  24
ATOM     24  C   UNL     1      43.082  16.289  26.312  1.00  0.00    -0.000 C 
BRANCH  24  25
ATOM     25  C   UNL     1      42.885  14.799  26.627  1.00  0.00    -0.003 C 
ATOM     26  C   UNL     1      41.444  14.336  26.411  1.00  0.00     0.004 C 
ENDBRANCH  24  25
ENDBRANCH  23  24
ENDBRANCH  22  23
ENDBRANCH  21  22
ENDBRANCH  20  21
ENDBRANCH  19  20
ENDBRANCH  18  19
ENDBRANCH  17  18
ENDBRANCH  16  17
ENDBRANCH  15  16
ENDBRANCH   1  15
TORSDOF 22
ENDMDL
MODEL 5
REMARK VINA RESULT:    -4.292      1.786      5.111
REMARK INTER + INTRA:         -13.003
REMARK INTER:                  -8.226
REMARK INTRA:                  -4.776
REMARK UNBOUND:                -3.191
REMARK SMILES CCCCCCCCCCCCCCCCCCCCCCCC(=O)[O-]
REMARK SMILES IDX 13 1 14 2 15 3 16 4 17 5 18 6 19 7 20 8 21 9 22 10 23 11
REMARK SMILES IDX 24 12 25 13 26 14 12 15 11 16 10 17 9 18 8 19 7 20 6 21 5 22
REMARK SMILES IDX 4 23 3 24 2 25 1 26
REMARK H PARENT
REMARK Flexibility Score: inf
ROOT
ATOM      1  C   UNL     1      43.926  12.007  22.172  1.00  0.00     0.000 C 
ENDROOT
BRANCH   1   2
ATOM      2  C   UNL     1      43.821  10.494  21.908  1.00  0.00     0.000 C 
BRANCH   2   3
ATOM      3  C   UNL     1      45.134   9.900  21.374  1.00  0.00     0.000 C 
BRANCH   3   4
ATOM      4  C   UNL     1      45.574   8.644  22.145  1.00  0.00     0.000 C 
BRANCH   4   5
ATOM      5  C   UNL     1      44.858   8.502  23.499  1.00  0.00     0.000 C 
BRANCH   5   6
ATOM      6  C   UNL     1      45.673   9.093  24.663  1.00  0.00     0.000 C 
BRANCH   6   7
ATOM      7  C   UNL     1      44.836  10.060  25.529  1.00  0.00     0.000 C 
BRANCH   7   8
ATOM      8  C   UNL     1      43.317   9.838  25.407  1.00  0.00     0.000 C 
BRANCH   8   9
ATOM      9  C   UNL     1      42.495  11.001  25.983  1.00  0.00     0.000 C 
BRANCH   9  10
ATOM     10  C   UNL     1      41.682  11.743  24.908  1.00  0.00     0.006 C 
BRANCH  10  11
ATOM     11  C   UNL     1      40.622  12.675  25.510  1.00  0.00     0.053 C 
BRANCH  11  12
ATOM     12  C   UNL     1      39.742  11.923  26.457  1.00  0.00     0.041 C 
ATOM     13  O   UNL     1      39.003  10.993  26.033  1.00  0.00    -0.550 OA
ATOM     14  O   UNL     1      39.693  12.282  27.796  1.00  0.00    -0.550 OA
ENDBRANCH  11  12
ENDBRANCH  10  11
ENDBRANCH   9  10
ENDBRANCH   8   9
ENDBRANCH   7   8
ENDBRANCH   6   7
ENDBRANCH   5   6
ENDBRANCH   4   5
ENDBRANCH   3   4
ENDBRANCH   2   3
ENDBRANCH   1   2
BRANCH   1  15
ATOM     15  C   UNL     1      45.367  12.531  22.057  1.00  0.00     0.000 C 
BRANCH  15  16
ATOM     16  C   UNL     1      46.065  12.664  23.418  1.00  0.00     0.000 C 
BRANCH  16  17
ATOM     17  C   UNL     1      45.679  13.982  24.106  1.00  0.00     0.000 C 
BRANCH  17  18
ATOM     18  C   UNL     1      44.695  13.778  25.271  1.00  0.00    -0.000 C 
BRANCH  18  19
ATOM     19  C   UNL     1      43.588  14.845  25.308  1.00  0.00    -0.000 C 
BRANCH  19  20
ATOM     20  C   UNL     1      43.418  15.579  23.965  1.00  0.00    -0.000 C 
BRANCH  20  21
ATOM     21  C   UNL     1      42.251  15.082  23.093  1.00  0.00    -0.000 C 
BRANCH  21  22
ATOM     22  C   UNL     1      42.249  15.703  21.689  1.00  0.00    -0.000 C 
BRANCH  22  23
ATOM     23  C   UNL     1      43.485  16.586  21.475  1.00  0.00    -0.000 C 
BRANCH  23  24
ATOM     24  C   UNL     1      44.503  15.891  20.557  1.00  0.00    -0.000 C 
BRANCH  24  25
ATOM     25  C   UNL     1      45.945  16.020  21.071  1.00  0.00    -0.003 C 
ATOM     26  C   UNL     1      46.121  17.185  22.046  1.00  0.00     0.004 C 
ENDBRANCH  24  25
ENDBRANCH  23  24
ENDBRANCH  22  23
ENDBRANCH  21  22
ENDBRANCH  20  21
ENDBRANCH  19  20
ENDBRANCH  18  19
ENDBRANCH  17  18
ENDBRANCH  16  17
ENDBRANCH  15  16
ENDBRANCH   1  15
TORSDOF 22
ENDMDL
MODEL 6
REMARK VINA RESULT:    -4.290      3.656      6.038
REMARK INTER + INTRA:         -12.999
REMARK INTER:                  -8.953
REMARK INTRA:                  -4.046
REMARK UNBOUND:                -3.191
REMARK SMILES CCCCCCCCCCCCCCCCCCCCCCCC(=O)[O-]
REMARK SMILES IDX 13 1 14 2 15 3 16 4 17 5 18 6 19 7 20 8 21 9 22 10 23 11
REMARK SMILES IDX 24 12 25 13 26 14 12 15 11 16 10 17 9 18 8 19 7 20 6 21 5 22
REMARK SMILES IDX 4 23 3 24 2 25 1 26
REMARK H PARENT
REMARK Flexibility Score: inf
ROOT
ATOM      1  C   UNL     1      41.621  14.143  23.007  1.00  0.00     0.000 C 
ENDROOT
BRANCH   1   2
ATOM      2  C   UNL     1      41.970  15.622  22.768  1.00  0.00     0.000 C 
BRANCH   2   3
ATOM      3  C   UNL     1      41.889  16.011  21.283  1.00  0.00     0.000 C 
BRANCH   3   4
ATOM      4  C   UNL     1      43.131  16.781  20.803  1.00  0.00     0.000 C 
BRANCH   4   5
ATOM      5  C   UNL     1      44.280  15.848  20.388  1.00  0.00     0.000 C 
BRANCH   5   6
ATOM      6  C   UNL     1      45.513  15.988  21.298  1.00  0.00     0.000 C 
BRANCH   6   7
ATOM      7  C   UNL     1      45.714  17.438  21.790  1.00  0.00     0.000 C 
BRANCH   7   8
ATOM      8  C   UNL     1      45.836  17.559  23.320  1.00  0.00     0.000 C 
BRANCH   8   9
ATOM      9  C   UNL     1      45.246  16.351  24.064  1.00  0.00     0.000 C 
BRANCH   9  10
ATOM     10  C   UNL     1      44.828  16.689  25.506  1.00  0.00     0.006 C 
BRANCH  10  11
ATOM     11  C   UNL     1      43.699  15.784  26.018  1.00  0.00     0.053 C 
BRANCH  11  12
ATOM     12  C   UNL     1      44.180  14.944  27.159  1.00  0.00     0.041 C 
ATOM     13  O   UNL     1      44.983  15.423  28.004  1.00  0.00    -0.550 OA
ATOM     14  O   UNL     1      43.787  13.617  27.259  1.00  0.00    -0.550 OA
ENDBRANCH  11  12
ENDBRANCH  10  11
ENDBRANCH   9  10
ENDBRANCH   8   9
ENDBRANCH   7   8
ENDBRANCH   6   7
ENDBRANCH   5   6
ENDBRANCH   4   5
ENDBRANCH   3   4
ENDBRANCH   2   3
ENDBRANCH   1   2
BRANCH   1  15
ATOM     15  C   UNL     1      42.765  13.192  22.616  1.00  0.00     0.000 C 
BRANCH  15  16
ATOM     16  C   UNL     1      43.736  12.917  23.773  1.00  0.00     0.000 C 
BRANCH  16  17
ATOM     17  C   UNL     1      45.140  12.589  23.245  1.00  0.00     0.000 C 
BRANCH  17  18
ATOM     18  C   UNL     1      45.153  12.294  21.735  1.00  0.00    -0.000 C 
BRANCH  18  19
ATOM     19  C   UNL     1      45.418  10.812  21.422  1.00  0.00    -0.000 C 
BRANCH  19  20
ATOM     20  C   UNL     1      44.136   9.959  21.431  1.00  0.00    -0.000 C 
BRANCH  20  21
ATOM     21  C   UNL     1      44.295   8.547  22.023  1.00  0.00    -0.000 C 
BRANCH  21  22
ATOM     22  C   UNL     1      45.690   8.303  22.615  1.00  0.00    -0.000 C 
BRANCH  22  23
ATOM     23  C   UNL     1      45.639   8.260  24.147  1.00  0.00    -0.000 C 
BRANCH  23  24
ATOM     24  C   UNL     1      44.228   8.587  24.659  1.00  0.00    -0.000 C 
BRANCH  24  25
ATOM     25  C   UNL     1      44.236   9.627  25.789  1.00  0.00    -0.003 C 
ATOM     26  C   UNL     1      45.584  10.337  25.927  1.00  0.00     0.004 C 
ENDBRANCH  24  25
ENDBRANCH  23  24
ENDBRANCH  22  23
ENDBRANCH  21  22
ENDBRANCH  20  21
ENDBRANCH  19  20
ENDBRANCH  18  19
ENDBRANCH  17  18
ENDBRANCH  16  17
ENDBRANCH  15  16
ENDBRANCH   1  15
TORSDOF 22
ENDMDL
MODEL 7
REMARK VINA RESULT:    -4.264      3.159      5.288
REMARK INTER + INTRA:         -12.938
REMARK INTER:                  -8.761
REMARK INTRA:                  -4.176
REMARK UNBOUND:                -3.191
REMARK SMILES CCCCCCCCCCCCCCCCCCCCCCCC(=O)[O-]
REMARK SMILES IDX 13 1 14 2 15 3 16 4 17 5 18 6 19 7 20 8 21 9 22 10 23 11
REMARK SMILES IDX 24 12 25 13 26 14 12 15 11 16 10 17 9 18 8 19 7 20 6 21 5 22
REMARK SMILES IDX 4 23 3 24 2 25 1 26
REMARK H PARENT
REMARK Flexibility Score: inf
ROOT
ATOM      1  C   UNL     1      42.002  15.457  22.850  1.00  0.00     0.000 C 
ENDROOT
BRANCH   1   2
ATOM      2  C   UNL     1      41.552  14.001  23.066  1.00  0.00     0.000 C 
BRANCH   2   3
ATOM      3  C   UNL     1      40.931  13.780  24.454  1.00  0.00     0.000 C 
BRANCH   3   4
ATOM      4  C   UNL     1      40.988  12.309  24.902  1.00  0.00     0.000 C 
BRANCH   4   5
ATOM      5  C   UNL     1      41.032  12.158  26.431  1.00  0.00     0.000 C 
BRANCH   5   6
ATOM      6  C   UNL     1      41.438  10.741  26.873  1.00  0.00     0.000 C 
BRANCH   6   7
ATOM      7  C   UNL     1      42.363  10.052  25.846  1.00  0.00     0.000 C 
BRANCH   7   8
ATOM      8  C   UNL     1      43.742   9.672  26.416  1.00  0.00     0.000 C 
BRANCH   8   9
ATOM      9  C   UNL     1      44.600   8.872  25.424  1.00  0.00     0.000 C 
BRANCH   9  10
ATOM     10  C   UNL     1      43.979   8.812  24.018  1.00  0.00     0.006 C 
BRANCH  10  11
ATOM     11  C   UNL     1      45.012   8.476  22.932  1.00  0.00     0.053 C 
BRANCH  11  12
ATOM     12  C   UNL     1      44.376   8.505  21.579  1.00  0.00     0.041 C 
ATOM     13  O   UNL     1      44.308   9.585  20.933  1.00  0.00    -0.550 OA
ATOM     14  O   UNL     1      43.808   7.353  21.052  1.00  0.00    -0.550 OA
ENDBRANCH  11  12
ENDBRANCH  10  11
ENDBRANCH   9  10
ENDBRANCH   8   9
ENDBRANCH   7   8
ENDBRANCH   6   7
ENDBRANCH   5   6
ENDBRANCH   4   5
ENDBRANCH   3   4
ENDBRANCH   2   3
ENDBRANCH   1   2
BRANCH   1  15
ATOM     15  C   UNL     1      41.632  15.992  21.457  1.00  0.00     0.000 C 
BRANCH  15  16
ATOM     16  C   UNL     1      42.806  16.683  20.749  1.00  0.00     0.000 C 
BRANCH  16  17
ATOM     17  C   UNL     1      44.149  16.221  21.335  1.00  0.00     0.000 C 
BRANCH  17  18
ATOM     18  C   UNL     1      45.124  15.715  20.259  1.00  0.00    -0.000 C 
BRANCH  18  19
ATOM     19  C   UNL     1      46.002  14.552  20.752  1.00  0.00    -0.000 C 
BRANCH  19  20
ATOM     20  C   UNL     1      45.697  14.146  22.205  1.00  0.00    -0.000 C 
BRANCH  20  21
ATOM     21  C   UNL     1      45.417  12.647  22.419  1.00  0.00    -0.000 C 
BRANCH  21  22
ATOM     22  C   UNL     1      44.512  12.376  23.629  1.00  0.00    -0.000 C 
BRANCH  22  23
ATOM     23  C   UNL     1      45.257  12.632  24.944  1.00  0.00    -0.000 C 
BRANCH  23  24
ATOM     24  C   UNL     1      44.412  13.492  25.897  1.00  0.00    -0.000 C 
BRANCH  24  25
ATOM     25  C   UNL     1      44.577  14.997  25.639  1.00  0.00    -0.003 C 
ATOM     26  C   UNL     1      43.424  15.822  26.211  1.00  0.00     0.004 C 
ENDBRANCH  24  25
ENDBRANCH  23  24
ENDBRANCH  22  23
ENDBRANCH  21  22
ENDBRANCH  20  21
ENDBRANCH  19  20
ENDBRANCH  18  19
ENDBRANCH  17  18
ENDBRANCH  16  17
ENDBRANCH  15  16
ENDBRANCH   1  15
TORSDOF 22
ENDMDL
MODEL 8
REMARK VINA RESULT:    -4.234      3.236      5.761
REMARK INTER + INTRA:         -12.871
REMARK INTER:                  -8.871
REMARK INTRA:                  -4.000
REMARK UNBOUND:                -3.191
REMARK SMILES CCCCCCCCCCCCCCCCCCCCCCCC(=O)[O-]
REMARK SMILES IDX 13 1 14 2 15 3 16 4 17 5 18 6 19 7 20 8 21 9 22 10 23 11
REMARK SMILES IDX 24 12 25 13 26 14 12 15 11 16 10 17 9 18 8 19 7 20 6 21 5 22
REMARK SMILES IDX 4 23 3 24 2 25 1 26
REMARK H PARENT
REMARK Flexibility Score: inf
ROOT
ATOM      1  C   UNL     1      41.957  15.373  22.703  1.00  0.00     0.000 C 
ENDROOT
BRANCH   1   2
ATOM      2  C   UNL     1      41.612  13.874  22.665  1.00  0.00     0.000 C 
BRANCH   2   3
ATOM      3  C   UNL     1      42.860  12.982  22.766  1.00  0.00     0.000 C 
BRANCH   3   4
ATOM      4  C   UNL     1      42.708  11.865  23.812  1.00  0.00     0.000 C 
BRANCH   4   5
ATOM      5  C   UNL     1      44.027  11.551  24.537  1.00  0.00     0.000 C 
BRANCH   5   6
ATOM      6  C   UNL     1      43.802  10.948  25.936  1.00  0.00     0.000 C 
BRANCH   6   7
ATOM      7  C   UNL     1      44.869   9.889  26.292  1.00  0.00     0.000 C 
BRANCH   7   8
ATOM      8  C   UNL     1      45.743   9.468  25.097  1.00  0.00     0.000 C 
BRANCH   8   9
ATOM      9  C   UNL     1      45.458   8.034  24.624  1.00  0.00     0.000 C 
BRANCH   9  10
ATOM     10  C   UNL     1      45.906   7.788  23.173  1.00  0.00     0.006 C 
BRANCH  10  11
ATOM     11  C   UNL     1      45.591   8.974  22.251  1.00  0.00     0.053 C 
BRANCH  11  12
ATOM     12  C   UNL     1      44.312   8.737  21.513  1.00  0.00     0.041 C 
ATOM     13  O   UNL     1      43.537   9.700  21.262  1.00  0.00    -0.550 OA
ATOM     14  O   UNL     1      43.947   7.449  21.149  1.00  0.00    -0.550 OA
ENDBRANCH  11  12
ENDBRANCH  10  11
ENDBRANCH   9  10
ENDBRANCH   8   9
ENDBRANCH   7   8
ENDBRANCH   6   7
ENDBRANCH   5   6
ENDBRANCH   4   5
ENDBRANCH   3   4
ENDBRANCH   2   3
ENDBRANCH   1   2
BRANCH   1  15
ATOM     15  C   UNL     1      41.638  16.089  21.381  1.00  0.00     0.000 C 
BRANCH  15  16
ATOM     16  C   UNL     1      42.873  16.734  20.736  1.00  0.00     0.000 C 
BRANCH  16  17
ATOM     17  C   UNL     1      44.165  16.077  21.246  1.00  0.00     0.000 C 
BRANCH  17  18
ATOM     18  C   UNL     1      45.238  17.106  21.640  1.00  0.00    -0.000 C 
BRANCH  18  19
ATOM     19  C   UNL     1      45.737  16.921  23.083  1.00  0.00    -0.000 C 
BRANCH  19  20
ATOM     20  C   UNL     1      45.833  15.441  23.499  1.00  0.00    -0.000 C 
BRANCH  20  21
ATOM     21  C   UNL     1      45.090  15.079  24.797  1.00  0.00    -0.000 C 
BRANCH  21  22
ATOM     22  C   UNL     1      44.569  16.312  25.550  1.00  0.00    -0.000 C 
BRANCH  22  23
ATOM     23  C   UNL     1      43.103  16.129  25.960  1.00  0.00    -0.000 C 
BRANCH  23  24
ATOM     24  C   UNL     1      42.815  14.666  26.333  1.00  0.00    -0.000 C 
BRANCH  24  25
ATOM     25  C   UNL     1      41.318  14.326  26.275  1.00  0.00    -0.003 C 
ATOM     26  C   UNL     1      40.950  13.135  27.161  1.00  0.00     0.004 C 
ENDBRANCH  24  25
ENDBRANCH  23  24
ENDBRANCH  22  23
ENDBRANCH  21  22
ENDBRANCH  20  21
ENDBRANCH  19  20
ENDBRANCH  18  19
ENDBRANCH  17  18
ENDBRANCH  16  17
ENDBRANCH  15  16
ENDBRANCH   1  15
TORSDOF 22
ENDMDL
MODEL 9
REMARK VINA RESULT:    -4.211      3.171      5.178
REMARK INTER + INTRA:         -12.817
REMARK INTER:                  -8.618
REMARK INTRA:                  -4.199
REMARK UNBOUND:                -3.191
REMARK SMILES CCCCCCCCCCCCCCCCCCCCCCCC(=O)[O-]
REMARK SMILES IDX 13 1 14 2 15 3 16 4 17 5 18 6 19 7 20 8 21 9 22 10 23 11
REMARK SMILES IDX 24 12 25 13 26 14 12 15 11 16 10 17 9 18 8 19 7 20 6 21 5 22
REMARK SMILES IDX 4 23 3 24 2 25 1 26
REMARK H PARENT
REMARK Flexibility Score: inf
ROOT
ATOM      1  C   UNL     1      42.185  16.360  21.220  1.00  0.00     0.000 C 
ENDROOT
BRANCH   1   2
ATOM      2  C   UNL     1      43.637  16.806  20.974  1.00  0.00     0.000 C 
BRANCH   2   3
ATOM      3  C   UNL     1      44.415  15.812  20.097  1.00  0.00     0.000 C 
BRANCH   3   4
ATOM      4  C   UNL     1      45.679  15.274  20.789  1.00  0.00     0.000 C 
BRANCH   4   5
ATOM      5  C   UNL     1      45.465  13.886  21.414  1.00  0.00     0.000 C 
BRANCH   5   6
ATOM      6  C   UNL     1      45.470  13.924  22.953  1.00  0.00     0.000 C 
BRANCH   6   7
ATOM      7  C   UNL     1      45.914  15.299  23.501  1.00  0.00     0.000 C 
BRANCH   7   8
ATOM      8  C   UNL     1      45.529  15.529  24.974  1.00  0.00     0.000 C 
BRANCH   8   9
ATOM      9  C   UNL     1      45.024  14.254  25.666  1.00  0.00     0.000 C 
BRANCH   9  10
ATOM     10  C   UNL     1      43.824  14.517  26.591  1.00  0.00     0.006 C 
BRANCH  10  11
ATOM     11  C   UNL     1      42.939  15.670  26.096  1.00  0.00     0.053 C 
BRANCH  11  12
ATOM     12  C   UNL     1      41.614  15.647  26.789  1.00  0.00     0.041 C 
ATOM     13  O   UNL     1      40.548  15.730  26.121  1.00  0.00    -0.550 OA
ATOM     14  O   UNL     1      41.554  15.590  28.174  1.00  0.00    -0.550 OA
ENDBRANCH  11  12
ENDBRANCH  10  11
ENDBRANCH   9  10
ENDBRANCH   8   9
ENDBRANCH   7   8
ENDBRANCH   6   7
ENDBRANCH   5   6
ENDBRANCH   4   5
ENDBRANCH   3   4
ENDBRANCH   2   3
ENDBRANCH   1   2
BRANCH   1  15
ATOM     15  C   UNL     1      42.027  15.537  22.509  1.00  0.00     0.000 C 
BRANCH  15  16
ATOM     16  C   UNL     1      41.562  14.098  22.246  1.00  0.00     0.000 C 
BRANCH  16  17
ATOM     17  C   UNL     1      41.377  13.331  23.565  1.00  0.00     0.000 C 
BRANCH  17  18
ATOM     18  C   UNL     1      42.421  12.219  23.758  1.00  0.00    -0.000 C 
BRANCH  18  19
ATOM     19  C   UNL     1      42.231  11.447  25.074  1.00  0.00    -0.000 C 
BRANCH  19  20
ATOM     20  C   UNL     1      43.184  10.245  25.208  1.00  0.00    -0.000 C 
BRANCH  20  21
ATOM     21  C   UNL     1      44.623  10.597  25.625  1.00  0.00    -0.000 C 
BRANCH  21  22
ATOM     22  C   UNL     1      45.669   9.656  25.011  1.00  0.00    -0.000 C 
BRANCH  22  23
ATOM     23  C   UNL     1      45.646   9.731  23.479  1.00  0.00    -0.000 C 
BRANCH  23  24
ATOM     24  C   UNL     1      45.566   8.326  22.862  1.00  0.00    -0.000 C 
BRANCH  24  25
ATOM     25  C   UNL     1      44.635   8.269  21.641  1.00  0.00    -0.003 C 
ATOM     26  C   UNL     1      43.787   9.532  21.489  1.00  0.00     0.004 C 
ENDBRANCH  24  25
ENDBRANCH  23  24
ENDBRANCH  22  23
ENDBRANCH  21  22
ENDBRANCH  20  21
ENDBRANCH  19  20
ENDBRANCH  18  19
ENDBRANCH  17  18
ENDBRANCH  16  17
ENDBRANCH  15  16
ENDBRANCH   1  15
TORSDOF 22
ENDMDL
