MODEL 1
REMARK VINA RESULT:    -5.603      0.000      0.000
REMARK INTER + INTRA:          -8.631
REMARK INTER:                  -7.568
REMARK INTRA:                  -1.063
REMARK UNBOUND:                -1.063
REMARK SMILES O=c1c(-c2ccc(O)cc2)coc2c([C@@H]3O[C@H](CO)[C@H](O)[C@@H](O)[C@@H]3O)c(O)ccc12
REMARK SMILES IDX 3 1 11 2 12 3 13 4 30 5 2 6 1 7 29 8 28 9 26 10 14 11 4 12
REMARK SMILES IDX 5 13 6 14 7 15 10 16 9 17 8 18 15 20 24 21 16 22 22 23 17 24
REMARK SMILES IDX 20 25 25 26 23 28 18 30 19 31 21 33 27 35
REMARK H PARENT 8 19 25 27 23 29 19 32 21 34 27 36
REMARK Flexibility Score: inf
ROOT
ATOM      1  C   UNL     1     -25.476 -62.331  58.329  1.00  0.00     0.065 A 
ATOM      2  C   UNL     1     -25.893 -62.316  59.667  1.00  0.00     0.208 A 
ATOM      3  O   UNL     1     -27.209 -62.049  59.909  1.00  0.00    -0.463 OA
ATOM      4  C   UNL     1     -28.148 -61.794  58.919  1.00  0.00     0.147 A 
ATOM      5  C   UNL     1     -27.739 -61.806  57.573  1.00  0.00     0.066 A 
ATOM      6  C   UNL     1     -26.388 -62.060  57.286  1.00  0.00     0.200 A 
ATOM      7  O   UNL     1     -25.985 -62.029  56.092  1.00  0.00    -0.288 OA
ATOM      8  C   UNL     1     -28.681 -61.568  56.559  1.00  0.00     0.020 A 
ATOM      9  C   UNL     1     -30.016 -61.332  56.884  1.00  0.00     0.047 A 
ATOM     10  C   UNL     1     -30.433 -61.315  58.222  1.00  0.00     0.125 A 
ATOM     11  C   UNL     1     -29.495 -61.519  59.259  1.00  0.00     0.069 A 
ENDROOT
BRANCH   1  12
ATOM     12  C   UNL     1     -24.050 -62.630  58.051  1.00  0.00    -0.011 A 
ATOM     13  C   UNL     1     -23.652 -63.911  57.626  1.00  0.00     0.013 A 
ATOM     14  C   UNL     1     -22.303 -64.186  57.377  1.00  0.00     0.047 A 
ATOM     15  C   UNL     1     -21.335 -63.189  57.556  1.00  0.00     0.115 A 
ATOM     16  C   UNL     1     -23.071 -61.637  58.235  1.00  0.00     0.013 A 
ATOM     17  C   UNL     1     -21.724 -61.917  57.987  1.00  0.00     0.047 A 
BRANCH  15  18
ATOM     18  O   UNL     1     -19.989 -63.454  57.311  1.00  0.00    -0.508 OA
ATOM     19  H   UNL     1     -19.267 -63.180  57.965  1.00  0.00     0.293 HD
ENDBRANCH  15  18
ENDBRANCH   1  12
BRANCH  11  20
ATOM     20  C   UNL     1     -29.956 -61.503  60.711  1.00  0.00     0.188 C 
ATOM     21  C   UNL     1     -29.663 -60.127  61.352  1.00  0.00     0.179 C 
ATOM     22  O   UNL     1     -31.330 -61.863  60.781  1.00  0.00    -0.362 OA
ATOM     23  C   UNL     1     -30.059 -60.115  62.852  1.00  0.00     0.177 C 
ATOM     24  C   UNL     1     -31.954 -61.640  62.047  1.00  0.00     0.176 C 
ATOM     25  C   UNL     1     -30.981 -61.301  63.211  1.00  0.00     0.177 C 
BRANCH  21  26
ATOM     26  O   UNL     1     -30.359 -59.123  60.660  1.00  0.00    -0.387 OA
ATOM     27  H   UNL     1     -29.775 -58.322  60.648  1.00  0.00     0.211 HD
ENDBRANCH  21  26
BRANCH  23  28
ATOM     28  O   UNL     1     -28.896 -60.174  63.640  1.00  0.00    -0.387 OA
ATOM     29  H   UNL     1     -29.055 -59.602  64.435  1.00  0.00     0.211 HD
ENDBRANCH  23  28
BRANCH  24  30
ATOM     30  C   UNL     1     -33.074 -60.598  61.862  1.00  0.00     0.191 C 
BRANCH  30  31
ATOM     31  O   UNL     1     -33.056 -60.077  60.562  1.00  0.00    -0.394 OA
ATOM     32  H   UNL     1     -33.989 -60.129  60.228  1.00  0.00     0.210 HD
ENDBRANCH  30  31
ENDBRANCH  24  30
BRANCH  25  33
ATOM     33  O   UNL     1     -31.698 -61.022  64.388  1.00  0.00    -0.388 OA
ATOM     34  H   UNL     1     -31.223 -61.473  65.134  1.00  0.00     0.211 HD
ENDBRANCH  25  33
ENDBRANCH  11  20
BRANCH  10  35
ATOM     35  O   UNL     1     -31.778 -61.094  58.519  1.00  0.00    -0.507 OA
ATOM     36  H   UNL     1     -32.339 -60.428  57.999  1.00  0.00     0.293 HD
ENDBRANCH  10  35
TORSDOF 9
ENDMDL
MODEL 2
REMARK VINA RESULT:    -5.328      4.894      8.784
REMARK INTER + INTRA:          -8.260
REMARK INTER:                  -7.200
REMARK INTRA:                  -1.060
REMARK UNBOUND:                -1.063
REMARK SMILES O=c1c(-c2ccc(O)cc2)coc2c([C@@H]3O[C@H](CO)[C@H](O)[C@@H](O)[C@@H]3O)c(O)ccc12
REMARK SMILES IDX 3 1 11 2 12 3 13 4 30 5 2 6 1 7 29 8 28 9 26 10 14 11 4 12
REMARK SMILES IDX 5 13 6 14 7 15 10 16 9 17 8 18 15 20 24 21 16 22 22 23 17 24
REMARK SMILES IDX 20 25 25 26 23 28 18 30 19 31 21 33 27 35
REMARK H PARENT 8 19 25 27 23 29 19 32 21 34 27 36
REMARK Flexibility Score: inf
ROOT
ATOM      1  C   UNL     1     -19.925 -67.015  54.421  1.00  0.00     0.065 A 
ATOM      2  C   UNL     1     -20.231 -65.650  54.335  1.00  0.00     0.208 A 
ATOM      3  O   UNL     1     -21.212 -65.176  55.156  1.00  0.00    -0.463 OA
ATOM      4  C   UNL     1     -21.916 -65.957  56.062  1.00  0.00     0.147 A 
ATOM      5  C   UNL     1     -21.616 -67.329  56.156  1.00  0.00     0.066 A 
ATOM      6  C   UNL     1     -20.624 -67.856  55.313  1.00  0.00     0.200 A 
ATOM      7  O   UNL     1     -20.369 -69.091  55.342  1.00  0.00    -0.288 OA
ATOM      8  C   UNL     1     -22.306 -68.129  57.080  1.00  0.00     0.020 A 
ATOM      9  C   UNL     1     -23.276 -67.565  57.908  1.00  0.00     0.047 A 
ATOM     10  C   UNL     1     -23.584 -66.201  57.820  1.00  0.00     0.125 A 
ATOM     11  C   UNL     1     -22.925 -65.384  56.874  1.00  0.00     0.069 A 
ENDROOT
BRANCH   1  12
ATOM     12  C   UNL     1     -18.853 -67.542  53.541  1.00  0.00    -0.011 A 
ATOM     13  C   UNL     1     -17.503 -67.239  53.790  1.00  0.00     0.013 A 
ATOM     14  C   UNL     1     -16.500 -67.731  52.946  1.00  0.00     0.047 A 
ATOM     15  C   UNL     1     -16.835 -68.525  51.842  1.00  0.00     0.115 A 
ATOM     16  C   UNL     1     -19.181 -68.333  52.425  1.00  0.00     0.013 A 
ATOM     17  C   UNL     1     -18.176 -68.822  51.584  1.00  0.00     0.047 A 
BRANCH  15  18
ATOM     18  O   UNL     1     -15.844 -69.020  50.997  1.00  0.00    -0.508 OA
ATOM     19  H   UNL     1     -16.057 -69.676  50.256  1.00  0.00     0.293 HD
ENDBRANCH  15  18
ENDBRANCH   1  12
BRANCH  11  20
ATOM     20  C   UNL     1     -23.262 -63.902  56.787  1.00  0.00     0.188 C 
ATOM     21  C   UNL     1     -24.515 -63.686  55.907  1.00  0.00     0.179 C 
ATOM     22  O   UNL     1     -23.410 -63.366  58.096  1.00  0.00    -0.362 OA
ATOM     23  C   UNL     1     -24.831 -62.177  55.747  1.00  0.00     0.177 C 
ATOM     24  C   UNL     1     -23.975 -62.056  58.158  1.00  0.00     0.176 C 
ATOM     25  C   UNL     1     -24.085 -61.320  56.792  1.00  0.00     0.177 C 
BRANCH  21  26
ATOM     26  O   UNL     1     -25.613 -64.354  56.473  1.00  0.00    -0.387 OA
ATOM     27  H   UNL     1     -26.339 -64.342  55.797  1.00  0.00     0.211 HD
ENDBRANCH  21  26
BRANCH  23  28
ATOM     28  O   UNL     1     -24.463 -61.760  54.455  1.00  0.00    -0.387 OA
ATOM     29  H   UNL     1     -23.682 -61.156  54.556  1.00  0.00     0.211 HD
ENDBRANCH  23  28
BRANCH  24  30
ATOM     30  C   UNL     1     -25.312 -62.136  58.920  1.00  0.00     0.191 C 
BRANCH  30  31
ATOM     31  O   UNL     1     -25.304 -63.210  59.820  1.00  0.00    -0.394 OA
ATOM     32  H   UNL     1     -25.216 -64.032  59.272  1.00  0.00     0.210 HD
ENDBRANCH  30  31
ENDBRANCH  24  30
BRANCH  25  33
ATOM     33  O   UNL     1     -24.725 -60.078  56.951  1.00  0.00    -0.388 OA
ATOM     34  H   UNL     1     -25.485 -60.056  56.313  1.00  0.00     0.211 HD
ENDBRANCH  25  33
ENDBRANCH  11  20
BRANCH  10  35
ATOM     35  O   UNL     1     -24.546 -65.657  58.673  1.00  0.00    -0.507 OA
ATOM     36  H   UNL     1     -25.501 -66.000  58.691  1.00  0.00     0.293 HD
ENDBRANCH  10  35
TORSDOF 9
ENDMDL
MODEL 3
REMARK VINA RESULT:    -5.271      4.656      7.058
REMARK INTER + INTRA:          -8.183
REMARK INTER:                  -7.017
REMARK INTRA:                  -1.167
REMARK UNBOUND:                -1.063
REMARK SMILES O=c1c(-c2ccc(O)cc2)coc2c([C@@H]3O[C@H](CO)[C@H](O)[C@@H](O)[C@@H]3O)c(O)ccc12
REMARK SMILES IDX 3 1 11 2 12 3 13 4 30 5 2 6 1 7 29 8 28 9 26 10 14 11 4 12
REMARK SMILES IDX 5 13 6 14 7 15 10 16 9 17 8 18 15 20 24 21 16 22 22 23 17 24
REMARK SMILES IDX 20 25 25 26 23 28 18 30 19 31 21 33 27 35
REMARK H PARENT 8 19 25 27 23 29 19 32 21 34 27 36
REMARK Flexibility Score: inf
ROOT
ATOM      1  C   UNL     1     -22.857 -66.952  57.507  1.00  0.00     0.065 A 
ATOM      2  C   UNL     1     -24.002 -66.371  58.069  1.00  0.00     0.208 A 
ATOM      3  O   UNL     1     -24.983 -65.966  57.212  1.00  0.00    -0.463 OA
ATOM      4  C   UNL     1     -24.915 -66.095  55.832  1.00  0.00     0.147 A 
ATOM      5  C   UNL     1     -23.770 -66.677  55.258  1.00  0.00     0.066 A 
ATOM      6  C   UNL     1     -22.731 -67.089  56.108  1.00  0.00     0.200 A 
ATOM      7  O   UNL     1     -21.673 -67.569  55.617  1.00  0.00    -0.288 OA
ATOM      8  C   UNL     1     -23.693 -66.831  53.864  1.00  0.00     0.020 A 
ATOM      9  C   UNL     1     -24.752 -66.420  53.055  1.00  0.00     0.047 A 
ATOM     10  C   UNL     1     -25.895 -65.836  53.617  1.00  0.00     0.125 A 
ATOM     11  C   UNL     1     -25.979 -65.642  55.014  1.00  0.00     0.069 A 
ENDROOT
BRANCH   1  12
ATOM     12  C   UNL     1     -21.786 -67.406  58.428  1.00  0.00    -0.011 A 
ATOM     13  C   UNL     1     -20.686 -66.579  58.717  1.00  0.00     0.013 A 
ATOM     14  C   UNL     1     -19.676 -67.020  59.579  1.00  0.00     0.047 A 
ATOM     15  C   UNL     1     -19.748 -68.294  60.155  1.00  0.00     0.115 A 
ATOM     16  C   UNL     1     -21.848 -68.687  59.006  1.00  0.00     0.013 A 
ATOM     17  C   UNL     1     -20.835 -69.125  59.865  1.00  0.00     0.047 A 
BRANCH  15  18
ATOM     18  O   UNL     1     -18.747 -68.743  61.015  1.00  0.00    -0.508 OA
ATOM     19  H   UNL     1     -18.964 -69.127  61.926  1.00  0.00     0.293 HD
ENDBRANCH  15  18
ENDBRANCH   1  12
BRANCH  11  20
ATOM     20  C   UNL     1     -27.226 -65.011  55.618  1.00  0.00     0.188 C 
ATOM     21  C   UNL     1     -27.123 -63.469  55.577  1.00  0.00     0.179 C 
ATOM     22  O   UNL     1     -28.382 -65.504  54.952  1.00  0.00    -0.362 OA
ATOM     23  C   UNL     1     -28.352 -62.810  56.254  1.00  0.00     0.177 C 
ATOM     24  C   UNL     1     -29.596 -64.808  55.243  1.00  0.00     0.176 C 
ATOM     25  C   UNL     1     -29.515 -63.810  56.433  1.00  0.00     0.177 C 
BRANCH  21  26
ATOM     26  O   UNL     1     -27.013 -63.037  54.245  1.00  0.00    -0.387 OA
ATOM     27  H   UNL     1     -26.436 -62.229  54.250  1.00  0.00     0.211 HD
ENDBRANCH  21  26
BRANCH  23  28
ATOM     28  O   UNL     1     -27.974 -62.305  57.511  1.00  0.00    -0.387 OA
ATOM     29  H   UNL     1     -27.636 -63.072  58.042  1.00  0.00     0.211 HD
ENDBRANCH  23  28
BRANCH  24  30
ATOM     30  C   UNL     1     -30.115 -64.168  53.941  1.00  0.00     0.191 C 
BRANCH  30  31
ATOM     31  O   UNL     1     -29.636 -64.862  52.823  1.00  0.00    -0.394 OA
ATOM     32  H   UNL     1     -29.401 -64.174  52.147  1.00  0.00     0.210 HD
ENDBRANCH  30  31
ENDBRANCH  24  30
BRANCH  25  33
ATOM     33  O   UNL     1     -30.731 -63.122  56.583  1.00  0.00    -0.388 OA
ATOM     34  H   UNL     1     -31.274 -63.306  55.772  1.00  0.00     0.211 HD
ENDBRANCH  25  33
ENDBRANCH  11  20
BRANCH  10  35
ATOM     35  O   UNL     1     -26.948 -65.450  52.786  1.00  0.00    -0.507 OA
ATOM     36  H   UNL     1     -27.727 -66.068  52.586  1.00  0.00     0.293 HD
ENDBRANCH  10  35
TORSDOF 9
ENDMDL
MODEL 4
REMARK VINA RESULT:    -5.231      5.473      6.842
REMARK INTER + INTRA:          -8.129
REMARK INTER:                  -7.143
REMARK INTRA:                  -0.986
REMARK UNBOUND:                -1.063
REMARK SMILES O=c1c(-c2ccc(O)cc2)coc2c([C@@H]3O[C@H](CO)[C@H](O)[C@@H](O)[C@@H]3O)c(O)ccc12
REMARK SMILES IDX 3 1 11 2 12 3 13 4 30 5 2 6 1 7 29 8 28 9 26 10 14 11 4 12
REMARK SMILES IDX 5 13 6 14 7 15 10 16 9 17 8 18 15 20 24 21 16 22 22 23 17 24
REMARK SMILES IDX 20 25 25 26 23 28 18 30 19 31 21 33 27 35
REMARK H PARENT 8 19 25 27 23 29 19 32 21 34 27 36
REMARK Flexibility Score: inf
ROOT
ATOM      1  C   UNL     1     -22.831 -63.288  57.162  1.00  0.00     0.065 A 
ATOM      2  C   UNL     1     -24.038 -62.744  56.703  1.00  0.00     0.208 A 
ATOM      3  O   UNL     1     -25.084 -63.603  56.528  1.00  0.00    -0.463 OA
ATOM      4  C   UNL     1     -25.023 -64.967  56.776  1.00  0.00     0.147 A 
ATOM      5  C   UNL     1     -23.815 -65.522  57.236  1.00  0.00     0.066 A 
ATOM      6  C   UNL     1     -22.711 -64.672  57.411  1.00  0.00     0.200 A 
ATOM      7  O   UNL     1     -21.603 -65.151  57.777  1.00  0.00    -0.288 OA
ATOM      8  C   UNL     1     -23.742 -66.898  57.509  1.00  0.00     0.020 A 
ATOM      9  C   UNL     1     -24.864 -67.707  57.335  1.00  0.00     0.047 A 
ATOM     10  C   UNL     1     -26.071 -67.164  56.874  1.00  0.00     0.125 A 
ATOM     11  C   UNL     1     -26.157 -65.789  56.562  1.00  0.00     0.069 A 
ENDROOT
BRANCH   1  12
ATOM     12  C   UNL     1     -21.688 -62.364  57.366  1.00  0.00    -0.011 A 
ATOM     13  C   UNL     1     -21.047 -61.759  56.270  1.00  0.00     0.013 A 
ATOM     14  C   UNL     1     -19.963 -60.897  56.472  1.00  0.00     0.047 A 
ATOM     15  C   UNL     1     -19.502 -60.636  57.769  1.00  0.00     0.115 A 
ATOM     16  C   UNL     1     -21.215 -62.102  58.664  1.00  0.00     0.013 A 
ATOM     17  C   UNL     1     -20.130 -61.241  58.861  1.00  0.00     0.047 A 
BRANCH  15  18
ATOM     18  O   UNL     1     -18.424 -59.779  57.980  1.00  0.00    -0.508 OA
ATOM     19  H   UNL     1     -17.646 -60.042  58.572  1.00  0.00     0.293 HD
ENDBRANCH  15  18
ENDBRANCH   1  12
BRANCH  11  20
ATOM     20  C   UNL     1     -27.472 -65.205  56.065  1.00  0.00     0.188 C 
ATOM     21  C   UNL     1     -27.497 -65.173  54.519  1.00  0.00     0.179 C 
ATOM     22  O   UNL     1     -28.560 -65.935  56.618  1.00  0.00    -0.362 OA
ATOM     23  C   UNL     1     -28.799 -64.515  53.995  1.00  0.00     0.177 C 
ATOM     24  C   UNL     1     -29.836 -65.661  56.038  1.00  0.00     0.176 C 
ATOM     25  C   UNL     1     -29.880 -64.425  55.094  1.00  0.00     0.177 C 
BRANCH  21  26
ATOM     26  O   UNL     1     -27.378 -66.479  54.016  1.00  0.00    -0.387 OA
ATOM     27  H   UNL     1     -28.121 -66.610  53.372  1.00  0.00     0.211 HD
ENDBRANCH  21  26
BRANCH  23  28
ATOM     28  O   UNL     1     -28.508 -63.223  53.521  1.00  0.00    -0.387 OA
ATOM     29  H   UNL     1     -27.602 -63.259  53.118  1.00  0.00     0.211 HD
ENDBRANCH  23  28
BRANCH  24  30
ATOM     30  C   UNL     1     -30.362 -66.951  55.381  1.00  0.00     0.191 C 
BRANCH  30  31
ATOM     31  O   UNL     1     -29.964 -68.077  56.114  1.00  0.00    -0.394 OA
ATOM     32  H   UNL     1     -30.647 -68.777  55.943  1.00  0.00     0.210 HD
ENDBRANCH  30  31
ENDBRANCH  24  30
BRANCH  25  33
ATOM     33  O   UNL     1     -31.154 -64.291  54.516  1.00  0.00    -0.388 OA
ATOM     34  H   UNL     1     -31.680 -63.687  55.102  1.00  0.00     0.211 HD
ENDBRANCH  25  33
ENDBRANCH  11  20
BRANCH  10  35
ATOM     35  O   UNL     1     -27.184 -67.992  56.725  1.00  0.00    -0.507 OA
ATOM     36  H   UNL     1     -27.404 -68.720  57.397  1.00  0.00     0.293 HD
ENDBRANCH  10  35
TORSDOF 9
ENDMDL
MODEL 5
REMARK VINA RESULT:    -5.146      6.512      9.904
REMARK INTER + INTRA:          -8.014
REMARK INTER:                  -7.420
REMARK INTRA:                  -0.594
REMARK UNBOUND:                -1.063
REMARK SMILES O=c1c(-c2ccc(O)cc2)coc2c([C@@H]3O[C@H](CO)[C@H](O)[C@@H](O)[C@@H]3O)c(O)ccc12
REMARK SMILES IDX 3 1 11 2 12 3 13 4 30 5 2 6 1 7 29 8 28 9 26 10 14 11 4 12
REMARK SMILES IDX 5 13 6 14 7 15 10 16 9 17 8 18 15 20 24 21 16 22 22 23 17 24
REMARK SMILES IDX 20 25 25 26 23 28 18 30 19 31 21 33 27 35
REMARK H PARENT 8 19 25 27 23 29 19 32 21 34 27 36
REMARK Flexibility Score: inf
ROOT
ATOM      1  C   UNL     1     -24.613 -66.034  56.341  1.00  0.00     0.065 A 
ATOM      2  C   UNL     1     -24.034 -64.757  56.372  1.00  0.00     0.208 A 
ATOM      3  O   UNL     1     -22.806 -64.641  56.956  1.00  0.00    -0.463 OA
ATOM      4  C   UNL     1     -22.104 -65.701  57.514  1.00  0.00     0.147 A 
ATOM      5  C   UNL     1     -22.678 -66.986  57.488  1.00  0.00     0.066 A 
ATOM      6  C   UNL     1     -23.948 -67.140  56.911  1.00  0.00     0.200 A 
ATOM      7  O   UNL     1     -24.506 -68.272  56.918  1.00  0.00    -0.288 OA
ATOM      8  C   UNL     1     -21.973 -68.072  58.032  1.00  0.00     0.020 A 
ATOM      9  C   UNL     1     -20.707 -67.880  58.585  1.00  0.00     0.047 A 
ATOM     10  C   UNL     1     -20.129 -66.603  58.618  1.00  0.00     0.125 A 
ATOM     11  C   UNL     1     -20.835 -65.492  58.106  1.00  0.00     0.069 A 
ENDROOT
BRANCH   1  12
ATOM     12  C   UNL     1     -25.943 -66.175  55.701  1.00  0.00    -0.011 A 
ATOM     13  C   UNL     1     -26.093 -66.027  54.310  1.00  0.00     0.013 A 
ATOM     14  C   UNL     1     -27.354 -66.152  53.717  1.00  0.00     0.047 A 
ATOM     15  C   UNL     1     -28.480 -66.418  54.505  1.00  0.00     0.115 A 
ATOM     16  C   UNL     1     -27.081 -66.436  56.486  1.00  0.00     0.013 A 
ATOM     17  C   UNL     1     -28.340 -66.558  55.889  1.00  0.00     0.047 A 
BRANCH  15  18
ATOM     18  O   UNL     1     -29.740 -66.544  53.924  1.00  0.00    -0.508 OA
ATOM     19  H   UNL     1     -30.106 -65.842  53.293  1.00  0.00     0.293 HD
ENDBRANCH  15  18
ENDBRANCH   1  12
BRANCH  11  20
ATOM     20  C   UNL     1     -20.199 -64.108  58.142  1.00  0.00     0.188 C 
ATOM     21  C   UNL     1     -19.311 -63.892  56.894  1.00  0.00     0.179 C 
ATOM     22  O   UNL     1     -21.212 -63.119  58.276  1.00  0.00    -0.362 OA
ATOM     23  C   UNL     1     -18.598 -62.516  56.950  1.00  0.00     0.177 C 
ATOM     24  C   UNL     1     -20.782 -61.773  58.066  1.00  0.00     0.176 C 
ATOM     25  C   UNL     1     -19.240 -61.578  57.995  1.00  0.00     0.177 C 
BRANCH  21  26
ATOM     26  O   UNL     1     -20.095 -63.985  55.733  1.00  0.00    -0.387 OA
ATOM     27  H   UNL     1     -20.899 -63.422  55.881  1.00  0.00     0.211 HD
ENDBRANCH  21  26
BRANCH  23  28
ATOM     28  O   UNL     1     -17.242 -62.709  57.268  1.00  0.00    -0.387 OA
ATOM     29  H   UNL     1     -17.158 -63.626  57.638  1.00  0.00     0.211 HD
ENDBRANCH  23  28
BRANCH  24  30
ATOM     30  C   UNL     1     -21.527 -61.207  56.842  1.00  0.00     0.191 C 
BRANCH  30  31
ATOM     31  O   UNL     1     -22.887 -61.539  56.894  1.00  0.00    -0.394 OA
ATOM     32  H   UNL     1     -23.364 -60.845  56.368  1.00  0.00     0.210 HD
ENDBRANCH  30  31
ENDBRANCH  24  30
BRANCH  25  33
ATOM     33  O   UNL     1     -18.926 -60.238  57.707  1.00  0.00    -0.388 OA
ATOM     34  H   UNL     1     -19.782 -59.767  57.537  1.00  0.00     0.211 HD
ENDBRANCH  25  33
ENDBRANCH  11  20
BRANCH  10  35
ATOM     35  O   UNL     1     -18.854 -66.441  59.161  1.00  0.00    -0.507 OA
ATOM     36  H   UNL     1     -18.120 -67.127  59.020  1.00  0.00     0.293 HD
ENDBRANCH  10  35
TORSDOF 9
ENDMDL
MODEL 6
REMARK VINA RESULT:    -5.073      5.416      9.271
REMARK INTER + INTRA:          -7.916
REMARK INTER:                  -7.037
REMARK INTRA:                  -0.879
REMARK UNBOUND:                -1.063
REMARK SMILES O=c1c(-c2ccc(O)cc2)coc2c([C@@H]3O[C@H](CO)[C@H](O)[C@@H](O)[C@@H]3O)c(O)ccc12
REMARK SMILES IDX 3 1 11 2 12 3 13 4 30 5 2 6 1 7 29 8 28 9 26 10 14 11 4 12
REMARK SMILES IDX 5 13 6 14 7 15 10 16 9 17 8 18 15 20 24 21 16 22 22 23 17 24
REMARK SMILES IDX 20 25 25 26 23 28 18 30 19 31 21 33 27 35
REMARK H PARENT 8 19 25 27 23 29 19 32 21 34 27 36
REMARK Flexibility Score: inf
ROOT
ATOM      1  C   UNL     1     -31.912 -58.407  60.397  1.00  0.00     0.065 A 
ATOM      2  C   UNL     1     -30.600 -58.016  60.095  1.00  0.00     0.208 A 
ATOM      3  O   UNL     1     -30.390 -57.409  58.891  1.00  0.00    -0.463 OA
ATOM      4  C   UNL     1     -31.388 -57.159  57.959  1.00  0.00     0.147 A 
ATOM      5  C   UNL     1     -32.708 -57.548  58.254  1.00  0.00     0.066 A 
ATOM      6  C   UNL     1     -32.959 -58.191  59.477  1.00  0.00     0.200 A 
ATOM      7  O   UNL     1     -34.124 -58.594  59.745  1.00  0.00    -0.288 OA
ATOM      8  C   UNL     1     -33.732 -57.285  57.330  1.00  0.00     0.020 A 
ATOM      9  C   UNL     1     -33.444 -56.632  56.132  1.00  0.00     0.047 A 
ATOM     10  C   UNL     1     -32.132 -56.244  55.828  1.00  0.00     0.125 A 
ATOM     11  C   UNL     1     -31.082 -56.528  56.729  1.00  0.00     0.069 A 
ENDROOT
BRANCH   1  12
ATOM     12  C   UNL     1     -32.155 -59.059  61.707  1.00  0.00    -0.011 A 
ATOM     13  C   UNL     1     -33.121 -58.552  62.596  1.00  0.00     0.013 A 
ATOM     14  C   UNL     1     -33.336 -59.168  63.834  1.00  0.00     0.047 A 
ATOM     15  C   UNL     1     -32.584 -60.291  64.202  1.00  0.00     0.115 A 
ATOM     16  C   UNL     1     -31.400 -60.183  62.088  1.00  0.00     0.013 A 
ATOM     17  C   UNL     1     -31.617 -60.794  63.328  1.00  0.00     0.047 A 
BRANCH  15  18
ATOM     18  O   UNL     1     -32.791 -60.911  65.433  1.00  0.00    -0.508 OA
ATOM     19  H   UNL     1     -32.344 -60.577  66.277  1.00  0.00     0.293 HD
ENDBRANCH  15  18
ENDBRANCH   1  12
BRANCH  11  20
ATOM     20  C   UNL     1     -29.659 -56.099  56.394  1.00  0.00     0.188 C 
ATOM     21  C   UNL     1     -29.004 -57.117  55.431  1.00  0.00     0.179 C 
ATOM     22  O   UNL     1     -29.668 -54.776  55.874  1.00  0.00    -0.362 OA
ATOM     23  C   UNL     1     -27.530 -56.735  55.136  1.00  0.00     0.177 C 
ATOM     24  C   UNL     1     -28.441 -54.345  55.283  1.00  0.00     0.176 C 
ATOM     25  C   UNL     1     -27.222 -55.277  55.540  1.00  0.00     0.177 C 
BRANCH  21  26
ATOM     26  O   UNL     1     -29.737 -57.178  54.235  1.00  0.00    -0.387 OA
ATOM     27  H   UNL     1     -30.252 -58.026  54.255  1.00  0.00     0.211 HD
ENDBRANCH  21  26
BRANCH  23  28
ATOM     28  O   UNL     1     -26.676 -57.603  55.839  1.00  0.00    -0.387 OA
ATOM     29  H   UNL     1     -26.866 -57.477  56.805  1.00  0.00     0.211 HD
ENDBRANCH  23  28
BRANCH  24  30
ATOM     30  C   UNL     1     -28.691 -54.063  53.789  1.00  0.00     0.191 C 
BRANCH  30  31
ATOM     31  O   UNL     1     -30.064 -54.075  53.506  1.00  0.00    -0.394 OA
ATOM     32  H   UNL     1     -30.145 -54.046  52.518  1.00  0.00     0.210 HD
ENDBRANCH  30  31
ENDBRANCH  24  30
BRANCH  25  33
ATOM     33  O   UNL     1     -26.090 -54.809  54.851  1.00  0.00    -0.388 OA
ATOM     34  H   UNL     1     -26.196 -53.828  54.746  1.00  0.00     0.211 HD
ENDBRANCH  25  33
ENDBRANCH  11  20
BRANCH  10  35
ATOM     35  O   UNL     1     -31.874 -55.576  54.630  1.00  0.00    -0.507 OA
ATOM     36  H   UNL     1     -31.458 -54.651  54.611  1.00  0.00     0.293 HD
ENDBRANCH  10  35
TORSDOF 9
ENDMDL
MODEL 7
REMARK VINA RESULT:    -5.056      5.003      7.958
REMARK INTER + INTRA:          -7.893
REMARK INTER:                  -6.718
REMARK INTRA:                  -1.175
REMARK UNBOUND:                -1.063
REMARK SMILES O=c1c(-c2ccc(O)cc2)coc2c([C@@H]3O[C@H](CO)[C@H](O)[C@@H](O)[C@@H]3O)c(O)ccc12
REMARK SMILES IDX 3 1 11 2 12 3 13 4 30 5 2 6 1 7 29 8 28 9 26 10 14 11 4 12
REMARK SMILES IDX 5 13 6 14 7 15 10 16 9 17 8 18 15 20 24 21 16 22 22 23 17 24
REMARK SMILES IDX 20 25 25 26 23 28 18 30 19 31 21 33 27 35
REMARK H PARENT 8 19 25 27 23 29 19 32 21 34 27 36
REMARK Flexibility Score: inf
ROOT
ATOM      1  C   UNL     1     -27.073 -56.785  54.752  1.00  0.00     0.065 A 
ATOM      2  C   UNL     1     -25.902 -57.466  55.115  1.00  0.00     0.208 A 
ATOM      3  O   UNL     1     -26.031 -58.767  55.505  1.00  0.00    -0.463 OA
ATOM      4  C   UNL     1     -27.239 -59.448  55.563  1.00  0.00     0.147 A 
ATOM      5  C   UNL     1     -28.420 -58.772  55.202  1.00  0.00     0.066 A 
ATOM      6  C   UNL     1     -28.328 -57.427  54.812  1.00  0.00     0.200 A 
ATOM      7  O   UNL     1     -29.376 -56.783  54.530  1.00  0.00    -0.288 OA
ATOM      8  C   UNL     1     -29.647 -59.452  55.238  1.00  0.00     0.020 A 
ATOM      9  C   UNL     1     -29.695 -60.793  55.619  1.00  0.00     0.047 A 
ATOM     10  C   UNL     1     -28.525 -61.473  55.984  1.00  0.00     0.125 A 
ATOM     11  C   UNL     1     -27.284 -60.799  55.986  1.00  0.00     0.069 A 
ENDROOT
BRANCH   1  12
ATOM     12  C   UNL     1     -26.946 -55.373  54.317  1.00  0.00    -0.011 A 
ATOM     13  C   UNL     1     -26.742 -55.052  52.962  1.00  0.00     0.013 A 
ATOM     14  C   UNL     1     -26.612 -53.717  52.563  1.00  0.00     0.047 A 
ATOM     15  C   UNL     1     -26.677 -52.688  53.511  1.00  0.00     0.115 A 
ATOM     16  C   UNL     1     -27.003 -54.333  55.263  1.00  0.00     0.013 A 
ATOM     17  C   UNL     1     -26.871 -53.001  54.859  1.00  0.00     0.047 A 
BRANCH  15  18
ATOM     18  O   UNL     1     -26.549 -51.356  53.123  1.00  0.00    -0.508 OA
ATOM     19  H   UNL     1     -27.290 -50.684  53.281  1.00  0.00     0.293 HD
ENDBRANCH  15  18
ENDBRANCH   1  12
BRANCH  11  20
ATOM     20  C   UNL     1     -26.016 -61.545  56.380  1.00  0.00     0.188 C 
ATOM     21  C   UNL     1     -25.888 -61.612  57.919  1.00  0.00     0.179 C 
ATOM     22  O   UNL     1     -26.009 -62.830  55.770  1.00  0.00    -0.362 OA
ATOM     23  C   UNL     1     -24.566 -62.306  58.339  1.00  0.00     0.177 C 
ATOM     24  C   UNL     1     -25.010 -63.729  56.255  1.00  0.00     0.176 C 
ATOM     25  C   UNL     1     -23.928 -63.082  57.166  1.00  0.00     0.177 C 
BRANCH  21  26
ATOM     26  O   UNL     1     -26.988 -62.300  58.457  1.00  0.00    -0.387 OA
ATOM     27  H   UNL     1     -27.577 -62.541  57.697  1.00  0.00     0.211 HD
ENDBRANCH  21  26
BRANCH  23  28
ATOM     28  O   UNL     1     -23.659 -61.335  58.802  1.00  0.00    -0.387 OA
ATOM     29  H   UNL     1     -23.924 -61.112  59.733  1.00  0.00     0.211 HD
ENDBRANCH  23  28
BRANCH  24  30
ATOM     30  C   UNL     1     -25.714 -64.937  56.903  1.00  0.00     0.191 C 
BRANCH  30  31
ATOM     31  O   UNL     1     -27.076 -64.950  56.576  1.00  0.00    -0.394 OA
ATOM     32  H   UNL     1     -27.241 -64.133  56.038  1.00  0.00     0.210 HD
ENDBRANCH  30  31
ENDBRANCH  24  30
BRANCH  25  33
ATOM     33  O   UNL     1     -23.045 -64.062  57.654  1.00  0.00    -0.388 OA
ATOM     34  H   UNL     1     -23.368 -64.939  57.322  1.00  0.00     0.211 HD
ENDBRANCH  25  33
ENDBRANCH  11  20
BRANCH  10  35
ATOM     35  O   UNL     1     -28.598 -62.819  56.344  1.00  0.00    -0.507 OA
ATOM     36  H   UNL     1     -28.074 -63.193  57.129  1.00  0.00     0.293 HD
ENDBRANCH  10  35
TORSDOF 9
ENDMDL
MODEL 8
REMARK VINA RESULT:    -5.013      5.429      7.298
REMARK INTER + INTRA:          -7.834
REMARK INTER:                  -6.765
REMARK INTRA:                  -1.070
REMARK UNBOUND:                -1.063
REMARK SMILES O=c1c(-c2ccc(O)cc2)coc2c([C@@H]3O[C@H](CO)[C@H](O)[C@@H](O)[C@@H]3O)c(O)ccc12
REMARK SMILES IDX 3 1 11 2 12 3 13 4 30 5 2 6 1 7 29 8 28 9 26 10 14 11 4 12
REMARK SMILES IDX 5 13 6 14 7 15 10 16 9 17 8 18 15 20 24 21 16 22 22 23 17 24
REMARK SMILES IDX 20 25 25 26 23 28 18 30 19 31 21 33 27 35
REMARK H PARENT 8 19 25 27 23 29 19 32 21 34 27 36
REMARK Flexibility Score: inf
ROOT
ATOM      1  C   UNL     1     -24.469 -66.740  55.858  1.00  0.00     0.065 A 
ATOM      2  C   UNL     1     -25.737 -66.514  56.413  1.00  0.00     0.208 A 
ATOM      3  O   UNL     1     -26.712 -66.053  55.579  1.00  0.00    -0.463 OA
ATOM      4  C   UNL     1     -26.525 -65.797  54.227  1.00  0.00     0.147 A 
ATOM      5  C   UNL     1     -25.257 -66.020  53.661  1.00  0.00     0.066 A 
ATOM      6  C   UNL     1     -24.223 -66.478  54.494  1.00  0.00     0.200 A 
ATOM      7  O   UNL     1     -23.064 -66.640  54.023  1.00  0.00    -0.288 OA
ATOM      8  C   UNL     1     -25.056 -65.784  52.291  1.00  0.00     0.020 A 
ATOM      9  C   UNL     1     -26.112 -65.341  51.495  1.00  0.00     0.047 A 
ATOM     10  C   UNL     1     -27.378 -65.113  52.050  1.00  0.00     0.125 A 
ATOM     11  C   UNL     1     -27.593 -65.313  53.432  1.00  0.00     0.069 A 
ENDROOT
BRANCH   1  12
ATOM     12  C   UNL     1     -23.402 -67.251  56.753  1.00  0.00    -0.011 A 
ATOM     13  C   UNL     1     -22.553 -66.365  57.440  1.00  0.00     0.013 A 
ATOM     14  C   UNL     1     -21.541 -66.857  58.273  1.00  0.00     0.047 A 
ATOM     15  C   UNL     1     -21.363 -68.238  58.424  1.00  0.00     0.115 A 
ATOM     16  C   UNL     1     -23.211 -68.636  56.905  1.00  0.00     0.013 A 
ATOM     17  C   UNL     1     -22.199 -69.124  57.738  1.00  0.00     0.047 A 
BRANCH  15  18
ATOM     18  O   UNL     1     -20.359 -68.738  59.252  1.00  0.00    -0.508 OA
ATOM     19  H   UNL     1     -20.009 -68.208  60.040  1.00  0.00     0.293 HD
ENDBRANCH  15  18
ENDBRANCH   1  12
BRANCH  11  20
ATOM     20  C   UNL     1     -28.973 -65.067  54.028  1.00  0.00     0.188 C 
ATOM     21  C   UNL     1     -29.142 -63.574  54.394  1.00  0.00     0.179 C 
ATOM     22  O   UNL     1     -29.972 -65.530  53.129  1.00  0.00    -0.362 OA
ATOM     23  C   UNL     1     -30.514 -63.318  55.069  1.00  0.00     0.177 C 
ATOM     24  C   UNL     1     -31.307 -65.132  53.444  1.00  0.00     0.176 C 
ATOM     25  C   UNL     1     -31.491 -64.494  54.850  1.00  0.00     0.177 C 
BRANCH  21  26
ATOM     26  O   UNL     1     -29.015 -62.786  53.239  1.00  0.00    -0.387 OA
ATOM     27  H   UNL     1     -28.053 -62.780  52.997  1.00  0.00     0.211 HD
ENDBRANCH  21  26
BRANCH  23  28
ATOM     28  O   UNL     1     -30.323 -63.122  56.449  1.00  0.00    -0.387 OA
ATOM     29  H   UNL     1     -31.219 -62.966  56.846  1.00  0.00     0.211 HD
ENDBRANCH  23  28
BRANCH  24  30
ATOM     30  C   UNL     1     -31.837 -64.250  52.297  1.00  0.00     0.191 C 
BRANCH  30  31
ATOM     31  O   UNL     1     -33.175 -64.554  52.016  1.00  0.00    -0.394 OA
ATOM     32  H   UNL     1     -33.605 -64.754  52.888  1.00  0.00     0.210 HD
ENDBRANCH  30  31
ENDBRANCH  24  30
BRANCH  25  33
ATOM     33  O   UNL     1     -32.818 -64.066  55.028  1.00  0.00    -0.388 OA
ATOM     34  H   UNL     1     -33.272 -64.747  55.589  1.00  0.00     0.211 HD
ENDBRANCH  25  33
ENDBRANCH  11  20
BRANCH  10  35
ATOM     35  O   UNL     1     -28.422 -64.687  51.228  1.00  0.00    -0.507 OA
ATOM     36  H   UNL     1     -28.563 -63.707  51.006  1.00  0.00     0.293 HD
ENDBRANCH  10  35
TORSDOF 9
ENDMDL
MODEL 9
REMARK VINA RESULT:    -4.948      6.530      8.842
REMARK INTER + INTRA:          -7.746
REMARK INTER:                  -7.010
REMARK INTRA:                  -0.737
REMARK UNBOUND:                -1.063
REMARK SMILES O=c1c(-c2ccc(O)cc2)coc2c([C@@H]3O[C@H](CO)[C@H](O)[C@@H](O)[C@@H]3O)c(O)ccc12
REMARK SMILES IDX 3 1 11 2 12 3 13 4 30 5 2 6 1 7 29 8 28 9 26 10 14 11 4 12
REMARK SMILES IDX 5 13 6 14 7 15 10 16 9 17 8 18 15 20 24 21 16 22 22 23 17 24
REMARK SMILES IDX 20 25 25 26 23 28 18 30 19 31 21 33 27 35
REMARK H PARENT 8 19 25 27 23 29 19 32 21 34 27 36
REMARK Flexibility Score: inf
ROOT
ATOM      1  C   UNL     1     -22.000 -67.084  57.013  1.00  0.00     0.065 A 
ATOM      2  C   UNL     1     -23.400 -67.087  57.085  1.00  0.00     0.208 A 
ATOM      3  O   UNL     1     -24.086 -66.753  55.954  1.00  0.00    -0.463 OA
ATOM      4  C   UNL     1     -23.484 -66.416  54.749  1.00  0.00     0.147 A 
ATOM      5  C   UNL     1     -22.080 -66.409  54.666  1.00  0.00     0.066 A 
ATOM      6  C   UNL     1     -21.341 -66.731  55.817  1.00  0.00     0.200 A 
ATOM      7  O   UNL     1     -20.081 -66.686  55.784  1.00  0.00    -0.288 OA
ATOM      8  C   UNL     1     -21.457 -66.088  53.450  1.00  0.00     0.020 A 
ATOM      9  C   UNL     1     -22.226 -65.787  52.327  1.00  0.00     0.047 A 
ATOM     10  C   UNL     1     -23.626 -65.787  52.399  1.00  0.00     0.125 A 
ATOM     11  C   UNL     1     -24.272 -66.076  53.622  1.00  0.00     0.069 A 
ENDROOT
BRANCH   1  12
ATOM     12  C   UNL     1     -21.243 -67.455  58.233  1.00  0.00    -0.011 A 
ATOM     13  C   UNL     1     -20.334 -66.555  58.818  1.00  0.00     0.013 A 
ATOM     14  C   UNL     1     -19.616 -66.918  59.963  1.00  0.00     0.047 A 
ATOM     15  C   UNL     1     -19.792 -68.185  60.533  1.00  0.00     0.115 A 
ATOM     16  C   UNL     1     -21.408 -68.728  58.808  1.00  0.00     0.013 A 
ATOM     17  C   UNL     1     -20.687 -69.087  59.952  1.00  0.00     0.047 A 
BRANCH  15  18
ATOM     18  O   UNL     1     -19.082 -68.556  61.673  1.00  0.00    -0.508 OA
ATOM     19  H   UNL     1     -18.070 -68.560  61.690  1.00  0.00     0.293 HD
ENDBRANCH  15  18
ENDBRANCH   1  12
BRANCH  11  20
ATOM     20  C   UNL     1     -25.794 -66.079  53.693  1.00  0.00     0.188 C 
ATOM     21  C   UNL     1     -26.297 -64.849  54.485  1.00  0.00     0.179 C 
ATOM     22  O   UNL     1     -26.334 -66.146  52.379  1.00  0.00    -0.362 OA
ATOM     23  C   UNL     1     -27.841 -64.874  54.629  1.00  0.00     0.177 C 
ATOM     24  C   UNL     1     -27.738 -65.898  52.283  1.00  0.00     0.176 C 
ATOM     25  C   UNL     1     -28.495 -65.864  53.642  1.00  0.00     0.177 C 
BRANCH  21  26
ATOM     26  O   UNL     1     -25.889 -63.671  53.840  1.00  0.00    -0.387 OA
ATOM     27  H   UNL     1     -24.946 -63.805  53.562  1.00  0.00     0.211 HD
ENDBRANCH  21  26
BRANCH  23  28
ATOM     28  O   UNL     1     -28.178 -65.237  55.945  1.00  0.00    -0.387 OA
ATOM     29  H   UNL     1     -28.672 -66.096  55.891  1.00  0.00     0.211 HD
ENDBRANCH  23  28
BRANCH  24  30
ATOM     30  C   UNL     1     -27.953 -64.633  51.431  1.00  0.00     0.191 C 
BRANCH  30  31
ATOM     31  O   UNL     1     -26.729 -64.133  50.969  1.00  0.00    -0.394 OA
ATOM     32  H   UNL     1     -26.173 -64.922  50.741  1.00  0.00     0.210 HD
ENDBRANCH  30  31
ENDBRANCH  24  30
BRANCH  25  33
ATOM     33  O   UNL     1     -29.847 -65.535  53.444  1.00  0.00    -0.388 OA
ATOM     34  H   UNL     1     -30.277 -66.313  53.004  1.00  0.00     0.211 HD
ENDBRANCH  25  33
ENDBRANCH  11  20
BRANCH  10  35
ATOM     35  O   UNL     1     -24.373 -65.500  51.256  1.00  0.00    -0.507 OA
ATOM     36  H   UNL     1     -25.121 -66.108  50.939  1.00  0.00     0.293 HD
ENDBRANCH  10  35
TORSDOF 9
ENDMDL
