MODEL 1
REMARK VINA RESULT:    -0.284      0.000      0.000
REMARK INTER + INTRA:          -0.299
REMARK INTER:                  -0.749
REMARK INTRA:                   0.450
REMARK UNBOUND:                 0.450
REMARK SMILES CCCCCCCCCCCCCCCCCCCCCCCCCCCCCC(=O)[O-]
REMARK SMILES IDX 16 1 17 2 18 3 19 4 20 5 21 6 22 7 23 8 24 9 25 10 26 11
REMARK SMILES IDX 27 12 28 13 29 14 30 15 31 16 32 17 15 18 14 19 13 20 12 21
REMARK SMILES IDX 11 22 10 23 9 24 8 25 7 26 6 27 5 28 4 29 3 30 2 31 1 32
REMARK H PARENT
REMARK Flexibility Score: inf
ROOT
ATOM      1  C   UNL     1      55.504   0.983  24.169  1.00  0.00     0.000 C 
ENDROOT
BRANCH   1   2
ATOM      2  C   UNL     1      54.727   2.119  23.496  1.00  0.00     0.000 C 
BRANCH   2   3
ATOM      3  C   UNL     1      55.686   3.118  22.830  1.00  0.00     0.000 C 
BRANCH   3   4
ATOM      4  C   UNL     1      57.108   2.543  22.656  1.00  0.00     0.000 C 
BRANCH   4   5
ATOM      5  C   UNL     1      57.155   1.005  22.694  1.00  0.00     0.000 C 
BRANCH   5   6
ATOM      6  C   UNL     1      57.233   0.330  21.311  1.00  0.00     0.000 C 
BRANCH   6   7
ATOM      7  C   UNL     1      58.098  -0.947  21.257  1.00  0.00     0.000 C 
BRANCH   7   8
ATOM      8  C   UNL     1      57.847  -1.954  22.393  1.00  0.00     0.000 C 
BRANCH   8   9
ATOM      9  C   UNL     1      59.148  -2.520  22.988  1.00  0.00     0.000 C 
BRANCH   9  10
ATOM     10  C   UNL     1      59.279  -2.219  24.496  1.00  0.00     0.000 C 
BRANCH  10  11
ATOM     11  C   UNL     1      59.910  -0.848  24.792  1.00  0.00     0.000 C 
BRANCH  11  12
ATOM     12  C   UNL     1      61.442  -0.853  24.653  1.00  0.00     0.000 C 
BRANCH  12  13
ATOM     13  C   UNL     1      62.076   0.465  25.124  1.00  0.00     0.006 C 
BRANCH  13  14
ATOM     14  C   UNL     1      63.597   0.480  24.934  1.00  0.00     0.053 C 
BRANCH  14  15
ATOM     15  C   UNL     1      64.089   1.876  24.716  1.00  0.00     0.041 C 
ATOM     16  O   UNL     1      63.284   2.844  24.746  1.00  0.00    -0.550 OA
ATOM     17  O   UNL     1      65.437   2.106  24.461  1.00  0.00    -0.550 OA
ENDBRANCH  14  15
ENDBRANCH  13  14
ENDBRANCH  12  13
ENDBRANCH  11  12
ENDBRANCH  10  11
ENDBRANCH   9  10
ENDBRANCH   8   9
ENDBRANCH   7   8
ENDBRANCH   6   7
ENDBRANCH   5   6
ENDBRANCH   4   5
ENDBRANCH   3   4
ENDBRANCH   2   3
ENDBRANCH   1   2
BRANCH   1  18
ATOM     18  C   UNL     1      54.889  -0.385  23.837  1.00  0.00     0.000 C 
BRANCH  18  19
ATOM     19  C   UNL     1      54.048  -0.353  22.541  1.00  0.00     0.000 C 
BRANCH  19  20
ATOM     20  C   UNL     1      52.815  -1.274  22.580  1.00  0.00     0.000 C 
BRANCH  20  21
ATOM     21  C   UNL     1      51.648  -0.847  21.669  1.00  0.00     0.000 C 
BRANCH  21  22
ATOM     22  C   UNL     1      50.491  -1.858  21.556  1.00  0.00     0.000 C 
BRANCH  22  23
ATOM     23  C   UNL     1      49.881  -1.930  20.148  1.00  0.00     0.000 C 
BRANCH  23  24
ATOM     24  C   UNL     1      50.919  -1.682  19.039  1.00  0.00    -0.000 C 
BRANCH  24  25
ATOM     25  C   UNL     1      51.148  -0.189  18.717  1.00  0.00    -0.000 C 
BRANCH  25  26
ATOM     26  C   UNL     1      50.225   0.740  19.530  1.00  0.00    -0.000 C 
BRANCH  26  27
ATOM     27  C   UNL     1      50.923   2.041  19.963  1.00  0.00    -0.000 C 
BRANCH  27  28
ATOM     28  C   UNL     1      49.943   3.091  20.508  1.00  0.00    -0.000 C 
BRANCH  28  29
ATOM     29  C   UNL     1      49.903   3.069  22.042  1.00  0.00    -0.000 C 
BRANCH  29  30
ATOM     30  C   UNL     1      51.184   2.442  22.616  1.00  0.00    -0.000 C 
BRANCH  30  31
ATOM     31  C   UNL     1      51.105   2.215  24.133  1.00  0.00    -0.003 C 
ATOM     32  C   UNL     1      50.209   1.035  24.510  1.00  0.00     0.004 C 
ENDBRANCH  30  31
ENDBRANCH  29  30
ENDBRANCH  28  29
ENDBRANCH  27  28
ENDBRANCH  26  27
ENDBRANCH  25  26
ENDBRANCH  24  25
ENDBRANCH  23  24
ENDBRANCH  22  23
ENDBRANCH  21  22
ENDBRANCH  20  21
ENDBRANCH  19  20
ENDBRANCH  18  19
ENDBRANCH   1  18
TORSDOF 28
ENDMDL
MODEL 2
REMARK VINA RESULT:     0.006      4.308      8.064
REMARK INTER + INTRA:           0.466
REMARK INTER:                   0.106
REMARK INTRA:                   0.360
REMARK UNBOUND:                 0.450
REMARK SMILES CCCCCCCCCCCCCCCCCCCCCCCCCCCCCC(=O)[O-]
REMARK SMILES IDX 16 1 17 2 18 3 19 4 20 5 21 6 22 7 23 8 24 9 25 10 26 11
REMARK SMILES IDX 27 12 28 13 29 14 30 15 31 16 32 17 15 18 14 19 13 20 12 21
REMARK SMILES IDX 11 22 10 23 9 24 8 25 7 26 6 27 5 28 4 29 3 30 2 31 1 32
REMARK H PARENT
REMARK Flexibility Score: inf
ROOT
ATOM      1  C   UNL     1      58.767  -2.166  22.965  1.00  0.00     0.000 C 
ENDROOT
BRANCH   1   2
ATOM      2  C   UNL     1      59.128  -1.527  24.310  1.00  0.00     0.000 C 
BRANCH   2   3
ATOM      3  C   UNL     1      57.900  -0.859  24.947  1.00  0.00     0.000 C 
BRANCH   3   4
ATOM      4  C   UNL     1      57.955   0.681  24.857  1.00  0.00     0.000 C 
BRANCH   4   5
ATOM      5  C   UNL     1      56.733   1.298  24.153  1.00  0.00     0.000 C 
BRANCH   5   6
ATOM      6  C   UNL     1      55.803   2.108  25.075  1.00  0.00     0.000 C 
BRANCH   6   7
ATOM      7  C   UNL     1      54.694   2.899  24.351  1.00  0.00     0.000 C 
BRANCH   7   8
ATOM      8  C   UNL     1      53.370   3.025  25.125  1.00  0.00     0.000 C 
BRANCH   8   9
ATOM      9  C   UNL     1      52.244   2.161  24.529  1.00  0.00     0.000 C 
BRANCH   9  10
ATOM     10  C   UNL     1      51.254   2.992  23.688  1.00  0.00     0.000 C 
BRANCH  10  11
ATOM     11  C   UNL     1      51.233   2.597  22.201  1.00  0.00     0.000 C 
BRANCH  11  12
ATOM     12  C   UNL     1      49.947   3.042  21.484  1.00  0.00     0.000 C 
BRANCH  12  13
ATOM     13  C   UNL     1      49.985   2.740  19.977  1.00  0.00     0.006 C 
BRANCH  13  14
ATOM     14  C   UNL     1      51.014   1.658  19.628  1.00  0.00     0.053 C 
BRANCH  14  15
ATOM     15  C   UNL     1      50.369   0.309  19.584  1.00  0.00     0.041 C 
ATOM     16  O   UNL     1      50.256  -0.304  18.489  1.00  0.00    -0.550 OA
ATOM     17  O   UNL     1      49.878  -0.265  20.751  1.00  0.00    -0.550 OA
ENDBRANCH  14  15
ENDBRANCH  13  14
ENDBRANCH  12  13
ENDBRANCH  11  12
ENDBRANCH  10  11
ENDBRANCH   9  10
ENDBRANCH   8   9
ENDBRANCH   7   8
ENDBRANCH   6   7
ENDBRANCH   5   6
ENDBRANCH   4   5
ENDBRANCH   3   4
ENDBRANCH   2   3
ENDBRANCH   1   2
BRANCH   1  18
ATOM     18  C   UNL     1      57.271  -2.003  22.656  1.00  0.00     0.000 C 
BRANCH  18  19
ATOM     19  C   UNL     1      56.948  -2.245  21.165  1.00  0.00     0.000 C 
BRANCH  19  20
ATOM     20  C   UNL     1      56.807  -0.950  20.343  1.00  0.00     0.000 C 
BRANCH  20  21
ATOM     21  C   UNL     1      56.933   0.356  21.151  1.00  0.00     0.000 C 
BRANCH  21  22
ATOM     22  C   UNL     1      55.687   0.754  21.966  1.00  0.00     0.000 C 
BRANCH  22  23
ATOM     23  C   UNL     1      54.388   0.722  21.147  1.00  0.00     0.000 C 
BRANCH  23  24
ATOM     24  C   UNL     1      53.192   0.186  21.953  1.00  0.00    -0.000 C 
BRANCH  24  25
ATOM     25  C   UNL     1      52.988  -1.340  21.831  1.00  0.00    -0.000 C 
BRANCH  25  26
ATOM     26  C   UNL     1      51.946  -1.880  22.830  1.00  0.00    -0.000 C 
BRANCH  26  27
ATOM     27  C   UNL     1      50.660  -1.036  22.862  1.00  0.00    -0.000 C 
BRANCH  27  28
ATOM     28  C   UNL     1      50.139  -0.796  24.288  1.00  0.00    -0.000 C 
BRANCH  28  29
ATOM     29  C   UNL     1      49.881  -2.123  25.015  1.00  0.00    -0.000 C 
BRANCH  29  30
ATOM     30  C   UNL     1      50.137  -3.319  24.083  1.00  0.00    -0.000 C 
BRANCH  30  31
ATOM     31  C   UNL     1      49.879  -4.670  24.766  1.00  0.00    -0.003 C 
ATOM     32  C   UNL     1      51.063  -5.630  24.647  1.00  0.00     0.004 C 
ENDBRANCH  30  31
ENDBRANCH  29  30
ENDBRANCH  28  29
ENDBRANCH  27  28
ENDBRANCH  26  27
ENDBRANCH  25  26
ENDBRANCH  24  25
ENDBRANCH  23  24
ENDBRANCH  22  23
ENDBRANCH  21  22
ENDBRANCH  20  21
ENDBRANCH  19  20
ENDBRANCH  18  19
ENDBRANCH   1  18
TORSDOF 28
ENDMDL
MODEL 3
REMARK VINA RESULT:     0.647      4.157      7.211
REMARK INTER + INTRA:           2.156
REMARK INTER:                   2.914
REMARK INTRA:                  -0.758
REMARK UNBOUND:                 0.450
REMARK SMILES CCCCCCCCCCCCCCCCCCCCCCCCCCCCCC(=O)[O-]
REMARK SMILES IDX 16 1 17 2 18 3 19 4 20 5 21 6 22 7 23 8 24 9 25 10 26 11
REMARK SMILES IDX 27 12 28 13 29 14 30 15 31 16 32 17 15 18 14 19 13 20 12 21
REMARK SMILES IDX 11 22 10 23 9 24 8 25 7 26 6 27 5 28 4 29 3 30 2 31 1 32
REMARK H PARENT
REMARK Flexibility Score: inf
ROOT
ATOM      1  C   UNL     1      57.857   0.565  23.696  1.00  0.00     0.000 C 
ENDROOT
BRANCH   1   2
ATOM      2  C   UNL     1      58.674   0.568  24.993  1.00  0.00     0.000 C 
BRANCH   2   3
ATOM      3  C   UNL     1      60.104   0.068  24.739  1.00  0.00     0.000 C 
BRANCH   3   4
ATOM      4  C   UNL     1      60.135  -1.371  24.182  1.00  0.00     0.000 C 
BRANCH   4   5
ATOM      5  C   UNL     1      58.768  -2.077  24.231  1.00  0.00     0.000 C 
BRANCH   5   6
ATOM      6  C   UNL     1      58.611  -3.243  23.237  1.00  0.00     0.000 C 
BRANCH   6   7
ATOM      7  C   UNL     1      57.864  -2.892  21.933  1.00  0.00     0.000 C 
BRANCH   7   8
ATOM      8  C   UNL     1      57.659  -1.388  21.683  1.00  0.00     0.000 C 
BRANCH   8   9
ATOM      9  C   UNL     1      56.197  -1.030  21.362  1.00  0.00     0.000 C 
BRANCH   9  10
ATOM     10  C   UNL     1      55.204  -2.070  21.921  1.00  0.00     0.000 C 
BRANCH  10  11
ATOM     11  C   UNL     1      53.782  -1.518  22.109  1.00  0.00     0.000 C 
BRANCH  11  12
ATOM     12  C   UNL     1      53.661  -0.034  21.716  1.00  0.00     0.000 C 
BRANCH  12  13
ATOM     13  C   UNL     1      53.159   0.148  20.275  1.00  0.00     0.006 C 
BRANCH  13  14
ATOM     14  C   UNL     1      52.164   1.307  20.148  1.00  0.00     0.053 C 
BRANCH  14  15
ATOM     15  C   UNL     1      50.853   0.822  19.613  1.00  0.00     0.041 C 
ATOM     16  O   UNL     1      49.932   1.641  19.354  1.00  0.00    -0.550 OA
ATOM     17  O   UNL     1      50.643  -0.539  19.417  1.00  0.00    -0.550 OA
ENDBRANCH  14  15
ENDBRANCH  13  14
ENDBRANCH  12  13
ENDBRANCH  11  12
ENDBRANCH  10  11
ENDBRANCH   9  10
ENDBRANCH   8   9
ENDBRANCH   7   8
ENDBRANCH   6   7
ENDBRANCH   5   6
ENDBRANCH   4   5
ENDBRANCH   3   4
ENDBRANCH   2   3
ENDBRANCH   1   2
BRANCH   1  18
ATOM     18  C   UNL     1      56.349   0.559  23.989  1.00  0.00     0.000 C 
BRANCH  18  19
ATOM     19  C   UNL     1      55.905   1.788  24.813  1.00  0.00     0.000 C 
BRANCH  19  20
ATOM     20  C   UNL     1      55.686   3.055  23.966  1.00  0.00     0.000 C 
BRANCH  20  21
ATOM     21  C   UNL     1      54.659   2.912  22.826  1.00  0.00     0.000 C 
BRANCH  21  22
ATOM     22  C   UNL     1      53.259   2.428  23.251  1.00  0.00     0.000 C 
BRANCH  22  23
ATOM     23  C   UNL     1      52.733   3.123  24.516  1.00  0.00     0.000 C 
BRANCH  23  24
ATOM     24  C   UNL     1      51.269   2.763  24.824  1.00  0.00    -0.000 C 
BRANCH  24  25
ATOM     25  C   UNL     1      51.040   1.265  25.119  1.00  0.00    -0.000 C 
BRANCH  25  26
ATOM     26  C   UNL     1      50.055   0.610  24.131  1.00  0.00    -0.000 C 
BRANCH  26  27
ATOM     27  C   UNL     1      50.759  -0.275  23.088  1.00  0.00    -0.000 C 
BRANCH  27  28
ATOM     28  C   UNL     1      49.886  -1.448  22.614  1.00  0.00    -0.000 C 
BRANCH  28  29
ATOM     29  C   UNL     1      50.407  -2.783  23.161  1.00  0.00    -0.000 C 
BRANCH  29  30
ATOM     30  C   UNL     1      49.898  -3.028  24.591  1.00  0.00    -0.000 C 
BRANCH  30  31
ATOM     31  C   UNL     1      49.875  -4.517  24.966  1.00  0.00    -0.003 C 
ATOM     32  C   UNL     1      51.093  -5.279  24.442  1.00  0.00     0.004 C 
ENDBRANCH  30  31
ENDBRANCH  29  30
ENDBRANCH  28  29
ENDBRANCH  27  28
ENDBRANCH  26  27
ENDBRANCH  25  26
ENDBRANCH  24  25
ENDBRANCH  23  24
ENDBRANCH  22  23
ENDBRANCH  21  22
ENDBRANCH  20  21
ENDBRANCH  19  20
ENDBRANCH  18  19
ENDBRANCH   1  18
TORSDOF 28
ENDMDL
MODEL 4
REMARK VINA RESULT:     0.805      1.174      4.832
REMARK INTER + INTRA:           2.572
REMARK INTER:                   4.409
REMARK INTRA:                  -1.837
REMARK UNBOUND:                 0.450
REMARK SMILES CCCCCCCCCCCCCCCCCCCCCCCCCCCCCC(=O)[O-]
REMARK SMILES IDX 16 1 17 2 18 3 19 4 20 5 21 6 22 7 23 8 24 9 25 10 26 11
REMARK SMILES IDX 27 12 28 13 29 14 30 15 31 16 32 17 15 18 14 19 13 20 12 21
REMARK SMILES IDX 11 22 10 23 9 24 8 25 7 26 6 27 5 28 4 29 3 30 2 31 1 32
REMARK H PARENT
REMARK Flexibility Score: inf
ROOT
ATOM      1  C   UNL     1      51.644  -0.993  19.625  1.00  0.00     0.000 C 
ENDROOT
BRANCH   1   2
ATOM      2  C   UNL     1      51.567  -1.959  20.813  1.00  0.00     0.000 C 
BRANCH   2   3
ATOM      3  C   UNL     1      51.622  -1.195  22.144  1.00  0.00     0.000 C 
BRANCH   3   4
ATOM      4  C   UNL     1      52.993  -0.527  22.383  1.00  0.00     0.000 C 
BRANCH   4   5
ATOM      5  C   UNL     1      54.169  -1.521  22.372  1.00  0.00     0.000 C 
BRANCH   5   6
ATOM      6  C   UNL     1      55.239  -1.260  23.449  1.00  0.00     0.000 C 
BRANCH   6   7
ATOM      7  C   UNL     1      56.590  -1.967  23.211  1.00  0.00     0.000 C 
BRANCH   7   8
ATOM      8  C   UNL     1      57.654  -1.722  24.294  1.00  0.00     0.000 C 
BRANCH   8   9
ATOM      9  C   UNL     1      58.028  -0.236  24.440  1.00  0.00     0.000 C 
BRANCH   9  10
ATOM     10  C   UNL     1      59.399  -0.043  25.121  1.00  0.00     0.000 C 
BRANCH  10  11
ATOM     11  C   UNL     1      60.348  -1.240  24.933  1.00  0.00     0.000 C 
BRANCH  11  12
ATOM     12  C   UNL     1      61.078  -1.215  23.579  1.00  0.00     0.000 C 
BRANCH  12  13
ATOM     13  C   UNL     1      62.601  -1.086  23.740  1.00  0.00     0.006 C 
BRANCH  13  14
ATOM     14  C   UNL     1      62.996  -0.561  25.125  1.00  0.00     0.053 C 
BRANCH  14  15
ATOM     15  C   UNL     1      63.257   0.912  25.077  1.00  0.00     0.041 C 
ATOM     16  O   UNL     1      62.296   1.726  25.089  1.00  0.00    -0.550 OA
ATOM     17  O   UNL     1      64.562   1.385  25.001  1.00  0.00    -0.550 OA
ENDBRANCH  14  15
ENDBRANCH  13  14
ENDBRANCH  12  13
ENDBRANCH  11  12
ENDBRANCH  10  11
ENDBRANCH   9  10
ENDBRANCH   8   9
ENDBRANCH   7   8
ENDBRANCH   6   7
ENDBRANCH   5   6
ENDBRANCH   4   5
ENDBRANCH   3   4
ENDBRANCH   2   3
ENDBRANCH   1   2
BRANCH   1  18
ATOM     18  C   UNL     1      50.679   0.188  19.805  1.00  0.00     0.000 C 
BRANCH  18  19
ATOM     19  C   UNL     1      51.375   1.553  19.604  1.00  0.00     0.000 C 
BRANCH  19  20
ATOM     20  C   UNL     1      50.933   2.628  20.614  1.00  0.00     0.000 C 
BRANCH  20  21
ATOM     21  C   UNL     1      51.056   2.225  22.096  1.00  0.00     0.000 C 
BRANCH  21  22
ATOM     22  C   UNL     1      49.953   2.769  23.025  1.00  0.00     0.000 C 
BRANCH  22  23
ATOM     23  C   UNL     1      50.157   2.391  24.499  1.00  0.00     0.000 C 
BRANCH  23  24
ATOM     24  C   UNL     1      51.409   3.044  25.111  1.00  0.00    -0.000 C 
BRANCH  24  25
ATOM     25  C   UNL     1      52.643   3.023  24.184  1.00  0.00    -0.000 C 
BRANCH  25  26
ATOM     26  C   UNL     1      53.963   2.843  24.959  1.00  0.00    -0.000 C 
BRANCH  26  27
ATOM     27  C   UNL     1      55.115   2.352  24.066  1.00  0.00    -0.000 C 
BRANCH  27  28
ATOM     28  C   UNL     1      55.059   2.937  22.645  1.00  0.00    -0.000 C 
BRANCH  28  29
ATOM     29  C   UNL     1      56.450   2.956  21.998  1.00  0.00    -0.000 C 
BRANCH  29  30
ATOM     30  C   UNL     1      57.275   1.731  22.430  1.00  0.00    -0.000 C 
BRANCH  30  31
ATOM     31  C   UNL     1      57.539   0.756  21.274  1.00  0.00    -0.003 C 
ATOM     32  C   UNL     1      56.253   0.210  20.653  1.00  0.00     0.004 C 
ENDBRANCH  30  31
ENDBRANCH  29  30
ENDBRANCH  28  29
ENDBRANCH  27  28
ENDBRANCH  26  27
ENDBRANCH  25  26
ENDBRANCH  24  25
ENDBRANCH  23  24
ENDBRANCH  22  23
ENDBRANCH  21  22
ENDBRANCH  20  21
ENDBRANCH  19  20
ENDBRANCH  18  19
ENDBRANCH   1  18
TORSDOF 28
ENDMDL
MODEL 5
REMARK VINA RESULT:     0.823      2.053      4.017
REMARK INTER + INTRA:           2.620
REMARK INTER:                   2.417
REMARK INTRA:                   0.203
REMARK UNBOUND:                 0.450
REMARK SMILES CCCCCCCCCCCCCCCCCCCCCCCCCCCCCC(=O)[O-]
REMARK SMILES IDX 16 1 17 2 18 3 19 4 20 5 21 6 22 7 23 8 24 9 25 10 26 11
REMARK SMILES IDX 27 12 28 13 29 14 30 15 31 16 32 17 15 18 14 19 13 20 12 21
REMARK SMILES IDX 11 22 10 23 9 24 8 25 7 26 6 27 5 28 4 29 3 30 2 31 1 32
REMARK H PARENT
REMARK Flexibility Score: inf
ROOT
ATOM      1  C   UNL     1      55.588  -1.179  23.155  1.00  0.00     0.000 C 
ENDROOT
BRANCH   1   2
ATOM      2  C   UNL     1      55.512  -0.653  24.592  1.00  0.00     0.000 C 
BRANCH   2   3
ATOM      3  C   UNL     1      56.671   0.312  24.883  1.00  0.00     0.000 C 
BRANCH   3   4
ATOM      4  C   UNL     1      56.190   1.764  25.094  1.00  0.00     0.000 C 
BRANCH   4   5
ATOM      5  C   UNL     1      54.657   1.909  25.082  1.00  0.00     0.000 C 
BRANCH   5   6
ATOM      6  C   UNL     1      54.085   2.566  23.812  1.00  0.00     0.000 C 
BRANCH   6   7
ATOM      7  C   UNL     1      55.141   3.118  22.831  1.00  0.00     0.000 C 
BRANCH   7   8
ATOM      8  C   UNL     1      55.875   2.053  21.997  1.00  0.00     0.000 C 
BRANCH   8   9
ATOM      9  C   UNL     1      57.390   2.305  21.907  1.00  0.00     0.000 C 
BRANCH   9  10
ATOM     10  C   UNL     1      58.195   0.993  21.801  1.00  0.00     0.000 C 
BRANCH  10  11
ATOM     11  C   UNL     1      57.509  -0.076  20.933  1.00  0.00     0.000 C 
BRANCH  11  12
ATOM     12  C   UNL     1      57.736  -1.505  21.456  1.00  0.00     0.000 C 
BRANCH  12  13
ATOM     13  C   UNL     1      59.061  -1.640  22.224  1.00  0.00     0.006 C 
BRANCH  13  14
ATOM     14  C   UNL     1      58.842  -1.920  23.715  1.00  0.00     0.053 C 
BRANCH  14  15
ATOM     15  C   UNL     1      60.082  -1.621  24.497  1.00  0.00     0.041 C 
ATOM     16  O   UNL     1      60.716  -2.552  25.061  1.00  0.00    -0.550 OA
ATOM     17  O   UNL     1      60.528  -0.309  24.617  1.00  0.00    -0.550 OA
ENDBRANCH  14  15
ENDBRANCH  13  14
ENDBRANCH  12  13
ENDBRANCH  11  12
ENDBRANCH  10  11
ENDBRANCH   9  10
ENDBRANCH   8   9
ENDBRANCH   7   8
ENDBRANCH   6   7
ENDBRANCH   5   6
ENDBRANCH   4   5
ENDBRANCH   3   4
ENDBRANCH   2   3
ENDBRANCH   1   2
BRANCH   1  18
ATOM     18  C   UNL     1      54.274  -0.927  22.401  1.00  0.00     0.000 C 
BRANCH  18  19
ATOM     19  C   UNL     1      54.280   0.417  21.640  1.00  0.00     0.000 C 
BRANCH  19  20
ATOM     20  C   UNL     1      53.060   0.615  20.722  1.00  0.00     0.000 C 
BRANCH  20  21
ATOM     21  C   UNL     1      51.842   1.288  21.384  1.00  0.00     0.000 C 
BRANCH  21  22
ATOM     22  C   UNL     1      51.123   2.348  20.527  1.00  0.00     0.000 C 
BRANCH  22  23
ATOM     23  C   UNL     1      50.605   1.799  19.189  1.00  0.00     0.000 C 
BRANCH  23  24
ATOM     24  C   UNL     1      49.894   0.442  19.340  1.00  0.00    -0.000 C 
BRANCH  24  25
ATOM     25  C   UNL     1      50.732  -0.761  18.856  1.00  0.00    -0.000 C 
BRANCH  25  26
ATOM     26  C   UNL     1      50.207  -2.104  19.399  1.00  0.00    -0.000 C 
BRANCH  26  27
ATOM     27  C   UNL     1      49.875  -2.050  20.900  1.00  0.00    -0.000 C 
BRANCH  27  28
ATOM     28  C   UNL     1      51.128  -1.961  21.786  1.00  0.00    -0.000 C 
BRANCH  28  29
ATOM     29  C   UNL     1      50.781  -2.187  23.263  1.00  0.00    -0.000 C 
BRANCH  29  30
ATOM     30  C   UNL     1      49.960  -1.011  23.820  1.00  0.00    -0.000 C 
BRANCH  30  31
ATOM     31  C   UNL     1      50.832   0.197  24.193  1.00  0.00    -0.003 C 
ATOM     32  C   UNL     1      50.059   1.271  24.959  1.00  0.00     0.004 C 
ENDBRANCH  30  31
ENDBRANCH  29  30
ENDBRANCH  28  29
ENDBRANCH  27  28
ENDBRANCH  26  27
ENDBRANCH  25  26
ENDBRANCH  24  25
ENDBRANCH  23  24
ENDBRANCH  22  23
ENDBRANCH  21  22
ENDBRANCH  20  21
ENDBRANCH  19  20
ENDBRANCH  18  19
ENDBRANCH   1  18
TORSDOF 28
ENDMDL
