MODEL 1
REMARK VINA RESULT:    -4.773      0.000      0.000
REMARK INTER + INTRA:          -5.427
REMARK INTER:                  -5.191
REMARK INTRA:                  -0.236
REMARK UNBOUND:                -0.236
REMARK SMILES O=C([O-])c1ccccc1O
REMARK SMILES IDX 4 1 9 2 5 3 8 4 6 5 7 6 2 7 1 8 3 9 10 10
REMARK H PARENT 10 11
REMARK Flexibility Score: inf
ROOT
ATOM      1  C   UNL     1      12.465  17.131  50.019  1.00  0.00     0.039 A 
ATOM      2  C   UNL     1      13.776  16.738  50.381  1.00  0.00     0.124 A 
ATOM      3  C   UNL     1      11.474  17.185  51.017  1.00  0.00     0.014 A 
ATOM      4  C   UNL     1      14.065  16.411  51.715  1.00  0.00     0.047 A 
ATOM      5  C   UNL     1      11.775  16.857  52.341  1.00  0.00     0.001 A 
ATOM      6  C   UNL     1      13.068  16.471  52.690  1.00  0.00     0.004 A 
ENDROOT
BRANCH   1   7
ATOM      7  C   UNL     1      12.108  17.486  48.622  1.00  0.00     0.075 C 
ATOM      8  O   UNL     1      11.240  18.365  48.376  1.00  0.00    -0.545 OA
ATOM      9  O   UNL     1      12.732  16.849  47.555  1.00  0.00    -0.545 OA
ENDBRANCH   1   7
BRANCH   2  10
ATOM     10  O   UNL     1      14.791  16.670  49.426  1.00  0.00    -0.507 OA
ATOM     11  H   UNL     1      15.648  17.202  49.521  1.00  0.00     0.293 HD
ENDBRANCH   2  10
TORSDOF 2
ENDMDL
MODEL 2
REMARK VINA RESULT:    -4.570      1.993      3.763
REMARK INTER + INTRA:          -5.207
REMARK INTER:                  -4.956
REMARK INTRA:                  -0.251
REMARK UNBOUND:                -0.236
REMARK SMILES O=C([O-])c1ccccc1O
REMARK SMILES IDX 4 1 9 2 5 3 8 4 6 5 7 6 2 7 1 8 3 9 10 10
REMARK H PARENT 10 11
REMARK Flexibility Score: inf
ROOT
ATOM      1  C   UNL     1      12.331  16.861  49.629  1.00  0.00     0.039 A 
ATOM      2  C   UNL     1      12.713  15.994  48.577  1.00  0.00     0.124 A 
ATOM      3  C   UNL     1      11.511  17.966  49.333  1.00  0.00     0.014 A 
ATOM      4  C   UNL     1      12.274  16.246  47.268  1.00  0.00     0.047 A 
ATOM      5  C   UNL     1      11.080  18.206  48.025  1.00  0.00     0.001 A 
ATOM      6  C   UNL     1      11.461  17.347  46.995  1.00  0.00     0.004 A 
ENDROOT
BRANCH   1   7
ATOM      7  C   UNL     1      12.770  16.638  51.031  1.00  0.00     0.075 C 
ATOM      8  O   UNL     1      13.973  16.382  51.303  1.00  0.00    -0.545 OA
ATOM      9  O   UNL     1      11.851  16.708  52.072  1.00  0.00    -0.545 OA
ENDBRANCH   1   7
BRANCH   2  10
ATOM     10  O   UNL     1      13.526  14.887  48.824  1.00  0.00    -0.507 OA
ATOM     11  H   UNL     1      13.339  14.249  49.588  1.00  0.00     0.293 HD
ENDBRANCH   2  10
TORSDOF 2
ENDMDL
MODEL 3
REMARK VINA RESULT:    -4.498      2.151      3.773
REMARK INTER + INTRA:          -5.129
REMARK INTER:                  -5.045
REMARK INTRA:                  -0.083
REMARK UNBOUND:                -0.236
REMARK SMILES O=C([O-])c1ccccc1O
REMARK SMILES IDX 4 1 9 2 5 3 8 4 6 5 7 6 2 7 1 8 3 9 10 10
REMARK H PARENT 10 11
REMARK Flexibility Score: inf
ROOT
ATOM      1  C   UNL     1      13.068  16.858  49.889  1.00  0.00     0.039 A 
ATOM      2  C   UNL     1      13.278  18.104  49.252  1.00  0.00     0.124 A 
ATOM      3  C   UNL     1      12.811  15.725  49.094  1.00  0.00     0.014 A 
ATOM      4  C   UNL     1      13.227  18.192  47.852  1.00  0.00     0.047 A 
ATOM      5  C   UNL     1      12.763  15.826  47.702  1.00  0.00     0.001 A 
ATOM      6  C   UNL     1      12.970  17.057  47.082  1.00  0.00     0.004 A 
ENDROOT
BRANCH   1   7
ATOM      7  C   UNL     1      13.112  16.713  51.367  1.00  0.00     0.075 C 
ATOM      8  O   UNL     1      12.081  16.889  52.069  1.00  0.00    -0.545 OA
ATOM      9  O   UNL     1      14.302  16.377  52.003  1.00  0.00    -0.545 OA
ENDBRANCH   1   7
BRANCH   2  10
ATOM     10  O   UNL     1      13.536  19.254  49.999  1.00  0.00    -0.507 OA
ATOM     11  H   UNL     1      12.794  19.771  50.455  1.00  0.00     0.293 HD
ENDBRANCH   2  10
TORSDOF 2
ENDMDL
MODEL 4
REMARK VINA RESULT:    -4.352      0.946      2.386
REMARK INTER + INTRA:          -4.970
REMARK INTER:                  -4.718
REMARK INTRA:                  -0.252
REMARK UNBOUND:                -0.236
REMARK SMILES O=C([O-])c1ccccc1O
REMARK SMILES IDX 4 1 9 2 5 3 8 4 6 5 7 6 2 7 1 8 3 9 10 10
REMARK H PARENT 10 11
REMARK Flexibility Score: inf
ROOT
ATOM      1  C   UNL     1      13.340  16.958  49.844  1.00  0.00     0.039 A 
ATOM      2  C   UNL     1      12.010  17.317  50.171  1.00  0.00     0.124 A 
ATOM      3  C   UNL     1      14.184  16.483  50.865  1.00  0.00     0.014 A 
ATOM      4  C   UNL     1      11.558  17.196  51.494  1.00  0.00     0.047 A 
ATOM      5  C   UNL     1      13.722  16.368  52.178  1.00  0.00     0.001 A 
ATOM      6  C   UNL     1      12.411  16.723  52.492  1.00  0.00     0.004 A 
ENDROOT
BRANCH   1   7
ATOM      7  C   UNL     1      13.866  17.068  48.459  1.00  0.00     0.075 C 
ATOM      8  O   UNL     1      15.021  17.518  48.236  1.00  0.00    -0.545 OA
ATOM      9  O   UNL     1      13.085  16.671  47.379  1.00  0.00    -0.545 OA
ENDBRANCH   1   7
BRANCH   2  10
ATOM     10  O   UNL     1      11.137  17.792  49.192  1.00  0.00    -0.507 OA
ATOM     11  H   UNL     1      10.508  18.566  49.369  1.00  0.00     0.293 HD
ENDBRANCH   2  10
TORSDOF 2
ENDMDL
MODEL 5
REMARK VINA RESULT:    -4.184      1.938      3.610
REMARK INTER + INTRA:          -4.787
REMARK INTER:                  -4.673
REMARK INTRA:                  -0.114
REMARK UNBOUND:                -0.236
REMARK SMILES O=C([O-])c1ccccc1O
REMARK SMILES IDX 4 1 9 2 5 3 8 4 6 5 7 6 2 7 1 8 3 9 10 10
REMARK H PARENT 10 11
REMARK Flexibility Score: inf
ROOT
ATOM      1  C   UNL     1      12.843  17.181  49.825  1.00  0.00     0.039 A 
ATOM      2  C   UNL     1      13.882  17.128  48.865  1.00  0.00     0.124 A 
ATOM      3  C   UNL     1      11.573  17.640  49.425  1.00  0.00     0.014 A 
ATOM      4  C   UNL     1      13.635  17.531  47.543  1.00  0.00     0.047 A 
ATOM      5  C   UNL     1      11.341  18.038  48.106  1.00  0.00     0.001 A 
ATOM      6  C   UNL     1      12.369  17.984  47.167  1.00  0.00     0.004 A 
ENDROOT
BRANCH   1   7
ATOM      7  C   UNL     1      13.054  16.766  51.235  1.00  0.00     0.075 C 
ATOM      8  O   UNL     1      14.178  16.360  51.632  1.00  0.00    -0.545 OA
ATOM      9  O   UNL     1      12.005  16.821  52.146  1.00  0.00    -0.545 OA
ENDBRANCH   1   7
BRANCH   2  10
ATOM     10  O   UNL     1      15.156  16.680  49.215  1.00  0.00    -0.507 OA
ATOM     11  H   UNL     1      15.972  17.274  49.127  1.00  0.00     0.293 HD
ENDBRANCH   2  10
TORSDOF 2
ENDMDL
MODEL 6
REMARK VINA RESULT:    -4.065      2.359      3.332
REMARK INTER + INTRA:          -4.657
REMARK INTER:                  -4.432
REMARK INTRA:                  -0.225
REMARK UNBOUND:                -0.236
REMARK SMILES O=C([O-])c1ccccc1O
REMARK SMILES IDX 4 1 9 2 5 3 8 4 6 5 7 6 2 7 1 8 3 9 10 10
REMARK H PARENT 10 11
REMARK Flexibility Score: inf
ROOT
ATOM      1  C   UNL     1      13.937  17.815  48.406  1.00  0.00     0.039 A 
ATOM      2  C   UNL     1      13.244  18.380  49.503  1.00  0.00     0.124 A 
ATOM      3  C   UNL     1      13.695  16.469  48.073  1.00  0.00     0.014 A 
ATOM      4  C   UNL     1      12.336  17.599  50.235  1.00  0.00     0.047 A 
ATOM      5  C   UNL     1      12.789  15.702  48.810  1.00  0.00     0.001 A 
ATOM      6  C   UNL     1      12.111  16.266  49.889  1.00  0.00     0.004 A 
ENDROOT
BRANCH   1   7
ATOM      7  C   UNL     1      14.907  18.599  47.600  1.00  0.00     0.075 C 
ATOM      8  O   UNL     1      16.118  18.261  47.530  1.00  0.00    -0.545 OA
ATOM      9  O   UNL     1      14.489  19.728  46.904  1.00  0.00    -0.545 OA
ENDBRANCH   1   7
BRANCH   2  10
ATOM     10  O   UNL     1      13.451  19.711  49.870  1.00  0.00    -0.507 OA
ATOM     11  H   UNL     1      13.448  20.459  49.187  1.00  0.00     0.293 HD
ENDBRANCH   2  10
TORSDOF 2
ENDMDL
MODEL 7
REMARK VINA RESULT:    -3.863      2.503      3.022
REMARK INTER + INTRA:          -4.438
REMARK INTER:                  -4.185
REMARK INTRA:                  -0.254
REMARK UNBOUND:                -0.236
REMARK SMILES O=C([O-])c1ccccc1O
REMARK SMILES IDX 4 1 9 2 5 3 8 4 6 5 7 6 2 7 1 8 3 9 10 10
REMARK H PARENT 10 11
REMARK Flexibility Score: inf
ROOT
ATOM      1  C   UNL     1      13.622  18.269  48.378  1.00  0.00     0.039 A 
ATOM      2  C   UNL     1      14.069  17.025  48.883  1.00  0.00     0.124 A 
ATOM      3  C   UNL     1      12.237  18.503  48.282  1.00  0.00     0.014 A 
ATOM      4  C   UNL     1      13.136  16.052  49.274  1.00  0.00     0.047 A 
ATOM      5  C   UNL     1      11.319  17.526  48.674  1.00  0.00     0.001 A 
ATOM      6  C   UNL     1      11.767  16.303  49.170  1.00  0.00     0.004 A 
ENDROOT
BRANCH   1   7
ATOM      7  C   UNL     1      14.569  19.331  47.951  1.00  0.00     0.075 C 
ATOM      8  O   UNL     1      14.381  20.535  48.269  1.00  0.00    -0.545 OA
ATOM      9  O   UNL     1      15.685  19.008  47.187  1.00  0.00    -0.545 OA
ENDBRANCH   1   7
BRANCH   2  10
ATOM     10  O   UNL     1      15.432  16.748  48.997  1.00  0.00    -0.507 OA
ATOM     11  H   UNL     1      16.088  17.436  49.347  1.00  0.00     0.293 HD
ENDBRANCH   2  10
TORSDOF 2
ENDMDL
MODEL 8
REMARK VINA RESULT:    -3.710      2.226      2.872
REMARK INTER + INTRA:          -4.272
REMARK INTER:                  -4.017
REMARK INTRA:                  -0.255
REMARK UNBOUND:                -0.236
REMARK SMILES O=C([O-])c1ccccc1O
REMARK SMILES IDX 4 1 9 2 5 3 8 4 6 5 7 6 2 7 1 8 3 9 10 10
REMARK H PARENT 10 11
REMARK Flexibility Score: inf
ROOT
ATOM      1  C   UNL     1      11.300  16.932  48.204  1.00  0.00     0.039 A 
ATOM      2  C   UNL     1      12.161  15.827  48.002  1.00  0.00     0.124 A 
ATOM      3  C   UNL     1      11.598  17.844  49.234  1.00  0.00     0.014 A 
ATOM      4  C   UNL     1      13.286  15.657  48.825  1.00  0.00     0.047 A 
ATOM      5  C   UNL     1      12.720  17.663  50.046  1.00  0.00     0.001 A 
ATOM      6  C   UNL     1      13.563  16.572  49.841  1.00  0.00     0.004 A 
ENDROOT
BRANCH   1   7
ATOM      7  C   UNL     1      10.098  17.156  47.361  1.00  0.00     0.075 C 
ATOM      8  O   UNL     1       9.840  18.293  46.885  1.00  0.00    -0.545 OA
ATOM      9  O   UNL     1       9.232  16.105  47.083  1.00  0.00    -0.545 OA
ENDBRANCH   1   7
BRANCH   2  10
ATOM     10  O   UNL     1      11.907  14.897  46.993  1.00  0.00    -0.507 OA
ATOM     11  H   UNL     1      12.632  14.287  46.636  1.00  0.00     0.293 HD
ENDBRANCH   2  10
TORSDOF 2
ENDMDL
MODEL 9
REMARK VINA RESULT:    -3.709      2.153      3.875
REMARK INTER + INTRA:          -4.270
REMARK INTER:                  -4.019
REMARK INTRA:                  -0.251
REMARK UNBOUND:                -0.236
REMARK SMILES O=C([O-])c1ccccc1O
REMARK SMILES IDX 4 1 9 2 5 3 8 4 6 5 7 6 2 7 1 8 3 9 10 10
REMARK H PARENT 10 11
REMARK Flexibility Score: inf
ROOT
ATOM      1  C   UNL     1      12.198  17.954  49.081  1.00  0.00     0.039 A 
ATOM      2  C   UNL     1      12.701  19.276  49.027  1.00  0.00     0.124 A 
ATOM      3  C   UNL     1      11.044  17.636  48.340  1.00  0.00     0.014 A 
ATOM      4  C   UNL     1      12.048  20.241  48.245  1.00  0.00     0.047 A 
ATOM      5  C   UNL     1      10.403  18.607  47.566  1.00  0.00     0.001 A 
ATOM      6  C   UNL     1      10.904  19.907  47.518  1.00  0.00     0.004 A 
ENDROOT
BRANCH   1   7
ATOM      7  C   UNL     1      12.852  16.896  49.894  1.00  0.00     0.075 C 
ATOM      8  O   UNL     1      13.159  17.099  51.099  1.00  0.00    -0.545 OA
ATOM      9  O   UNL     1      13.138  15.657  49.332  1.00  0.00    -0.545 OA
ENDBRANCH   1   7
BRANCH   2  10
ATOM     10  O   UNL     1      13.842  19.636  49.745  1.00  0.00    -0.507 OA
ATOM     11  H   UNL     1      14.350  18.966  50.309  1.00  0.00     0.293 HD
ENDBRANCH   2  10
TORSDOF 2
ENDMDL
