MODEL 1
REMARK VINA RESULT:    -2.150      0.000      0.000
REMARK INTER + INTRA:          -2.150
REMARK INTER:                  -2.150
REMARK INTRA:                   0.000
REMARK UNBOUND:                 0.000
REMARK SMILES CC(=O)[O-]
REMARK SMILES IDX 1 1 2 2 3 3 4 4
REMARK H PARENT
REMARK Flexibility Score: inf
ROOT
ATOM      1  C   UNL     1       3.114  28.238  19.498  1.00  0.00     0.063 C 
ATOM      2  C   UNL     1       4.046  28.726  18.441  1.00  0.00     0.038 C 
ATOM      3  O   UNL     1       4.331  29.951  18.367  1.00  0.00    -0.550 OA
ATOM      4  O   UNL     1       4.558  27.841  17.502  1.00  0.00    -0.550 OA
ENDROOT
TORSDOF 0
ENDMDL
MODEL 2
REMARK VINA RESULT:    -2.106     14.154     14.544
REMARK INTER + INTRA:          -2.106
REMARK INTER:                  -2.106
REMARK INTRA:                   0.000
REMARK UNBOUND:                 0.000
REMARK SMILES CC(=O)[O-]
REMARK SMILES IDX 1 1 2 2 3 3 4 4
REMARK H PARENT
REMARK Flexibility Score: inf
ROOT
ATOM      1  C   UNL     1       1.923  23.408  30.185  1.00  0.00     0.063 C 
ATOM      2  C   UNL     1       2.323  22.876  31.520  1.00  0.00     0.038 C 
ATOM      3  O   UNL     1       2.411  21.634  31.705  1.00  0.00    -0.550 OA
ATOM      4  O   UNL     1       2.546  23.748  32.578  1.00  0.00    -0.550 OA
ENDROOT
TORSDOF 0
ENDMDL
MODEL 3
REMARK VINA RESULT:    -2.100     12.701     13.093
REMARK INTER + INTRA:          -2.100
REMARK INTER:                  -2.100
REMARK INTRA:                   0.000
REMARK UNBOUND:                 0.000
REMARK SMILES CC(=O)[O-]
REMARK SMILES IDX 1 1 2 2 3 3 4 4
REMARK H PARENT
REMARK Flexibility Score: inf
ROOT
ATOM      1  C   UNL     1      -7.272  25.679  22.417  1.00  0.00     0.063 C 
ATOM      2  C   UNL     1      -7.983  24.713  21.531  1.00  0.00     0.038 C 
ATOM      3  O   UNL     1      -8.274  23.563  21.955  1.00  0.00    -0.550 OA
ATOM      4  O   UNL     1      -8.277  25.058  20.219  1.00  0.00    -0.550 OA
ENDROOT
TORSDOF 0
ENDMDL
MODEL 4
REMARK VINA RESULT:    -2.065     13.845     14.308
REMARK INTER + INTRA:          -2.065
REMARK INTER:                  -2.065
REMARK INTRA:                   0.000
REMARK UNBOUND:                 0.000
REMARK SMILES CC(=O)[O-]
REMARK SMILES IDX 1 1 2 2 3 3 4 4
REMARK H PARENT
REMARK Flexibility Score: inf
ROOT
ATOM      1  C   UNL     1      -7.591  26.187  24.484  1.00  0.00     0.063 C 
ATOM      2  C   UNL     1      -8.418  27.224  25.167  1.00  0.00     0.038 C 
ATOM      3  O   UNL     1      -8.916  26.989  26.299  1.00  0.00    -0.550 OA
ATOM      4  O   UNL     1      -8.686  28.429  24.532  1.00  0.00    -0.550 OA
ENDROOT
TORSDOF 0
ENDMDL
MODEL 5
REMARK VINA RESULT:    -2.031     13.076     13.422
REMARK INTER + INTRA:          -2.031
REMARK INTER:                  -2.031
REMARK INTRA:                   0.000
REMARK UNBOUND:                 0.000
REMARK SMILES CC(=O)[O-]
REMARK SMILES IDX 1 1 2 2 3 3 4 4
REMARK H PARENT
REMARK Flexibility Score: inf
ROOT
ATOM      1  C   UNL     1      -7.253  25.634  22.392  1.00  0.00     0.063 C 
ATOM      2  C   UNL     1      -7.851  25.886  23.736  1.00  0.00     0.038 C 
ATOM      3  O   UNL     1      -7.127  26.292  24.683  1.00  0.00    -0.550 OA
ATOM      4  O   UNL     1      -9.195  25.621  23.960  1.00  0.00    -0.550 OA
ENDROOT
TORSDOF 0
ENDMDL
MODEL 6
REMARK VINA RESULT:    -2.031     12.692     12.894
REMARK INTER + INTRA:          -2.031
REMARK INTER:                  -2.031
REMARK INTRA:                   0.000
REMARK UNBOUND:                 0.000
REMARK SMILES CC(=O)[O-]
REMARK SMILES IDX 1 1 2 2 3 3 4 4
REMARK H PARENT
REMARK Flexibility Score: inf
ROOT
ATOM      1  C   UNL     1      -7.292  25.720  22.505  1.00  0.00     0.063 C 
ATOM      2  C   UNL     1      -8.171  26.234  21.415  1.00  0.00     0.038 C 
ATOM      3  O   UNL     1      -8.543  25.466  20.489  1.00  0.00    -0.550 OA
ATOM      4  O   UNL     1      -8.537  27.573  21.388  1.00  0.00    -0.550 OA
ENDROOT
TORSDOF 0
ENDMDL
MODEL 7
REMARK VINA RESULT:    -1.973     13.956     14.142
REMARK INTER + INTRA:          -1.973
REMARK INTER:                  -1.973
REMARK INTRA:                   0.000
REMARK UNBOUND:                 0.000
REMARK SMILES CC(=O)[O-]
REMARK SMILES IDX 1 1 2 2 3 3 4 4
REMARK H PARENT
REMARK Flexibility Score: inf
ROOT
ATOM      1  C   UNL     1      -9.029  29.763  24.113  1.00  0.00     0.063 C 
ATOM      2  C   UNL     1      -9.328  28.893  22.938  1.00  0.00     0.038 C 
ATOM      3  O   UNL     1     -10.001  29.344  21.974  1.00  0.00    -0.550 OA
ATOM      4  O   UNL     1      -8.913  27.568  22.930  1.00  0.00    -0.550 OA
ENDROOT
TORSDOF 0
ENDMDL
MODEL 8
REMARK VINA RESULT:    -1.962     14.714     15.011
REMARK INTER + INTRA:          -1.962
REMARK INTER:                  -1.962
REMARK INTRA:                   0.000
REMARK UNBOUND:                 0.000
REMARK SMILES CC(=O)[O-]
REMARK SMILES IDX 1 1 2 2 3 3 4 4
REMARK H PARENT
REMARK Flexibility Score: inf
ROOT
ATOM      1  C   UNL     1       2.624  21.420  32.879  1.00  0.00     0.063 C 
ATOM      2  C   UNL     1       2.493  22.659  32.058  1.00  0.00     0.038 C 
ATOM      3  O   UNL     1       2.492  23.788  32.615  1.00  0.00    -0.550 OA
ATOM      4  O   UNL     1       2.318  22.568  30.684  1.00  0.00    -0.550 OA
ENDROOT
TORSDOF 0
ENDMDL
MODEL 9
REMARK VINA RESULT:    -1.942      1.349      2.409
REMARK INTER + INTRA:          -1.942
REMARK INTER:                  -1.942
REMARK INTRA:                   0.000
REMARK UNBOUND:                 0.000
REMARK SMILES CC(=O)[O-]
REMARK SMILES IDX 1 1 2 2 3 3 4 4
REMARK H PARENT
REMARK Flexibility Score: inf
ROOT
ATOM      1  C   UNL     1       4.929  30.217  17.197  1.00  0.00     0.063 C 
ATOM      2  C   UNL     1       4.402  28.971  17.826  1.00  0.00     0.038 C 
ATOM      3  O   UNL     1       4.518  27.866  17.233  1.00  0.00    -0.550 OA
ATOM      4  O   UNL     1       3.734  29.035  19.042  1.00  0.00    -0.550 OA
ENDROOT
TORSDOF 0
ENDMDL
