MODEL 1
REMARK VINA RESULT:    -4.050      0.000      0.000
REMARK INTER + INTRA:          -6.062
REMARK INTER:                  -5.708
REMARK INTRA:                  -0.354
REMARK UNBOUND:                -0.354
REMARK SMILES CCCCCCCCC(=O)[O-]
REMARK SMILES IDX 6 1 7 2 8 3 9 4 10 5 11 6 5 7 4 8 3 9 2 10 1 11
REMARK H PARENT
REMARK Flexibility Score: inf
ROOT
ATOM      1  C   UNL     1       3.452  -6.674  -6.464  1.00  0.00     0.000 C 
ENDROOT
BRANCH   1   2
ATOM      2  C   UNL     1       4.150  -6.053  -5.245  1.00  0.00     0.006 C 
BRANCH   2   3
ATOM      3  C   UNL     1       5.627  -6.461  -5.195  1.00  0.00     0.053 C 
BRANCH   3   4
ATOM      4  C   UNL     1       5.805  -7.678  -4.344  1.00  0.00     0.041 C 
ATOM      5  O   UNL     1       4.966  -7.953  -3.446  1.00  0.00    -0.550 OA
ATOM      6  O   UNL     1       6.873  -8.536  -4.573  1.00  0.00    -0.550 OA
ENDBRANCH   3   4
ENDBRANCH   2   3
ENDBRANCH   1   2
BRANCH   1   7
ATOM      7  C   UNL     1       2.968  -5.618  -7.472  1.00  0.00     0.000 C 
BRANCH   7   8
ATOM      8  C   UNL     1       3.429  -4.197  -7.106  1.00  0.00    -0.000 C 
BRANCH   8   9
ATOM      9  C   UNL     1       2.396  -3.118  -7.479  1.00  0.00    -0.000 C 
BRANCH   9  10
ATOM     10  C   UNL     1       1.153  -3.636  -8.224  1.00  0.00    -0.003 C 
ATOM     11  C   UNL     1       0.407  -2.537  -8.979  1.00  0.00     0.004 C 
ENDBRANCH   9  10
ENDBRANCH   8   9
ENDBRANCH   7   8
ENDBRANCH   1   7
TORSDOF 7
ENDMDL
MODEL 2
REMARK VINA RESULT:    -4.036      1.114      1.637
REMARK INTER + INTRA:          -6.042
REMARK INTER:                  -5.877
REMARK INTRA:                  -0.165
REMARK UNBOUND:                -0.354
REMARK SMILES CCCCCCCCC(=O)[O-]
REMARK SMILES IDX 6 1 7 2 8 3 9 4 10 5 11 6 5 7 4 8 3 9 2 10 1 11
REMARK H PARENT
REMARK Flexibility Score: inf
ROOT
ATOM      1  C   UNL     1       3.255  -5.530  -6.888  1.00  0.00     0.000 C 
ENDROOT
BRANCH   1   2
ATOM      2  C   UNL     1       4.267  -5.804  -5.765  1.00  0.00     0.006 C 
BRANCH   2   3
ATOM      3  C   UNL     1       3.641  -6.670  -4.665  1.00  0.00     0.053 C 
BRANCH   3   4
ATOM      4  C   UNL     1       4.491  -7.872  -4.400  1.00  0.00     0.041 C 
ATOM      5  O   UNL     1       5.178  -7.943  -3.347  1.00  0.00    -0.550 OA
ATOM      6  O   UNL     1       4.488  -8.936  -5.292  1.00  0.00    -0.550 OA
ENDBRANCH   3   4
ENDBRANCH   2   3
ENDBRANCH   1   2
BRANCH   1   7
ATOM      7  C   UNL     1       2.990  -4.029  -7.095  1.00  0.00     0.000 C 
BRANCH   7   8
ATOM      8  C   UNL     1       1.553  -3.743  -7.564  1.00  0.00    -0.000 C 
BRANCH   8   9
ATOM      9  C   UNL     1       1.464  -2.543  -8.525  1.00  0.00    -0.000 C 
BRANCH   9  10
ATOM     10  C   UNL     1       0.045  -2.211  -9.021  1.00  0.00    -0.003 C 
ATOM     11  C   UNL     1      -0.614  -3.371  -9.765  1.00  0.00     0.004 C 
ENDBRANCH   9  10
ENDBRANCH   8   9
ENDBRANCH   7   8
ENDBRANCH   1   7
TORSDOF 7
ENDMDL
MODEL 3
REMARK VINA RESULT:    -3.986      1.244      1.758
REMARK INTER + INTRA:          -5.971
REMARK INTER:                  -5.772
REMARK INTRA:                  -0.199
REMARK UNBOUND:                -0.354
REMARK SMILES CCCCCCCCC(=O)[O-]
REMARK SMILES IDX 6 1 7 2 8 3 9 4 10 5 11 6 5 7 4 8 3 9 2 10 1 11
REMARK H PARENT
REMARK Flexibility Score: inf
ROOT
ATOM      1  C   UNL     1       2.879  -4.926  -6.972  1.00  0.00     0.000 C 
ENDROOT
BRANCH   1   2
ATOM      2  C   UNL     1       4.115  -5.596  -6.354  1.00  0.00     0.006 C 
BRANCH   2   3
ATOM      3  C   UNL     1       3.717  -6.505  -5.185  1.00  0.00     0.053 C 
BRANCH   3   4
ATOM      4  C   UNL     1       4.925  -6.911  -4.403  1.00  0.00     0.041 C 
ATOM      5  O   UNL     1       4.858  -7.860  -3.579  1.00  0.00    -0.550 OA
ATOM      6  O   UNL     1       6.140  -6.271  -4.619  1.00  0.00    -0.550 OA
ENDBRANCH   3   4
ENDBRANCH   2   3
ENDBRANCH   1   2
BRANCH   1   7
ATOM      7  C   UNL     1       3.059  -3.411  -7.166  1.00  0.00     0.000 C 
BRANCH   7   8
ATOM      8  C   UNL     1       2.635  -2.941  -8.568  1.00  0.00    -0.000 C 
BRANCH   8   9
ATOM      9  C   UNL     1       1.127  -2.652  -8.673  1.00  0.00    -0.000 C 
BRANCH   9  10
ATOM     10  C   UNL     1       0.316  -3.701  -9.456  1.00  0.00    -0.003 C 
ATOM     11  C   UNL     1      -1.078  -3.210  -9.844  1.00  0.00     0.004 C 
ENDBRANCH   9  10
ENDBRANCH   8   9
ENDBRANCH   7   8
ENDBRANCH   1   7
TORSDOF 7
ENDMDL
MODEL 4
REMARK VINA RESULT:    -3.941      0.868      1.325
REMARK INTER + INTRA:          -5.908
REMARK INTER:                  -5.728
REMARK INTRA:                  -0.179
REMARK UNBOUND:                -0.354
REMARK SMILES CCCCCCCCC(=O)[O-]
REMARK SMILES IDX 6 1 7 2 8 3 9 4 10 5 11 6 5 7 4 8 3 9 2 10 1 11
REMARK H PARENT
REMARK Flexibility Score: inf
ROOT
ATOM      1  C   UNL     1       3.048  -6.158  -6.196  1.00  0.00     0.000 C 
ENDROOT
BRANCH   1   2
ATOM      2  C   UNL     1       3.970  -6.355  -4.983  1.00  0.00     0.006 C 
BRANCH   2   3
ATOM      3  C   UNL     1       5.443  -6.237  -5.392  1.00  0.00     0.053 C 
BRANCH   3   4
ATOM      4  C   UNL     1       6.278  -7.210  -4.623  1.00  0.00     0.041 C 
ATOM      5  O   UNL     1       7.534  -7.129  -4.652  1.00  0.00    -0.550 OA
ATOM      6  O   UNL     1       5.669  -8.178  -3.834  1.00  0.00    -0.550 OA
ENDBRANCH   3   4
ENDBRANCH   2   3
ENDBRANCH   1   2
BRANCH   1   7
ATOM      7  C   UNL     1       3.231  -4.785  -6.865  1.00  0.00     0.000 C 
BRANCH   7   8
ATOM      8  C   UNL     1       1.897  -4.158  -7.303  1.00  0.00    -0.000 C 
BRANCH   8   9
ATOM      9  C   UNL     1       2.069  -2.771  -7.947  1.00  0.00    -0.000 C 
BRANCH   9  10
ATOM     10  C   UNL     1       0.792  -2.182  -8.574  1.00  0.00    -0.003 C 
ATOM     11  C   UNL     1      -0.015  -3.211  -9.365  1.00  0.00     0.004 C 
ENDBRANCH   9  10
ENDBRANCH   8   9
ENDBRANCH   7   8
ENDBRANCH   1   7
TORSDOF 7
ENDMDL
MODEL 5
REMARK VINA RESULT:    -3.919      3.489      6.060
REMARK INTER + INTRA:          -5.877
REMARK INTER:                  -5.417
REMARK INTRA:                  -0.460
REMARK UNBOUND:                -0.354
REMARK SMILES CCCCCCCCC(=O)[O-]
REMARK SMILES IDX 6 1 7 2 8 3 9 4 10 5 11 6 5 7 4 8 3 9 2 10 1 11
REMARK H PARENT
REMARK Flexibility Score: inf
ROOT
ATOM      1  C   UNL     1       3.410  -6.285  -7.433  1.00  0.00     0.000 C 
ENDROOT
BRANCH   1   2
ATOM      2  C   UNL     1       3.438  -4.848  -6.890  1.00  0.00     0.006 C 
BRANCH   2   3
ATOM      3  C   UNL     1       2.128  -4.118  -7.209  1.00  0.00     0.053 C 
BRANCH   3   4
ATOM      4  C   UNL     1       2.409  -2.792  -7.842  1.00  0.00     0.041 C 
ATOM      5  O   UNL     1       3.595  -2.422  -8.040  1.00  0.00    -0.550 OA
ATOM      6  O   UNL     1       1.358  -1.984  -8.258  1.00  0.00    -0.550 OA
ENDBRANCH   3   4
ENDBRANCH   2   3
ENDBRANCH   1   2
BRANCH   1   7
ATOM      7  C   UNL     1       3.748  -7.332  -6.358  1.00  0.00     0.000 C 
BRANCH   7   8
ATOM      8  C   UNL     1       3.727  -6.746  -4.936  1.00  0.00    -0.000 C 
BRANCH   8   9
ATOM      9  C   UNL     1       4.974  -7.121  -4.115  1.00  0.00    -0.000 C 
BRANCH   9  10
ATOM     10  C   UNL     1       6.281  -6.449  -4.573  1.00  0.00    -0.003 C 
ATOM     11  C   UNL     1       7.418  -7.444  -4.798  1.00  0.00     0.004 C 
ENDBRANCH   9  10
ENDBRANCH   8   9
ENDBRANCH   7   8
ENDBRANCH   1   7
TORSDOF 7
ENDMDL
MODEL 6
REMARK VINA RESULT:    -3.897      1.656      2.335
REMARK INTER + INTRA:          -5.846
REMARK INTER:                  -5.304
REMARK INTRA:                  -0.542
REMARK UNBOUND:                -0.354
REMARK SMILES CCCCCCCCC(=O)[O-]
REMARK SMILES IDX 6 1 7 2 8 3 9 4 10 5 11 6 5 7 4 8 3 9 2 10 1 11
REMARK H PARENT
REMARK Flexibility Score: inf
ROOT
ATOM      1  C   UNL     1       3.038  -5.927  -7.187  1.00  0.00     0.000 C 
ENDROOT
BRANCH   1   2
ATOM      2  C   UNL     1       4.196  -5.841  -6.182  1.00  0.00     0.006 C 
BRANCH   2   3
ATOM      3  C   UNL     1       3.780  -6.409  -4.820  1.00  0.00     0.053 C 
BRANCH   3   4
ATOM      4  C   UNL     1       4.489  -7.698  -4.551  1.00  0.00     0.041 C 
ATOM      5  O   UNL     1       5.069  -7.886  -3.450  1.00  0.00    -0.550 OA
ATOM      6  O   UNL     1       4.469  -8.713  -5.500  1.00  0.00    -0.550 OA
ENDBRANCH   3   4
ENDBRANCH   2   3
ENDBRANCH   1   2
BRANCH   1   7
ATOM      7  C   UNL     1       2.265  -4.604  -7.317  1.00  0.00     0.000 C 
BRANCH   7   8
ATOM      8  C   UNL     1       3.170  -3.372  -7.149  1.00  0.00    -0.000 C 
BRANCH   8   9
ATOM      9  C   UNL     1       3.324  -2.560  -8.447  1.00  0.00    -0.000 C 
BRANCH   9  10
ATOM     10  C   UNL     1       4.766  -2.442  -8.975  1.00  0.00    -0.003 C 
ATOM     11  C   UNL     1       5.369  -3.789  -9.370  1.00  0.00     0.004 C 
ENDBRANCH   9  10
ENDBRANCH   8   9
ENDBRANCH   7   8
ENDBRANCH   1   7
TORSDOF 7
ENDMDL
MODEL 7
REMARK VINA RESULT:    -3.741     12.047     13.572
REMARK INTER + INTRA:          -5.626
REMARK INTER:                  -5.070
REMARK INTRA:                  -0.556
REMARK UNBOUND:                -0.354
REMARK SMILES CCCCCCCCC(=O)[O-]
REMARK SMILES IDX 6 1 7 2 8 3 9 4 10 5 11 6 5 7 4 8 3 9 2 10 1 11
REMARK H PARENT
REMARK Flexibility Score: inf
ROOT
ATOM      1  C   UNL     1       7.377   8.358  -7.857  1.00  0.00     0.000 C 
ENDROOT
BRANCH   1   2
ATOM      2  C   UNL     1       7.513   7.990  -6.372  1.00  0.00     0.006 C 
BRANCH   2   3
ATOM      3  C   UNL     1       6.190   7.446  -5.820  1.00  0.00     0.053 C 
BRANCH   3   4
ATOM      4  C   UNL     1       5.985   7.902  -4.411  1.00  0.00     0.041 C 
ATOM      5  O   UNL     1       5.154   7.315  -3.669  1.00  0.00    -0.550 OA
ATOM      6  O   UNL     1       6.745   8.947  -3.900  1.00  0.00    -0.550 OA
ENDBRANCH   3   4
ENDBRANCH   2   3
ENDBRANCH   1   2
BRANCH   1   7
ATOM      7  C   UNL     1       5.987   8.026  -8.426  1.00  0.00     0.000 C 
BRANCH   7   8
ATOM      8  C   UNL     1       6.047   7.002  -9.572  1.00  0.00    -0.000 C 
BRANCH   8   9
ATOM      9  C   UNL     1       4.857   6.026  -9.567  1.00  0.00    -0.000 C 
BRANCH   9  10
ATOM     10  C   UNL     1       5.228   4.548  -9.349  1.00  0.00    -0.003 C 
ATOM     11  C   UNL     1       6.378   4.360  -8.360  1.00  0.00     0.004 C 
ENDBRANCH   9  10
ENDBRANCH   8   9
ENDBRANCH   7   8
ENDBRANCH   1   7
TORSDOF 7
ENDMDL
MODEL 8
REMARK VINA RESULT:    -3.615      9.949     11.633
REMARK INTER + INTRA:          -5.448
REMARK INTER:                  -5.088
REMARK INTRA:                  -0.360
REMARK UNBOUND:                -0.354
REMARK SMILES CCCCCCCCC(=O)[O-]
REMARK SMILES IDX 6 1 7 2 8 3 9 4 10 5 11 6 5 7 4 8 3 9 2 10 1 11
REMARK H PARENT
REMARK Flexibility Score: inf
ROOT
ATOM      1  C   UNL     1       7.426   3.944  -8.532  1.00  0.00     0.000 C 
ENDROOT
BRANCH   1   2
ATOM      2  C   UNL     1       5.983   4.400  -8.269  1.00  0.00     0.006 C 
BRANCH   2   3
ATOM      3  C   UNL     1       5.682   5.712  -9.001  1.00  0.00     0.053 C 
BRANCH   3   4
ATOM      4  C   UNL     1       5.877   6.879  -8.087  1.00  0.00     0.041 C 
ATOM      5  O   UNL     1       5.954   6.703  -6.842  1.00  0.00    -0.550 OA
ATOM      6  O   UNL     1       6.023   8.157  -8.612  1.00  0.00    -0.550 OA
ENDBRANCH   3   4
ENDBRANCH   2   3
ENDBRANCH   1   2
BRANCH   1   7
ATOM      7  C   UNL     1       7.579   2.414  -8.508  1.00  0.00     0.000 C 
BRANCH   7   8
ATOM      8  C   UNL     1       6.386   1.712  -7.837  1.00  0.00    -0.000 C 
BRANCH   8   9
ATOM      9  C   UNL     1       6.815   0.710  -6.750  1.00  0.00    -0.000 C 
BRANCH   9  10
ATOM     10  C   UNL     1       8.209   0.089  -6.951  1.00  0.00    -0.003 C 
ATOM     11  C   UNL     1       9.004  -0.028  -5.651  1.00  0.00     0.004 C 
ENDBRANCH   9  10
ENDBRANCH   8   9
ENDBRANCH   7   8
ENDBRANCH   1   7
TORSDOF 7
ENDMDL
MODEL 9
REMARK VINA RESULT:    -3.430     14.157     16.274
REMARK INTER + INTRA:          -5.188
REMARK INTER:                  -4.525
REMARK INTRA:                  -0.663
REMARK UNBOUND:                -0.354
REMARK SMILES CCCCCCCCC(=O)[O-]
REMARK SMILES IDX 6 1 7 2 8 3 9 4 10 5 11 6 5 7 4 8 3 9 2 10 1 11
REMARK H PARENT
REMARK Flexibility Score: inf
ROOT
ATOM      1  C   UNL     1      -5.058   9.426  -7.482  1.00  0.00     0.000 C 
ENDROOT
BRANCH   1   2
ATOM      2  C   UNL     1      -3.651   8.937  -7.110  1.00  0.00     0.006 C 
BRANCH   2   3
ATOM      3  C   UNL     1      -3.265   7.703  -7.933  1.00  0.00     0.053 C 
BRANCH   3   4
ATOM      4  C   UNL     1      -2.195   6.923  -7.238  1.00  0.00     0.041 C 
ATOM      5  O   UNL     1      -2.247   6.747  -5.993  1.00  0.00    -0.550 OA
ATOM      6  O   UNL     1      -1.165   6.349  -7.972  1.00  0.00    -0.550 OA
ENDBRANCH   3   4
ENDBRANCH   2   3
ENDBRANCH   1   2
BRANCH   1   7
ATOM      7  C   UNL     1      -5.820  10.012  -6.281  1.00  0.00     0.000 C 
BRANCH   7   8
ATOM      8  C   UNL     1      -7.168   9.311  -6.038  1.00  0.00    -0.000 C 
BRANCH   8   9
ATOM      9  C   UNL     1      -7.069   8.159  -5.021  1.00  0.00    -0.000 C 
BRANCH   9  10
ATOM     10  C   UNL     1      -7.036   6.748  -5.638  1.00  0.00    -0.003 C 
ATOM     11  C   UNL     1      -5.672   6.072  -5.510  1.00  0.00     0.004 C 
ENDBRANCH   9  10
ENDBRANCH   8   9
ENDBRANCH   7   8
ENDBRANCH   1   7
TORSDOF 7
ENDMDL
