MODEL 1
REMARK VINA RESULT:    -4.368      0.000      0.000
REMARK INTER + INTRA:          -7.480
REMARK INTER:                  -6.922
REMARK INTRA:                  -0.558
REMARK UNBOUND:                -0.558
REMARK SMILES CCCCCCCCCCCC(=O)[O-]
REMARK SMILES IDX 7 1 8 2 9 3 10 4 11 5 12 6 13 7 14 8 6 9 5 10 4 11 3 12 2 13
REMARK SMILES IDX 1 14
REMARK H PARENT
REMARK Flexibility Score: inf
ROOT
ATOM      1  C   UNL     1      44.740  25.992   2.982  1.00  0.00     0.000 C 
ENDROOT
BRANCH   1   2
ATOM      2  C   UNL     1      44.427  27.330   2.279  1.00  0.00     0.000 C 
BRANCH   2   3
ATOM      3  C   UNL     1      42.943  27.508   1.909  1.00  0.00     0.000 C 
BRANCH   3   4
ATOM      4  C   UNL     1      42.621  27.358   0.409  1.00  0.00     0.006 C 
BRANCH   4   5
ATOM      5  C   UNL     1      43.656  27.998  -0.529  1.00  0.00     0.053 C 
BRANCH   5   6
ATOM      6  C   UNL     1      44.356  26.975  -1.371  1.00  0.00     0.041 C 
ATOM      7  O   UNL     1      45.496  27.216  -1.846  1.00  0.00    -0.550 OA
ATOM      8  O   UNL     1      43.760  25.741  -1.601  1.00  0.00    -0.550 OA
ENDBRANCH   5   6
ENDBRANCH   4   5
ENDBRANCH   3   4
ENDBRANCH   2   3
ENDBRANCH   1   2
BRANCH   1   9
ATOM      9  C   UNL     1      45.860  26.124   4.030  1.00  0.00     0.000 C 
BRANCH   9  10
ATOM     10  C   UNL     1      46.004  27.567   4.560  1.00  0.00    -0.000 C 
BRANCH  10  11
ATOM     11  C   UNL     1      46.009  27.670   6.097  1.00  0.00    -0.000 C 
BRANCH  11  12
ATOM     12  C   UNL     1      46.007  26.322   6.838  1.00  0.00    -0.000 C 
BRANCH  12  13
ATOM     13  C   UNL     1      45.493  26.435   8.280  1.00  0.00    -0.003 C 
ATOM     14  C   UNL     1      45.224  27.890   8.653  1.00  0.00     0.004 C 
ENDBRANCH  12  13
ENDBRANCH  11  12
ENDBRANCH  10  11
ENDBRANCH   9  10
ENDBRANCH   1   9
TORSDOF 10
ENDMDL
MODEL 2
REMARK VINA RESULT:    -4.326      0.890      1.404
REMARK INTER + INTRA:          -7.412
REMARK INTER:                  -6.821
REMARK INTRA:                  -0.592
REMARK UNBOUND:                -0.558
REMARK SMILES CCCCCCCCCCCC(=O)[O-]
REMARK SMILES IDX 7 1 8 2 9 3 10 4 11 5 12 6 13 7 14 8 6 9 5 10 4 11 3 12 2 13
REMARK SMILES IDX 1 14
REMARK H PARENT
REMARK Flexibility Score: inf
ROOT
ATOM      1  C   UNL     1      44.895  26.062   2.962  1.00  0.00     0.000 C 
ENDROOT
BRANCH   1   2
ATOM      2  C   UNL     1      45.012  27.582   2.717  1.00  0.00     0.000 C 
BRANCH   2   3
ATOM      3  C   UNL     1      43.736  28.220   2.136  1.00  0.00     0.000 C 
BRANCH   3   4
ATOM      4  C   UNL     1      42.951  27.332   1.152  1.00  0.00     0.006 C 
BRANCH   4   5
ATOM      5  C   UNL     1      43.106  27.729  -0.324  1.00  0.00     0.053 C 
BRANCH   5   6
ATOM      6  C   UNL     1      44.162  26.920  -1.013  1.00  0.00     0.041 C 
ATOM      7  O   UNL     1      43.854  25.867  -1.629  1.00  0.00    -0.550 OA
ATOM      8  O   UNL     1      45.483  27.350  -1.002  1.00  0.00    -0.550 OA
ENDBRANCH   5   6
ENDBRANCH   4   5
ENDBRANCH   3   4
ENDBRANCH   2   3
ENDBRANCH   1   2
BRANCH   1   9
ATOM      9  C   UNL     1      45.502  25.634   4.311  1.00  0.00     0.000 C 
BRANCH   9  10
ATOM     10  C   UNL     1      46.245  26.790   5.016  1.00  0.00    -0.000 C 
BRANCH  10  11
ATOM     11  C   UNL     1      45.929  26.909   6.519  1.00  0.00    -0.000 C 
BRANCH  11  12
ATOM     12  C   UNL     1      45.592  28.329   7.001  1.00  0.00    -0.000 C 
BRANCH  12  13
ATOM     13  C   UNL     1      45.143  28.370   8.468  1.00  0.00    -0.003 C 
ATOM     14  C   UNL     1      44.789  29.792   8.893  1.00  0.00     0.004 C 
ENDBRANCH  12  13
ENDBRANCH  11  12
ENDBRANCH  10  11
ENDBRANCH   9  10
ENDBRANCH   1   9
TORSDOF 10
ENDMDL
MODEL 3
REMARK VINA RESULT:    -4.276      0.864      1.798
REMARK INTER + INTRA:          -7.333
REMARK INTER:                  -6.709
REMARK INTRA:                  -0.625
REMARK UNBOUND:                -0.558
REMARK SMILES CCCCCCCCCCCC(=O)[O-]
REMARK SMILES IDX 7 1 8 2 9 3 10 4 11 5 12 6 13 7 14 8 6 9 5 10 4 11 3 12 2 13
REMARK SMILES IDX 1 14
REMARK H PARENT
REMARK Flexibility Score: inf
ROOT
ATOM      1  C   UNL     1      43.942  26.765   1.811  1.00  0.00     0.000 C 
ENDROOT
BRANCH   1   2
ATOM      2  C   UNL     1      42.708  27.685   1.921  1.00  0.00     0.000 C 
BRANCH   2   3
ATOM      3  C   UNL     1      42.312  28.359   0.594  1.00  0.00     0.000 C 
BRANCH   3   4
ATOM      4  C   UNL     1      43.489  28.723  -0.331  1.00  0.00     0.006 C 
BRANCH   4   5
ATOM      5  C   UNL     1      43.395  28.129  -1.744  1.00  0.00     0.053 C 
BRANCH   5   6
ATOM      6  C   UNL     1      44.241  26.901  -1.893  1.00  0.00     0.041 C 
ATOM      7  O   UNL     1      43.783  25.773  -1.576  1.00  0.00    -0.550 OA
ATOM      8  O   UNL     1      45.524  27.003  -2.415  1.00  0.00    -0.550 OA
ENDBRANCH   5   6
ENDBRANCH   4   5
ENDBRANCH   3   4
ENDBRANCH   2   3
ENDBRANCH   1   2
BRANCH   1   9
ATOM      9  C   UNL     1      44.975  27.028   2.922  1.00  0.00     0.000 C 
BRANCH   9  10
ATOM     10  C   UNL     1      45.298  25.758   3.739  1.00  0.00    -0.000 C 
BRANCH  10  11
ATOM     11  C   UNL     1      46.070  26.035   5.043  1.00  0.00    -0.000 C 
BRANCH  11  12
ATOM     12  C   UNL     1      46.060  27.502   5.505  1.00  0.00    -0.000 C 
BRANCH  12  13
ATOM     13  C   UNL     1      45.945  27.646   7.029  1.00  0.00    -0.003 C 
ATOM     14  C   UNL     1      45.676  26.297   7.688  1.00  0.00     0.004 C 
ENDBRANCH  12  13
ENDBRANCH  11  12
ENDBRANCH  10  11
ENDBRANCH   9  10
ENDBRANCH   1   9
TORSDOF 10
ENDMDL
MODEL 4
REMARK VINA RESULT:    -4.017      4.069      7.568
REMARK INTER + INTRA:          -6.923
REMARK INTER:                  -6.433
REMARK INTRA:                  -0.490
REMARK UNBOUND:                -0.558
REMARK SMILES CCCCCCCCCCCC(=O)[O-]
REMARK SMILES IDX 7 1 8 2 9 3 10 4 11 5 12 6 13 7 14 8 6 9 5 10 4 11 3 12 2 13
REMARK SMILES IDX 1 14
REMARK H PARENT
REMARK Flexibility Score: inf
ROOT
ATOM      1  C   UNL     1      44.929  25.681   3.261  1.00  0.00     0.000 C 
ENDROOT
BRANCH   1   2
ATOM      2  C   UNL     1      46.428  25.375   3.467  1.00  0.00     0.000 C 
BRANCH   2   3
ATOM      3  C   UNL     1      47.027  26.014   4.734  1.00  0.00     0.000 C 
BRANCH   3   4
ATOM      4  C   UNL     1      46.003  26.393   5.821  1.00  0.00     0.006 C 
BRANCH   4   5
ATOM      5  C   UNL     1      46.593  26.513   7.234  1.00  0.00     0.053 C 
BRANCH   5   6
ATOM      6  C   UNL     1      45.545  26.850   8.251  1.00  0.00     0.041 C 
ATOM      7  O   UNL     1      45.101  25.960   9.023  1.00  0.00    -0.550 OA
ATOM      8  O   UNL     1      45.085  28.155   8.367  1.00  0.00    -0.550 OA
ENDBRANCH   5   6
ENDBRANCH   4   5
ENDBRANCH   3   4
ENDBRANCH   2   3
ENDBRANCH   1   2
BRANCH   1   9
ATOM      9  C   UNL     1      44.665  26.517   1.995  1.00  0.00     0.000 C 
BRANCH   9  10
ATOM     10  C   UNL     1      43.370  27.352   2.100  1.00  0.00    -0.000 C 
BRANCH  10  11
ATOM     11  C   UNL     1      42.627  27.520   0.760  1.00  0.00    -0.000 C 
BRANCH  11  12
ATOM     12  C   UNL     1      43.330  26.894  -0.455  1.00  0.00    -0.000 C 
BRANCH  12  13
ATOM     13  C   UNL     1      43.481  27.874  -1.627  1.00  0.00    -0.003 C 
ATOM     14  C   UNL     1      42.712  29.165  -1.364  1.00  0.00     0.004 C 
ENDBRANCH  12  13
ENDBRANCH  11  12
ENDBRANCH  10  11
ENDBRANCH   9  10
ENDBRANCH   1   9
TORSDOF 10
ENDMDL
MODEL 5
REMARK VINA RESULT:    -3.981      1.166      2.524
REMARK INTER + INTRA:          -6.867
REMARK INTER:                  -6.098
REMARK INTRA:                  -0.769
REMARK UNBOUND:                -0.558
REMARK SMILES CCCCCCCCCCCC(=O)[O-]
REMARK SMILES IDX 7 1 8 2 9 3 10 4 11 5 12 6 13 7 14 8 6 9 5 10 4 11 3 12 2 13
REMARK SMILES IDX 1 14
REMARK H PARENT
REMARK Flexibility Score: inf
ROOT
ATOM      1  C   UNL     1      42.930  27.423   1.869  1.00  0.00     0.000 C 
ENDROOT
BRANCH   1   2
ATOM      2  C   UNL     1      42.502  28.815   1.358  1.00  0.00     0.000 C 
BRANCH   2   3
ATOM      3  C   UNL     1      43.270  29.285   0.109  1.00  0.00     0.000 C 
BRANCH   3   4
ATOM      4  C   UNL     1      42.639  28.882  -1.237  1.00  0.00     0.006 C 
BRANCH   4   5
ATOM      5  C   UNL     1      43.608  28.199  -2.214  1.00  0.00     0.053 C 
BRANCH   5   6
ATOM      6  C   UNL     1      44.349  27.068  -1.569  1.00  0.00     0.041 C 
ATOM      7  O   UNL     1      43.750  26.000  -1.279  1.00  0.00    -0.550 OA
ATOM      8  O   UNL     1      45.711  27.184  -1.320  1.00  0.00    -0.550 OA
ENDBRANCH   5   6
ENDBRANCH   4   5
ENDBRANCH   3   4
ENDBRANCH   2   3
ENDBRANCH   1   2
BRANCH   1   9
ATOM      9  C   UNL     1      44.416  27.372   2.269  1.00  0.00     0.000 C 
BRANCH   9  10
ATOM     10  C   UNL     1      44.814  26.013   2.884  1.00  0.00    -0.000 C 
BRANCH  10  11
ATOM     11  C   UNL     1      46.336  25.804   3.001  1.00  0.00    -0.000 C 
BRANCH  11  12
ATOM     12  C   UNL     1      46.860  25.625   4.436  1.00  0.00    -0.000 C 
BRANCH  12  13
ATOM     13  C   UNL     1      46.685  26.886   5.295  1.00  0.00    -0.003 C 
ATOM     14  C   UNL     1      46.000  26.556   6.618  1.00  0.00     0.004 C 
ENDBRANCH  12  13
ENDBRANCH  11  12
ENDBRANCH  10  11
ENDBRANCH   9  10
ENDBRANCH   1   9
TORSDOF 10
ENDMDL
MODEL 6
REMARK VINA RESULT:    -3.979      2.885      4.006
REMARK INTER + INTRA:          -6.863
REMARK INTER:                  -5.825
REMARK INTRA:                  -1.038
REMARK UNBOUND:                -0.558
REMARK SMILES CCCCCCCCCCCC(=O)[O-]
REMARK SMILES IDX 7 1 8 2 9 3 10 4 11 5 12 6 13 7 14 8 6 9 5 10 4 11 3 12 2 13
REMARK SMILES IDX 1 14
REMARK H PARENT
REMARK Flexibility Score: inf
ROOT
ATOM      1  C   UNL     1      42.263  27.877   1.089  1.00  0.00     0.000 C 
ENDROOT
BRANCH   1   2
ATOM      2  C   UNL     1      42.634  26.852  -0.003  1.00  0.00     0.000 C 
BRANCH   2   3
ATOM      3  C   UNL     1      44.012  27.096  -0.646  1.00  0.00     0.000 C 
BRANCH   3   4
ATOM      4  C   UNL     1      44.058  26.923  -2.176  1.00  0.00     0.006 C 
BRANCH   4   5
ATOM      5  C   UNL     1      44.123  28.241  -2.963  1.00  0.00     0.053 C 
BRANCH   5   6
ATOM      6  C   UNL     1      42.763  28.708  -3.385  1.00  0.00     0.041 C 
ATOM      7  O   UNL     1      42.295  28.368  -4.502  1.00  0.00    -0.550 OA
ATOM      8  O   UNL     1      42.002  29.492  -2.528  1.00  0.00    -0.550 OA
ENDBRANCH   5   6
ENDBRANCH   4   5
ENDBRANCH   3   4
ENDBRANCH   2   3
ENDBRANCH   1   2
BRANCH   1   9
ATOM      9  C   UNL     1      43.077  29.179   0.978  1.00  0.00     0.000 C 
BRANCH   9  10
ATOM     10  C   UNL     1      43.918  29.458   2.243  1.00  0.00    -0.000 C 
BRANCH  10  11
ATOM     11  C   UNL     1      45.244  28.677   2.294  1.00  0.00    -0.000 C 
BRANCH  11  12
ATOM     12  C   UNL     1      45.320  27.596   3.385  1.00  0.00    -0.000 C 
BRANCH  12  13
ATOM     13  C   UNL     1      44.816  26.228   2.905  1.00  0.00    -0.003 C 
ATOM     14  C   UNL     1      45.638  25.097   3.516  1.00  0.00     0.004 C 
ENDBRANCH  12  13
ENDBRANCH  11  12
ENDBRANCH  10  11
ENDBRANCH   9  10
ENDBRANCH   1   9
TORSDOF 10
ENDMDL
MODEL 7
REMARK VINA RESULT:    -3.960      1.983      2.942
REMARK INTER + INTRA:          -6.832
REMARK INTER:                  -6.298
REMARK INTRA:                  -0.535
REMARK UNBOUND:                -0.558
REMARK SMILES CCCCCCCCCCCC(=O)[O-]
REMARK SMILES IDX 7 1 8 2 9 3 10 4 11 5 12 6 13 7 14 8 6 9 5 10 4 11 3 12 2 13
REMARK SMILES IDX 1 14
REMARK H PARENT
REMARK Flexibility Score: inf
ROOT
ATOM      1  C   UNL     1      43.267  27.130   1.786  1.00  0.00     0.000 C 
ENDROOT
BRANCH   1   2
ATOM      2  C   UNL     1      43.031  27.386   0.283  1.00  0.00     0.000 C 
BRANCH   2   3
ATOM      3  C   UNL     1      44.287  27.190  -0.588  1.00  0.00     0.000 C 
BRANCH   3   4
ATOM      4  C   UNL     1      44.012  26.936  -2.082  1.00  0.00     0.006 C 
BRANCH   4   5
ATOM      5  C   UNL     1      44.062  28.195  -2.961  1.00  0.00     0.053 C 
BRANCH   5   6
ATOM      6  C   UNL     1      42.696  28.632  -3.392  1.00  0.00     0.041 C 
ATOM      7  O   UNL     1      42.061  29.484  -2.718  1.00  0.00    -0.550 OA
ATOM      8  O   UNL     1      42.140  28.122  -4.558  1.00  0.00    -0.550 OA
ENDBRANCH   5   6
ENDBRANCH   4   5
ENDBRANCH   3   4
ENDBRANCH   2   3
ENDBRANCH   1   2
BRANCH   1   9
ATOM      9  C   UNL     1      44.749  26.875   2.116  1.00  0.00     0.000 C 
BRANCH   9  10
ATOM     10  C   UNL     1      44.932  25.816   3.225  1.00  0.00    -0.000 C 
BRANCH  10  11
ATOM     11  C   UNL     1      46.392  25.363   3.420  1.00  0.00    -0.000 C 
BRANCH  11  12
ATOM     12  C   UNL     1      46.999  25.702   4.791  1.00  0.00    -0.000 C 
BRANCH  12  13
ATOM     13  C   UNL     1      46.193  26.762   5.555  1.00  0.00    -0.003 C 
ATOM     14  C   UNL     1      45.890  26.300   6.977  1.00  0.00     0.004 C 
ENDBRANCH  12  13
ENDBRANCH  11  12
ENDBRANCH  10  11
ENDBRANCH   9  10
ENDBRANCH   1   9
TORSDOF 10
ENDMDL
MODEL 8
REMARK VINA RESULT:    -3.904      2.340      3.285
REMARK INTER + INTRA:          -6.745
REMARK INTER:                  -5.608
REMARK INTRA:                  -1.136
REMARK UNBOUND:                -0.558
REMARK SMILES CCCCCCCCCCCC(=O)[O-]
REMARK SMILES IDX 7 1 8 2 9 3 10 4 11 5 12 6 13 7 14 8 6 9 5 10 4 11 3 12 2 13
REMARK SMILES IDX 1 14
REMARK H PARENT
REMARK Flexibility Score: inf
ROOT
ATOM      1  C   UNL     1      43.317  30.008   2.483  1.00  0.00     0.000 C 
ENDROOT
BRANCH   1   2
ATOM      2  C   UNL     1      42.306  29.365   1.511  1.00  0.00     0.000 C 
BRANCH   2   3
ATOM      3  C   UNL     1      42.209  27.833   1.635  1.00  0.00     0.000 C 
BRANCH   3   4
ATOM      4  C   UNL     1      42.858  27.043   0.483  1.00  0.00     0.006 C 
BRANCH   4   5
ATOM      5  C   UNL     1      43.207  27.889  -0.751  1.00  0.00     0.053 C 
BRANCH   5   6
ATOM      6  C   UNL     1      44.056  27.132  -1.727  1.00  0.00     0.041 C 
ATOM      7  O   UNL     1      44.003  25.876  -1.773  1.00  0.00    -0.550 OA
ATOM      8  O   UNL     1      44.881  27.821  -2.608  1.00  0.00    -0.550 OA
ENDBRANCH   5   6
ENDBRANCH   4   5
ENDBRANCH   3   4
ENDBRANCH   2   3
ENDBRANCH   1   2
BRANCH   1   9
ATOM      9  C   UNL     1      44.765  29.933   1.964  1.00  0.00     0.000 C 
BRANCH   9  10
ATOM     10  C   UNL     1      45.699  29.176   2.934  1.00  0.00    -0.000 C 
BRANCH  10  11
ATOM     11  C   UNL     1      45.855  27.678   2.608  1.00  0.00    -0.000 C 
BRANCH  11  12
ATOM     12  C   UNL     1      45.211  26.722   3.625  1.00  0.00    -0.000 C 
BRANCH  12  13
ATOM     13  C   UNL     1      45.529  25.247   3.341  1.00  0.00    -0.003 C 
ATOM     14  C   UNL     1      46.994  24.937   3.634  1.00  0.00     0.004 C 
ENDBRANCH  12  13
ENDBRANCH  11  12
ENDBRANCH  10  11
ENDBRANCH   9  10
ENDBRANCH   1   9
TORSDOF 10
ENDMDL
MODEL 9
REMARK VINA RESULT:    -3.723      3.262      7.539
REMARK INTER + INTRA:          -6.457
REMARK INTER:                  -5.726
REMARK INTRA:                  -0.731
REMARK UNBOUND:                -0.558
REMARK SMILES CCCCCCCCCCCC(=O)[O-]
REMARK SMILES IDX 7 1 8 2 9 3 10 4 11 5 12 6 13 7 14 8 6 9 5 10 4 11 3 12 2 13
REMARK SMILES IDX 1 14
REMARK H PARENT
REMARK Flexibility Score: inf
ROOT
ATOM      1  C   UNL     1      42.754  27.099  -0.042  1.00  0.00     0.000 C 
ENDROOT
BRANCH   1   2
ATOM      2  C   UNL     1      42.484  27.803   1.304  1.00  0.00     0.000 C 
BRANCH   2   3
ATOM      3  C   UNL     1      43.710  27.864   2.233  1.00  0.00     0.000 C 
BRANCH   3   4
ATOM      4  C   UNL     1      44.737  26.733   2.035  1.00  0.00     0.006 C 
BRANCH   4   5
ATOM      5  C   UNL     1      44.943  25.838   3.266  1.00  0.00     0.053 C 
BRANCH   5   6
ATOM      6  C   UNL     1      46.393  25.683   3.610  1.00  0.00     0.041 C 
ATOM      7  O   UNL     1      47.125  24.911   2.937  1.00  0.00    -0.550 OA
ATOM      8  O   UNL     1      46.941  26.418   4.652  1.00  0.00    -0.550 OA
ENDBRANCH   5   6
ENDBRANCH   4   5
ENDBRANCH   3   4
ENDBRANCH   2   3
ENDBRANCH   1   2
BRANCH   1   9
ATOM      9  C   UNL     1      43.026  28.094  -1.185  1.00  0.00     0.000 C 
BRANCH   9  10
ATOM     10  C   UNL     1      44.534  28.267  -1.470  1.00  0.00    -0.000 C 
BRANCH  10  11
ATOM     11  C   UNL     1      45.027  27.492  -2.707  1.00  0.00    -0.000 C 
BRANCH  11  12
ATOM     12  C   UNL     1      43.958  26.639  -3.408  1.00  0.00    -0.000 C 
BRANCH  12  13
ATOM     13  C   UNL     1      43.745  27.037  -4.876  1.00  0.00    -0.003 C 
ATOM     14  C   UNL     1      42.582  28.015  -5.015  1.00  0.00     0.004 C 
ENDBRANCH  12  13
ENDBRANCH  11  12
ENDBRANCH  10  11
ENDBRANCH   9  10
ENDBRANCH   1   9
TORSDOF 10
ENDMDL
