MODEL 1
REMARK VINA RESULT:    -5.270      0.000      0.000
REMARK INTER + INTRA:          -7.291
REMARK INTER:                  -6.657
REMARK INTRA:                  -0.634
REMARK UNBOUND:                -0.634
REMARK SMILES O=C(C=Cc1ccc(O)cc1)c1ccc(O)cc1O
REMARK SMILES IDX 4 1 3 2 5 3 6 4 7 5 8 6 11 7 10 8 9 9 2 11 1 12 12 13 18 14
REMARK SMILES IDX 13 15 17 16 14 17 15 18 19 19 16 21
REMARK H PARENT 9 10 19 20 16 22
REMARK Flexibility Score: inf
ROOT
ATOM      1  C   UNL     1      19.603  -5.407  19.034  1.00  0.00     0.012 C 
ATOM      2  C   UNL     1      18.922  -6.098  19.961  1.00  0.00     0.053 C 
ENDROOT
BRANCH   1   3
ATOM      3  C   UNL     1      20.092  -4.021  19.236  1.00  0.00    -0.025 A 
ATOM      4  C   UNL     1      21.372  -3.683  18.764  1.00  0.00     0.012 A 
ATOM      5  C   UNL     1      21.878  -2.392  18.940  1.00  0.00     0.047 A 
ATOM      6  C   UNL     1      21.116  -1.422  19.602  1.00  0.00     0.115 A 
ATOM      7  C   UNL     1      19.337  -3.041  19.914  1.00  0.00     0.012 A 
ATOM      8  C   UNL     1      19.847  -1.750  20.088  1.00  0.00     0.047 A 
BRANCH   6   9
ATOM      9  O   UNL     1      21.609  -0.132  19.783  1.00  0.00    -0.508 OA
ATOM     10  H   UNL     1      21.114   0.549  20.347  1.00  0.00     0.293 HD
ENDBRANCH   6   9
ENDBRANCH   1   3
BRANCH   2  11
ATOM     11  C   UNL     1      18.439  -7.474  19.721  1.00  0.00     0.189 C 
ATOM     12  O   UNL     1      17.283  -7.815  20.096  1.00  0.00    -0.289 OA
BRANCH  11  13
ATOM     13  C   UNL     1      19.291  -8.453  19.011  1.00  0.00     0.064 A 
ATOM     14  C   UNL     1      19.159  -8.693  17.620  1.00  0.00     0.130 A 
ATOM     15  C   UNL     1      20.289  -9.136  19.729  1.00  0.00     0.020 A 
ATOM     16  C   UNL     1      20.039  -9.575  16.981  1.00  0.00     0.093 A 
ATOM     17  C   UNL     1      21.151 -10.025  19.081  1.00  0.00     0.047 A 
ATOM     18  C   UNL     1      21.032 -10.242  17.707  1.00  0.00     0.119 A 
BRANCH  14  19
ATOM     19  O   UNL     1      18.153  -8.099  16.854  1.00  0.00    -0.507 OA
ATOM     20  H   UNL     1      17.259  -8.537  16.678  1.00  0.00     0.293 HD
ENDBRANCH  14  19
BRANCH  18  21
ATOM     21  O   UNL     1      21.904 -11.125  17.074  1.00  0.00    -0.508 OA
ATOM     22  H   UNL     1      21.615 -12.063  16.819  1.00  0.00     0.293 HD
ENDBRANCH  18  21
ENDBRANCH  11  13
ENDBRANCH   2  11
TORSDOF 6
ENDMDL
MODEL 2
REMARK VINA RESULT:    -4.739     12.012     13.444
REMARK INTER + INTRA:          -6.620
REMARK INTER:                  -6.144
REMARK INTRA:                  -0.475
REMARK UNBOUND:                -0.634
REMARK SMILES O=C(C=Cc1ccc(O)cc1)c1ccc(O)cc1O
REMARK SMILES IDX 4 1 3 2 5 3 6 4 7 5 8 6 11 7 10 8 9 9 2 11 1 12 12 13 18 14
REMARK SMILES IDX 13 15 17 16 14 17 15 18 19 19 16 21
REMARK H PARENT 9 10 19 20 16 22
REMARK Flexibility Score: inf
ROOT
ATOM      1  C   UNL     1       8.050   0.426  18.439  1.00  0.00     0.012 C 
ATOM      2  C   UNL     1       8.708  -0.439  19.225  1.00  0.00     0.053 C 
ENDROOT
BRANCH   1   3
ATOM      3  C   UNL     1       7.642   1.785  18.873  1.00  0.00    -0.025 A 
ATOM      4  C   UNL     1       8.398   2.887  18.437  1.00  0.00     0.012 A 
ATOM      5  C   UNL     1       8.057   4.184  18.828  1.00  0.00     0.047 A 
ATOM      6  C   UNL     1       6.960   4.399  19.671  1.00  0.00     0.115 A 
ATOM      7  C   UNL     1       6.547   2.010  19.734  1.00  0.00     0.012 A 
ATOM      8  C   UNL     1       6.209   3.310  20.122  1.00  0.00     0.047 A 
BRANCH   6   9
ATOM      9  O   UNL     1       6.609   5.688  20.068  1.00  0.00    -0.508 OA
ATOM     10  H   UNL     1       6.665   6.472  19.428  1.00  0.00     0.293 HD
ENDBRANCH   6   9
ENDBRANCH   1   3
BRANCH   2  11
ATOM     11  C   UNL     1       9.088  -1.791  18.763  1.00  0.00     0.189 C 
ATOM     12  O   UNL     1       9.315  -2.707  19.601  1.00  0.00    -0.289 OA
BRANCH  11  13
ATOM     13  C   UNL     1       9.175  -2.090  17.317  1.00  0.00     0.064 A 
ATOM     14  C   UNL     1      10.216  -1.572  16.506  1.00  0.00     0.130 A 
ATOM     15  C   UNL     1       8.221  -2.947  16.738  1.00  0.00     0.020 A 
ATOM     16  C   UNL     1      10.296  -1.945  15.158  1.00  0.00     0.093 A 
ATOM     17  C   UNL     1       8.305  -3.297  15.388  1.00  0.00     0.047 A 
ATOM     18  C   UNL     1       9.343  -2.803  14.598  1.00  0.00     0.119 A 
BRANCH  14  19
ATOM     19  O   UNL     1      11.163  -0.669  16.994  1.00  0.00    -0.507 OA
ATOM     20  H   UNL     1      11.064  -0.184  17.876  1.00  0.00     0.293 HD
ENDBRANCH  14  19
BRANCH  18  21
ATOM     21  O   UNL     1       9.418  -3.169  13.255  1.00  0.00    -0.508 OA
ATOM     22  H   UNL     1      10.069  -3.877  12.935  1.00  0.00     0.293 HD
ENDBRANCH  18  21
ENDBRANCH  11  13
ENDBRANCH   2  11
TORSDOF 6
ENDMDL
MODEL 3
REMARK VINA RESULT:    -4.533      9.884     12.593
REMARK INTER + INTRA:          -6.359
REMARK INTER:                  -5.721
REMARK INTRA:                  -0.638
REMARK UNBOUND:                -0.634
REMARK SMILES O=C(C=Cc1ccc(O)cc1)c1ccc(O)cc1O
REMARK SMILES IDX 4 1 3 2 5 3 6 4 7 5 8 6 11 7 10 8 9 9 2 11 1 12 12 13 18 14
REMARK SMILES IDX 13 15 17 16 14 17 15 18 19 19 16 21
REMARK H PARENT 9 10 19 20 16 22
REMARK Flexibility Score: inf
ROOT
ATOM      1  C   UNL     1       8.942  -3.043  19.388  1.00  0.00     0.012 C 
ATOM      2  C   UNL     1       8.712  -2.139  18.425  1.00  0.00     0.053 C 
ENDROOT
BRANCH   1   3
ATOM      3  C   UNL     1       8.115  -4.258  19.590  1.00  0.00    -0.025 A 
ATOM      4  C   UNL     1       8.760  -5.502  19.696  1.00  0.00     0.012 A 
ATOM      5  C   UNL     1       8.021  -6.674  19.878  1.00  0.00     0.047 A 
ATOM      6  C   UNL     1       6.624  -6.622  19.944  1.00  0.00     0.115 A 
ATOM      7  C   UNL     1       6.705  -4.217  19.644  1.00  0.00     0.012 A 
ATOM      8  C   UNL     1       5.970  -5.393  19.826  1.00  0.00     0.047 A 
BRANCH   6   9
ATOM      9  O   UNL     1       5.876  -7.784  20.125  1.00  0.00    -0.508 OA
ATOM     10  H   UNL     1       6.072  -8.626  19.597  1.00  0.00     0.293 HD
ENDBRANCH   6   9
ENDBRANCH   1   3
BRANCH   2  11
ATOM     11  C   UNL     1       9.550  -0.931  18.261  1.00  0.00     0.189 C 
ATOM     12  O   UNL     1       9.023   0.165  17.924  1.00  0.00    -0.289 OA
BRANCH  11  13
ATOM     13  C   UNL     1      11.005  -0.990  18.521  1.00  0.00     0.064 A 
ATOM     14  C   UNL     1      11.641  -0.105  19.427  1.00  0.00     0.130 A 
ATOM     15  C   UNL     1      11.773  -1.979  17.881  1.00  0.00     0.020 A 
ATOM     16  C   UNL     1      13.008  -0.249  19.694  1.00  0.00     0.093 A 
ATOM     17  C   UNL     1      13.139  -2.102  18.146  1.00  0.00     0.047 A 
ATOM     18  C   UNL     1      13.758  -1.243  19.055  1.00  0.00     0.119 A 
BRANCH  14  19
ATOM     19  O   UNL     1      10.957   0.940  20.053  1.00  0.00    -0.507 OA
ATOM     20  H   UNL     1      11.102   1.197  21.020  1.00  0.00     0.293 HD
ENDBRANCH  14  19
BRANCH  18  21
ATOM     21  O   UNL     1      15.120  -1.383  19.315  1.00  0.00    -0.508 OA
ATOM     22  H   UNL     1      15.465  -2.076  19.969  1.00  0.00     0.293 HD
ENDBRANCH  18  21
ENDBRANCH  11  13
ENDBRANCH   2  11
TORSDOF 6
ENDMDL
MODEL 4
REMARK VINA RESULT:    -4.408     10.879     14.000
REMARK INTER + INTRA:          -6.202
REMARK INTER:                  -5.878
REMARK INTRA:                  -0.324
REMARK UNBOUND:                -0.634
REMARK SMILES O=C(C=Cc1ccc(O)cc1)c1ccc(O)cc1O
REMARK SMILES IDX 4 1 3 2 5 3 6 4 7 5 8 6 11 7 10 8 9 9 2 11 1 12 12 13 18 14
REMARK SMILES IDX 13 15 17 16 14 17 15 18 19 19 16 21
REMARK H PARENT 9 10 19 20 16 22
REMARK Flexibility Score: inf
ROOT
ATOM      1  C   UNL     1       8.890  -2.875  20.122  1.00  0.00     0.012 C 
ATOM      2  C   UNL     1       9.956  -2.678  19.332  1.00  0.00     0.053 C 
ENDROOT
BRANCH   1   3
ATOM      3  C   UNL     1       8.075  -4.114  20.108  1.00  0.00    -0.025 A 
ATOM      4  C   UNL     1       8.736  -5.355  20.108  1.00  0.00     0.012 A 
ATOM      5  C   UNL     1       8.009  -6.549  20.086  1.00  0.00     0.047 A 
ATOM      6  C   UNL     1       6.610  -6.521  20.051  1.00  0.00     0.115 A 
ATOM      7  C   UNL     1       6.665  -4.096  20.059  1.00  0.00     0.012 A 
ATOM      8  C   UNL     1       5.943  -5.293  20.037  1.00  0.00     0.047 A 
BRANCH   6   9
ATOM      9  O   UNL     1       5.875  -7.704  20.029  1.00  0.00    -0.508 OA
ATOM     10  H   UNL     1       5.283  -7.944  19.243  1.00  0.00     0.293 HD
ENDBRANCH   6   9
ENDBRANCH   1   3
BRANCH   2  11
ATOM     11  C   UNL     1      10.738  -1.423  19.364  1.00  0.00     0.189 C 
ATOM     12  O   UNL     1      11.973  -1.451  19.622  1.00  0.00    -0.289 OA
BRANCH  11  13
ATOM     13  C   UNL     1      10.088  -0.129  19.062  1.00  0.00     0.064 A 
ATOM     14  C   UNL     1      10.755   1.107  19.251  1.00  0.00     0.130 A 
ATOM     15  C   UNL     1       8.784  -0.126  18.534  1.00  0.00     0.020 A 
ATOM     16  C   UNL     1      10.123   2.301  18.881  1.00  0.00     0.093 A 
ATOM     17  C   UNL     1       8.160   1.073  18.183  1.00  0.00     0.047 A 
ATOM     18  C   UNL     1       8.829   2.287  18.350  1.00  0.00     0.119 A 
BRANCH  14  19
ATOM     19  O   UNL     1      12.025   1.189  19.827  1.00  0.00    -0.507 OA
ATOM     20  H   UNL     1      12.826   0.682  19.477  1.00  0.00     0.293 HD
ENDBRANCH  14  19
BRANCH  18  21
ATOM     21  O   UNL     1       8.196   3.475  17.988  1.00  0.00    -0.508 OA
ATOM     22  H   UNL     1       7.232   3.659  18.240  1.00  0.00     0.293 HD
ENDBRANCH  18  21
ENDBRANCH  11  13
ENDBRANCH   2  11
TORSDOF 6
ENDMDL
MODEL 5
REMARK VINA RESULT:    -4.141      6.507      8.856
REMARK INTER + INTRA:          -5.864
REMARK INTER:                  -5.234
REMARK INTRA:                  -0.630
REMARK UNBOUND:                -0.634
REMARK SMILES O=C(C=Cc1ccc(O)cc1)c1ccc(O)cc1O
REMARK SMILES IDX 4 1 3 2 5 3 6 4 7 5 8 6 11 7 10 8 9 9 2 11 1 12 12 13 18 14
REMARK SMILES IDX 13 15 17 16 14 17 15 18 19 19 16 21
REMARK H PARENT 9 10 19 20 16 22
REMARK Flexibility Score: inf
ROOT
ATOM      1  C   UNL     1      16.119  -0.998  19.171  1.00  0.00     0.012 C 
ATOM      2  C   UNL     1      14.915  -1.489  19.500  1.00  0.00     0.053 C 
ENDROOT
BRANCH   1   3
ATOM      3  C   UNL     1      17.362  -1.807  19.164  1.00  0.00    -0.025 A 
ATOM      4  C   UNL     1      18.299  -1.594  18.138  1.00  0.00     0.012 A 
ATOM      5  C   UNL     1      19.480  -2.339  18.085  1.00  0.00     0.047 A 
ATOM      6  C   UNL     1      19.737  -3.319  19.051  1.00  0.00     0.115 A 
ATOM      7  C   UNL     1      17.624  -2.807  20.125  1.00  0.00     0.012 A 
ATOM      8  C   UNL     1      18.807  -3.550  20.068  1.00  0.00     0.047 A 
BRANCH   6   9
ATOM      9  O   UNL     1      20.911  -4.068  19.009  1.00  0.00    -0.508 OA
ATOM     10  H   UNL     1      20.957  -5.001  19.401  1.00  0.00     0.293 HD
ENDBRANCH   6   9
ENDBRANCH   1   3
BRANCH   2  11
ATOM     11  C   UNL     1      13.698  -0.649  19.510  1.00  0.00     0.189 C 
ATOM     12  O   UNL     1      13.692   0.453  20.125  1.00  0.00    -0.289 OA
BRANCH  11  13
ATOM     13  C   UNL     1      12.488  -1.078  18.774  1.00  0.00     0.064 A 
ATOM     14  C   UNL     1      11.789  -0.201  17.906  1.00  0.00     0.130 A 
ATOM     15  C   UNL     1      12.041  -2.405  18.908  1.00  0.00     0.020 A 
ATOM     16  C   UNL     1      10.692  -0.676  17.176  1.00  0.00     0.093 A 
ATOM     17  C   UNL     1      10.937  -2.861  18.184  1.00  0.00     0.047 A 
ATOM     18  C   UNL     1      10.264  -2.001  17.314  1.00  0.00     0.119 A 
BRANCH  14  19
ATOM     19  O   UNL     1      12.134   1.145  17.769  1.00  0.00    -0.507 OA
ATOM     20  H   UNL     1      12.479   1.544  16.906  1.00  0.00     0.293 HD
ENDBRANCH  14  19
BRANCH  18  21
ATOM     21  O   UNL     1       9.169  -2.474  16.593  1.00  0.00    -0.508 OA
ATOM     22  H   UNL     1       8.224  -2.184  16.816  1.00  0.00     0.293 HD
ENDBRANCH  18  21
ENDBRANCH  11  13
ENDBRANCH   2  11
TORSDOF 6
ENDMDL
MODEL 6
REMARK VINA RESULT:    -3.949     10.075     12.371
REMARK INTER + INTRA:          -5.621
REMARK INTER:                  -4.942
REMARK INTRA:                  -0.680
REMARK UNBOUND:                -0.634
REMARK SMILES O=C(C=Cc1ccc(O)cc1)c1ccc(O)cc1O
REMARK SMILES IDX 4 1 3 2 5 3 6 4 7 5 8 6 11 7 10 8 9 9 2 11 1 12 12 13 18 14
REMARK SMILES IDX 13 15 17 16 14 17 15 18 19 19 16 21
REMARK H PARENT 9 10 19 20 16 22
REMARK Flexibility Score: inf
ROOT
ATOM      1  C   UNL     1      10.932  -1.822  18.973  1.00  0.00     0.012 C 
ATOM      2  C   UNL     1      10.426  -2.085  17.758  1.00  0.00     0.053 C 
ENDROOT
BRANCH   1   3
ATOM      3  C   UNL     1      12.381  -1.855  19.284  1.00  0.00    -0.025 A 
ATOM      4  C   UNL     1      13.124  -0.668  19.163  1.00  0.00     0.012 A 
ATOM      5  C   UNL     1      14.494  -0.653  19.437  1.00  0.00     0.047 A 
ATOM      6  C   UNL     1      15.146  -1.830  19.826  1.00  0.00     0.115 A 
ATOM      7  C   UNL     1      13.050  -3.039  19.663  1.00  0.00     0.012 A 
ATOM      8  C   UNL     1      14.422  -3.019  19.936  1.00  0.00     0.047 A 
BRANCH   6   9
ATOM      9  O   UNL     1      16.512  -1.828  20.102  1.00  0.00    -0.508 OA
ATOM     10  H   UNL     1      17.105  -1.051  19.833  1.00  0.00     0.293 HD
ENDBRANCH   6   9
ENDBRANCH   1   3
BRANCH   2  11
ATOM     11  C   UNL     1       8.973  -2.055  17.486  1.00  0.00     0.189 C 
ATOM     12  O   UNL     1       8.447  -2.936  16.751  1.00  0.00    -0.289 OA
BRANCH  11  13
ATOM     13  C   UNL     1       8.119  -1.014  18.098  1.00  0.00     0.064 A 
ATOM     14  C   UNL     1       6.991  -1.340  18.892  1.00  0.00     0.130 A 
ATOM     15  C   UNL     1       8.459   0.340  17.919  1.00  0.00     0.020 A 
ATOM     16  C   UNL     1       6.258  -0.319  19.509  1.00  0.00     0.093 A 
ATOM     17  C   UNL     1       7.709   1.349  18.529  1.00  0.00     0.047 A 
ATOM     18  C   UNL     1       6.612   1.022  19.328  1.00  0.00     0.119 A 
BRANCH  14  19
ATOM     19  O   UNL     1       6.556  -2.656  19.065  1.00  0.00    -0.507 OA
ATOM     20  H   UNL     1       7.165  -3.407  19.362  1.00  0.00     0.293 HD
ENDBRANCH  14  19
BRANCH  18  21
ATOM     21  O   UNL     1       5.880   2.040  19.936  1.00  0.00    -0.508 OA
ATOM     22  H   UNL     1       5.178   2.564  19.426  1.00  0.00     0.293 HD
ENDBRANCH  18  21
ENDBRANCH  11  13
ENDBRANCH   2  11
TORSDOF 6
ENDMDL
MODEL 7
REMARK VINA RESULT:    -3.816     10.790     13.595
REMARK INTER + INTRA:          -5.453
REMARK INTER:                  -4.768
REMARK INTRA:                  -0.686
REMARK UNBOUND:                -0.634
REMARK SMILES O=C(C=Cc1ccc(O)cc1)c1ccc(O)cc1O
REMARK SMILES IDX 4 1 3 2 5 3 6 4 7 5 8 6 11 7 10 8 9 9 2 11 1 12 12 13 18 14
REMARK SMILES IDX 13 15 17 16 14 17 15 18 19 19 16 21
REMARK H PARENT 9 10 19 20 16 22
REMARK Flexibility Score: inf
ROOT
ATOM      1  C   UNL     1      10.524  -0.705  19.437  1.00  0.00     0.012 C 
ATOM      2  C   UNL     1       9.987  -0.137  18.347  1.00  0.00     0.053 C 
ENDROOT
BRANCH   1   3
ATOM      3  C   UNL     1      11.965  -1.030  19.569  1.00  0.00    -0.025 A 
ATOM      4  C   UNL     1      12.868   0.011  19.847  1.00  0.00     0.012 A 
ATOM      5  C   UNL     1      14.236  -0.247  19.970  1.00  0.00     0.047 A 
ATOM      6  C   UNL     1      14.725  -1.549  19.806  1.00  0.00     0.115 A 
ATOM      7  C   UNL     1      12.469  -2.336  19.391  1.00  0.00     0.012 A 
ATOM      8  C   UNL     1      13.838  -2.589  19.515  1.00  0.00     0.047 A 
BRANCH   6   9
ATOM      9  O   UNL     1      16.086  -1.818  19.927  1.00  0.00    -0.508 OA
ATOM     10  H   UNL     1      16.697  -1.219  20.469  1.00  0.00     0.293 HD
ENDBRANCH   6   9
ENDBRANCH   1   3
BRANCH   2  11
ATOM     11  C   UNL     1       8.542   0.161  18.245  1.00  0.00     0.189 C 
ATOM     12  O   UNL     1       7.748  -0.702  17.778  1.00  0.00    -0.289 OA
BRANCH  11  13
ATOM     13  C   UNL     1       8.011   1.458  18.717  1.00  0.00     0.064 A 
ATOM     14  C   UNL     1       6.950   1.538  19.653  1.00  0.00     0.130 A 
ATOM     15  C   UNL     1       8.603   2.648  18.255  1.00  0.00     0.020 A 
ATOM     16  C   UNL     1       6.533   2.789  20.125  1.00  0.00     0.093 A 
ATOM     17  C   UNL     1       8.167   3.889  18.723  1.00  0.00     0.047 A 
ATOM     18  C   UNL     1       7.137   3.963  19.661  1.00  0.00     0.119 A 
BRANCH  14  19
ATOM     19  O   UNL     1       6.272   0.405  20.111  1.00  0.00    -0.507 OA
ATOM     20  H   UNL     1       5.285   0.250  19.956  1.00  0.00     0.293 HD
ENDBRANCH  14  19
BRANCH  18  21
ATOM     21  O   UNL     1       6.718   5.209  20.125  1.00  0.00    -0.508 OA
ATOM     22  H   UNL     1       7.129   6.068  19.778  1.00  0.00     0.293 HD
ENDBRANCH  18  21
ENDBRANCH  11  13
ENDBRANCH   2  11
TORSDOF 6
ENDMDL
MODEL 8
REMARK VINA RESULT:    -3.797     11.037     12.864
REMARK INTER + INTRA:          -5.430
REMARK INTER:                  -4.779
REMARK INTRA:                  -0.651
REMARK UNBOUND:                -0.634
REMARK SMILES O=C(C=Cc1ccc(O)cc1)c1ccc(O)cc1O
REMARK SMILES IDX 4 1 3 2 5 3 6 4 7 5 8 6 11 7 10 8 9 9 2 11 1 12 12 13 18 14
REMARK SMILES IDX 13 15 17 16 14 17 15 18 19 19 16 21
REMARK H PARENT 9 10 19 20 16 22
REMARK Flexibility Score: inf
ROOT
ATOM      1  C   UNL     1       8.276   0.988  19.445  1.00  0.00     0.012 C 
ATOM      2  C   UNL     1       9.166   0.665  18.495  1.00  0.00     0.053 C 
ENDROOT
BRANCH   1   3
ATOM      3  C   UNL     1       7.716   2.351  19.617  1.00  0.00    -0.025 A 
ATOM      4  C   UNL     1       8.576   3.455  19.485  1.00  0.00     0.012 A 
ATOM      5  C   UNL     1       8.094   4.757  19.648  1.00  0.00     0.047 A 
ATOM      6  C   UNL     1       6.747   4.975  19.959  1.00  0.00     0.115 A 
ATOM      7  C   UNL     1       6.363   2.580  19.945  1.00  0.00     0.012 A 
ATOM      8  C   UNL     1       5.885   3.884  20.107  1.00  0.00     0.047 A 
BRANCH   6   9
ATOM      9  O   UNL     1       6.255   6.267  20.123  1.00  0.00    -0.508 OA
ATOM     10  H   UNL     1       5.891   6.799  19.341  1.00  0.00     0.293 HD
ENDBRANCH   6   9
ENDBRANCH   1   3
BRANCH   2  11
ATOM     11  C   UNL     1       9.714  -0.702  18.361  1.00  0.00     0.189 C 
ATOM     12  O   UNL     1       8.989  -1.635  17.919  1.00  0.00    -0.289 OA
BRANCH  11  13
ATOM     13  C   UNL     1      11.124  -0.980  18.713  1.00  0.00     0.064 A 
ATOM     14  C   UNL     1      11.578  -2.290  19.009  1.00  0.00     0.130 A 
ATOM     15  C   UNL     1      12.049   0.080  18.716  1.00  0.00     0.020 A 
ATOM     16  C   UNL     1      12.936  -2.512  19.265  1.00  0.00     0.093 A 
ATOM     17  C   UNL     1      13.399  -0.155  18.987  1.00  0.00     0.047 A 
ATOM     18  C   UNL     1      13.847  -1.450  19.256  1.00  0.00     0.119 A 
BRANCH  14  19
ATOM     19  O   UNL     1      10.709  -3.381  19.086  1.00  0.00    -0.507 OA
ATOM     20  H   UNL     1      10.995  -4.332  18.897  1.00  0.00     0.293 HD
ENDBRANCH  14  19
BRANCH  18  21
ATOM     21  O   UNL     1      15.198  -1.669  19.517  1.00  0.00    -0.508 OA
ATOM     22  H   UNL     1      15.500  -2.323  20.230  1.00  0.00     0.293 HD
ENDBRANCH  18  21
ENDBRANCH  11  13
ENDBRANCH   2  11
TORSDOF 6
ENDMDL
MODEL 9
REMARK VINA RESULT:    -3.610     11.880     14.510
REMARK INTER + INTRA:          -5.193
REMARK INTER:                  -4.485
REMARK INTRA:                  -0.708
REMARK UNBOUND:                -0.634
REMARK SMILES O=C(C=Cc1ccc(O)cc1)c1ccc(O)cc1O
REMARK SMILES IDX 4 1 3 2 5 3 6 4 7 5 8 6 11 7 10 8 9 9 2 11 1 12 12 13 18 14
REMARK SMILES IDX 13 15 17 16 14 17 15 18 19 19 16 21
REMARK H PARENT 9 10 19 20 16 22
REMARK Flexibility Score: inf
ROOT
ATOM      1  C   UNL     1       9.760  -0.969  17.114  1.00  0.00     0.012 C 
ATOM      2  C   UNL     1       9.581  -1.183  18.426  1.00  0.00     0.053 C 
ENDROOT
BRANCH   1   3
ATOM      3  C   UNL     1       9.407  -1.956  16.065  1.00  0.00    -0.025 A 
ATOM      4  C   UNL     1       8.470  -2.958  16.371  1.00  0.00     0.012 A 
ATOM      5  C   UNL     1       8.113  -3.915  15.416  1.00  0.00     0.047 A 
ATOM      6  C   UNL     1       8.697  -3.891  14.144  1.00  0.00     0.115 A 
ATOM      7  C   UNL     1      10.000  -1.949  14.785  1.00  0.00     0.012 A 
ATOM      8  C   UNL     1       9.640  -2.908  13.833  1.00  0.00     0.047 A 
BRANCH   6   9
ATOM      9  O   UNL     1       8.349  -4.839  13.184  1.00  0.00    -0.508 OA
ATOM     10  H   UNL     1       9.048  -5.276  12.595  1.00  0.00     0.293 HD
ENDBRANCH   6   9
ENDBRANCH   1   3
BRANCH   2  11
ATOM     11  C   UNL     1       9.958  -0.181  19.447  1.00  0.00     0.189 C 
ATOM     12  O   UNL     1      11.021  -0.322  20.112  1.00  0.00    -0.289 OA
BRANCH  11  13
ATOM     13  C   UNL     1       9.109   1.009  19.675  1.00  0.00     0.064 A 
ATOM     14  C   UNL     1       9.664   2.284  19.951  1.00  0.00     0.130 A 
ATOM     15  C   UNL     1       7.712   0.881  19.576  1.00  0.00     0.020 A 
ATOM     16  C   UNL     1       8.821   3.393  20.087  1.00  0.00     0.093 A 
ATOM     17  C   UNL     1       6.882   1.994  19.728  1.00  0.00     0.047 A 
ATOM     18  C   UNL     1       7.433   3.252  19.978  1.00  0.00     0.119 A 
BRANCH  14  19
ATOM     19  O   UNL     1      11.037   2.478  20.125  1.00  0.00    -0.507 OA
ATOM     20  H   UNL     1      11.662   1.754  20.455  1.00  0.00     0.293 HD
ENDBRANCH  14  19
BRANCH  18  21
ATOM     21  O   UNL     1       6.593   4.354  20.119  1.00  0.00    -0.508 OA
ATOM     22  H   UNL     1       5.818   4.513  19.485  1.00  0.00     0.293 HD
ENDBRANCH  18  21
ENDBRANCH  11  13
ENDBRANCH   2  11
TORSDOF 6
ENDMDL
