MODEL 1
REMARK VINA RESULT:    -3.778      0.000      0.000
REMARK INTER + INTRA:          -6.195
REMARK INTER:                  -5.544
REMARK INTRA:                  -0.651
REMARK UNBOUND:                -0.651
REMARK SMILES C=C1C=C[C@@H](C(C)C)CCC(C)=CCC1
REMARK SMILES IDX 3 1 4 2 5 3 9 4 10 5 11 6 12 7 13 8 6 10 7 11 8 12 2 13 1 14
REMARK SMILES IDX 15 15 14 16
REMARK H PARENT
REMARK Flexibility Score: 70.00
ROOT
ATOM      1  C   UNL     1       3.772   7.159  14.307  1.00  0.00    -0.001 C 
ATOM      2  C   UNL     1       5.118   7.071  14.095  1.00  0.00    -0.023 C 
ENDROOT
BRANCH   2   3
ATOM      3  C   UNL     1       6.261   7.486  15.045  1.00  0.00     0.014 C 
BRANCH   3   4
ATOM      4  C   UNL     1       6.167   8.993  15.230  1.00  0.00     0.012 C 
BRANCH   4   5
ATOM      5  C   UNL     1       5.631   9.764  16.411  1.00  0.00     0.031 C 
BRANCH   5   6
ATOM      6  C   UNL     1       5.914   8.956  17.691  1.00  0.00    -0.077 C 
ATOM      7  C   UNL     1       7.324   9.009  18.227  1.00  0.00     0.039 C 
ATOM      8  C   UNL     1       4.997   8.237  18.429  1.00  0.00    -0.028 CG0
ATOM      9  G   UNL     1       3.538   7.877  18.106  1.00  0.00     0.000 G0
ENDBRANCH   5   6
ENDBRANCH   4   5
ENDBRANCH   3   4
BRANCH   3  10
ATOM     10  C   UNL     1       7.665   7.027  14.548  1.00  0.00    -0.010 C 
ATOM     11  C   UNL     1       7.632   5.598  13.982  1.00  0.00     0.008 C 
ATOM     12  C   UNL     1       8.296   7.992  13.529  1.00  0.00     0.008 C 
ENDBRANCH   3  10
ENDBRANCH   2   3
BRANCH   1  13
ATOM     13  C   UNL     1       3.053   7.546  15.567  1.00  0.00    -0.055 C 
ATOM     14  C   UNL     1       2.253   8.614  15.524  1.00  0.00     0.012 C 
BRANCH  13  15
ATOM     15  C   UNL     1       3.327   6.868  16.919  1.00  0.00     0.039 C 
BRANCH  15  16
ATOM     16  C   UNL     1       3.548   7.859  18.119  1.00  0.00     0.032 CG0
ATOM     17  G   UNL     1       5.002   8.259  18.416  1.00  0.00     0.000 G0
ENDBRANCH  15  16
ENDBRANCH  13  15
ENDBRANCH   1  13
TORSDOF 1
ENDMDL
MODEL 2
REMARK VINA RESULT:    -3.756     11.699     14.017
REMARK INTER + INTRA:          -6.164
REMARK INTER:                  -5.614
REMARK INTRA:                  -0.550
REMARK UNBOUND:                -0.651
REMARK SMILES C=C1C=C[C@@H](C(C)C)CCC(C)=CCC1
REMARK SMILES IDX 3 1 4 2 5 3 9 4 10 5 11 6 12 7 13 8 6 10 7 11 8 12 2 13 1 14
REMARK SMILES IDX 15 15 14 16
REMARK H PARENT
REMARK Flexibility Score: 70.00
ROOT
ATOM      1  C   UNL     1      10.696   4.534  28.550  1.00  0.00    -0.001 C 
ATOM      2  C   UNL     1      11.031   5.268  27.448  1.00  0.00    -0.023 C 
ENDROOT
BRANCH   2   3
ATOM      3  C   UNL     1      11.849   6.575  27.387  1.00  0.00     0.014 C 
BRANCH   3   4
ATOM      4  C   UNL     1      10.874   7.724  27.592  1.00  0.00     0.012 C 
BRANCH   4   5
ATOM      5  C   UNL     1       9.437   7.669  28.051  1.00  0.00     0.031 C 
BRANCH   5   6
ATOM      6  C   UNL     1       9.376   8.136  29.517  1.00  0.00    -0.077 C 
ATOM      7  C   UNL     1       9.619   9.604  29.772  1.00  0.00     0.039 C 
ATOM      8  C   UNL     1       9.062   7.361  30.614  1.00  0.00    -0.028 CG0
ATOM      9  G   UNL     1       8.888   5.838  30.727  1.00  0.00     0.000 G0
ENDBRANCH   5   6
ENDBRANCH   4   5
ENDBRANCH   3   4
BRANCH   3  10
ATOM     10  C   UNL     1      12.678   6.716  26.075  1.00  0.00    -0.010 C 
ATOM     11  C   UNL     1      13.490   5.446  25.774  1.00  0.00     0.008 C 
ATOM     12  C   UNL     1      11.827   7.109  24.856  1.00  0.00     0.008 C 
ENDBRANCH   3  10
ENDBRANCH   2   3
BRANCH   1  13
ATOM     13  C   UNL     1      11.152   4.724  29.967  1.00  0.00    -0.055 C 
ATOM     14  C   UNL     1      12.439   4.499  30.242  1.00  0.00     0.012 C 
BRANCH  13  15
ATOM     15  C   UNL     1      10.177   5.005  31.121  1.00  0.00     0.039 C 
BRANCH  15  16
ATOM     16  C   UNL     1       8.900   5.830  30.718  1.00  0.00     0.032 CG0
ATOM     17  G   UNL     1       9.073   7.353  30.624  1.00  0.00     0.000 G0
ENDBRANCH  15  16
ENDBRANCH  13  15
ENDBRANCH   1  13
TORSDOF 1
ENDMDL
MODEL 3
REMARK VINA RESULT:    -3.626      9.086     11.848
REMARK INTER + INTRA:          -5.972
REMARK INTER:                  -5.168
REMARK INTRA:                  -0.804
REMARK UNBOUND:                -0.651
REMARK SMILES C=C1C=C[C@@H](C(C)C)CCC(C)=CCC1
REMARK SMILES IDX 3 1 4 2 5 3 9 4 10 5 11 6 12 7 13 8 6 10 7 11 8 12 2 13 1 14
REMARK SMILES IDX 15 15 14 16
REMARK H PARENT
REMARK Flexibility Score: 70.00
ROOT
ATOM      1  C   UNL     1      11.542   7.281  23.234  1.00  0.00    -0.001 C 
ATOM      2  C   UNL     1      12.165   6.773  24.338  1.00  0.00    -0.023 C 
ENDROOT
BRANCH   2   3
ATOM      3  C   UNL     1      12.685   7.536  25.574  1.00  0.00     0.014 C 
BRANCH   3   4
ATOM      4  C   UNL     1      14.197   7.639  25.435  1.00  0.00     0.012 C 
BRANCH   4   5
ATOM      5  C   UNL     1      15.031   7.589  24.179  1.00  0.00     0.031 C 
BRANCH   5   6
ATOM      6  C   UNL     1      15.278   9.032  23.700  1.00  0.00    -0.077 C 
ATOM      7  C   UNL     1      16.397   9.787  24.375  1.00  0.00     0.039 C 
ATOM      8  C   UNL     1      14.620   9.682  22.677  1.00  0.00    -0.028 CG0
ATOM      9  G   UNL     1      13.374   9.261  21.883  1.00  0.00     0.000 G0
ENDBRANCH   5   6
ENDBRANCH   4   5
ENDBRANCH   3   4
BRANCH   3  10
ATOM     10  C   UNL     1      12.248   6.887  26.922  1.00  0.00    -0.010 C 
ATOM     11  C   UNL     1      10.751   6.535  26.927  1.00  0.00     0.008 C 
ATOM     12  C   UNL     1      13.088   5.656  27.306  1.00  0.00     0.008 C 
ENDBRANCH   3  10
ENDBRANCH   2   3
BRANCH   1  13
ATOM     13  C   UNL     1      11.073   8.687  22.997  1.00  0.00    -0.055 C 
ATOM     14  C   UNL     1       9.769   8.939  23.135  1.00  0.00     0.012 C 
BRANCH  13  15
ATOM     15  C   UNL     1      11.996   9.788  22.452  1.00  0.00     0.039 C 
BRANCH  15  16
ATOM     16  C   UNL     1      13.369   9.275  21.885  1.00  0.00     0.032 CG0
ATOM     17  G   UNL     1      14.626   9.670  22.676  1.00  0.00     0.000 G0
ENDBRANCH  15  16
ENDBRANCH  13  15
ENDBRANCH   1  13
TORSDOF 1
ENDMDL
MODEL 4
REMARK VINA RESULT:    -3.597      1.903      4.193
REMARK INTER + INTRA:          -5.930
REMARK INTER:                  -5.285
REMARK INTRA:                  -0.645
REMARK UNBOUND:                -0.651
REMARK SMILES C=C1C=C[C@@H](C(C)C)CCC(C)=CCC1
REMARK SMILES IDX 3 1 4 2 5 3 9 4 10 5 11 6 12 7 13 8 6 10 7 11 8 12 2 13 1 14
REMARK SMILES IDX 15 15 14 16
REMARK H PARENT
REMARK Flexibility Score: 70.00
ROOT
ATOM      1  C   UNL     1       3.407   7.277  17.194  1.00  0.00    -0.001 C 
ATOM      2  C   UNL     1       4.464   7.468  18.038  1.00  0.00    -0.023 C 
ENDROOT
BRANCH   2   3
ATOM      3  C   UNL     1       5.501   8.611  18.022  1.00  0.00     0.014 C 
BRANCH   3   4
ATOM      4  C   UNL     1       6.371   8.410  16.790  1.00  0.00     0.012 C 
BRANCH   4   5
ATOM      5  C   UNL     1       6.743   7.120  16.101  1.00  0.00     0.031 C 
BRANCH   5   6
ATOM      6  C   UNL     1       6.575   7.312  14.582  1.00  0.00    -0.077 C 
ATOM      7  C   UNL     1       7.794   7.772  13.819  1.00  0.00     0.039 C 
ATOM      8  C   UNL     1       5.443   7.048  13.841  1.00  0.00    -0.028 CG0
ATOM      9  G   UNL     1       4.021   6.696  14.305  1.00  0.00     0.000 G0
ENDBRANCH   5   6
ENDBRANCH   4   5
ENDBRANCH   3   4
BRANCH   3  10
ATOM     10  C   UNL     1       6.332   8.700  19.337  1.00  0.00    -0.010 C 
ATOM     11  C   UNL     1       5.640   9.579  20.391  1.00  0.00     0.008 C 
ATOM     12  C   UNL     1       6.680   7.325  19.932  1.00  0.00     0.008 C 
ENDBRANCH   3  10
ENDBRANCH   2   3
BRANCH   1  13
ATOM     13  C   UNL     1       2.893   8.197  16.127  1.00  0.00    -0.055 C 
ATOM     14  C   UNL     1       2.138   9.231  16.506  1.00  0.00     0.012 C 
BRANCH  13  15
ATOM     15  C   UNL     1       3.063   7.905  14.627  1.00  0.00     0.039 C 
BRANCH  15  16
ATOM     16  C   UNL     1       4.011   6.695  14.297  1.00  0.00     0.032 CG0
ATOM     17  G   UNL     1       5.437   7.047  13.844  1.00  0.00     0.000 G0
ENDBRANCH  15  16
ENDBRANCH  13  15
ENDBRANCH   1  13
TORSDOF 1
ENDMDL
MODEL 5
REMARK VINA RESULT:    -3.594      9.800     12.564
REMARK INTER + INTRA:          -5.925
REMARK INTER:                  -5.227
REMARK INTRA:                  -0.698
REMARK UNBOUND:                -0.651
REMARK SMILES C=C1C=C[C@@H](C(C)C)CCC(C)=CCC1
REMARK SMILES IDX 3 1 4 2 5 3 9 4 10 5 11 6 12 7 13 8 6 10 7 11 8 12 2 13 1 14
REMARK SMILES IDX 15 15 14 16
REMARK H PARENT
REMARK Flexibility Score: 70.00
ROOT
ATOM      1  C   UNL     1      13.655   6.026  25.522  1.00  0.00    -0.001 C 
ATOM      2  C   UNL     1      14.225   7.121  24.936  1.00  0.00    -0.023 C 
ENDROOT
BRANCH   2   3
ATOM      3  C   UNL     1      14.273   8.569  25.468  1.00  0.00     0.014 C 
BRANCH   3   4
ATOM      4  C   UNL     1      13.279   9.380  24.651  1.00  0.00     0.012 C 
BRANCH   4   5
ATOM      5  C   UNL     1      11.911   9.873  25.053  1.00  0.00     0.031 C 
BRANCH   5   6
ATOM      6  C   UNL     1      10.875   8.797  24.679  1.00  0.00    -0.077 C 
ATOM      7  C   UNL     1      10.237   8.916  23.316  1.00  0.00     0.039 C 
ATOM      8  C   UNL     1      10.515   7.703  25.437  1.00  0.00    -0.028 CG0
ATOM      9  G   UNL     1      10.868   7.354  26.891  1.00  0.00     0.000 G0
ENDBRANCH   5   6
ENDBRANCH   4   5
ENDBRANCH   3   4
BRANCH   3  10
ATOM     10  C   UNL     1      15.707   9.179  25.449  1.00  0.00    -0.010 C 
ATOM     11  C   UNL     1      16.739   8.231  26.081  1.00  0.00     0.008 C 
ATOM     12  C   UNL     1      16.167   9.612  24.046  1.00  0.00     0.008 C 
ENDBRANCH   3  10
ENDBRANCH   2   3
BRANCH   1  13
ATOM     13  C   UNL     1      13.057   5.913  26.893  1.00  0.00    -0.055 C 
ATOM     14  C   UNL     1      13.875   5.625  27.908  1.00  0.00     0.012 C 
BRANCH  13  15
ATOM     15  C   UNL     1      11.540   5.954  27.142  1.00  0.00     0.039 C 
BRANCH  15  16
ATOM     16  C   UNL     1      10.871   7.354  26.893  1.00  0.00     0.032 CG0
ATOM     17  G   UNL     1      10.528   7.699  25.435  1.00  0.00     0.000 G0
ENDBRANCH  15  16
ENDBRANCH  13  15
ENDBRANCH   1  13
TORSDOF 1
ENDMDL
MODEL 6
REMARK VINA RESULT:    -3.542      1.167      3.427
REMARK INTER + INTRA:          -5.849
REMARK INTER:                  -5.085
REMARK INTRA:                  -0.765
REMARK UNBOUND:                -0.651
REMARK SMILES C=C1C=C[C@@H](C(C)C)CCC(C)=CCC1
REMARK SMILES IDX 3 1 4 2 5 3 9 4 10 5 11 6 12 7 13 8 6 10 7 11 8 12 2 13 1 14
REMARK SMILES IDX 15 15 14 16
REMARK H PARENT
REMARK Flexibility Score: 70.00
ROOT
ATOM      1  C   UNL     1       6.339   7.483  17.831  1.00  0.00    -0.001 C 
ATOM      2  C   UNL     1       6.266   7.122  16.516  1.00  0.00    -0.023 C 
ENDROOT
BRANCH   2   3
ATOM      3  C   UNL     1       6.008   8.026  15.292  1.00  0.00     0.014 C 
BRANCH   3   4
ATOM      4  C   UNL     1       4.520   7.954  14.987  1.00  0.00     0.012 C 
BRANCH   4   5
ATOM      5  C   UNL     1       3.418   7.339  15.814  1.00  0.00     0.031 C 
BRANCH   5   6
ATOM      6  C   UNL     1       2.555   8.472  16.399  1.00  0.00    -0.077 C 
ATOM      7  C   UNL     1       1.439   8.992  15.526  1.00  0.00     0.039 C 
ATOM      8  C   UNL     1       2.661   9.019  17.660  1.00  0.00    -0.028 CG0
ATOM      9  G   UNL     1       3.741   8.817  18.734  1.00  0.00     0.000 G0
ENDBRANCH   5   6
ENDBRANCH   4   5
ENDBRANCH   3   4
BRANCH   3  10
ATOM     10  C   UNL     1       6.893   7.658  14.063  1.00  0.00    -0.010 C 
ATOM     11  C   UNL     1       8.378   7.963  14.317  1.00  0.00     0.008 C 
ATOM     12  C   UNL     1       6.717   6.201  13.601  1.00  0.00     0.008 C 
ENDBRANCH   3  10
ENDBRANCH   2   3
BRANCH   1  13
ATOM     13  C   UNL     1       6.331   8.865  18.416  1.00  0.00    -0.055 C 
ATOM     14  C   UNL     1       7.471   9.329  18.932  1.00  0.00     0.012 C 
BRANCH  13  15
ATOM     15  C   UNL     1       5.043   9.686  18.586  1.00  0.00     0.039 C 
BRANCH  15  16
ATOM     16  C   UNL     1       3.733   8.830  18.741  1.00  0.00     0.032 CG0
ATOM     17  G   UNL     1       2.662   9.018  17.655  1.00  0.00     0.000 G0
ENDBRANCH  15  16
ENDBRANCH  13  15
ENDBRANCH   1  13
TORSDOF 1
ENDMDL
MODEL 7
REMARK VINA RESULT:    -3.539      9.232     12.499
REMARK INTER + INTRA:          -5.845
REMARK INTER:                  -5.072
REMARK INTRA:                  -0.772
REMARK UNBOUND:                -0.651
REMARK SMILES C=C1C=C[C@@H](C(C)C)CCC(C)=CCC1
REMARK SMILES IDX 3 1 4 2 5 3 9 4 10 5 11 6 12 7 13 8 6 10 7 11 8 12 2 13 1 14
REMARK SMILES IDX 15 15 14 16
REMARK H PARENT
REMARK Flexibility Score: 70.00
ROOT
ATOM      1  C   UNL     1      14.914   7.634  26.177  1.00  0.00    -0.001 C 
ATOM      2  C   UNL     1      13.706   7.113  26.545  1.00  0.00    -0.023 C 
ENDROOT
BRANCH   2   3
ATOM      3  C   UNL     1      12.341   7.291  25.847  1.00  0.00     0.014 C 
BRANCH   3   4
ATOM      4  C   UNL     1      11.988   8.769  25.923  1.00  0.00     0.012 C 
BRANCH   4   5
ATOM      5  C   UNL     1      11.891   9.772  24.800  1.00  0.00     0.031 C 
BRANCH   5   6
ATOM      6  C   UNL     1      11.679   9.007  23.480  1.00  0.00    -0.077 C 
ATOM      7  C   UNL     1      10.262   8.601  23.152  1.00  0.00     0.039 C 
ATOM      8  C   UNL     1      12.642   8.709  22.539  1.00  0.00    -0.028 CG0
ATOM      9  G   UNL     1      14.169   8.860  22.611  1.00  0.00     0.000 G0
ENDBRANCH   5   6
ENDBRANCH   4   5
ENDBRANCH   3   4
BRANCH   3  10
ATOM     10  C   UNL     1      11.228   6.375  26.440  1.00  0.00    -0.010 C 
ATOM     11  C   UNL     1      11.804   5.333  27.412  1.00  0.00     0.008 C 
ATOM     12  C   UNL     1      10.087   7.159  27.111  1.00  0.00     0.008 C 
ENDBRANCH   3  10
ENDBRANCH   2   3
BRANCH   1  13
ATOM     13  C   UNL     1      15.258   8.392  24.929  1.00  0.00    -0.055 C 
ATOM     14  C   UNL     1      15.724   9.636  25.064  1.00  0.00     0.012 C 
BRANCH  13  15
ATOM     15  C   UNL     1      14.946   7.858  23.522  1.00  0.00     0.039 C 
BRANCH  15  16
ATOM     16  C   UNL     1      14.166   8.861  22.596  1.00  0.00     0.032 CG0
ATOM     17  G   UNL     1      12.640   8.691  22.536  1.00  0.00     0.000 G0
ENDBRANCH  15  16
ENDBRANCH  13  15
ENDBRANCH   1  13
TORSDOF 1
ENDMDL
MODEL 8
REMARK VINA RESULT:    -3.489      2.077      5.243
REMARK INTER + INTRA:          -5.771
REMARK INTER:                  -5.206
REMARK INTRA:                  -0.565
REMARK UNBOUND:                -0.651
REMARK SMILES C=C1C=C[C@@H](C(C)C)CCC(C)=CCC1
REMARK SMILES IDX 3 1 4 2 5 3 9 4 10 5 11 6 12 7 13 8 6 10 7 11 8 12 2 13 1 14
REMARK SMILES IDX 15 15 14 16
REMARK H PARENT
REMARK Flexibility Score: 70.00
ROOT
ATOM      1  C   UNL     1       4.332  10.102  19.386  1.00  0.00    -0.001 C 
ATOM      2  C   UNL     1       3.286  10.105  18.509  1.00  0.00    -0.023 C 
ENDROOT
BRANCH   2   3
ATOM      3  C   UNL     1       2.387   8.920  18.095  1.00  0.00     0.014 C 
BRANCH   3   4
ATOM      4  C   UNL     1       3.045   8.255  16.896  1.00  0.00     0.012 C 
BRANCH   4   5
ATOM      5  C   UNL     1       3.948   7.045  16.869  1.00  0.00     0.031 C 
BRANCH   5   6
ATOM      6  C   UNL     1       5.397   7.523  16.659  1.00  0.00    -0.077 C 
ATOM      7  C   UNL     1       5.780   7.929  15.257  1.00  0.00     0.039 C 
ATOM      8  C   UNL     1       6.362   7.674  17.633  1.00  0.00    -0.028 CG0
ATOM      9  G   UNL     1       6.349   7.243  19.108  1.00  0.00     0.000 G0
ENDBRANCH   5   6
ENDBRANCH   4   5
ENDBRANCH   3   4
BRANCH   3  10
ATOM     10  C   UNL     1       0.913   9.341  17.815  1.00  0.00    -0.010 C 
ATOM     11  C   UNL     1       0.660   9.574  16.316  1.00  0.00     0.008 C 
ATOM     12  C   UNL     1      -0.121   8.354  18.385  1.00  0.00     0.008 C 
ENDBRANCH   3  10
ENDBRANCH   2   3
BRANCH   1  13
ATOM     13  C   UNL     1       4.791   8.988  20.281  1.00  0.00    -0.055 C 
ATOM     14  C   UNL     1       3.986   8.623  21.282  1.00  0.00     0.012 C 
BRANCH  13  15
ATOM     15  C   UNL     1       6.198   8.377  20.189  1.00  0.00     0.039 C 
BRANCH  15  16
ATOM     16  C   UNL     1       6.350   7.236  19.118  1.00  0.00     0.032 CG0
ATOM     17  G   UNL     1       6.352   7.676  17.646  1.00  0.00     0.000 G0
ENDBRANCH  15  16
ENDBRANCH  13  15
ENDBRANCH   1  13
TORSDOF 1
ENDMDL
MODEL 9
REMARK VINA RESULT:    -3.428      1.821      2.972
REMARK INTER + INTRA:          -5.682
REMARK INTER:                  -5.058
REMARK INTRA:                  -0.623
REMARK UNBOUND:                -0.651
REMARK SMILES C=C1C=C[C@@H](C(C)C)CCC(C)=CCC1
REMARK SMILES IDX 3 1 4 2 5 3 9 4 10 5 11 6 12 7 13 8 6 10 7 11 8 12 2 13 1 14
REMARK SMILES IDX 15 15 14 16
REMARK H PARENT
REMARK Flexibility Score: 70.00
ROOT
ATOM      1  C   UNL     1       2.748   9.473  17.233  1.00  0.00    -0.001 C 
ATOM      2  C   UNL     1       3.579   8.874  16.330  1.00  0.00    -0.023 C 
ENDROOT
BRANCH   2   3
ATOM      3  C   UNL     1       4.498   7.653  16.546  1.00  0.00     0.014 C 
BRANCH   3   4
ATOM      4  C   UNL     1       5.676   8.122  17.388  1.00  0.00     0.012 C 
BRANCH   4   5
ATOM      5  C   UNL     1       6.273   7.474  18.613  1.00  0.00     0.031 C 
BRANCH   5   6
ATOM      6  C   UNL     1       6.498   8.562  19.679  1.00  0.00    -0.077 C 
ATOM      7  C   UNL     1       7.909   9.076  19.834  1.00  0.00     0.039 C 
ATOM      8  C   UNL     1       5.533   9.156  20.464  1.00  0.00    -0.028 CG0
ATOM      9  G   UNL     1       4.052   8.792  20.648  1.00  0.00     0.000 G0
ENDBRANCH   5   6
ENDBRANCH   4   5
ENDBRANCH   3   4
BRANCH   3  10
ATOM     10  C   UNL     1       4.942   6.980  15.212  1.00  0.00    -0.010 C 
ATOM     11  C   UNL     1       3.837   7.041  14.146  1.00  0.00     0.008 C 
ATOM     12  C   UNL     1       6.258   7.548  14.651  1.00  0.00     0.008 C 
ENDBRANCH   3  10
ENDBRANCH   2   3
BRANCH   1  13
ATOM     13  C   UNL     1       2.404   9.020  18.622  1.00  0.00    -0.055 C 
ATOM     14  C   UNL     1       1.438   8.109  18.757  1.00  0.00     0.012 C 
BRANCH  13  15
ATOM     15  C   UNL     1       2.998   9.675  19.879  1.00  0.00     0.039 C 
BRANCH  15  16
ATOM     16  C   UNL     1       4.044   8.790  20.650  1.00  0.00     0.032 CG0
ATOM     17  G   UNL     1       5.523   9.161  20.462  1.00  0.00     0.000 G0
ENDBRANCH  15  16
ENDBRANCH  13  15
ENDBRANCH   1  13
TORSDOF 1
ENDMDL
