MODEL 1
REMARK VINA RESULT:    -0.830      0.000      0.000
REMARK INTER + INTRA:          -2.241
REMARK INTER:                  -1.462
REMARK INTRA:                  -0.780
REMARK UNBOUND:                -0.780
REMARK SMILES CCCCCCCCCCCCCCC(=O)[O-]
REMARK SMILES IDX 9 1 10 2 11 3 12 4 13 5 14 6 15 7 16 8 17 9 8 10 7 11 6 12
REMARK SMILES IDX 5 13 4 14 3 15 2 16 1 17
REMARK H PARENT
REMARK Flexibility Score: inf
ROOT
ATOM      1  C   UNL     1      -4.685  40.028  22.828  1.00  0.00     0.000 C 
ENDROOT
BRANCH   1   2
ATOM      2  C   UNL     1      -5.826  40.350  21.847  1.00  0.00     0.000 C 
BRANCH   2   3
ATOM      3  C   UNL     1      -6.072  39.218  20.838  1.00  0.00     0.000 C 
BRANCH   3   4
ATOM      4  C   UNL     1      -5.184  37.989  21.101  1.00  0.00     0.000 C 
BRANCH   4   5
ATOM      5  C   UNL     1      -5.023  37.099  19.859  1.00  0.00     0.006 C 
BRANCH   5   6
ATOM      6  C   UNL     1      -5.510  35.664  20.097  1.00  0.00     0.053 C 
BRANCH   6   7
ATOM      7  C   UNL     1      -5.465  34.880  18.822  1.00  0.00     0.041 C 
ATOM      8  O   UNL     1      -6.069  33.779  18.733  1.00  0.00    -0.550 OA
ATOM      9  O   UNL     1      -4.795  35.390  17.716  1.00  0.00    -0.550 OA
ENDBRANCH   6   7
ENDBRANCH   5   6
ENDBRANCH   4   5
ENDBRANCH   3   4
ENDBRANCH   2   3
ENDBRANCH   1   2
BRANCH   1  10
ATOM     10  C   UNL     1      -5.183  39.328  24.101  1.00  0.00     0.000 C 
BRANCH  10  11
ATOM     11  C   UNL     1      -4.277  38.159  24.524  1.00  0.00    -0.000 C 
BRANCH  11  12
ATOM     12  C   UNL     1      -4.707  37.525  25.858  1.00  0.00    -0.000 C 
BRANCH  12  13
ATOM     13  C   UNL     1      -6.095  36.854  25.841  1.00  0.00    -0.000 C 
BRANCH  13  14
ATOM     14  C   UNL     1      -6.122  35.425  25.261  1.00  0.00    -0.000 C 
BRANCH  14  15
ATOM     15  C   UNL     1      -5.912  35.336  23.737  1.00  0.00    -0.000 C 
BRANCH  15  16
ATOM     16  C   UNL     1      -5.154  34.084  23.261  1.00  0.00    -0.003 C 
ATOM     17  C   UNL     1      -5.952  32.796  23.453  1.00  0.00     0.004 C 
ENDBRANCH  15  16
ENDBRANCH  14  15
ENDBRANCH  13  14
ENDBRANCH  12  13
ENDBRANCH  11  12
ENDBRANCH  10  11
ENDBRANCH   1  10
TORSDOF 13
ENDMDL
MODEL 2
REMARK VINA RESULT:    -0.794      0.930      3.906
REMARK INTER + INTRA:          -2.178
REMARK INTER:                  -1.638
REMARK INTRA:                  -0.539
REMARK UNBOUND:                -0.780
REMARK SMILES CCCCCCCCCCCCCCC(=O)[O-]
REMARK SMILES IDX 9 1 10 2 11 3 12 4 13 5 14 6 15 7 16 8 17 9 8 10 7 11 6 12
REMARK SMILES IDX 5 13 4 14 3 15 2 16 1 17
REMARK H PARENT
REMARK Flexibility Score: inf
ROOT
ATOM      1  C   UNL     1      -6.053  34.826  25.328  1.00  0.00     0.000 C 
ENDROOT
BRANCH   1   2
ATOM      2  C   UNL     1      -6.125  34.248  23.904  1.00  0.00     0.000 C 
BRANCH   2   3
ATOM      3  C   UNL     1      -5.255  35.029  22.906  1.00  0.00     0.000 C 
BRANCH   3   4
ATOM      4  C   UNL     1      -6.068  35.588  21.725  1.00  0.00     0.000 C 
BRANCH   4   5
ATOM      5  C   UNL     1      -6.019  34.675  20.490  1.00  0.00     0.006 C 
BRANCH   5   6
ATOM      6  C   UNL     1      -4.828  34.987  19.575  1.00  0.00     0.053 C 
BRANCH   6   7
ATOM      7  C   UNL     1      -5.090  34.486  18.189  1.00  0.00     0.041 C 
ATOM      8  O   UNL     1      -6.030  33.677  17.974  1.00  0.00    -0.550 OA
ATOM      9  O   UNL     1      -4.327  34.953  17.125  1.00  0.00    -0.550 OA
ENDBRANCH   6   7
ENDBRANCH   5   6
ENDBRANCH   4   5
ENDBRANCH   3   4
ENDBRANCH   2   3
ENDBRANCH   1   2
BRANCH   1  10
ATOM     10  C   UNL     1      -6.113  36.361  25.342  1.00  0.00     0.000 C 
BRANCH  10  11
ATOM     11  C   UNL     1      -4.780  36.999  25.771  1.00  0.00    -0.000 C 
BRANCH  11  12
ATOM     12  C   UNL     1      -4.619  38.442  25.260  1.00  0.00    -0.000 C 
BRANCH  12  13
ATOM     13  C   UNL     1      -5.637  38.867  24.184  1.00  0.00    -0.000 C 
BRANCH  13  14
ATOM     14  C   UNL     1      -5.048  39.073  22.773  1.00  0.00    -0.000 C 
BRANCH  14  15
ATOM     15  C   UNL     1      -5.988  39.769  21.770  1.00  0.00    -0.000 C 
BRANCH  15  16
ATOM     16  C   UNL     1      -5.800  39.341  20.304  1.00  0.00    -0.003 C 
ATOM     17  C   UNL     1      -5.018  38.037  20.160  1.00  0.00     0.004 C 
ENDBRANCH  15  16
ENDBRANCH  14  15
ENDBRANCH  13  14
ENDBRANCH  12  13
ENDBRANCH  11  12
ENDBRANCH  10  11
ENDBRANCH   1  10
TORSDOF 13
ENDMDL
MODEL 3
REMARK VINA RESULT:    -0.542      3.022      6.868
REMARK INTER + INTRA:          -1.735
REMARK INTER:                  -1.018
REMARK INTRA:                  -0.717
REMARK UNBOUND:                -0.780
REMARK SMILES CCCCCCCCCCCCCCC(=O)[O-]
REMARK SMILES IDX 9 1 10 2 11 3 12 4 13 5 14 6 15 7 16 8 17 9 8 10 7 11 6 12
REMARK SMILES IDX 5 13 4 14 3 15 2 16 1 17
REMARK H PARENT
REMARK Flexibility Score: inf
ROOT
ATOM      1  C   UNL     1      -5.116  34.912  22.273  1.00  0.00     0.000 C 
ENDROOT
BRANCH   1   2
ATOM      2  C   UNL     1      -5.875  34.491  23.544  1.00  0.00     0.000 C 
BRANCH   2   3
ATOM      3  C   UNL     1      -5.580  35.413  24.738  1.00  0.00     0.000 C 
BRANCH   3   4
ATOM      4  C   UNL     1      -6.050  36.858  24.497  1.00  0.00     0.000 C 
BRANCH   4   5
ATOM      5  C   UNL     1      -4.881  37.833  24.287  1.00  0.00     0.006 C 
BRANCH   5   6
ATOM      6  C   UNL     1      -5.342  39.205  23.779  1.00  0.00     0.053 C 
BRANCH   6   7
ATOM      7  C   UNL     1      -5.210  39.281  22.290  1.00  0.00     0.041 C 
ATOM      8  O   UNL     1      -4.461  38.474  21.678  1.00  0.00    -0.550 OA
ATOM      9  O   UNL     1      -5.951  40.212  21.573  1.00  0.00    -0.550 OA
ENDBRANCH   6   7
ENDBRANCH   5   6
ENDBRANCH   4   5
ENDBRANCH   3   4
ENDBRANCH   2   3
ENDBRANCH   1   2
BRANCH   1  10
ATOM     10  C   UNL     1      -6.061  35.330  21.136  1.00  0.00     0.000 C 
BRANCH  10  11
ATOM     11  C   UNL     1      -5.307  35.683  19.843  1.00  0.00    -0.000 C 
BRANCH  11  12
ATOM     12  C   UNL     1      -5.559  34.672  18.711  1.00  0.00    -0.000 C 
BRANCH  12  13
ATOM     13  C   UNL     1      -4.450  34.605  17.641  1.00  0.00    -0.000 C 
BRANCH  13  14
ATOM     14  C   UNL     1      -4.488  35.735  16.592  1.00  0.00    -0.000 C 
BRANCH  14  15
ATOM     15  C   UNL     1      -3.498  35.571  15.423  1.00  0.00    -0.000 C 
BRANCH  15  16
ATOM     16  C   UNL     1      -3.875  36.338  14.143  1.00  0.00    -0.003 C 
ATOM     17  C   UNL     1      -4.025  37.841  14.372  1.00  0.00     0.004 C 
ENDBRANCH  15  16
ENDBRANCH  14  15
ENDBRANCH  13  14
ENDBRANCH  12  13
ENDBRANCH  11  12
ENDBRANCH  10  11
ENDBRANCH   1  10
TORSDOF 13
ENDMDL
MODEL 4
REMARK VINA RESULT:    -0.401      2.376      4.672
REMARK INTER + INTRA:          -1.486
REMARK INTER:                  -0.458
REMARK INTRA:                  -1.028
REMARK UNBOUND:                -0.780
REMARK SMILES CCCCCCCCCCCCCCC(=O)[O-]
REMARK SMILES IDX 9 1 10 2 11 3 12 4 13 5 14 6 15 7 16 8 17 9 8 10 7 11 6 12
REMARK SMILES IDX 5 13 4 14 3 15 2 16 1 17
REMARK H PARENT
REMARK Flexibility Score: inf
ROOT
ATOM      1  C   UNL     1      -4.848  35.764  21.006  1.00  0.00     0.000 C 
ENDROOT
BRANCH   1   2
ATOM      2  C   UNL     1      -5.181  36.025  19.527  1.00  0.00     0.000 C 
BRANCH   2   3
ATOM      3  C   UNL     1      -5.580  34.744  18.778  1.00  0.00     0.000 C 
BRANCH   3   4
ATOM      4  C   UNL     1      -4.594  34.388  17.652  1.00  0.00     0.000 C 
BRANCH   4   5
ATOM      5  C   UNL     1      -4.292  35.580  16.730  1.00  0.00     0.006 C 
BRANCH   5   6
ATOM      6  C   UNL     1      -3.552  35.163  15.453  1.00  0.00     0.053 C 
BRANCH   6   7
ATOM      7  C   UNL     1      -3.435  36.325  14.517  1.00  0.00     0.041 C 
ATOM      8  O   UNL     1      -2.364  36.526  13.886  1.00  0.00    -0.550 OA
ATOM      9  O   UNL     1      -4.527  37.158  14.302  1.00  0.00    -0.550 OA
ENDBRANCH   6   7
ENDBRANCH   5   6
ENDBRANCH   4   5
ENDBRANCH   3   4
ENDBRANCH   2   3
ENDBRANCH   1   2
BRANCH   1  10
ATOM     10  C   UNL     1      -6.101  35.496  21.853  1.00  0.00     0.000 C 
BRANCH  10  11
ATOM     11  C   UNL     1      -5.824  34.549  23.033  1.00  0.00    -0.000 C 
BRANCH  11  12
ATOM     12  C   UNL     1      -5.651  35.295  24.368  1.00  0.00    -0.000 C 
BRANCH  12  13
ATOM     13  C   UNL     1      -6.082  36.776  24.345  1.00  0.00    -0.000 C 
BRANCH  13  14
ATOM     14  C   UNL     1      -4.958  37.788  24.641  1.00  0.00    -0.000 C 
BRANCH  14  15
ATOM     15  C   UNL     1      -5.096  39.144  23.922  1.00  0.00    -0.000 C 
BRANCH  15  16
ATOM     16  C   UNL     1      -5.003  39.075  22.387  1.00  0.00    -0.003 C 
ATOM     17  C   UNL     1      -5.939  40.060  21.690  1.00  0.00     0.004 C 
ENDBRANCH  15  16
ENDBRANCH  14  15
ENDBRANCH  13  14
ENDBRANCH  12  13
ENDBRANCH  11  12
ENDBRANCH  10  11
ENDBRANCH   1  10
TORSDOF 13
ENDMDL
MODEL 5
REMARK VINA RESULT:    -0.375      2.236      5.248
REMARK INTER + INTRA:          -1.440
REMARK INTER:                  -0.959
REMARK INTRA:                  -0.481
REMARK UNBOUND:                -0.780
REMARK SMILES CCCCCCCCCCCCCCC(=O)[O-]
REMARK SMILES IDX 9 1 10 2 11 3 12 4 13 5 14 6 15 7 16 8 17 9 8 10 7 11 6 12
REMARK SMILES IDX 5 13 4 14 3 15 2 16 1 17
REMARK H PARENT
REMARK Flexibility Score: inf
ROOT
ATOM      1  C   UNL     1      -6.061  34.499  24.443  1.00  0.00     0.000 C 
ENDROOT
BRANCH   1   2
ATOM      2  C   UNL     1      -6.124  35.867  25.145  1.00  0.00     0.000 C 
BRANCH   2   3
ATOM      3  C   UNL     1      -4.785  36.619  25.091  1.00  0.00     0.000 C 
BRANCH   3   4
ATOM      4  C   UNL     1      -4.967  38.147  25.061  1.00  0.00     0.000 C 
BRANCH   4   5
ATOM      5  C   UNL     1      -4.698  38.747  23.673  1.00  0.00     0.006 C 
BRANCH   5   6
ATOM      6  C   UNL     1      -5.642  38.192  22.599  1.00  0.00     0.053 C 
BRANCH   6   7
ATOM      7  C   UNL     1      -5.828  39.191  21.500  1.00  0.00     0.041 C 
ATOM      8  O   UNL     1      -6.016  40.406  21.773  1.00  0.00    -0.550 OA
ATOM      9  O   UNL     1      -5.743  38.789  20.173  1.00  0.00    -0.550 OA
ENDBRANCH   6   7
ENDBRANCH   5   6
ENDBRANCH   4   5
ENDBRANCH   3   4
ENDBRANCH   2   3
ENDBRANCH   1   2
BRANCH   1  10
ATOM     10  C   UNL     1      -6.119  34.621  22.913  1.00  0.00     0.000 C 
BRANCH  10  11
ATOM     11  C   UNL     1      -4.799  34.209  22.238  1.00  0.00    -0.000 C 
BRANCH  11  12
ATOM     12  C   UNL     1      -3.967  35.416  21.770  1.00  0.00    -0.000 C 
BRANCH  12  13
ATOM     13  C   UNL     1      -4.070  35.729  20.263  1.00  0.00    -0.000 C 
BRANCH  13  14
ATOM     14  C   UNL     1      -5.503  35.732  19.693  1.00  0.00    -0.000 C 
BRANCH  14  15
ATOM     15  C   UNL     1      -6.007  34.366  19.189  1.00  0.00    -0.000 C 
BRANCH  15  16
ATOM     16  C   UNL     1      -5.472  33.949  17.807  1.00  0.00    -0.003 C 
ATOM     17  C   UNL     1      -4.468  34.947  17.232  1.00  0.00     0.004 C 
ENDBRANCH  15  16
ENDBRANCH  14  15
ENDBRANCH  13  14
ENDBRANCH  12  13
ENDBRANCH  11  12
ENDBRANCH  10  11
ENDBRANCH   1  10
TORSDOF 13
ENDMDL
MODEL 6
REMARK VINA RESULT:    -0.172      1.724      4.521
REMARK INTER + INTRA:          -1.083
REMARK INTER:                  -0.299
REMARK INTRA:                  -0.785
REMARK UNBOUND:                -0.780
REMARK SMILES CCCCCCCCCCCCCCC(=O)[O-]
REMARK SMILES IDX 9 1 10 2 11 3 12 4 13 5 14 6 15 7 16 8 17 9 8 10 7 11 6 12
REMARK SMILES IDX 5 13 4 14 3 15 2 16 1 17
REMARK H PARENT
REMARK Flexibility Score: inf
ROOT
ATOM      1  C   UNL     1      -5.294  38.614  24.996  1.00  0.00     0.000 C 
ENDROOT
BRANCH   1   2
ATOM      2  C   UNL     1      -4.893  37.133  25.120  1.00  0.00     0.000 C 
BRANCH   2   3
ATOM      3  C   UNL     1      -6.033  36.259  25.667  1.00  0.00     0.000 C 
BRANCH   3   4
ATOM      4  C   UNL     1      -6.125  34.897  24.956  1.00  0.00     0.000 C 
BRANCH   4   5
ATOM      5  C   UNL     1      -5.848  34.997  23.448  1.00  0.00     0.006 C 
BRANCH   5   6
ATOM      6  C   UNL     1      -5.091  33.777  22.907  1.00  0.00     0.053 C 
BRANCH   6   7
ATOM      7  C   UNL     1      -3.868  34.211  22.163  1.00  0.00     0.041 C 
ATOM      8  O   UNL     1      -3.762  35.397  21.753  1.00  0.00    -0.550 OA
ATOM      9  O   UNL     1      -2.821  33.318  21.966  1.00  0.00    -0.550 OA
ENDBRANCH   6   7
ENDBRANCH   5   6
ENDBRANCH   4   5
ENDBRANCH   3   4
ENDBRANCH   2   3
ENDBRANCH   1   2
BRANCH   1  10
ATOM     10  C   UNL     1      -4.837  39.237  23.668  1.00  0.00     0.000 C 
BRANCH  10  11
ATOM     11  C   UNL     1      -5.418  38.507  22.444  1.00  0.00    -0.000 C 
BRANCH  11  12
ATOM     12  C   UNL     1      -5.799  39.467  21.303  1.00  0.00    -0.000 C 
BRANCH  12  13
ATOM     13  C   UNL     1      -5.955  38.803  19.921  1.00  0.00    -0.000 C 
BRANCH  13  14
ATOM     14  C   UNL     1      -4.993  37.628  19.649  1.00  0.00    -0.000 C 
BRANCH  14  15
ATOM     15  C   UNL     1      -5.650  36.234  19.650  1.00  0.00    -0.000 C 
BRANCH  15  16
ATOM     16  C   UNL     1      -4.999  35.212  18.702  1.00  0.00    -0.003 C 
ATOM     17  C   UNL     1      -5.864  33.972  18.479  1.00  0.00     0.004 C 
ENDBRANCH  15  16
ENDBRANCH  14  15
ENDBRANCH  13  14
ENDBRANCH  12  13
ENDBRANCH  11  12
ENDBRANCH  10  11
ENDBRANCH   1  10
TORSDOF 13
ENDMDL
MODEL 7
REMARK VINA RESULT:    -0.046      1.098      3.820
REMARK INTER + INTRA:          -0.861
REMARK INTER:                  -0.011
REMARK INTRA:                  -0.850
REMARK UNBOUND:                -0.780
REMARK SMILES CCCCCCCCCCCCCCC(=O)[O-]
REMARK SMILES IDX 9 1 10 2 11 3 12 4 13 5 14 6 15 7 16 8 17 9 8 10 7 11 6 12
REMARK SMILES IDX 5 13 4 14 3 15 2 16 1 17
REMARK H PARENT
REMARK Flexibility Score: inf
ROOT
ATOM      1  C   UNL     1      -5.084  34.527  23.113  1.00  0.00     0.000 C 
ENDROOT
BRANCH   1   2
ATOM      2  C   UNL     1      -5.735  35.522  22.137  1.00  0.00     0.000 C 
BRANCH   2   3
ATOM      3  C   UNL     1      -4.703  36.422  21.438  1.00  0.00     0.000 C 
BRANCH   3   4
ATOM      4  C   UNL     1      -5.192  36.928  20.069  1.00  0.00     0.000 C 
BRANCH   4   5
ATOM      5  C   UNL     1      -4.518  36.202  18.895  1.00  0.00     0.006 C 
BRANCH   5   6
ATOM      6  C   UNL     1      -5.523  35.450  18.013  1.00  0.00     0.053 C 
BRANCH   6   7
ATOM      7  C   UNL     1      -5.523  33.992  18.350  1.00  0.00     0.041 C 
ATOM      8  O   UNL     1      -6.125  33.578  19.375  1.00  0.00    -0.550 OA
ATOM      9  O   UNL     1      -4.899  33.083  17.503  1.00  0.00    -0.550 OA
ENDBRANCH   6   7
ENDBRANCH   5   6
ENDBRANCH   4   5
ENDBRANCH   3   4
ENDBRANCH   2   3
ENDBRANCH   1   2
BRANCH   1  10
ATOM     10  C   UNL     1      -6.069  34.015  24.175  1.00  0.00     0.000 C 
BRANCH  10  11
ATOM     11  C   UNL     1      -6.125  34.925  25.414  1.00  0.00    -0.000 C 
BRANCH  11  12
ATOM     12  C   UNL     1      -6.122  36.422  25.055  1.00  0.00    -0.000 C 
BRANCH  12  13
ATOM     13  C   UNL     1      -4.902  37.211  25.572  1.00  0.00    -0.000 C 
BRANCH  13  14
ATOM     14  C   UNL     1      -4.605  38.522  24.816  1.00  0.00    -0.000 C 
BRANCH  14  15
ATOM     15  C   UNL     1      -5.578  38.846  23.666  1.00  0.00    -0.000 C 
BRANCH  15  16
ATOM     16  C   UNL     1      -4.953  39.609  22.485  1.00  0.00    -0.003 C 
ATOM     17  C   UNL     1      -5.907  40.627  21.862  1.00  0.00     0.004 C 
ENDBRANCH  15  16
ENDBRANCH  14  15
ENDBRANCH  13  14
ENDBRANCH  12  13
ENDBRANCH  11  12
ENDBRANCH  10  11
ENDBRANCH   1  10
TORSDOF 13
ENDMDL
MODEL 8
REMARK VINA RESULT:     0.252      3.550      6.864
REMARK INTER + INTRA:          -0.337
REMARK INTER:                   0.023
REMARK INTRA:                  -0.361
REMARK UNBOUND:                -0.780
REMARK SMILES CCCCCCCCCCCCCCC(=O)[O-]
REMARK SMILES IDX 9 1 10 2 11 3 12 4 13 5 14 6 15 7 16 8 17 9 8 10 7 11 6 12
REMARK SMILES IDX 5 13 4 14 3 15 2 16 1 17
REMARK H PARENT
REMARK Flexibility Score: inf
ROOT
ATOM      1  C   UNL     1      -4.636  36.305  21.277  1.00  0.00     0.000 C 
ENDROOT
BRANCH   1   2
ATOM      2  C   UNL     1      -4.776  37.676  20.592  1.00  0.00     0.000 C 
BRANCH   2   3
ATOM      3  C   UNL     1      -5.624  38.661  21.412  1.00  0.00     0.000 C 
BRANCH   3   4
ATOM      4  C   UNL     1      -4.786  39.457  22.428  1.00  0.00     0.000 C 
BRANCH   4   5
ATOM      5  C   UNL     1      -5.032  39.008  23.877  1.00  0.00     0.006 C 
BRANCH   5   6
ATOM      6  C   UNL     1      -5.855  37.717  23.962  1.00  0.00     0.053 C 
BRANCH   6   7
ATOM      7  C   UNL     1      -5.306  36.818  25.025  1.00  0.00     0.041 C 
ATOM      8  O   UNL     1      -5.435  35.569  24.929  1.00  0.00    -0.550 OA
ATOM      9  O   UNL     1      -4.608  37.358  26.099  1.00  0.00    -0.550 OA
ENDBRANCH   6   7
ENDBRANCH   5   6
ENDBRANCH   4   5
ENDBRANCH   3   4
ENDBRANCH   2   3
ENDBRANCH   1   2
BRANCH   1  10
ATOM     10  C   UNL     1      -5.820  35.374  20.975  1.00  0.00     0.000 C 
BRANCH  10  11
ATOM     11  C   UNL     1      -5.926  35.020  19.482  1.00  0.00    -0.000 C 
BRANCH  11  12
ATOM     12  C   UNL     1      -4.566  35.060  18.763  1.00  0.00    -0.000 C 
BRANCH  12  13
ATOM     13  C   UNL     1      -4.617  34.719  17.259  1.00  0.00    -0.000 C 
BRANCH  13  14
ATOM     14  C   UNL     1      -4.418  35.919  16.312  1.00  0.00    -0.000 C 
BRANCH  14  15
ATOM     15  C   UNL     1      -3.442  35.673  15.144  1.00  0.00    -0.000 C 
BRANCH  15  16
ATOM     16  C   UNL     1      -3.579  36.657  13.969  1.00  0.00    -0.003 C 
ATOM     17  C   UNL     1      -4.016  38.053  14.408  1.00  0.00     0.004 C 
ENDBRANCH  15  16
ENDBRANCH  14  15
ENDBRANCH  13  14
ENDBRANCH  12  13
ENDBRANCH  11  12
ENDBRANCH  10  11
ENDBRANCH   1  10
TORSDOF 13
ENDMDL
MODEL 9
REMARK VINA RESULT:     1.320      2.643      4.864
REMARK INTER + INTRA:           1.544
REMARK INTER:                   2.320
REMARK INTRA:                  -0.776
REMARK UNBOUND:                -0.780
REMARK SMILES CCCCCCCCCCCCCCC(=O)[O-]
REMARK SMILES IDX 9 1 10 2 11 3 12 4 13 5 14 6 15 7 16 8 17 9 8 10 7 11 6 12
REMARK SMILES IDX 5 13 4 14 3 15 2 16 1 17
REMARK H PARENT
REMARK Flexibility Score: inf
ROOT
ATOM      1  C   UNL     1      -5.843  34.790  20.315  1.00  0.00     0.000 C 
ENDROOT
BRANCH   1   2
ATOM      2  C   UNL     1      -6.103  34.312  18.876  1.00  0.00     0.000 C 
BRANCH   2   3
ATOM      3  C   UNL     1      -4.825  34.288  18.022  1.00  0.00     0.000 C 
BRANCH   3   4
ATOM      4  C   UNL     1      -4.617  35.594  17.235  1.00  0.00     0.000 C 
BRANCH   4   5
ATOM      5  C   UNL     1      -3.865  35.374  15.914  1.00  0.00     0.006 C 
BRANCH   5   6
ATOM      6  C   UNL     1      -4.520  36.105  14.735  1.00  0.00     0.053 C 
BRANCH   6   7
ATOM      7  C   UNL     1      -3.610  37.171  14.211  1.00  0.00     0.041 C 
ATOM      8  O   UNL     1      -2.430  36.888  13.875  1.00  0.00    -0.550 OA
ATOM      9  O   UNL     1      -4.080  38.468  14.047  1.00  0.00    -0.550 OA
ENDBRANCH   6   7
ENDBRANCH   5   6
ENDBRANCH   4   5
ENDBRANCH   3   4
ENDBRANCH   2   3
ENDBRANCH   1   2
BRANCH   1  10
ATOM     10  C   UNL     1      -4.742  35.859  20.389  1.00  0.00     0.000 C 
BRANCH  10  11
ATOM     11  C   UNL     1      -5.287  37.239  20.793  1.00  0.00    -0.000 C 
BRANCH  11  12
ATOM     12  C   UNL     1      -4.306  38.034  21.673  1.00  0.00    -0.000 C 
BRANCH  12  13
ATOM     13  C   UNL     1      -4.917  39.257  22.385  1.00  0.00    -0.000 C 
BRANCH  13  14
ATOM     14  C   UNL     1      -5.495  38.975  23.787  1.00  0.00    -0.000 C 
BRANCH  14  15
ATOM     15  C   UNL     1      -4.946  37.710  24.476  1.00  0.00    -0.000 C 
BRANCH  15  16
ATOM     16  C   UNL     1      -5.994  36.619  24.755  1.00  0.00    -0.003 C 
ATOM     17  C   UNL     1      -5.739  35.333  23.970  1.00  0.00     0.004 C 
ENDBRANCH  15  16
ENDBRANCH  14  15
ENDBRANCH  13  14
ENDBRANCH  12  13
ENDBRANCH  11  12
ENDBRANCH  10  11
ENDBRANCH   1  10
TORSDOF 13
ENDMDL
