MODEL 1
REMARK VINA RESULT:    -2.741      0.000      0.000
REMARK INTER + INTRA:          -3.241
REMARK INTER:                  -3.221
REMARK INTRA:                  -0.020
REMARK UNBOUND:                -0.020
REMARK SMILES CCCCC(=O)[O-]
REMARK SMILES IDX 4 1 5 2 6 3 7 4 3 5 2 6 1 7
REMARK H PARENT
REMARK Flexibility Score: inf
ROOT
ATOM      1  C   UNL     1      14.335   2.913  -2.369  1.00  0.00     0.053 C 
ENDROOT
BRANCH   1   2
ATOM      2  C   UNL     1      15.585   2.157  -2.037  1.00  0.00     0.041 C 
ATOM      3  O   UNL     1      16.484   2.694  -1.338  1.00  0.00    -0.550 OA
ATOM      4  O   UNL     1      15.742   0.846  -2.471  1.00  0.00    -0.550 OA
ENDBRANCH   1   2
BRANCH   1   5
ATOM      5  C   UNL     1      13.925   3.871  -1.240  1.00  0.00     0.006 C 
BRANCH   5   6
ATOM      6  C   UNL     1      12.762   4.811  -1.604  1.00  0.00    -0.003 C 
ATOM      7  C   UNL     1      11.838   5.099  -0.421  1.00  0.00     0.004 C 
ENDBRANCH   5   6
ENDBRANCH   1   5
TORSDOF 3
ENDMDL
MODEL 2
REMARK VINA RESULT:    -2.728      0.124      1.223
REMARK INTER + INTRA:          -3.226
REMARK INTER:                  -3.209
REMARK INTRA:                  -0.017
REMARK UNBOUND:                -0.020
REMARK SMILES CCCCC(=O)[O-]
REMARK SMILES IDX 4 1 5 2 6 3 7 4 3 5 2 6 1 7
REMARK H PARENT
REMARK Flexibility Score: inf
ROOT
ATOM      1  C   UNL     1      14.378   2.999  -2.422  1.00  0.00     0.053 C 
ENDROOT
BRANCH   1   2
ATOM      2  C   UNL     1      15.513   2.097  -2.046  1.00  0.00     0.041 C 
ATOM      3  O   UNL     1      15.511   0.891  -2.407  1.00  0.00    -0.550 OA
ATOM      4  O   UNL     1      16.591   2.598  -1.327  1.00  0.00    -0.550 OA
ENDBRANCH   1   2
BRANCH   1   5
ATOM      5  C   UNL     1      13.931   3.883  -1.247  1.00  0.00     0.006 C 
BRANCH   5   6
ATOM      6  C   UNL     1      12.807   4.875  -1.597  1.00  0.00    -0.003 C 
ATOM      7  C   UNL     1      11.833   5.101  -0.441  1.00  0.00     0.004 C 
ENDBRANCH   5   6
ENDBRANCH   1   5
TORSDOF 3
ENDMDL
MODEL 3
REMARK VINA RESULT:    -2.644      1.353      1.993
REMARK INTER + INTRA:          -3.128
REMARK INTER:                  -3.102
REMARK INTRA:                  -0.026
REMARK UNBOUND:                -0.020
REMARK SMILES CCCCC(=O)[O-]
REMARK SMILES IDX 4 1 5 2 6 3 7 4 3 5 2 6 1 7
REMARK H PARENT
REMARK Flexibility Score: inf
ROOT
ATOM      1  C   UNL     1      13.960   3.893  -1.280  1.00  0.00     0.053 C 
ENDROOT
BRANCH   1   2
ATOM      2  C   UNL     1      14.343   2.977  -2.402  1.00  0.00     0.041 C 
ATOM      3  O   UNL     1      13.454   2.380  -3.064  1.00  0.00    -0.550 OA
ATOM      4  O   UNL     1      15.680   2.810  -2.738  1.00  0.00    -0.550 OA
ENDBRANCH   1   2
BRANCH   1   5
ATOM      5  C   UNL     1      12.697   4.705  -1.605  1.00  0.00     0.006 C 
BRANCH   5   6
ATOM      6  C   UNL     1      11.847   5.066  -0.374  1.00  0.00    -0.003 C 
ATOM      7  C   UNL     1      10.952   6.284  -0.606  1.00  0.00     0.004 C 
ENDBRANCH   5   6
ENDBRANCH   1   5
TORSDOF 3
ENDMDL
MODEL 4
REMARK VINA RESULT:    -2.550      4.104      5.354
REMARK INTER + INTRA:          -3.017
REMARK INTER:                  -2.997
REMARK INTRA:                  -0.020
REMARK UNBOUND:                -0.020
REMARK SMILES CCCCC(=O)[O-]
REMARK SMILES IDX 4 1 5 2 6 3 7 4 3 5 2 6 1 7
REMARK H PARENT
REMARK Flexibility Score: inf
ROOT
ATOM      1  C   UNL     1      19.441   1.393  -2.732  1.00  0.00     0.053 C 
ENDROOT
BRANCH   1   2
ATOM      2  C   UNL     1      20.346   0.297  -2.259  1.00  0.00     0.041 C 
ATOM      3  O   UNL     1      20.675  -0.635  -3.039  1.00  0.00    -0.550 OA
ATOM      4  O   UNL     1      20.855   0.325  -0.967  1.00  0.00    -0.550 OA
ENDBRANCH   1   2
BRANCH   1   5
ATOM      5  C   UNL     1      17.978   0.931  -2.825  1.00  0.00     0.006 C 
BRANCH   5   6
ATOM      6  C   UNL     1      16.991   1.801  -2.026  1.00  0.00    -0.003 C 
ATOM      7  C   UNL     1      15.548   1.307  -2.125  1.00  0.00     0.004 C 
ENDBRANCH   5   6
ENDBRANCH   1   5
TORSDOF 3
ENDMDL
MODEL 5
REMARK VINA RESULT:    -2.475      2.174      3.015
REMARK INTER + INTRA:          -2.929
REMARK INTER:                  -2.825
REMARK INTRA:                  -0.104
REMARK UNBOUND:                -0.020
REMARK SMILES CCCCC(=O)[O-]
REMARK SMILES IDX 4 1 5 2 6 3 7 4 3 5 2 6 1 7
REMARK H PARENT
REMARK Flexibility Score: inf
ROOT
ATOM      1  C   UNL     1      12.950   5.160  -1.486  1.00  0.00     0.053 C 
ENDROOT
BRANCH   1   2
ATOM      2  C   UNL     1      13.179   3.830  -2.137  1.00  0.00     0.041 C 
ATOM      3  O   UNL     1      12.227   3.226  -2.698  1.00  0.00    -0.550 OA
ATOM      4  O   UNL     1      14.451   3.274  -2.153  1.00  0.00    -0.550 OA
ENDBRANCH   1   2
BRANCH   1   5
ATOM      5  C   UNL     1      11.896   5.081  -0.370  1.00  0.00     0.006 C 
BRANCH   5   6
ATOM      6  C   UNL     1      10.741   6.086  -0.522  1.00  0.00    -0.003 C 
ATOM      7  C   UNL     1      10.081   6.029  -1.900  1.00  0.00     0.004 C 
ENDBRANCH   5   6
ENDBRANCH   1   5
TORSDOF 3
ENDMDL
MODEL 6
REMARK VINA RESULT:    -2.462      3.264      4.502
REMARK INTER + INTRA:          -2.914
REMARK INTER:                  -2.893
REMARK INTRA:                  -0.021
REMARK UNBOUND:                -0.020
REMARK SMILES CCCCC(=O)[O-]
REMARK SMILES IDX 4 1 5 2 6 3 7 4 3 5 2 6 1 7
REMARK H PARENT
REMARK Flexibility Score: inf
ROOT
ATOM      1  C   UNL     1      13.051   4.655  -1.273  1.00  0.00     0.053 C 
ENDROOT
BRANCH   1   2
ATOM      2  C   UNL     1      11.590   4.534  -1.578  1.00  0.00     0.041 C 
ATOM      3  O   UNL     1      11.205   3.892  -2.592  1.00  0.00    -0.550 OA
ATOM      4  O   UNL     1      10.651   5.101  -0.726  1.00  0.00    -0.550 OA
ENDBRANCH   1   2
BRANCH   1   5
ATOM      5  C   UNL     1      13.880   3.574  -1.985  1.00  0.00     0.006 C 
BRANCH   5   6
ATOM      6  C   UNL     1      15.125   3.119  -1.203  1.00  0.00    -0.003 C 
ATOM      7  C   UNL     1      15.603   1.724  -1.607  1.00  0.00     0.004 C 
ENDBRANCH   5   6
ENDBRANCH   1   5
TORSDOF 3
ENDMDL
MODEL 7
REMARK VINA RESULT:    -2.460     16.610     17.198
REMARK INTER + INTRA:          -2.912
REMARK INTER:                  -2.867
REMARK INTRA:                  -0.045
REMARK UNBOUND:                -0.020
REMARK SMILES CCCCC(=O)[O-]
REMARK SMILES IDX 4 1 5 2 6 3 7 4 3 5 2 6 1 7
REMARK H PARENT
REMARK Flexibility Score: inf
ROOT
ATOM      1  C   UNL     1      23.490  17.024   0.677  1.00  0.00     0.053 C 
ENDROOT
BRANCH   1   2
ATOM      2  C   UNL     1      24.653  17.281   1.586  1.00  0.00     0.041 C 
ATOM      3  O   UNL     1      25.683  17.859   1.148  1.00  0.00    -0.550 OA
ATOM      4  O   UNL     1      24.586  16.913   2.923  1.00  0.00    -0.550 OA
ENDBRANCH   1   2
BRANCH   1   5
ATOM      5  C   UNL     1      23.903  16.246  -0.582  1.00  0.00     0.006 C 
BRANCH   5   6
ATOM      6  C   UNL     1      23.607  16.981  -1.901  1.00  0.00    -0.003 C 
ATOM      7  C   UNL     1      22.135  16.901  -2.309  1.00  0.00     0.004 C 
ENDBRANCH   5   6
ENDBRANCH   1   5
TORSDOF 3
ENDMDL
MODEL 8
REMARK VINA RESULT:    -2.450      4.424      6.203
REMARK INTER + INTRA:          -2.900
REMARK INTER:                  -2.859
REMARK INTRA:                  -0.040
REMARK UNBOUND:                -0.020
REMARK SMILES CCCCC(=O)[O-]
REMARK SMILES IDX 4 1 5 2 6 3 7 4 3 5 2 6 1 7
REMARK H PARENT
REMARK Flexibility Score: inf
ROOT
ATOM      1  C   UNL     1      18.987   0.706  -2.654  1.00  0.00     0.053 C 
ENDROOT
BRANCH   1   2
ATOM      2  C   UNL     1      17.519   0.989  -2.553  1.00  0.00     0.041 C 
ATOM      3  O   UNL     1      17.113   2.032  -1.977  1.00  0.00    -0.550 OA
ATOM      4  O   UNL     1      16.602   0.117  -3.125  1.00  0.00    -0.550 OA
ENDBRANCH   1   2
BRANCH   1   5
ATOM      5  C   UNL     1      19.810   1.991  -2.836  1.00  0.00     0.006 C 
BRANCH   5   6
ATOM      6  C   UNL     1      21.282   1.863  -2.405  1.00  0.00    -0.003 C 
ATOM      7  C   UNL     1      21.484   0.855  -1.273  1.00  0.00     0.004 C 
ENDBRANCH   5   6
ENDBRANCH   1   5
TORSDOF 3
ENDMDL
MODEL 9
REMARK VINA RESULT:    -2.298      5.217      6.452
REMARK INTER + INTRA:          -2.721
REMARK INTER:                  -2.703
REMARK INTRA:                  -0.018
REMARK UNBOUND:                -0.020
REMARK SMILES CCCCC(=O)[O-]
REMARK SMILES IDX 4 1 5 2 6 3 7 4 3 5 2 6 1 7
REMARK H PARENT
REMARK Flexibility Score: inf
ROOT
ATOM      1  C   UNL     1      10.532   6.831  -1.154  1.00  0.00     0.053 C 
ENDROOT
BRANCH   1   2
ATOM      2  C   UNL     1       9.152   7.140  -1.650  1.00  0.00     0.041 C 
ATOM      3  O   UNL     1       8.407   7.924  -1.004  1.00  0.00    -0.550 OA
ATOM      4  O   UNL     1       8.703   6.590  -2.844  1.00  0.00    -0.550 OA
ENDBRANCH   1   2
BRANCH   1   5
ATOM      5  C   UNL     1      10.642   5.396  -0.615  1.00  0.00     0.006 C 
BRANCH   5   6
ATOM      6  C   UNL     1      12.076   4.965  -0.260  1.00  0.00    -0.003 C 
ATOM      7  C   UNL     1      12.941   4.705  -1.494  1.00  0.00     0.004 C 
ENDBRANCH   5   6
ENDBRANCH   1   5
TORSDOF 3
ENDMDL
