MODEL 1
REMARK VINA RESULT:    -4.804      0.000      0.000
REMARK INTER + INTRA:          -7.056
REMARK INTER:                  -6.771
REMARK INTRA:                  -0.285
REMARK UNBOUND:                -0.285
REMARK SMILES CCCCCCCCC(=O)[O-]
REMARK SMILES IDX 6 1 7 2 8 3 9 4 10 5 11 6 5 7 4 8 3 9 2 10 1 11
REMARK H PARENT
REMARK Flexibility Score: inf
ROOT
ATOM      1  C   UNL     1       6.117   1.813   0.344  1.00  0.00     0.000 C 
ENDROOT
BRANCH   1   2
ATOM      2  C   UNL     1       6.062   0.666  -0.677  1.00  0.00     0.006 C 
BRANCH   2   3
ATOM      3  C   UNL     1       7.271   0.654  -1.620  1.00  0.00     0.053 C 
BRANCH   3   4
ATOM      4  C   UNL     1       6.822   0.658  -3.047  1.00  0.00     0.041 C 
ATOM      5  O   UNL     1       6.060   1.566  -3.469  1.00  0.00    -0.550 OA
ATOM      6  O   UNL     1       7.205  -0.371  -3.898  1.00  0.00    -0.550 OA
ENDBRANCH   3   4
ENDBRANCH   2   3
ENDBRANCH   1   2
BRANCH   1   7
ATOM      7  C   UNL     1       6.573   3.140  -0.280  1.00  0.00     0.000 C 
BRANCH   7   8
ATOM      8  C   UNL     1       7.896   3.611   0.336  1.00  0.00    -0.000 C 
BRANCH   8   9
ATOM      9  C   UNL     1       7.666   4.778   1.308  1.00  0.00    -0.000 C 
BRANCH   9  10
ATOM     10  C   UNL     1       7.478   6.120   0.584  1.00  0.00    -0.003 C 
ATOM     11  C   UNL     1       7.631   7.321   1.516  1.00  0.00     0.004 C 
ENDBRANCH   9  10
ENDBRANCH   8   9
ENDBRANCH   7   8
ENDBRANCH   1   7
TORSDOF 7
ENDMDL
MODEL 2
REMARK VINA RESULT:    -4.114      3.275      5.597
REMARK INTER + INTRA:          -6.083
REMARK INTER:                  -5.631
REMARK INTRA:                  -0.452
REMARK UNBOUND:                -0.285
REMARK SMILES CCCCCCCCC(=O)[O-]
REMARK SMILES IDX 6 1 7 2 8 3 9 4 10 5 11 6 5 7 4 8 3 9 2 10 1 11
REMARK H PARENT
REMARK Flexibility Score: inf
ROOT
ATOM      1  C   UNL     1       6.710   3.475   0.024  1.00  0.00     0.000 C 
ENDROOT
BRANCH   1   2
ATOM      2  C   UNL     1       7.443   4.245   1.134  1.00  0.00     0.006 C 
BRANCH   2   3
ATOM      3  C   UNL     1       8.263   5.424   0.594  1.00  0.00     0.053 C 
BRANCH   3   4
ATOM      4  C   UNL     1       7.456   6.684   0.638  1.00  0.00     0.041 C 
ATOM      5  O   UNL     1       7.148   7.201   1.743  1.00  0.00    -0.550 OA
ATOM      6  O   UNL     1       7.004   7.260  -0.543  1.00  0.00    -0.550 OA
ENDBRANCH   3   4
ENDBRANCH   2   3
ENDBRANCH   1   2
BRANCH   1   7
ATOM      7  C   UNL     1       6.005   2.214   0.545  1.00  0.00     0.000 C 
BRANCH   7   8
ATOM      8  C   UNL     1       6.154   1.053  -0.445  1.00  0.00    -0.000 C 
BRANCH   8   9
ATOM      9  C   UNL     1       6.613   1.559  -1.821  1.00  0.00    -0.000 C 
BRANCH   9  10
ATOM     10  C   UNL     1       7.925   0.905  -2.283  1.00  0.00    -0.003 C 
ATOM     11  C   UNL     1       9.124   1.846  -2.177  1.00  0.00     0.004 C 
ENDBRANCH   9  10
ENDBRANCH   8   9
ENDBRANCH   7   8
ENDBRANCH   1   7
TORSDOF 7
ENDMDL
MODEL 3
REMARK VINA RESULT:    -4.111      3.025      5.755
REMARK INTER + INTRA:          -6.079
REMARK INTER:                  -5.761
REMARK INTRA:                  -0.318
REMARK UNBOUND:                -0.285
REMARK SMILES CCCCCCCCC(=O)[O-]
REMARK SMILES IDX 6 1 7 2 8 3 9 4 10 5 11 6 5 7 4 8 3 9 2 10 1 11
REMARK H PARENT
REMARK Flexibility Score: inf
ROOT
ATOM      1  C   UNL     1       5.928   1.909   0.424  1.00  0.00     0.000 C 
ENDROOT
BRANCH   1   2
ATOM      2  C   UNL     1       6.541   3.141  -0.261  1.00  0.00     0.006 C 
BRANCH   2   3
ATOM      3  C   UNL     1       7.831   3.615   0.419  1.00  0.00     0.053 C 
BRANCH   3   4
ATOM      4  C   UNL     1       7.647   4.987   0.990  1.00  0.00     0.041 C 
ATOM      5  O   UNL     1       7.036   5.869   0.333  1.00  0.00    -0.550 OA
ATOM      6  O   UNL     1       8.194   5.303   2.227  1.00  0.00    -0.550 OA
ENDBRANCH   3   4
ENDBRANCH   2   3
ENDBRANCH   1   2
BRANCH   1   7
ATOM      7  C   UNL     1       6.047   0.638  -0.429  1.00  0.00     0.000 C 
BRANCH   7   8
ATOM      8  C   UNL     1       6.504   0.973  -1.854  1.00  0.00    -0.000 C 
BRANCH   8   9
ATOM      9  C   UNL     1       7.885   0.367  -2.146  1.00  0.00    -0.000 C 
BRANCH   9  10
ATOM     10  C   UNL     1       8.271   0.466  -3.630  1.00  0.00    -0.003 C 
ATOM     11  C   UNL     1       8.322  -0.896  -4.321  1.00  0.00     0.004 C 
ENDBRANCH   9  10
ENDBRANCH   8   9
ENDBRANCH   7   8
ENDBRANCH   1   7
TORSDOF 7
ENDMDL
MODEL 4
REMARK VINA RESULT:    -4.047     13.766     14.943
REMARK INTER + INTRA:          -5.989
REMARK INTER:                  -5.639
REMARK INTRA:                  -0.349
REMARK UNBOUND:                -0.285
REMARK SMILES CCCCCCCCC(=O)[O-]
REMARK SMILES IDX 6 1 7 2 8 3 9 4 10 5 11 6 5 7 4 8 3 9 2 10 1 11
REMARK H PARENT
REMARK Flexibility Score: inf
ROOT
ATOM      1  C   UNL     1      -2.042  -5.729  -5.488  1.00  0.00     0.000 C 
ENDROOT
BRANCH   1   2
ATOM      2  C   UNL     1      -2.784  -4.835  -6.493  1.00  0.00     0.006 C 
BRANCH   2   3
ATOM      3  C   UNL     1      -4.001  -5.529  -7.117  1.00  0.00     0.053 C 
BRANCH   3   4
ATOM      4  C   UNL     1      -5.268  -4.964  -6.555  1.00  0.00     0.041 C 
ATOM      5  O   UNL     1      -6.107  -5.720  -6.001  1.00  0.00    -0.550 OA
ATOM      6  O   UNL     1      -5.544  -3.609  -6.689  1.00  0.00    -0.550 OA
ENDBRANCH   3   4
ENDBRANCH   2   3
ENDBRANCH   1   2
BRANCH   1   7
ATOM      7  C   UNL     1      -2.496  -7.195  -5.552  1.00  0.00     0.000 C 
BRANCH   7   8
ATOM      8  C   UNL     1      -1.498  -8.045  -6.348  1.00  0.00    -0.000 C 
BRANCH   8   9
ATOM      9  C   UNL     1      -0.088  -7.439  -6.286  1.00  0.00    -0.000 C 
BRANCH   9  10
ATOM     10  C   UNL     1       1.016  -8.506  -6.343  1.00  0.00    -0.003 C 
ATOM     11  C   UNL     1       2.394  -7.917  -6.640  1.00  0.00     0.004 C 
ENDBRANCH   9  10
ENDBRANCH   8   9
ENDBRANCH   7   8
ENDBRANCH   1   7
TORSDOF 7
ENDMDL
MODEL 5
REMARK VINA RESULT:    -4.046     11.640     13.054
REMARK INTER + INTRA:          -5.986
REMARK INTER:                  -5.369
REMARK INTRA:                  -0.617
REMARK UNBOUND:                -0.285
REMARK SMILES CCCCCCCCC(=O)[O-]
REMARK SMILES IDX 6 1 7 2 8 3 9 4 10 5 11 6 5 7 4 8 3 9 2 10 1 11
REMARK H PARENT
REMARK Flexibility Score: inf
ROOT
ATOM      1  C   UNL     1       1.710   5.493  11.367  1.00  0.00     0.000 C 
ENDROOT
BRANCH   1   2
ATOM      2  C   UNL     1       1.348   5.692   9.887  1.00  0.00     0.006 C 
BRANCH   2   3
ATOM      3  C   UNL     1       1.452   7.156   9.443  1.00  0.00     0.053 C 
BRANCH   3   4
ATOM      4  C   UNL     1       2.731   7.388   8.703  1.00  0.00     0.041 C 
ATOM      5  O   UNL     1       2.713   7.878   7.544  1.00  0.00    -0.550 OA
ATOM      6  O   UNL     1       3.942   7.018   9.275  1.00  0.00    -0.550 OA
ENDBRANCH   3   4
ENDBRANCH   2   3
ENDBRANCH   1   2
BRANCH   1   7
ATOM      7  C   UNL     1       2.884   4.522  11.564  1.00  0.00     0.000 C 
BRANCH   7   8
ATOM      8  C   UNL     1       3.005   3.559  10.377  1.00  0.00    -0.000 C 
BRANCH   8   9
ATOM      9  C   UNL     1       2.514   2.154  10.756  1.00  0.00    -0.000 C 
BRANCH   9  10
ATOM     10  C   UNL     1       1.004   1.977  10.536  1.00  0.00    -0.003 C 
ATOM     11  C   UNL     1       0.207   2.015  11.839  1.00  0.00     0.004 C 
ENDBRANCH   9  10
ENDBRANCH   8   9
ENDBRANCH   7   8
ENDBRANCH   1   7
TORSDOF 7
ENDMDL
MODEL 6
REMARK VINA RESULT:    -3.971     19.706     20.915
REMARK INTER + INTRA:          -5.881
REMARK INTER:                  -5.201
REMARK INTRA:                  -0.680
REMARK UNBOUND:                -0.285
REMARK SMILES CCCCCCCCC(=O)[O-]
REMARK SMILES IDX 6 1 7 2 8 3 9 4 10 5 11 6 5 7 4 8 3 9 2 10 1 11
REMARK H PARENT
REMARK Flexibility Score: inf
ROOT
ATOM      1  C   UNL     1     -10.807  -6.523   4.466  1.00  0.00     0.000 C 
ENDROOT
BRANCH   1   2
ATOM      2  C   UNL     1     -10.700  -4.993   4.370  1.00  0.00     0.006 C 
BRANCH   2   3
ATOM      3  C   UNL     1     -10.871  -4.302   5.728  1.00  0.00     0.053 C 
BRANCH   3   4
ATOM      4  C   UNL     1      -9.895  -4.851   6.721  1.00  0.00     0.041 C 
ATOM      5  O   UNL     1     -10.305  -5.380   7.786  1.00  0.00    -0.550 OA
ATOM      6  O   UNL     1      -8.530  -4.732   6.491  1.00  0.00    -0.550 OA
ENDBRANCH   3   4
ENDBRANCH   2   3
ENDBRANCH   1   2
BRANCH   1   7
ATOM      7  C   UNL     1      -9.628  -7.241   3.793  1.00  0.00     0.000 C 
BRANCH   7   8
ATOM      8  C   UNL     1      -8.606  -7.714   4.835  1.00  0.00    -0.000 C 
BRANCH   8   9
ATOM      9  C   UNL     1      -9.125  -8.943   5.595  1.00  0.00    -0.000 C 
BRANCH   9  10
ATOM     10  C   UNL     1      -9.231  -8.699   7.108  1.00  0.00    -0.003 C 
ATOM     11  C   UNL     1     -10.663  -8.822   7.629  1.00  0.00     0.004 C 
ENDBRANCH   9  10
ENDBRANCH   8   9
ENDBRANCH   7   8
ENDBRANCH   1   7
TORSDOF 7
ENDMDL
MODEL 7
REMARK VINA RESULT:    -3.931     11.730     13.312
REMARK INTER + INTRA:          -5.824
REMARK INTER:                  -5.510
REMARK INTRA:                  -0.315
REMARK UNBOUND:                -0.285
REMARK SMILES CCCCCCCCC(=O)[O-]
REMARK SMILES IDX 6 1 7 2 8 3 9 4 10 5 11 6 5 7 4 8 3 9 2 10 1 11
REMARK H PARENT
REMARK Flexibility Score: inf
ROOT
ATOM      1  C   UNL     1       1.617   4.871  10.833  1.00  0.00     0.000 C 
ENDROOT
BRANCH   1   2
ATOM      2  C   UNL     1       1.365   6.136   9.997  1.00  0.00     0.006 C 
BRANCH   2   3
ATOM      3  C   UNL     1       2.632   6.649   9.302  1.00  0.00     0.053 C 
BRANCH   3   4
ATOM      4  C   UNL     1       2.287   7.704   8.299  1.00  0.00     0.041 C 
ATOM      5  O   UNL     1       3.135   8.065   7.442  1.00  0.00    -0.550 OA
ATOM      6  O   UNL     1       1.044   8.324   8.342  1.00  0.00    -0.550 OA
ENDBRANCH   3   4
ENDBRANCH   2   3
ENDBRANCH   1   2
BRANCH   1   7
ATOM      7  C   UNL     1       2.690   3.960  10.218  1.00  0.00     0.000 C 
BRANCH   7   8
ATOM      8  C   UNL     1       2.379   2.484  10.493  1.00  0.00    -0.000 C 
BRANCH   8   9
ATOM      9  C   UNL     1       0.908   2.296  10.891  1.00  0.00    -0.000 C 
BRANCH   9  10
ATOM     10  C   UNL     1       0.749   1.689  12.294  1.00  0.00    -0.003 C 
ATOM     11  C   UNL     1      -0.710   1.603  12.740  1.00  0.00     0.004 C 
ENDBRANCH   9  10
ENDBRANCH   8   9
ENDBRANCH   7   8
ENDBRANCH   1   7
TORSDOF 7
ENDMDL
MODEL 8
REMARK VINA RESULT:    -3.833     19.428     20.467
REMARK INTER + INTRA:          -5.687
REMARK INTER:                  -5.316
REMARK INTRA:                  -0.371
REMARK UNBOUND:                -0.285
REMARK SMILES CCCCCCCCC(=O)[O-]
REMARK SMILES IDX 6 1 7 2 8 3 9 4 10 5 11 6 5 7 4 8 3 9 2 10 1 11
REMARK H PARENT
REMARK Flexibility Score: inf
ROOT
ATOM      1  C   UNL     1     -11.124  -5.883   4.743  1.00  0.00     0.000 C 
ENDROOT
BRANCH   1   2
ATOM      2  C   UNL     1     -10.395  -6.258   3.443  1.00  0.00     0.006 C 
BRANCH   2   3
ATOM      3  C   UNL     1      -9.424  -7.431   3.627  1.00  0.00     0.053 C 
BRANCH   3   4
ATOM      4  C   UNL     1      -8.623  -7.255   4.879  1.00  0.00     0.041 C 
ATOM      5  O   UNL     1      -7.627  -6.487   4.891  1.00  0.00    -0.550 OA
ATOM      6  O   UNL     1      -8.949  -7.979   6.019  1.00  0.00    -0.550 OA
ENDBRANCH   3   4
ENDBRANCH   2   3
ENDBRANCH   1   2
BRANCH   1   7
ATOM      7  C   UNL     1     -10.803  -4.455   5.210  1.00  0.00     0.000 C 
BRANCH   7   8
ATOM      8  C   UNL     1     -11.125  -4.279   6.699  1.00  0.00    -0.000 C 
BRANCH   8   9
ATOM      9  C   UNL     1     -10.126  -5.051   7.573  1.00  0.00    -0.000 C 
BRANCH   9  10
ATOM     10  C   UNL     1     -10.819  -5.928   8.627  1.00  0.00    -0.003 C 
ATOM     11  C   UNL     1     -10.737  -5.338  10.034  1.00  0.00     0.004 C 
ENDBRANCH   9  10
ENDBRANCH   8   9
ENDBRANCH   7   8
ENDBRANCH   1   7
TORSDOF 7
ENDMDL
MODEL 9
REMARK VINA RESULT:    -3.787      1.490      2.486
REMARK INTER + INTRA:          -5.622
REMARK INTER:                  -5.374
REMARK INTRA:                  -0.248
REMARK UNBOUND:                -0.285
REMARK SMILES CCCCCCCCC(=O)[O-]
REMARK SMILES IDX 6 1 7 2 8 3 9 4 10 5 11 6 5 7 4 8 3 9 2 10 1 11
REMARK H PARENT
REMARK Flexibility Score: inf
ROOT
ATOM      1  C   UNL     1       7.261   3.855  -0.003  1.00  0.00     0.000 C 
ENDROOT
BRANCH   1   2
ATOM      2  C   UNL     1       8.391   2.846  -0.258  1.00  0.00     0.006 C 
BRANCH   2   3
ATOM      3  C   UNL     1       8.260   2.140  -1.613  1.00  0.00     0.053 C 
BRANCH   3   4
ATOM      4  C   UNL     1       6.911   1.506  -1.743  1.00  0.00     0.041 C 
ATOM      5  O   UNL     1       6.175   1.779  -2.727  1.00  0.00    -0.550 OA
ATOM      6  O   UNL     1       6.446   0.652  -0.751  1.00  0.00    -0.550 OA
ENDBRANCH   3   4
ENDBRANCH   2   3
ENDBRANCH   1   2
BRANCH   1   7
ATOM      7  C   UNL     1       7.622   4.889   1.074  1.00  0.00     0.000 C 
BRANCH   7   8
ATOM      8  C   UNL     1       7.275   6.309   0.610  1.00  0.00    -0.000 C 
BRANCH   8   9
ATOM      9  C   UNL     1       7.866   7.358   1.564  1.00  0.00    -0.000 C 
BRANCH   9  10
ATOM     10  C   UNL     1       8.407   8.590   0.823  1.00  0.00    -0.003 C 
ATOM     11  C   UNL     1       8.499   8.379  -0.688  1.00  0.00     0.004 C 
ENDBRANCH   9  10
ENDBRANCH   8   9
ENDBRANCH   7   8
ENDBRANCH   1   7
TORSDOF 7
ENDMDL
