MODEL 1
REMARK VINA RESULT:    -4.631      0.000      0.000
REMARK INTER + INTRA:          -6.859
REMARK INTER:                  -6.255
REMARK INTRA:                  -0.604
REMARK UNBOUND:                -0.604
REMARK SMILES CCCCCCC=CC(=O)[O-]
REMARK SMILES IDX 5 1 6 2 7 3 8 4 9 5 10 6 11 7 4 8 3 9 2 10 1 11
REMARK H PARENT
REMARK Flexibility Score: inf
ROOT
ATOM      1  C   UNL     1       8.449   1.466   1.987  1.00  0.00     0.004 C 
ENDROOT
BRANCH   1   2
ATOM      2  C   UNL     1       7.714   0.129   1.818  1.00  0.00     0.027 C 
BRANCH   2   3
ATOM      3  C   UNL     1       6.269   0.342   1.463  1.00  0.00    -0.025 C 
ATOM      4  C   UNL     1       5.327  -0.612   1.372  1.00  0.00     0.020 C 
BRANCH   4   5
ATOM      5  C   UNL     1       5.524  -2.065   1.560  1.00  0.00     0.064 C 
ATOM      6  O   UNL     1       5.453  -2.822   0.557  1.00  0.00    -0.545 OA
ATOM      7  O   UNL     1       5.811  -2.621   2.800  1.00  0.00    -0.545 OA
ENDBRANCH   4   5
ENDBRANCH   2   3
ENDBRANCH   1   2
BRANCH   1   8
ATOM      8  C   UNL     1       7.485   2.647   1.823  1.00  0.00     0.000 C 
BRANCH   8   9
ATOM      9  C   UNL     1       7.865   3.506   0.611  1.00  0.00    -0.000 C 
BRANCH   9  10
ATOM     10  C   UNL     1       6.677   3.671  -0.343  1.00  0.00    -0.003 C 
ATOM     11  C   UNL     1       6.704   2.616  -1.445  1.00  0.00     0.004 C 
ENDBRANCH   9  10
ENDBRANCH   8   9
ENDBRANCH   1   8
TORSDOF 6
ENDMDL
MODEL 2
REMARK VINA RESULT:    -4.630      1.420      1.817
REMARK INTER + INTRA:          -6.858
REMARK INTER:                  -6.404
REMARK INTRA:                  -0.453
REMARK UNBOUND:                -0.604
REMARK SMILES CCCCCCC=CC(=O)[O-]
REMARK SMILES IDX 5 1 6 2 7 3 8 4 9 5 10 6 11 7 4 8 3 9 2 10 1 11
REMARK H PARENT
REMARK Flexibility Score: inf
ROOT
ATOM      1  C   UNL     1       6.752   1.112   2.319  1.00  0.00     0.004 C 
ENDROOT
BRANCH   1   2
ATOM      2  C   UNL     1       5.406   0.375   2.294  1.00  0.00     0.027 C 
BRANCH   2   3
ATOM      3  C   UNL     1       5.481  -0.866   1.448  1.00  0.00    -0.025 C 
ATOM      4  C   UNL     1       5.880  -2.082   1.860  1.00  0.00     0.020 C 
BRANCH   4   5
ATOM      5  C   UNL     1       6.367  -2.438   3.209  1.00  0.00     0.064 C 
ATOM      6  O   UNL     1       5.550  -2.899   4.048  1.00  0.00    -0.545 OA
ATOM      7  O   UNL     1       7.701  -2.307   3.576  1.00  0.00    -0.545 OA
ENDBRANCH   4   5
ENDBRANCH   2   3
ENDBRANCH   1   2
BRANCH   1   8
ATOM      8  C   UNL     1       7.199   1.486   0.901  1.00  0.00     0.000 C 
BRANCH   8   9
ATOM      9  C   UNL     1       7.531   2.980   0.803  1.00  0.00    -0.000 C 
BRANCH   9  10
ATOM     10  C   UNL     1       6.884   3.608  -0.437  1.00  0.00    -0.003 C 
ATOM     11  C   UNL     1       6.677   2.570  -1.536  1.00  0.00     0.004 C 
ENDBRANCH   9  10
ENDBRANCH   8   9
ENDBRANCH   1   8
TORSDOF 6
ENDMDL
MODEL 3
REMARK VINA RESULT:    -4.604      3.011      4.135
REMARK INTER + INTRA:          -6.823
REMARK INTER:                  -6.008
REMARK INTRA:                  -0.815
REMARK UNBOUND:                -0.604
REMARK SMILES CCCCCCC=CC(=O)[O-]
REMARK SMILES IDX 5 1 6 2 7 3 8 4 9 5 10 6 11 7 4 8 3 9 2 10 1 11
REMARK H PARENT
REMARK Flexibility Score: inf
ROOT
ATOM      1  C   UNL     1       7.687  -3.002   3.757  1.00  0.00     0.004 C 
ENDROOT
BRANCH   1   2
ATOM      2  C   UNL     1       6.333  -2.326   3.502  1.00  0.00     0.027 C 
BRANCH   2   3
ATOM      3  C   UNL     1       5.933  -2.434   2.057  1.00  0.00    -0.025 C 
ATOM      4  C   UNL     1       5.502  -1.427   1.278  1.00  0.00     0.020 C 
BRANCH   4   5
ATOM      5  C   UNL     1       5.293  -0.023   1.689  1.00  0.00     0.064 C 
ATOM      6  O   UNL     1       6.108   0.852   1.300  1.00  0.00    -0.545 OA
ATOM      7  O   UNL     1       4.212   0.369   2.470  1.00  0.00    -0.545 OA
ENDBRANCH   4   5
ENDBRANCH   2   3
ENDBRANCH   1   2
BRANCH   1   8
ATOM      8  C   UNL     1       8.805  -1.961   3.885  1.00  0.00     0.000 C 
BRANCH   8   9
ATOM      9  C   UNL     1       8.241  -0.591   4.282  1.00  0.00    -0.000 C 
BRANCH   9  10
ATOM     10  C   UNL     1       8.867   0.527   3.441  1.00  0.00    -0.003 C 
ATOM     11  C   UNL     1       9.496  -0.027   2.167  1.00  0.00     0.004 C 
ENDBRANCH   9  10
ENDBRANCH   8   9
ENDBRANCH   1   8
TORSDOF 6
ENDMDL
MODEL 4
REMARK VINA RESULT:    -4.564      1.254      1.566
REMARK INTER + INTRA:          -6.769
REMARK INTER:                  -6.262
REMARK INTRA:                  -0.507
REMARK UNBOUND:                -0.604
REMARK SMILES CCCCCCC=CC(=O)[O-]
REMARK SMILES IDX 5 1 6 2 7 3 8 4 9 5 10 6 11 7 4 8 3 9 2 10 1 11
REMARK H PARENT
REMARK Flexibility Score: inf
ROOT
ATOM      1  C   UNL     1       8.359   1.671   2.175  1.00  0.00     0.004 C 
ENDROOT
BRANCH   1   2
ATOM      2  C   UNL     1       8.235   0.243   1.628  1.00  0.00     0.027 C 
BRANCH   2   3
ATOM      3  C   UNL     1       7.851  -0.725   2.712  1.00  0.00    -0.025 C 
ATOM      4  C   UNL     1       6.737  -1.477   2.744  1.00  0.00     0.020 C 
BRANCH   4   5
ATOM      5  C   UNL     1       5.646  -1.477   1.747  1.00  0.00     0.064 C 
ATOM      6  O   UNL     1       5.522  -2.468   0.982  1.00  0.00    -0.545 OA
ATOM      7  O   UNL     1       4.737  -0.432   1.641  1.00  0.00    -0.545 OA
ENDBRANCH   4   5
ENDBRANCH   2   3
ENDBRANCH   1   2
BRANCH   1   8
ATOM      8  C   UNL     1       7.526   2.653   1.343  1.00  0.00     0.000 C 
BRANCH   8   9
ATOM      9  C   UNL     1       6.818   1.935   0.187  1.00  0.00    -0.000 C 
BRANCH   9  10
ATOM     10  C   UNL     1       6.637   2.869  -1.014  1.00  0.00    -0.003 C 
ATOM     11  C   UNL     1       6.701   4.333  -0.588  1.00  0.00     0.004 C 
ENDBRANCH   9  10
ENDBRANCH   8   9
ENDBRANCH   1   8
TORSDOF 6
ENDMDL
MODEL 5
REMARK VINA RESULT:    -4.523      2.803      4.855
REMARK INTER + INTRA:          -6.713
REMARK INTER:                  -6.244
REMARK INTRA:                  -0.469
REMARK UNBOUND:                -0.604
REMARK SMILES CCCCCCC=CC(=O)[O-]
REMARK SMILES IDX 5 1 6 2 7 3 8 4 9 5 10 6 11 7 4 8 3 9 2 10 1 11
REMARK H PARENT
REMARK Flexibility Score: inf
ROOT
ATOM      1  C   UNL     1       7.080   1.555   2.716  1.00  0.00     0.004 C 
ENDROOT
BRANCH   1   2
ATOM      2  C   UNL     1       7.995   1.873   1.525  1.00  0.00     0.027 C 
BRANCH   2   3
ATOM      3  C   UNL     1       7.903   3.323   1.139  1.00  0.00    -0.025 C 
ATOM      4  C   UNL     1       7.176   3.827   0.128  1.00  0.00     0.020 C 
BRANCH   4   5
ATOM      5  C   UNL     1       6.355   3.062  -0.834  1.00  0.00     0.064 C 
ATOM      6  O   UNL     1       5.101   3.138  -0.758  1.00  0.00    -0.545 OA
ATOM      7  O   UNL     1       6.918   2.282  -1.836  1.00  0.00    -0.545 OA
ENDBRANCH   4   5
ENDBRANCH   2   3
ENDBRANCH   1   2
BRANCH   1   8
ATOM      8  C   UNL     1       6.610   0.096   2.672  1.00  0.00     0.000 C 
BRANCH   8   9
ATOM      9  C   UNL     1       5.871  -0.206   1.363  1.00  0.00    -0.000 C 
BRANCH   9  10
ATOM     10  C   UNL     1       5.518  -1.694   1.261  1.00  0.00    -0.003 C 
ATOM     11  C   UNL     1       6.067  -2.474   2.451  1.00  0.00     0.004 C 
ENDBRANCH   9  10
ENDBRANCH   8   9
ENDBRANCH   1   8
TORSDOF 6
ENDMDL
MODEL 6
REMARK VINA RESULT:    -4.371      2.357      4.445
REMARK INTER + INTRA:          -6.509
REMARK INTER:                  -5.945
REMARK INTRA:                  -0.564
REMARK UNBOUND:                -0.604
REMARK SMILES CCCCCCC=CC(=O)[O-]
REMARK SMILES IDX 5 1 6 2 7 3 8 4 9 5 10 6 11 7 4 8 3 9 2 10 1 11
REMARK H PARENT
REMARK Flexibility Score: inf
ROOT
ATOM      1  C   UNL     1       9.290   0.043   2.226  1.00  0.00     0.004 C 
ENDROOT
BRANCH   1   2
ATOM      2  C   UNL     1       8.105   0.944   2.601  1.00  0.00     0.027 C 
BRANCH   2   3
ATOM      3  C   UNL     1       7.357   1.397   1.378  1.00  0.00    -0.025 C 
ATOM      4  C   UNL     1       6.165   0.935   0.963  1.00  0.00     0.020 C 
BRANCH   4   5
ATOM      5  C   UNL     1       5.369  -0.138   1.594  1.00  0.00     0.064 C 
ATOM      6  O   UNL     1       4.488   0.174   2.437  1.00  0.00    -0.545 OA
ATOM      7  O   UNL     1       5.541  -1.479   1.272  1.00  0.00    -0.545 OA
ENDBRANCH   4   5
ENDBRANCH   2   3
ENDBRANCH   1   2
BRANCH   1   8
ATOM      8  C   UNL     1       9.582  -0.971   3.337  1.00  0.00     0.000 C 
BRANCH   8   9
ATOM      9  C   UNL     1       8.322  -1.267   4.160  1.00  0.00    -0.000 C 
BRANCH   9  10
ATOM     10  C   UNL     1       7.694  -2.602   3.745  1.00  0.00    -0.003 C 
ATOM     11  C   UNL     1       8.648  -3.764   4.005  1.00  0.00     0.004 C 
ENDBRANCH   9  10
ENDBRANCH   8   9
ENDBRANCH   1   8
TORSDOF 6
ENDMDL
MODEL 7
REMARK VINA RESULT:    -4.306      3.444      5.222
REMARK INTER + INTRA:          -6.420
REMARK INTER:                  -6.091
REMARK INTRA:                  -0.329
REMARK UNBOUND:                -0.604
REMARK SMILES CCCCCCC=CC(=O)[O-]
REMARK SMILES IDX 5 1 6 2 7 3 8 4 9 5 10 6 11 7 4 8 3 9 2 10 1 11
REMARK H PARENT
REMARK Flexibility Score: inf
ROOT
ATOM      1  C   UNL     1       8.981   1.106   2.923  1.00  0.00     0.004 C 
ENDROOT
BRANCH   1   2
ATOM      2  C   UNL     1       8.246   1.958   1.879  1.00  0.00     0.027 C 
BRANCH   2   3
ATOM      3  C   UNL     1       6.938   1.330   1.485  1.00  0.00    -0.025 C 
ATOM      4  C   UNL     1       6.215   1.628   0.393  1.00  0.00     0.020 C 
BRANCH   4   5
ATOM      5  C   UNL     1       6.531   2.658  -0.619  1.00  0.00     0.064 C 
ATOM      6  O   UNL     1       6.860   2.291  -1.777  1.00  0.00    -0.545 OA
ATOM      7  O   UNL     1       6.452   4.017  -0.345  1.00  0.00    -0.545 OA
ENDBRANCH   4   5
ENDBRANCH   2   3
ENDBRANCH   1   2
BRANCH   1   8
ATOM      8  C   UNL     1       9.568  -0.158   2.285  1.00  0.00     0.000 C 
BRANCH   8   9
ATOM      9  C   UNL     1      10.090  -1.126   3.355  1.00  0.00    -0.000 C 
BRANCH   9  10
ATOM     10  C   UNL     1       8.936  -1.720   4.170  1.00  0.00    -0.003 C 
ATOM     11  C   UNL     1       8.933  -3.243   4.091  1.00  0.00     0.004 C 
ENDBRANCH   9  10
ENDBRANCH   8   9
ENDBRANCH   1   8
TORSDOF 6
ENDMDL
MODEL 8
REMARK VINA RESULT:    -4.215      2.336      3.191
REMARK INTER + INTRA:          -6.298
REMARK INTER:                  -5.914
REMARK INTRA:                  -0.384
REMARK UNBOUND:                -0.604
REMARK SMILES CCCCCCC=CC(=O)[O-]
REMARK SMILES IDX 5 1 6 2 7 3 8 4 9 5 10 6 11 7 4 8 3 9 2 10 1 11
REMARK H PARENT
REMARK Flexibility Score: inf
ROOT
ATOM      1  C   UNL     1       7.515   1.430   2.358  1.00  0.00     0.004 C 
ENDROOT
BRANCH   1   2
ATOM      2  C   UNL     1       8.048   0.101   1.805  1.00  0.00     0.027 C 
BRANCH   2   3
ATOM      3  C   UNL     1       9.500  -0.088   2.144  1.00  0.00    -0.025 C 
ATOM      4  C   UNL     1       9.990  -0.879   3.114  1.00  0.00     0.020 C 
BRANCH   4   5
ATOM      5  C   UNL     1       9.206  -1.689   4.070  1.00  0.00     0.064 C 
ATOM      6  O   UNL     1       8.782  -1.145   5.122  1.00  0.00    -0.545 OA
ATOM      7  O   UNL     1       8.899  -3.023   3.836  1.00  0.00    -0.545 OA
ENDBRANCH   4   5
ENDBRANCH   2   3
ENDBRANCH   1   2
BRANCH   1   8
ATOM      8  C   UNL     1       7.493   2.508   1.269  1.00  0.00     0.000 C 
BRANCH   8   9
ATOM      9  C   UNL     1       6.841   1.983  -0.015  1.00  0.00    -0.000 C 
BRANCH   9  10
ATOM     10  C   UNL     1       6.703   3.097  -1.059  1.00  0.00    -0.003 C 
ATOM     11  C   UNL     1       6.715   4.473  -0.401  1.00  0.00     0.004 C 
ENDBRANCH   9  10
ENDBRANCH   8   9
ENDBRANCH   1   8
TORSDOF 6
ENDMDL
MODEL 9
REMARK VINA RESULT:    -4.179      3.758      5.229
REMARK INTER + INTRA:          -6.249
REMARK INTER:                  -5.852
REMARK INTRA:                  -0.396
REMARK UNBOUND:                -0.604
REMARK SMILES CCCCCCC=CC(=O)[O-]
REMARK SMILES IDX 5 1 6 2 7 3 8 4 9 5 10 6 11 7 4 8 3 9 2 10 1 11
REMARK H PARENT
REMARK Flexibility Score: inf
ROOT
ATOM      1  C   UNL     1       7.303  -2.127   3.566  1.00  0.00     0.004 C 
ENDROOT
BRANCH   1   2
ATOM      2  C   UNL     1       8.277  -3.295   3.779  1.00  0.00     0.027 C 
BRANCH   2   3
ATOM      3  C   UNL     1       8.871  -3.264   5.160  1.00  0.00    -0.025 C 
ATOM      4  C   UNL     1       8.392  -3.903   6.241  1.00  0.00     0.020 C 
BRANCH   4   5
ATOM      5  C   UNL     1       7.168  -4.727   6.307  1.00  0.00     0.064 C 
ATOM      6  O   UNL     1       6.048  -4.153   6.317  1.00  0.00    -0.545 OA
ATOM      7  O   UNL     1       7.208  -6.116   6.333  1.00  0.00    -0.545 OA
ENDBRANCH   4   5
ENDBRANCH   2   3
ENDBRANCH   1   2
BRANCH   1   8
ATOM      8  C   UNL     1       6.046  -2.591   2.821  1.00  0.00     0.000 C 
BRANCH   8   9
ATOM      9  C   UNL     1       5.843  -1.789   1.529  1.00  0.00    -0.000 C 
BRANCH   9  10
ATOM     10  C   UNL     1       5.407  -0.352   1.836  1.00  0.00    -0.003 C 
ATOM     11  C   UNL     1       6.283   0.658   1.101  1.00  0.00     0.004 C 
ENDBRANCH   9  10
ENDBRANCH   8   9
ENDBRANCH   1   8
TORSDOF 6
ENDMDL
