MODEL 1
REMARK VINA RESULT:    -4.502      0.000      0.000
REMARK INTER + INTRA:          -6.239
REMARK INTER:                  -6.081
REMARK INTRA:                  -0.159
REMARK UNBOUND:                -0.159
REMARK SMILES [NH3+]CCCC[C@@H]([NH3+])C(=O)[O-]
REMARK SMILES IDX 4 1 3 2 2 3 1 4 5 8 6 9 7 10 8 14 9 15 10 16
REMARK H PARENT 1 5 1 6 1 7 7 11 7 12 7 13
REMARK Flexibility Score: inf
ROOT
ATOM      1  C   UNL     1      22.189   6.667  15.440  1.00  0.00     0.012 C 
ENDROOT
BRANCH   1   2
ATOM      2  C   UNL     1      21.965   8.186  15.443  1.00  0.00     0.061 C 
BRANCH   2   3
ATOM      3  C   UNL     1      23.262   8.975  15.198  1.00  0.00     0.258 C 
BRANCH   3   4
ATOM      4  N   UNL     1      23.019  10.413  15.071  1.00  0.00    -0.358 N 
ATOM      5  H   UNL     1      22.875  10.646  14.062  1.00  0.00     0.344 HD
ATOM      6  H   UNL     1      22.162  10.687  15.604  1.00  0.00     0.344 HD
ATOM      7  H   UNL     1      23.844  10.954  15.417  1.00  0.00     0.344 HD
ENDBRANCH   3   4
ENDBRANCH   2   3
ENDBRANCH   1   2
BRANCH   1   8
ATOM      8  C   UNL     1      23.641   6.329  15.056  1.00  0.00     0.072 C 
BRANCH   8   9
ATOM      9  C   UNL     1      24.386   5.460  16.095  1.00  0.00     0.227 C 
BRANCH   9  10
ATOM     10  N   UNL     1      24.278   4.026  15.795  1.00  0.00    -0.350 N 
ATOM     11  H   UNL     1      23.283   3.706  15.814  1.00  0.00     0.345 HD
ATOM     12  H   UNL     1      24.829   3.473  16.492  1.00  0.00     0.345 HD
ATOM     13  H   UNL     1      24.672   3.838  14.844  1.00  0.00     0.345 HD
ENDBRANCH   9  10
BRANCH   9  14
ATOM     14  C   UNL     1      25.827   5.883  16.241  1.00  0.00     0.099 C 
ATOM     15  O   UNL     1      26.520   5.430  17.189  1.00  0.00    -0.544 OA
ATOM     16  O   UNL     1      26.388   6.808  15.368  1.00  0.00    -0.544 OA
ENDBRANCH   9  14
ENDBRANCH   8   9
ENDBRANCH   1   8
TORSDOF 7
ENDMDL
MODEL 2
REMARK VINA RESULT:    -4.218      2.919      4.650
REMARK INTER + INTRA:          -5.856
REMARK INTER:                  -5.758
REMARK INTRA:                  -0.098
REMARK UNBOUND:                -0.159
REMARK SMILES [NH3+]CCCC[C@@H]([NH3+])C(=O)[O-]
REMARK SMILES IDX 4 1 3 2 2 3 1 4 5 8 6 9 7 10 8 14 9 15 10 16
REMARK H PARENT 1 5 1 6 1 7 7 11 7 12 7 13
REMARK Flexibility Score: inf
ROOT
ATOM      1  C   UNL     1      24.178   5.236  16.671  1.00  0.00     0.012 C 
ENDROOT
BRANCH   1   2
ATOM      2  C   UNL     1      25.698   5.387  16.822  1.00  0.00     0.061 C 
BRANCH   2   3
ATOM      3  C   UNL     1      26.161   5.280  18.284  1.00  0.00     0.258 C 
BRANCH   3   4
ATOM      4  N   UNL     1      25.178   4.597  19.127  1.00  0.00    -0.358 N 
ATOM      5  H   UNL     1      24.974   5.193  19.962  1.00  0.00     0.344 HD
ATOM      6  H   UNL     1      24.289   4.443  18.599  1.00  0.00     0.344 HD
ATOM      7  H   UNL     1      25.558   3.683  19.462  1.00  0.00     0.344 HD
ENDBRANCH   3   4
ENDBRANCH   2   3
ENDBRANCH   1   2
BRANCH   1   8
ATOM      8  C   UNL     1      23.741   5.525  15.224  1.00  0.00     0.072 C 
BRANCH   8   9
ATOM      9  C   UNL     1      23.583   7.028  14.897  1.00  0.00     0.227 C 
BRANCH   9  10
ATOM     10  N   UNL     1      23.784   7.307  13.468  1.00  0.00    -0.350 N 
ATOM     11  H   UNL     1      23.867   6.424  12.915  1.00  0.00     0.345 HD
ATOM     12  H   UNL     1      24.651   7.878  13.336  1.00  0.00     0.345 HD
ATOM     13  H   UNL     1      22.972   7.856  13.103  1.00  0.00     0.345 HD
ENDBRANCH   9  10
BRANCH   9  14
ATOM     14  C   UNL     1      22.258   7.564  15.380  1.00  0.00     0.099 C 
ATOM     15  O   UNL     1      22.101   8.805  15.528  1.00  0.00    -0.544 OA
ATOM     16  O   UNL     1      21.220   6.702  15.710  1.00  0.00    -0.544 OA
ENDBRANCH   9  14
ENDBRANCH   8   9
ENDBRANCH   1   8
TORSDOF 7
ENDMDL
MODEL 3
REMARK VINA RESULT:    -4.147      2.796      3.346
REMARK INTER + INTRA:          -5.760
REMARK INTER:                  -5.626
REMARK INTRA:                  -0.134
REMARK UNBOUND:                -0.159
REMARK SMILES [NH3+]CCCC[C@@H]([NH3+])C(=O)[O-]
REMARK SMILES IDX 4 1 3 2 2 3 1 4 5 8 6 9 7 10 8 14 9 15 10 16
REMARK H PARENT 1 5 1 6 1 7 7 11 7 12 7 13
REMARK Flexibility Score: inf
ROOT
ATOM      1  C   UNL     1      21.139   6.479  15.854  1.00  0.00     0.012 C 
ENDROOT
BRANCH   1   2
ATOM      2  C   UNL     1      20.919   6.437  17.374  1.00  0.00     0.061 C 
BRANCH   2   3
ATOM      3  C   UNL     1      19.493   6.003  17.752  1.00  0.00     0.258 C 
BRANCH   3   4
ATOM      4  N   UNL     1      18.527   6.288  16.690  1.00  0.00    -0.358 N 
ATOM      5  H   UNL     1      17.579   5.969  16.998  1.00  0.00     0.344 HD
ATOM      6  H   UNL     1      18.489   7.315  16.497  1.00  0.00     0.344 HD
ATOM      7  H   UNL     1      18.779   5.770  15.819  1.00  0.00     0.344 HD
ENDBRANCH   3   4
ENDBRANCH   2   3
ENDBRANCH   1   2
BRANCH   1   8
ATOM      8  C   UNL     1      22.351   7.360  15.502  1.00  0.00     0.072 C 
BRANCH   8   9
ATOM      9  C   UNL     1      23.423   6.650  14.643  1.00  0.00     0.227 C 
BRANCH   9  10
ATOM     10  N   UNL     1      23.979   7.535  13.610  1.00  0.00    -0.350 N 
ATOM     11  H   UNL     1      24.984   7.318  13.423  1.00  0.00     0.345 HD
ATOM     12  H   UNL     1      23.893   8.533  13.913  1.00  0.00     0.345 HD
ATOM     13  H   UNL     1      23.439   7.416  12.722  1.00  0.00     0.345 HD
ENDBRANCH   9  10
BRANCH   9  14
ATOM     14  C   UNL     1      24.512   6.052  15.498  1.00  0.00     0.099 C 
ATOM     15  O   UNL     1      24.249   5.089  16.267  1.00  0.00    -0.544 OA
ATOM     16  O   UNL     1      25.797   6.580  15.485  1.00  0.00    -0.544 OA
ENDBRANCH   9  14
ENDBRANCH   8   9
ENDBRANCH   1   8
TORSDOF 7
ENDMDL
MODEL 4
REMARK VINA RESULT:    -4.120      3.000      4.380
REMARK INTER + INTRA:          -5.723
REMARK INTER:                  -5.775
REMARK INTRA:                   0.051
REMARK UNBOUND:                -0.159
REMARK SMILES [NH3+]CCCC[C@@H]([NH3+])C(=O)[O-]
REMARK SMILES IDX 4 1 3 2 2 3 1 4 5 8 6 9 7 10 8 14 9 15 10 16
REMARK H PARENT 1 5 1 6 1 7 7 11 7 12 7 13
REMARK Flexibility Score: inf
ROOT
ATOM      1  C   UNL     1      24.667   5.512  16.638  1.00  0.00     0.012 C 
ENDROOT
BRANCH   1   2
ATOM      2  C   UNL     1      26.188   5.433  16.441  1.00  0.00     0.061 C 
BRANCH   2   3
ATOM      3  C   UNL     1      26.757   6.673  15.730  1.00  0.00     0.258 C 
BRANCH   3   4
ATOM      4  N   UNL     1      28.216   6.626  15.619  1.00  0.00    -0.358 N 
ATOM      5  H   UNL     1      28.588   7.604  15.615  1.00  0.00     0.344 HD
ATOM      6  H   UNL     1      28.628   6.113  16.431  1.00  0.00     0.344 HD
ATOM      7  H   UNL     1      28.499   6.165  14.724  1.00  0.00     0.344 HD
ENDBRANCH   3   4
ENDBRANCH   2   3
ENDBRANCH   1   2
BRANCH   1   8
ATOM      8  C   UNL     1      23.942   5.549  15.281  1.00  0.00     0.072 C 
BRANCH   8   9
ATOM      9  C   UNL     1      23.588   6.972  14.789  1.00  0.00     0.227 C 
BRANCH   9  10
ATOM     10  N   UNL     1      23.656   7.084  13.326  1.00  0.00    -0.350 N 
ATOM     11  H   UNL     1      24.110   6.244  12.899  1.00  0.00     0.345 HD
ATOM     12  H   UNL     1      24.196   7.939  13.059  1.00  0.00     0.345 HD
ATOM     13  H   UNL     1      22.688   7.174  12.938  1.00  0.00     0.345 HD
ENDBRANCH   9  10
BRANCH   9  14
ATOM     14  C   UNL     1      22.247   7.422  15.313  1.00  0.00     0.099 C 
ATOM     15  O   UNL     1      22.027   8.647  15.504  1.00  0.00    -0.544 OA
ATOM     16  O   UNL     1      21.262   6.495  15.635  1.00  0.00    -0.544 OA
ENDBRANCH   9  14
ENDBRANCH   8   9
ENDBRANCH   1   8
TORSDOF 7
ENDMDL
MODEL 5
REMARK VINA RESULT:    -4.110      1.491      1.850
REMARK INTER + INTRA:          -5.710
REMARK INTER:                  -5.203
REMARK INTRA:                  -0.507
REMARK UNBOUND:                -0.159
REMARK SMILES [NH3+]CCCC[C@@H]([NH3+])C(=O)[O-]
REMARK SMILES IDX 4 1 3 2 2 3 1 4 5 8 6 9 7 10 8 14 9 15 10 16
REMARK H PARENT 1 5 1 6 1 7 7 11 7 12 7 13
REMARK Flexibility Score: inf
ROOT
ATOM      1  C   UNL     1      21.848   7.591  15.077  1.00  0.00     0.012 C 
ENDROOT
BRANCH   1   2
ATOM      2  C   UNL     1      21.887   8.788  16.037  1.00  0.00     0.061 C 
BRANCH   2   3
ATOM      3  C   UNL     1      22.517  10.037  15.399  1.00  0.00     0.258 C 
BRANCH   3   4
ATOM      4  N   UNL     1      23.909   9.814  15.003  1.00  0.00    -0.358 N 
ATOM      5  H   UNL     1      23.963   8.942  14.428  1.00  0.00     0.344 HD
ATOM      6  H   UNL     1      24.258  10.616  14.429  1.00  0.00     0.344 HD
ATOM      7  H   UNL     1      24.513   9.689  15.846  1.00  0.00     0.344 HD
ENDBRANCH   3   4
ENDBRANCH   2   3
ENDBRANCH   1   2
BRANCH   1   8
ATOM      8  C   UNL     1      22.690   6.424  15.623  1.00  0.00     0.072 C 
BRANCH   8   9
ATOM      9  C   UNL     1      23.927   6.077  14.763  1.00  0.00     0.227 C 
BRANCH   9  10
ATOM     10  N   UNL     1      23.861   6.689  13.429  1.00  0.00    -0.350 N 
ATOM     11  H   UNL     1      24.775   6.609  12.926  1.00  0.00     0.345 HD
ATOM     12  H   UNL     1      23.603   7.699  13.512  1.00  0.00     0.345 HD
ATOM     13  H   UNL     1      23.125   6.209  12.861  1.00  0.00     0.345 HD
ENDBRANCH   9  10
BRANCH   9  14
ATOM     14  C   UNL     1      25.212   6.435  15.468  1.00  0.00     0.099 C 
ATOM     15  O   UNL     1      25.788   7.524  15.207  1.00  0.00    -0.544 OA
ATOM     16  O   UNL     1      25.796   5.554  16.371  1.00  0.00    -0.544 OA
ENDBRANCH   9  14
ENDBRANCH   8   9
ENDBRANCH   1   8
TORSDOF 7
ENDMDL
MODEL 6
REMARK VINA RESULT:    -3.995      3.227      4.244
REMARK INTER + INTRA:          -5.555
REMARK INTER:                  -5.466
REMARK INTRA:                  -0.089
REMARK UNBOUND:                -0.159
REMARK SMILES [NH3+]CCCC[C@@H]([NH3+])C(=O)[O-]
REMARK SMILES IDX 4 1 3 2 2 3 1 4 5 8 6 9 7 10 8 14 9 15 10 16
REMARK H PARENT 1 5 1 6 1 7 7 11 7 12 7 13
REMARK Flexibility Score: inf
ROOT
ATOM      1  C   UNL     1      25.833   5.875  16.132  1.00  0.00     0.012 C 
ENDROOT
BRANCH   1   2
ATOM      2  C   UNL     1      26.492   7.113  15.507  1.00  0.00     0.061 C 
BRANCH   2   3
ATOM      3  C   UNL     1      28.027   7.018  15.483  1.00  0.00     0.258 C 
BRANCH   3   4
ATOM      4  N   UNL     1      28.666   8.309  15.748  1.00  0.00    -0.358 N 
ATOM      5  H   UNL     1      27.962   9.070  15.608  1.00  0.00     0.344 HD
ATOM      6  H   UNL     1      29.013   8.348  16.734  1.00  0.00     0.344 HD
ATOM      7  H   UNL     1      29.456   8.467  15.084  1.00  0.00     0.344 HD
ENDBRANCH   3   4
ENDBRANCH   2   3
ENDBRANCH   1   2
BRANCH   1   8
ATOM      8  C   UNL     1      24.415   5.669  15.572  1.00  0.00     0.072 C 
BRANCH   8   9
ATOM      9  C   UNL     1      23.855   6.886  14.799  1.00  0.00     0.227 C 
BRANCH   9  10
ATOM     10  N   UNL     1      23.815   6.650  13.350  1.00  0.00    -0.350 N 
ATOM     11  H   UNL     1      23.531   5.668  13.131  1.00  0.00     0.345 HD
ATOM     12  H   UNL     1      24.755   6.837  12.932  1.00  0.00     0.345 HD
ATOM     13  H   UNL     1      23.126   7.303  12.909  1.00  0.00     0.345 HD
ENDBRANCH   9  10
BRANCH   9  14
ATOM     14  C   UNL     1      22.504   7.304  15.325  1.00  0.00     0.099 C 
ATOM     15  O   UNL     1      21.646   6.429  15.613  1.00  0.00    -0.544 OA
ATOM     16  O   UNL     1      22.175   8.648  15.453  1.00  0.00    -0.544 OA
ENDBRANCH   9  14
ENDBRANCH   8   9
ENDBRANCH   1   8
TORSDOF 7
ENDMDL
MODEL 7
REMARK VINA RESULT:    -3.969      1.748      2.019
REMARK INTER + INTRA:          -5.519
REMARK INTER:                  -5.479
REMARK INTRA:                  -0.040
REMARK UNBOUND:                -0.159
REMARK SMILES [NH3+]CCCC[C@@H]([NH3+])C(=O)[O-]
REMARK SMILES IDX 4 1 3 2 2 3 1 4 5 8 6 9 7 10 8 14 9 15 10 16
REMARK H PARENT 1 5 1 6 1 7 7 11 7 12 7 13
REMARK Flexibility Score: inf
ROOT
ATOM      1  C   UNL     1      23.358   7.680  15.169  1.00  0.00     0.012 C 
ENDROOT
BRANCH   1   2
ATOM      2  C   UNL     1      21.830   7.530  15.147  1.00  0.00     0.061 C 
BRANCH   2   3
ATOM      3  C   UNL     1      21.303   6.681  16.317  1.00  0.00     0.258 C 
BRANCH   3   4
ATOM      4  N   UNL     1      19.852   6.499  16.259  1.00  0.00    -0.358 N 
ATOM      5  H   UNL     1      19.644   5.557  15.854  1.00  0.00     0.344 HD
ATOM      6  H   UNL     1      19.439   6.551  17.218  1.00  0.00     0.344 HD
ATOM      7  H   UNL     1      19.418   7.223  15.643  1.00  0.00     0.344 HD
ENDBRANCH   3   4
ENDBRANCH   2   3
ENDBRANCH   1   2
BRANCH   1   8
ATOM      8  C   UNL     1      24.043   6.353  14.793  1.00  0.00     0.072 C 
BRANCH   8   9
ATOM      9  C   UNL     1      24.536   5.528  16.005  1.00  0.00     0.227 C 
BRANCH   9  10
ATOM     10  N   UNL     1      24.304   4.089  15.825  1.00  0.00    -0.350 N 
ATOM     11  H   UNL     1      24.560   3.778  14.860  1.00  0.00     0.345 HD
ATOM     12  H   UNL     1      23.298   3.865  16.002  1.00  0.00     0.345 HD
ATOM     13  H   UNL     1      24.883   3.554  16.513  1.00  0.00     0.345 HD
ENDBRANCH   9  10
BRANCH   9  14
ATOM     14  C   UNL     1      25.983   5.816  16.320  1.00  0.00     0.099 C 
ATOM     15  O   UNL     1      26.463   5.473  17.432  1.00  0.00    -0.544 OA
ATOM     16  O   UNL     1      26.785   6.501  15.414  1.00  0.00    -0.544 OA
ENDBRANCH   9  14
ENDBRANCH   8   9
ENDBRANCH   1   8
TORSDOF 7
ENDMDL
MODEL 8
REMARK VINA RESULT:    -3.847      2.779      4.189
REMARK INTER + INTRA:          -5.355
REMARK INTER:                  -5.146
REMARK INTRA:                  -0.209
REMARK UNBOUND:                -0.159
REMARK SMILES [NH3+]CCCC[C@@H]([NH3+])C(=O)[O-]
REMARK SMILES IDX 4 1 3 2 2 3 1 4 5 8 6 9 7 10 8 14 9 15 10 16
REMARK H PARENT 1 5 1 6 1 7 7 11 7 12 7 13
REMARK Flexibility Score: inf
ROOT
ATOM      1  C   UNL     1      24.114   5.556  15.765  1.00  0.00     0.012 C 
ENDROOT
BRANCH   1   2
ATOM      2  C   UNL     1      25.566   5.604  16.263  1.00  0.00     0.061 C 
BRANCH   2   3
ATOM      3  C   UNL     1      26.388   6.710  15.581  1.00  0.00     0.258 C 
BRANCH   3   4
ATOM      4  N   UNL     1      27.829   6.510  15.746  1.00  0.00    -0.358 N 
ATOM      5  H   UNL     1      28.043   5.491  15.650  1.00  0.00     0.344 HD
ATOM      6  H   UNL     1      28.357   7.035  15.012  1.00  0.00     0.344 HD
ATOM      7  H   UNL     1      28.134   6.821  16.696  1.00  0.00     0.344 HD
ENDBRANCH   3   4
ENDBRANCH   2   3
ENDBRANCH   1   2
BRANCH   1   8
ATOM      8  C   UNL     1      23.864   6.643  14.704  1.00  0.00     0.072 C 
BRANCH   8   9
ATOM      9  C   UNL     1      22.590   7.485  14.946  1.00  0.00     0.227 C 
BRANCH   9  10
ATOM     10  N   UNL     1      21.738   6.910  15.995  1.00  0.00    -0.350 N 
ATOM     11  H   UNL     1      21.522   7.612  16.739  1.00  0.00     0.345 HD
ATOM     12  H   UNL     1      22.214   6.085  16.428  1.00  0.00     0.345 HD
ATOM     13  H   UNL     1      20.838   6.583  15.572  1.00  0.00     0.345 HD
ENDBRANCH   9  10
BRANCH   9  14
ATOM     14  C   UNL     1      22.926   8.927  15.239  1.00  0.00     0.099 C 
ATOM     15  O   UNL     1      24.121   9.317  15.177  1.00  0.00    -0.544 OA
ATOM     16  O   UNL     1      21.936   9.822  15.626  1.00  0.00    -0.544 OA
ENDBRANCH   9  14
ENDBRANCH   8   9
ENDBRANCH   1   8
TORSDOF 7
ENDMDL
MODEL 9
REMARK VINA RESULT:    -3.583      3.507      4.250
REMARK INTER + INTRA:          -4.999
REMARK INTER:                  -4.905
REMARK INTRA:                  -0.093
REMARK UNBOUND:                -0.159
REMARK SMILES [NH3+]CCCC[C@@H]([NH3+])C(=O)[O-]
REMARK SMILES IDX 4 1 3 2 2 3 1 4 5 8 6 9 7 10 8 14 9 15 10 16
REMARK H PARENT 1 5 1 6 1 7 7 11 7 12 7 13
REMARK Flexibility Score: inf
ROOT
ATOM      1  C   UNL     1      25.690   9.214  15.141  1.00  0.00     0.012 C 
ENDROOT
BRANCH   1   2
ATOM      2  C   UNL     1      27.185   9.438  15.417  1.00  0.00     0.061 C 
BRANCH   2   3
ATOM      3  C   UNL     1      27.949   8.121  15.631  1.00  0.00     0.258 C 
BRANCH   3   4
ATOM      4  N   UNL     1      29.399   8.300  15.529  1.00  0.00    -0.358 N 
ATOM      5  H   UNL     1      29.868   7.383  15.711  1.00  0.00     0.344 HD
ATOM      6  H   UNL     1      29.660   8.626  14.570  1.00  0.00     0.344 HD
ATOM      7  H   UNL     1      29.733   8.986  16.243  1.00  0.00     0.344 HD
ENDBRANCH   3   4
ENDBRANCH   2   3
ENDBRANCH   1   2
BRANCH   1   8
ATOM      8  C   UNL     1      25.368   7.711  15.066  1.00  0.00     0.072 C 
BRANCH   8   9
ATOM      9  C   UNL     1      23.920   7.394  14.626  1.00  0.00     0.227 C 
BRANCH   9  10
ATOM     10  N   UNL     1      23.817   7.177  13.176  1.00  0.00    -0.350 N 
ATOM     11  H   UNL     1      24.102   8.029  12.642  1.00  0.00     0.345 HD
ATOM     12  H   UNL     1      22.834   6.925  12.923  1.00  0.00     0.345 HD
ATOM     13  H   UNL     1      24.440   6.384  12.898  1.00  0.00     0.345 HD
ENDBRANCH   9  10
BRANCH   9  14
ATOM     14  C   UNL     1      23.348   6.231  15.398  1.00  0.00     0.099 C 
ATOM     15  O   UNL     1      22.145   6.255  15.769  1.00  0.00    -0.544 OA
ATOM     16  O   UNL     1      24.147   5.148  15.747  1.00  0.00    -0.544 OA
ENDBRANCH   9  14
ENDBRANCH   8   9
ENDBRANCH   1   8
TORSDOF 7
ENDMDL
