MODEL 1
REMARK VINA RESULT:    -4.512      0.000      0.000
REMARK INTER + INTRA:          -4.644
REMARK INTER:                  -4.644
REMARK INTRA:                   0.000
REMARK UNBOUND:                 0.000
REMARK SMILES C=C1CCC[C@]2(C)C[C@@]3(O)OC(=O)C(C)=C3C[C@H]12
REMARK SMILES IDX 15 1 14 2 16 3 17 4 18 5 2 6 1 7 3 8 4 9 5 10 6 11 8 12 9 13
REMARK SMILES IDX 11 14 12 15 13 16 7 17 10 18
REMARK H PARENT 10 19
REMARK Flexibility Score: inf
ROOT
ATOM      1  C   UNL     1      58.405  40.000 126.625  1.00  0.00     0.052 C 
ATOM      2  C   UNL     1      58.112  39.563 125.223  1.00  0.00     0.040 C 
ATOM      3  C   UNL     1      57.150  38.729 124.829  1.00  0.00     0.012 C 
ATOM      4  C   UNL     1      56.105  38.090 125.685  1.00  0.00     0.047 C 
ATOM      5  C   UNL     1      54.709  38.577 125.242  1.00  0.00     0.025 C 
ATOM      6  C   UNL     1      53.648  37.797 126.000  1.00  0.00    -0.073 C 
ATOM      7  C   UNL     1      53.091  38.305 127.110  1.00  0.00     0.008 C 
ATOM      8  C   UNL     1      53.349  36.375 125.578  1.00  0.00     0.031 C 
ATOM      9  C   UNL     1      53.156  36.272 124.060  1.00  0.00     0.005 C 
ATOM     10  C   UNL     1      54.282  36.976 123.281  1.00  0.00     0.008 C 
ATOM     11  C   UNL     1      54.469  38.468 123.693  1.00  0.00    -0.019 C 
ATOM     12  C   UNL     1      55.649  39.114 122.887  1.00  0.00     0.092 C 
ATOM     13  C   UNL     1      57.058  38.670 123.332  1.00  0.00     0.235 C 
ATOM     14  O   UNL     1      58.053  39.602 122.905  1.00  0.00    -0.426 OA
ATOM     15  C   UNL     1      58.685  40.122 124.019  1.00  0.00     0.336 C 
ATOM     16  O   UNL     1      59.608  40.977 123.971  1.00  0.00    -0.246 OA
ATOM     17  C   UNL     1      53.191  39.268 123.320  1.00  0.00     0.012 C 
ENDROOT
BRANCH  13  18
ATOM     18  O   UNL     1      57.378  37.382 122.878  1.00  0.00    -0.353 OA
ATOM     19  H   UNL     1      57.155  36.756 123.614  1.00  0.00     0.215 HD
ENDBRANCH  13  18
TORSDOF 1
ENDMDL
MODEL 2
REMARK VINA RESULT:    -4.341      1.225      1.549
REMARK INTER + INTRA:          -4.468
REMARK INTER:                  -4.468
REMARK INTRA:                   0.000
REMARK UNBOUND:                 0.000
REMARK SMILES C=C1CCC[C@]2(C)C[C@@]3(O)OC(=O)C(C)=C3C[C@H]12
REMARK SMILES IDX 15 1 14 2 16 3 17 4 18 5 2 6 1 7 3 8 4 9 5 10 6 11 8 12 9 13
REMARK SMILES IDX 11 14 12 15 13 16 7 17 10 18
REMARK H PARENT 10 19
REMARK Flexibility Score: inf
ROOT
ATOM      1  C   UNL     1      57.510  39.722 126.192  1.00  0.00     0.052 C 
ATOM      2  C   UNL     1      57.117  38.838 125.049  1.00  0.00     0.040 C 
ATOM      3  C   UNL     1      56.006  38.109 124.946  1.00  0.00     0.012 C 
ATOM      4  C   UNL     1      54.871  38.055 125.917  1.00  0.00     0.047 C 
ATOM      5  C   UNL     1      53.588  38.581 125.237  1.00  0.00     0.025 C 
ATOM      6  C   UNL     1      52.408  38.364 126.170  1.00  0.00    -0.073 C 
ATOM      7  C   UNL     1      51.978  39.355 126.964  1.00  0.00     0.008 C 
ATOM      8  C   UNL     1      51.834  36.971 126.306  1.00  0.00     0.031 C 
ATOM      9  C   UNL     1      51.602  36.325 124.935  1.00  0.00     0.005 C 
ATOM     10  C   UNL     1      52.830  36.453 124.015  1.00  0.00     0.008 C 
ATOM     11  C   UNL     1      53.308  37.927 123.836  1.00  0.00    -0.019 C 
ATOM     12  C   UNL     1      54.578  37.981 122.918  1.00  0.00     0.092 C 
ATOM     13  C   UNL     1      55.881  37.493 123.583  1.00  0.00     0.235 C 
ATOM     14  O   UNL     1      57.030  37.987 122.894  1.00  0.00    -0.426 OA
ATOM     15  C   UNL     1      57.769  38.771 123.760  1.00  0.00     0.336 C 
ATOM     16  O   UNL     1      58.838  39.356 123.444  1.00  0.00    -0.246 OA
ATOM     17  C   UNL     1      52.203  38.740 123.108  1.00  0.00     0.012 C 
ENDROOT
BRANCH  13  18
ATOM     18  O   UNL     1      55.939  36.095 123.677  1.00  0.00    -0.353 OA
ATOM     19  H   UNL     1      56.895  35.842 123.590  1.00  0.00     0.215 HD
ENDBRANCH  13  18
TORSDOF 1
ENDMDL
MODEL 3
REMARK VINA RESULT:    -4.165      2.193      3.555
REMARK INTER + INTRA:          -4.287
REMARK INTER:                  -4.287
REMARK INTRA:                   0.000
REMARK UNBOUND:                 0.000
REMARK SMILES C=C1CCC[C@]2(C)C[C@@]3(O)OC(=O)C(C)=C3C[C@H]12
REMARK SMILES IDX 15 1 14 2 16 3 17 4 18 5 2 6 1 7 3 8 4 9 5 10 6 11 8 12 9 13
REMARK SMILES IDX 11 14 12 15 13 16 7 17 10 18
REMARK H PARENT 10 19
REMARK Flexibility Score: inf
ROOT
ATOM      1  C   UNL     1      55.875  40.156 124.039  1.00  0.00     0.052 C 
ATOM      2  C   UNL     1      55.588  38.696 124.215  1.00  0.00     0.040 C 
ATOM      3  C   UNL     1      54.533  38.156 124.824  1.00  0.00     0.012 C 
ATOM      4  C   UNL     1      53.367  38.878 125.416  1.00  0.00     0.047 C 
ATOM      5  C   UNL     1      52.080  38.481 124.662  1.00  0.00     0.025 C 
ATOM      6  C   UNL     1      50.881  39.084 125.375  1.00  0.00    -0.073 C 
ATOM      7  C   UNL     1      50.353  40.245 124.958  1.00  0.00     0.008 C 
ATOM      8  C   UNL     1      50.396  38.441 126.656  1.00  0.00     0.031 C 
ATOM      9  C   UNL     1      50.263  36.921 126.503  1.00  0.00     0.005 C 
ATOM     10  C   UNL     1      51.515  36.287 125.870  1.00  0.00     0.008 C 
ATOM     11  C   UNL     1      51.900  36.928 124.502  1.00  0.00    -0.019 C 
ATOM     12  C   UNL     1      53.199  36.260 123.932  1.00  0.00     0.092 C 
ATOM     13  C   UNL     1      54.505  36.666 124.646  1.00  0.00     0.235 C 
ATOM     14  O   UNL     1      55.644  36.411 123.824  1.00  0.00    -0.426 OA
ATOM     15  C   UNL     1      56.293  37.607 123.577  1.00  0.00     0.336 C 
ATOM     16  O   UNL     1      57.333  37.713 122.875  1.00  0.00    -0.246 OA
ATOM     17  C   UNL     1      50.773  36.651 123.471  1.00  0.00     0.012 C 
ENDROOT
BRANCH  13  18
ATOM     18  O   UNL     1      54.653  36.027 125.886  1.00  0.00    -0.353 OA
ATOM     19  H   UNL     1      53.747  35.736 126.168  1.00  0.00     0.215 HD
ENDBRANCH  13  18
TORSDOF 1
ENDMDL
MODEL 4
REMARK VINA RESULT:    -4.159     11.487     13.461
REMARK INTER + INTRA:          -4.281
REMARK INTER:                  -4.281
REMARK INTRA:                   0.000
REMARK UNBOUND:                 0.000
REMARK SMILES C=C1CCC[C@]2(C)C[C@@]3(O)OC(=O)C(C)=C3C[C@H]12
REMARK SMILES IDX 15 1 14 2 16 3 17 4 18 5 2 6 1 7 3 8 4 9 5 10 6 11 8 12 9 13
REMARK SMILES IDX 11 14 12 15 13 16 7 17 10 18
REMARK H PARENT 10 19
REMARK Flexibility Score: inf
ROOT
ATOM      1  C   UNL     1      53.363  38.376 136.359  1.00  0.00     0.052 C 
ATOM      2  C   UNL     1      52.115  37.777 136.931  1.00  0.00     0.040 C 
ATOM      3  C   UNL     1      50.861  38.148 136.678  1.00  0.00     0.012 C 
ATOM      4  C   UNL     1      50.409  39.204 135.721  1.00  0.00     0.047 C 
ATOM      5  C   UNL     1      49.556  38.557 134.609  1.00  0.00     0.025 C 
ATOM      6  C   UNL     1      48.961  39.653 133.740  1.00  0.00    -0.073 C 
ATOM      7  C   UNL     1      49.558  40.012 132.593  1.00  0.00     0.008 C 
ATOM      8  C   UNL     1      47.782  40.441 134.266  1.00  0.00     0.031 C 
ATOM      9  C   UNL     1      46.700  39.514 134.834  1.00  0.00     0.005 C 
ATOM     10  C   UNL     1      47.280  38.461 135.795  1.00  0.00     0.008 C 
ATOM     11  C   UNL     1      48.424  37.615 135.155  1.00  0.00    -0.019 C 
ATOM     12  C   UNL     1      48.990  36.587 136.195  1.00  0.00     0.092 C 
ATOM     13  C   UNL     1      49.875  37.202 137.299  1.00  0.00     0.235 C 
ATOM     14  O   UNL     1      50.708  36.213 137.905  1.00  0.00    -0.426 OA
ATOM     15  C   UNL     1      52.031  36.556 137.701  1.00  0.00     0.336 C 
ATOM     16  O   UNL     1      53.008  35.875 138.111  1.00  0.00    -0.246 OA
ATOM     17  C   UNL     1      47.847  36.779 133.979  1.00  0.00     0.012 C 
ENDROOT
BRANCH  13  18
ATOM     18  O   UNL     1      49.120  37.863 138.279  1.00  0.00    -0.353 OA
ATOM     19  H   UNL     1      48.868  37.181 138.954  1.00  0.00     0.215 HD
ENDBRANCH  13  18
TORSDOF 1
ENDMDL
MODEL 5
REMARK VINA RESULT:    -4.094      2.424      5.604
REMARK INTER + INTRA:          -4.214
REMARK INTER:                  -4.214
REMARK INTRA:                   0.000
REMARK UNBOUND:                 0.000
REMARK SMILES C=C1CCC[C@]2(C)C[C@@]3(O)OC(=O)C(C)=C3C[C@H]12
REMARK SMILES IDX 15 1 14 2 16 3 17 4 18 5 2 6 1 7 3 8 4 9 5 10 6 11 8 12 9 13
REMARK SMILES IDX 11 14 12 15 13 16 7 17 10 18
REMARK H PARENT 10 19
REMARK Flexibility Score: inf
ROOT
ATOM      1  C   UNL     1      54.609  39.758 122.875  1.00  0.00     0.052 C 
ATOM      2  C   UNL     1      56.023  39.385 123.198  1.00  0.00     0.040 C 
ATOM      3  C   UNL     1      57.005  40.209 123.562  1.00  0.00     0.012 C 
ATOM      4  C   UNL     1      56.906  41.683 123.791  1.00  0.00     0.047 C 
ATOM      5  C   UNL     1      57.229  41.995 125.269  1.00  0.00     0.025 C 
ATOM      6  C   UNL     1      57.294  43.502 125.454  1.00  0.00    -0.073 C 
ATOM      7  C   UNL     1      56.227  44.179 125.905  1.00  0.00     0.008 C 
ATOM      8  C   UNL     1      58.520  44.244 124.969  1.00  0.00     0.031 C 
ATOM      9  C   UNL     1      59.809  43.557 125.436  1.00  0.00     0.005 C 
ATOM     10  C   UNL     1      59.794  42.042 125.162  1.00  0.00     0.008 C 
ATOM     11  C   UNL     1      58.554  41.322 125.776  1.00  0.00    -0.019 C 
ATOM     12  C   UNL     1      58.585  39.793 125.433  1.00  0.00     0.092 C 
ATOM     13  C   UNL     1      58.233  39.449 123.971  1.00  0.00     0.235 C 
ATOM     14  O   UNL     1      57.832  38.084 123.842  1.00  0.00    -0.426 OA
ATOM     15  C   UNL     1      56.531  38.043 123.374  1.00  0.00     0.336 C 
ATOM     16  O   UNL     1      55.891  36.979 123.164  1.00  0.00    -0.246 OA
ATOM     17  C   UNL     1      58.616  41.427 127.325  1.00  0.00     0.012 C 
ENDROOT
BRANCH  13  18
ATOM     18  O   UNL     1      59.289  39.725 123.091  1.00  0.00    -0.353 OA
ATOM     19  H   UNL     1      58.890  39.831 122.188  1.00  0.00     0.215 HD
ENDBRANCH  13  18
TORSDOF 1
ENDMDL
MODEL 6
REMARK VINA RESULT:    -4.055     11.042     12.820
REMARK INTER + INTRA:          -4.174
REMARK INTER:                  -4.174
REMARK INTRA:                   0.000
REMARK UNBOUND:                 0.000
REMARK SMILES C=C1CCC[C@]2(C)C[C@@]3(O)OC(=O)C(C)=C3C[C@H]12
REMARK SMILES IDX 15 1 14 2 16 3 17 4 18 5 2 6 1 7 3 8 4 9 5 10 6 11 8 12 9 13
REMARK SMILES IDX 11 14 12 15 13 16 7 17 10 18
REMARK H PARENT 10 19
REMARK Flexibility Score: inf
ROOT
ATOM      1  C   UNL     1      49.545  37.002 138.828  1.00  0.00     0.052 C 
ATOM      2  C   UNL     1      50.429  36.946 137.620  1.00  0.00     0.040 C 
ATOM      3  C   UNL     1      50.042  36.923 136.346  1.00  0.00     0.012 C 
ATOM      4  C   UNL     1      48.642  37.010 135.827  1.00  0.00     0.047 C 
ATOM      5  C   UNL     1      48.488  38.291 134.979  1.00  0.00     0.025 C 
ATOM      6  C   UNL     1      47.120  38.286 134.317  1.00  0.00    -0.073 C 
ATOM      7  C   UNL     1      46.093  38.946 134.873  1.00  0.00     0.008 C 
ATOM      8  C   UNL     1      46.895  37.394 133.116  1.00  0.00     0.031 C 
ATOM      9  C   UNL     1      48.023  37.545 132.089  1.00  0.00     0.005 C 
ATOM     10  C   UNL     1      49.417  37.453 132.736  1.00  0.00     0.008 C 
ATOM     11  C   UNL     1      49.618  38.469 133.901  1.00  0.00    -0.019 C 
ATOM     12  C   UNL     1      51.042  38.299 134.536  1.00  0.00     0.092 C 
ATOM     13  C   UNL     1      51.214  37.045 135.416  1.00  0.00     0.235 C 
ATOM     14  O   UNL     1      52.323  37.185 136.305  1.00  0.00    -0.426 OA
ATOM     15  C   UNL     1      51.865  37.115 137.607  1.00  0.00     0.336 C 
ATOM     16  O   UNL     1      52.605  37.212 138.621  1.00  0.00    -0.246 OA
ATOM     17  C   UNL     1      49.557  39.915 133.337  1.00  0.00     0.012 C 
ENDROOT
BRANCH  13  18
ATOM     18  O   UNL     1      51.351  35.875 134.655  1.00  0.00    -0.353 OA
ATOM     19  H   UNL     1      50.914  36.049 133.781  1.00  0.00     0.215 HD
ENDBRANCH  13  18
TORSDOF 1
ENDMDL
MODEL 7
REMARK VINA RESULT:    -4.024     11.797     13.602
REMARK INTER + INTRA:          -4.142
REMARK INTER:                  -4.142
REMARK INTRA:                   0.000
REMARK UNBOUND:                 0.000
REMARK SMILES C=C1CCC[C@]2(C)C[C@@]3(O)OC(=O)C(C)=C3C[C@H]12
REMARK SMILES IDX 15 1 14 2 16 3 17 4 18 5 2 6 1 7 3 8 4 9 5 10 6 11 8 12 9 13
REMARK SMILES IDX 11 14 12 15 13 16 7 17 10 18
REMARK H PARENT 10 19
REMARK Flexibility Score: inf
ROOT
ATOM      1  C   UNL     1      47.191  36.245 131.438  1.00  0.00     0.052 C 
ATOM      2  C   UNL     1      46.787  37.336 132.381  1.00  0.00     0.040 C 
ATOM      3  C   UNL     1      47.146  37.463 133.658  1.00  0.00     0.012 C 
ATOM      4  C   UNL     1      48.080  36.582 134.424  1.00  0.00     0.047 C 
ATOM      5  C   UNL     1      49.311  37.402 134.867  1.00  0.00     0.025 C 
ATOM      6  C   UNL     1      50.170  36.549 135.786  1.00  0.00    -0.073 C 
ATOM      7  C   UNL     1      51.225  35.877 135.302  1.00  0.00     0.008 C 
ATOM      8  C   UNL     1      49.722  36.340 137.216  1.00  0.00     0.031 C 
ATOM      9  C   UNL     1      49.324  37.666 137.877  1.00  0.00     0.005 C 
ATOM     10  C   UNL     1      48.373  38.494 136.994  1.00  0.00     0.008 C 
ATOM     11  C   UNL     1      48.941  38.760 135.566  1.00  0.00    -0.019 C 
ATOM     12  C   UNL     1      47.911  39.578 134.712  1.00  0.00     0.092 C 
ATOM     13  C   UNL     1      46.687  38.774 134.227  1.00  0.00     0.235 C 
ATOM     14  O   UNL     1      46.057  39.411 133.115  1.00  0.00    -0.426 OA
ATOM     15  C   UNL     1      46.104  38.560 132.026  1.00  0.00     0.336 C 
ATOM     16  O   UNL     1      45.636  38.840 130.891  1.00  0.00    -0.246 OA
ATOM     17  C   UNL     1      50.217  39.638 135.677  1.00  0.00     0.012 C 
ENDROOT
BRANCH  13  18
ATOM     18  O   UNL     1      45.753  38.558 135.250  1.00  0.00    -0.353 OA
ATOM     19  H   UNL     1      45.423  37.628 135.145  1.00  0.00     0.215 HD
ENDBRANCH  13  18
TORSDOF 1
ENDMDL
