MODEL 1
REMARK VINA RESULT:    -4.526      0.000      0.000
REMARK INTER + INTRA:          -6.241
REMARK INTER:                  -6.113
REMARK INTRA:                  -0.128
REMARK UNBOUND:                -0.128
REMARK SMILES CCCCCCCC(=O)[O-]
REMARK SMILES IDX 5 1 6 2 7 3 8 4 9 5 10 6 4 7 3 8 2 9 1 10
REMARK H PARENT
REMARK Flexibility Score: inf
ROOT
ATOM      1  C   UNL     1       7.652  -9.717  21.893  1.00  0.00     0.000 C 
ENDROOT
BRANCH   1   2
ATOM      2  C   UNL     1       6.374  -9.955  21.082  1.00  0.00     0.006 C 
BRANCH   2   3
ATOM      3  C   UNL     1       6.649 -10.852  19.871  1.00  0.00     0.053 C 
BRANCH   3   4
ATOM      4  C   UNL     1       7.066 -10.029  18.693  1.00  0.00     0.041 C 
ATOM      5  O   UNL     1       8.279  -9.738  18.521  1.00  0.00    -0.550 OA
ATOM      6  O   UNL     1       6.122  -9.624  17.758  1.00  0.00    -0.550 OA
ENDBRANCH   3   4
ENDBRANCH   2   3
ENDBRANCH   1   2
BRANCH   1   7
ATOM      7  C   UNL     1       7.463  -8.568  22.894  1.00  0.00     0.000 C 
BRANCH   7   8
ATOM      8  C   UNL     1       8.746  -8.234  23.675  1.00  0.00    -0.000 C 
BRANCH   8   9
ATOM      9  C   UNL     1       9.942  -9.157  23.379  1.00  0.00    -0.003 C 
ATOM     10  C   UNL     1      10.915  -8.565  22.360  1.00  0.00     0.004 C 
ENDBRANCH   8   9
ENDBRANCH   7   8
ENDBRANCH   1   7
TORSDOF 6
ENDMDL
MODEL 2
REMARK VINA RESULT:    -4.524     12.693     13.488
REMARK INTER + INTRA:          -6.238
REMARK INTER:                  -6.034
REMARK INTRA:                  -0.205
REMARK UNBOUND:                -0.128
REMARK SMILES CCCCCCCC(=O)[O-]
REMARK SMILES IDX 5 1 6 2 7 3 8 4 9 5 10 6 4 7 3 8 2 9 1 10
REMARK H PARENT
REMARK Flexibility Score: inf
ROOT
ATOM      1  C   UNL     1      15.875  -5.596   9.706  1.00  0.00     0.000 C 
ENDROOT
BRANCH   1   2
ATOM      2  C   UNL     1      14.383  -5.609   9.353  1.00  0.00     0.006 C 
BRANCH   2   3
ATOM      3  C   UNL     1      13.518  -5.603  10.617  1.00  0.00     0.053 C 
BRANCH   3   4
ATOM      4  C   UNL     1      12.760  -4.318  10.727  1.00  0.00     0.041 C 
ATOM      5  O   UNL     1      11.661  -4.178  10.129  1.00  0.00    -0.550 OA
ATOM      6  O   UNL     1      13.243  -3.292  11.529  1.00  0.00    -0.550 OA
ENDBRANCH   3   4
ENDBRANCH   2   3
ENDBRANCH   1   2
BRANCH   1   7
ATOM      7  C   UNL     1      16.081  -5.649  11.227  1.00  0.00     0.000 C 
BRANCH   7   8
ATOM      8  C   UNL     1      17.540  -5.934  11.625  1.00  0.00    -0.000 C 
BRANCH   8   9
ATOM      9  C   UNL     1      18.194  -4.852  12.502  1.00  0.00    -0.003 C 
ATOM     10  C   UNL     1      19.694  -5.066  12.697  1.00  0.00     0.004 C 
ENDBRANCH   8   9
ENDBRANCH   7   8
ENDBRANCH   1   7
TORSDOF 6
ENDMDL
MODEL 3
REMARK VINA RESULT:    -4.510      9.452     10.493
REMARK INTER + INTRA:          -6.220
REMARK INTER:                  -5.987
REMARK INTRA:                  -0.233
REMARK UNBOUND:                -0.128
REMARK SMILES CCCCCCCC(=O)[O-]
REMARK SMILES IDX 5 1 6 2 7 3 8 4 9 5 10 6 4 7 3 8 2 9 1 10
REMARK H PARENT
REMARK Flexibility Score: inf
ROOT
ATOM      1  C   UNL     1      14.623  -3.317  17.036  1.00  0.00     0.000 C 
ENDROOT
BRANCH   1   2
ATOM      2  C   UNL     1      13.282  -3.659  16.376  1.00  0.00     0.006 C 
BRANCH   2   3
ATOM      3  C   UNL     1      13.384  -3.579  14.850  1.00  0.00     0.053 C 
BRANCH   3   4
ATOM      4  C   UNL     1      12.159  -2.943  14.275  1.00  0.00     0.041 C 
ATOM      5  O   UNL     1      12.086  -1.690  14.168  1.00  0.00    -0.550 OA
ATOM      6  O   UNL     1      11.115  -3.734  13.813  1.00  0.00    -0.550 OA
ENDBRANCH   3   4
ENDBRANCH   2   3
ENDBRANCH   1   2
BRANCH   1   7
ATOM      7  C   UNL     1      15.792  -3.948  16.266  1.00  0.00     0.000 C 
BRANCH   7   8
ATOM      8  C   UNL     1      17.161  -3.650  16.904  1.00  0.00    -0.000 C 
BRANCH   8   9
ATOM      9  C   UNL     1      17.098  -2.941  18.268  1.00  0.00    -0.003 C 
ATOM     10  C   UNL     1      18.404  -3.044  19.055  1.00  0.00     0.004 C 
ENDBRANCH   8   9
ENDBRANCH   7   8
ENDBRANCH   1   7
TORSDOF 6
ENDMDL
MODEL 4
REMARK VINA RESULT:    -4.477     10.030     11.074
REMARK INTER + INTRA:          -6.175
REMARK INTER:                  -5.926
REMARK INTRA:                  -0.249
REMARK UNBOUND:                -0.128
REMARK SMILES CCCCCCCC(=O)[O-]
REMARK SMILES IDX 5 1 6 2 7 3 8 4 9 5 10 6 4 7 3 8 2 9 1 10
REMARK H PARENT
REMARK Flexibility Score: inf
ROOT
ATOM      1  C   UNL     1      13.634  -3.692  16.647  1.00  0.00     0.000 C 
ENDROOT
BRANCH   1   2
ATOM      2  C   UNL     1      13.092  -3.277  15.275  1.00  0.00     0.006 C 
BRANCH   2   3
ATOM      3  C   UNL     1      14.200  -3.293  14.218  1.00  0.00     0.053 C 
BRANCH   3   4
ATOM      4  C   UNL     1      13.926  -2.277  13.156  1.00  0.00     0.041 C 
ATOM      5  O   UNL     1      14.664  -2.209  12.138  1.00  0.00    -0.550 OA
ATOM      6  O   UNL     1      12.826  -1.435  13.265  1.00  0.00    -0.550 OA
ENDBRANCH   3   4
ENDBRANCH   2   3
ENDBRANCH   1   2
BRANCH   1   7
ATOM      7  C   UNL     1      15.155  -3.493  16.722  1.00  0.00     0.000 C 
BRANCH   7   8
ATOM      8  C   UNL     1      15.584  -2.577  17.881  1.00  0.00    -0.000 C 
BRANCH   8   9
ATOM      9  C   UNL     1      17.014  -2.814  18.397  1.00  0.00    -0.003 C 
ATOM     10  C   UNL     1      17.900  -3.547  17.391  1.00  0.00     0.004 C 
ENDBRANCH   8   9
ENDBRANCH   7   8
ENDBRANCH   1   7
TORSDOF 6
ENDMDL
MODEL 5
REMARK VINA RESULT:    -4.432      9.193     10.377
REMARK INTER + INTRA:          -6.115
REMARK INTER:                  -5.646
REMARK INTRA:                  -0.469
REMARK UNBOUND:                -0.128
REMARK SMILES CCCCCCCC(=O)[O-]
REMARK SMILES IDX 5 1 6 2 7 3 8 4 9 5 10 6 4 7 3 8 2 9 1 10
REMARK H PARENT
REMARK Flexibility Score: inf
ROOT
ATOM      1  C   UNL     1      14.981  -3.406  17.059  1.00  0.00     0.000 C 
ENDROOT
BRANCH   1   2
ATOM      2  C   UNL     1      13.601  -3.565  16.412  1.00  0.00     0.006 C 
BRANCH   2   3
ATOM      3  C   UNL     1      13.648  -3.215  14.922  1.00  0.00     0.053 C 
BRANCH   3   4
ATOM      4  C   UNL     1      12.338  -2.649  14.475  1.00  0.00     0.041 C 
ATOM      5  O   UNL     1      12.306  -1.604  13.773  1.00  0.00    -0.550 OA
ATOM      6  O   UNL     1      11.153  -3.301  14.791  1.00  0.00    -0.550 OA
ENDBRANCH   3   4
ENDBRANCH   2   3
ENDBRANCH   1   2
BRANCH   1   7
ATOM      7  C   UNL     1      16.097  -3.796  16.079  1.00  0.00     0.000 C 
BRANCH   7   8
ATOM      8  C   UNL     1      16.614  -5.229  16.297  1.00  0.00    -0.000 C 
BRANCH   8   9
ATOM      9  C   UNL     1      15.966  -6.295  15.397  1.00  0.00    -0.003 C 
ATOM     10  C   UNL     1      14.869  -7.089  16.104  1.00  0.00     0.004 C 
ENDBRANCH   8   9
ENDBRANCH   7   8
ENDBRANCH   1   7
TORSDOF 6
ENDMDL
MODEL 6
REMARK VINA RESULT:    -4.403     11.177     12.703
REMARK INTER + INTRA:          -6.075
REMARK INTER:                  -5.454
REMARK INTRA:                  -0.620
REMARK UNBOUND:                -0.128
REMARK SMILES CCCCCCCC(=O)[O-]
REMARK SMILES IDX 5 1 6 2 7 3 8 4 9 5 10 6 4 7 3 8 2 9 1 10
REMARK H PARENT
REMARK Flexibility Score: inf
ROOT
ATOM      1  C   UNL     1      13.503  -6.594  12.838  1.00  0.00     0.000 C 
ENDROOT
BRANCH   1   2
ATOM      2  C   UNL     1      14.734  -6.280  13.696  1.00  0.00     0.006 C 
BRANCH   2   3
ATOM      3  C   UNL     1      16.003  -6.873  13.076  1.00  0.00     0.053 C 
BRANCH   3   4
ATOM      4  C   UNL     1      16.778  -5.815  12.357  1.00  0.00     0.041 C 
ATOM      5  O   UNL     1      16.521  -4.599  12.552  1.00  0.00    -0.550 OA
ATOM      6  O   UNL     1      17.819  -6.171  11.507  1.00  0.00    -0.550 OA
ENDBRANCH   3   4
ENDBRANCH   2   3
ENDBRANCH   1   2
BRANCH   1   7
ATOM      7  C   UNL     1      12.721  -5.314  12.508  1.00  0.00     0.000 C 
BRANCH   7   8
ATOM      8  C   UNL     1      13.222  -4.617  11.231  1.00  0.00    -0.000 C 
BRANCH   8   9
ATOM      9  C   UNL     1      13.303  -5.522   9.989  1.00  0.00    -0.003 C 
ATOM     10  C   UNL     1      14.695  -5.553   9.360  1.00  0.00     0.004 C 
ENDBRANCH   8   9
ENDBRANCH   7   8
ENDBRANCH   1   7
TORSDOF 6
ENDMDL
MODEL 7
REMARK VINA RESULT:    -4.368     12.172     13.922
REMARK INTER + INTRA:          -6.028
REMARK INTER:                  -5.775
REMARK INTRA:                  -0.253
REMARK UNBOUND:                -0.128
REMARK SMILES CCCCCCCC(=O)[O-]
REMARK SMILES IDX 5 1 6 2 7 3 8 4 9 5 10 6 4 7 3 8 2 9 1 10
REMARK H PARENT
REMARK Flexibility Score: inf
ROOT
ATOM      1  C   UNL     1      15.702  -5.611   9.638  1.00  0.00     0.000 C 
ENDROOT
BRANCH   1   2
ATOM      2  C   UNL     1      16.042  -5.538  11.130  1.00  0.00     0.006 C 
BRANCH   2   3
ATOM      3  C   UNL     1      17.485  -5.984  11.389  1.00  0.00     0.053 C 
BRANCH   3   4
ATOM      4  C   UNL     1      18.086  -5.195  12.507  1.00  0.00     0.041 C 
ATOM      5  O   UNL     1      17.353  -4.729  13.419  1.00  0.00    -0.550 OA
ATOM      6  O   UNL     1      19.462  -5.013  12.571  1.00  0.00    -0.550 OA
ENDBRANCH   3   4
ENDBRANCH   2   3
ENDBRANCH   1   2
BRANCH   1   7
ATOM      7  C   UNL     1      14.182  -5.615   9.419  1.00  0.00     0.000 C 
BRANCH   7   8
ATOM      8  C   UNL     1      13.387  -5.583  10.736  1.00  0.00    -0.000 C 
BRANCH   8   9
ATOM      9  C   UNL     1      12.408  -4.403  10.872  1.00  0.00    -0.003 C 
ATOM     10  C   UNL     1      12.048  -4.088  12.323  1.00  0.00     0.004 C 
ENDBRANCH   8   9
ENDBRANCH   7   8
ENDBRANCH   1   7
TORSDOF 6
ENDMDL
MODEL 8
REMARK VINA RESULT:    -4.368      9.605     10.444
REMARK INTER + INTRA:          -6.028
REMARK INTER:                  -5.580
REMARK INTRA:                  -0.448
REMARK UNBOUND:                -0.128
REMARK SMILES CCCCCCCC(=O)[O-]
REMARK SMILES IDX 5 1 6 2 7 3 8 4 9 5 10 6 4 7 3 8 2 9 1 10
REMARK H PARENT
REMARK Flexibility Score: inf
ROOT
ATOM      1  C   UNL     1      14.032  -3.707  16.594  1.00  0.00     0.000 C 
ENDROOT
BRANCH   1   2
ATOM      2  C   UNL     1      14.458  -3.815  15.126  1.00  0.00     0.006 C 
BRANCH   2   3
ATOM      3  C   UNL     1      14.338  -5.257  14.623  1.00  0.00     0.053 C 
BRANCH   3   4
ATOM      4  C   UNL     1      15.167  -6.176  15.462  1.00  0.00     0.041 C 
ATOM      5  O   UNL     1      16.423  -6.136  15.394  1.00  0.00    -0.550 OA
ATOM      6  O   UNL     1      14.554  -7.044  16.357  1.00  0.00    -0.550 OA
ENDBRANCH   3   4
ENDBRANCH   2   3
ENDBRANCH   1   2
BRANCH   1   7
ATOM      7  C   UNL     1      15.065  -2.914  17.409  1.00  0.00     0.000 C 
BRANCH   7   8
ATOM      8  C   UNL     1      16.443  -2.846  16.728  1.00  0.00    -0.000 C 
BRANCH   8   9
ATOM      9  C   UNL     1      17.579  -3.544  17.497  1.00  0.00    -0.003 C 
ATOM     10  C   UNL     1      17.733  -3.035  18.930  1.00  0.00     0.004 C 
ENDBRANCH   8   9
ENDBRANCH   7   8
ENDBRANCH   1   7
TORSDOF 6
ENDMDL
MODEL 9
REMARK VINA RESULT:    -4.345      9.514     10.280
REMARK INTER + INTRA:          -5.997
REMARK INTER:                  -5.689
REMARK INTRA:                  -0.308
REMARK UNBOUND:                -0.128
REMARK SMILES CCCCCCCC(=O)[O-]
REMARK SMILES IDX 5 1 6 2 7 3 8 4 9 5 10 6 4 7 3 8 2 9 1 10
REMARK H PARENT
REMARK Flexibility Score: inf
ROOT
ATOM      1  C   UNL     1      14.216  -3.987  16.659  1.00  0.00     0.000 C 
ENDROOT
BRANCH   1   2
ATOM      2  C   UNL     1      14.804  -4.840  15.530  1.00  0.00     0.006 C 
BRANCH   2   3
ATOM      3  C   UNL     1      14.898  -6.312  15.944  1.00  0.00     0.053 C 
BRANCH   3   4
ATOM      4  C   UNL     1      14.854  -7.199  14.741  1.00  0.00     0.041 C 
ATOM      5  O   UNL     1      15.479  -8.292  14.736  1.00  0.00    -0.550 OA
ATOM      6  O   UNL     1      14.083  -6.843  13.642  1.00  0.00    -0.550 OA
ENDBRANCH   3   4
ENDBRANCH   2   3
ENDBRANCH   1   2
BRANCH   1   7
ATOM      7  C   UNL     1      15.265  -3.013  17.217  1.00  0.00     0.000 C 
BRANCH   7   8
ATOM      8  C   UNL     1      16.635  -3.148  16.529  1.00  0.00    -0.000 C 
BRANCH   8   9
ATOM      9  C   UNL     1      17.824  -3.341  17.486  1.00  0.00    -0.003 C 
ATOM     10  C   UNL     1      17.505  -2.936  18.925  1.00  0.00     0.004 C 
ENDBRANCH   8   9
ENDBRANCH   7   8
ENDBRANCH   1   7
TORSDOF 6
ENDMDL
