MODEL 1
REMARK VINA RESULT:    -3.705      0.000      0.000
REMARK INTER + INTRA:          -4.045
REMARK INTER:                  -4.030
REMARK INTRA:                  -0.015
REMARK UNBOUND:                -0.015
REMARK SMILES OCc1ccccc1
REMARK SMILES IDX 2 1 3 2 6 3 5 4 7 5 4 6 8 7 1 8
REMARK H PARENT 1 9
REMARK Flexibility Score: inf
ROOT
ATOM      1  C   UNL     1      -0.736   7.011  84.536  1.00  0.00     0.191 C 
ENDROOT
BRANCH   1   2
ATOM      2  C   UNL     1      -0.757   8.025  83.427  1.00  0.00    -0.023 A 
ATOM      3  C   UNL     1      -0.743   9.962  81.395  1.00  0.00     0.000 A 
ATOM      4  C   UNL     1       0.172   8.906  81.360  1.00  0.00     0.000 A 
ATOM      5  C   UNL     1      -1.658  10.059  82.447  1.00  0.00     0.000 A 
ATOM      6  C   UNL     1       0.170   7.941  82.374  1.00  0.00     0.006 A 
ATOM      7  C   UNL     1      -1.663   9.098  83.463  1.00  0.00     0.006 A 
ENDBRANCH   1   2
BRANCH   1   8
ATOM      8  O   UNL     1      -2.045   6.716  84.943  1.00  0.00    -0.392 OA
ATOM      9  H   UNL     1      -2.411   6.076  84.277  1.00  0.00     0.211 HD
ENDBRANCH   1   8
TORSDOF 2
ENDMDL
MODEL 2
REMARK VINA RESULT:    -3.678      0.167      1.721
REMARK INTER + INTRA:          -4.016
REMARK INTER:                  -4.002
REMARK INTRA:                  -0.014
REMARK UNBOUND:                -0.015
REMARK SMILES OCc1ccccc1
REMARK SMILES IDX 2 1 3 2 6 3 5 4 7 5 4 6 8 7 1 8
REMARK H PARENT 1 9
REMARK Flexibility Score: inf
ROOT
ATOM      1  C   UNL     1      -0.626   7.229  84.611  1.00  0.00     0.191 C 
ENDROOT
BRANCH   1   2
ATOM      2  C   UNL     1      -0.698   8.199  83.465  1.00  0.00    -0.023 A 
ATOM      3  C   UNL     1      -0.888   9.965  81.291  1.00  0.00     0.000 A 
ATOM      4  C   UNL     1      -1.742  10.112  82.388  1.00  0.00     0.000 A 
ATOM      5  C   UNL     1       0.055   8.932  81.273  1.00  0.00     0.000 A 
ATOM      6  C   UNL     1      -1.653   9.230  83.470  1.00  0.00     0.006 A 
ATOM      7  C   UNL     1       0.147   8.048  82.353  1.00  0.00     0.006 A 
ENDBRANCH   1   2
BRANCH   1   8
ATOM      8  O   UNL     1      -1.898   6.705  84.879  1.00  0.00    -0.392 OA
ATOM      9  H   UNL     1      -1.861   5.740  84.648  1.00  0.00     0.211 HD
ENDBRANCH   1   8
TORSDOF 2
ENDMDL
MODEL 3
REMARK VINA RESULT:    -3.667      2.807      3.273
REMARK INTER + INTRA:          -4.004
REMARK INTER:                  -3.992
REMARK INTRA:                  -0.012
REMARK UNBOUND:                -0.015
REMARK SMILES OCc1ccccc1
REMARK SMILES IDX 2 1 3 2 6 3 5 4 7 5 4 6 8 7 1 8
REMARK H PARENT 1 9
REMARK Flexibility Score: inf
ROOT
ATOM      1  C   UNL     1      -1.116   7.245  83.890  1.00  0.00     0.191 C 
ENDROOT
BRANCH   1   2
ATOM      2  C   UNL     1      -1.462   6.462  82.655  1.00  0.00    -0.023 A 
ATOM      3  C   UNL     1      -2.114   5.066  80.308  1.00  0.00     0.000 A 
ATOM      4  C   UNL     1      -0.782   5.388  80.582  1.00  0.00     0.000 A 
ATOM      5  C   UNL     1      -3.122   5.448  81.198  1.00  0.00     0.000 A 
ATOM      6  C   UNL     1      -0.454   6.088  81.749  1.00  0.00     0.006 A 
ATOM      7  C   UNL     1      -2.800   6.148  82.365  1.00  0.00     0.006 A 
ENDBRANCH   1   2
BRANCH   1   8
ATOM      8  O   UNL     1      -1.573   6.571  85.031  1.00  0.00    -0.392 OA
ATOM      9  H   UNL     1      -1.450   5.602  84.855  1.00  0.00     0.211 HD
ENDBRANCH   1   8
TORSDOF 2
ENDMDL
MODEL 4
REMARK VINA RESULT:    -3.661      2.758      3.601
REMARK INTER + INTRA:          -3.997
REMARK INTER:                  -3.983
REMARK INTRA:                  -0.014
REMARK UNBOUND:                -0.015
REMARK SMILES OCc1ccccc1
REMARK SMILES IDX 2 1 3 2 6 3 5 4 7 5 4 6 8 7 1 8
REMARK H PARENT 1 9
REMARK Flexibility Score: inf
ROOT
ATOM      1  C   UNL     1      -1.105   7.276  83.998  1.00  0.00     0.191 C 
ENDROOT
BRANCH   1   2
ATOM      2  C   UNL     1      -1.493   6.541  82.745  1.00  0.00    -0.023 A 
ATOM      3  C   UNL     1      -2.212   5.101  80.445  1.00  0.00     0.000 A 
ATOM      4  C   UNL     1      -3.194   5.498  81.356  1.00  0.00     0.000 A 
ATOM      5  C   UNL     1      -0.870   5.413  80.684  1.00  0.00     0.000 A 
ATOM      6  C   UNL     1      -2.839   6.212  82.506  1.00  0.00     0.006 A 
ATOM      7  C   UNL     1      -0.510   6.125  81.833  1.00  0.00     0.006 A 
ENDBRANCH   1   2
BRANCH   1   8
ATOM      8  O   UNL     1      -1.623   6.617  85.122  1.00  0.00    -0.392 OA
ATOM      9  H   UNL     1      -2.600   6.524  84.969  1.00  0.00     0.211 HD
ENDBRANCH   1   8
TORSDOF 2
ENDMDL
MODEL 5
REMARK VINA RESULT:    -3.578      2.048      3.073
REMARK INTER + INTRA:          -3.906
REMARK INTER:                  -3.897
REMARK INTRA:                  -0.009
REMARK UNBOUND:                -0.015
REMARK SMILES OCc1ccccc1
REMARK SMILES IDX 2 1 3 2 6 3 5 4 7 5 4 6 8 7 1 8
REMARK H PARENT 1 9
REMARK Flexibility Score: inf
ROOT
ATOM      1  C   UNL     1      -2.772  10.526  82.988  1.00  0.00     0.191 C 
ENDROOT
BRANCH   1   2
ATOM      2  C   UNL     1      -1.696   9.481  83.087  1.00  0.00    -0.023 A 
ATOM      3  C   UNL     1       0.263   7.477  83.239  1.00  0.00     0.000 A 
ATOM      4  C   UNL     1       0.133   8.240  82.076  1.00  0.00     0.000 A 
ATOM      5  C   UNL     1      -0.589   7.706  84.324  1.00  0.00     0.000 A 
ATOM      6  C   UNL     1      -0.846   9.236  81.995  1.00  0.00     0.006 A 
ATOM      7  C   UNL     1      -1.569   8.701  84.247  1.00  0.00     0.006 A 
ENDBRANCH   1   2
BRANCH   1   8
ATOM      8  O   UNL     1      -2.264  11.777  83.368  1.00  0.00    -0.392 OA
ATOM      9  H   UNL     1      -2.294  12.352  82.559  1.00  0.00     0.211 HD
ENDBRANCH   1   8
TORSDOF 2
ENDMDL
MODEL 6
REMARK VINA RESULT:    -3.542      2.012      3.334
REMARK INTER + INTRA:          -3.867
REMARK INTER:                  -3.857
REMARK INTRA:                  -0.010
REMARK UNBOUND:                -0.015
REMARK SMILES OCc1ccccc1
REMARK SMILES IDX 2 1 3 2 6 3 5 4 7 5 4 6 8 7 1 8
REMARK H PARENT 1 9
REMARK Flexibility Score: inf
ROOT
ATOM      1  C   UNL     1      -2.682  10.513  82.869  1.00  0.00     0.191 C 
ENDROOT
BRANCH   1   2
ATOM      2  C   UNL     1      -1.669   9.416  83.041  1.00  0.00    -0.023 A 
ATOM      3  C   UNL     1       0.272   7.418  83.391  1.00  0.00     0.000 A 
ATOM      4  C   UNL     1      -0.612   7.723  84.429  1.00  0.00     0.000 A 
ATOM      5  C   UNL     1       0.195   8.115  82.181  1.00  0.00     0.000 A 
ATOM      6  C   UNL     1      -1.578   8.722  84.259  1.00  0.00     0.006 A 
ATOM      7  C   UNL     1      -0.768   9.114  82.007  1.00  0.00     0.006 A 
ENDBRANCH   1   2
BRANCH   1   8
ATOM      8  O   UNL     1      -2.228  11.687  83.486  1.00  0.00    -0.392 OA
ATOM      9  H   UNL     1      -2.056  11.458  84.437  1.00  0.00     0.211 HD
ENDBRANCH   1   8
TORSDOF 2
ENDMDL
MODEL 7
REMARK VINA RESULT:    -3.528      2.336      3.264
REMARK INTER + INTRA:          -3.852
REMARK INTER:                  -3.843
REMARK INTRA:                  -0.010
REMARK UNBOUND:                -0.015
REMARK SMILES OCc1ccccc1
REMARK SMILES IDX 2 1 3 2 6 3 5 4 7 5 4 6 8 7 1 8
REMARK H PARENT 1 9
REMARK Flexibility Score: inf
ROOT
ATOM      1  C   UNL     1      -3.778   6.298  82.322  1.00  0.00     0.191 C 
ENDROOT
BRANCH   1   2
ATOM      2  C   UNL     1      -2.386   6.671  82.749  1.00  0.00    -0.023 A 
ATOM      3  C   UNL     1       0.199   7.442  83.527  1.00  0.00     0.000 A 
ATOM      4  C   UNL     1      -0.856   7.508  84.442  1.00  0.00     0.000 A 
ATOM      5  C   UNL     1      -0.036   7.000  82.222  1.00  0.00     0.000 A 
ATOM      6  C   UNL     1      -2.146   7.129  84.056  1.00  0.00     0.006 A 
ATOM      7  C   UNL     1      -1.324   6.621  81.831  1.00  0.00     0.006 A 
ENDBRANCH   1   2
BRANCH   1   8
ATOM      8  O   UNL     1      -4.118   5.039  82.838  1.00  0.00    -0.392 OA
ATOM      9  H   UNL     1      -5.037   4.841  82.517  1.00  0.00     0.211 HD
ENDBRANCH   1   8
TORSDOF 2
ENDMDL
MODEL 8
REMARK VINA RESULT:    -3.527      1.547      2.060
REMARK INTER + INTRA:          -3.852
REMARK INTER:                  -3.836
REMARK INTRA:                  -0.015
REMARK UNBOUND:                -0.015
REMARK SMILES OCc1ccccc1
REMARK SMILES IDX 2 1 3 2 6 3 5 4 7 5 4 6 8 7 1 8
REMARK H PARENT 1 9
REMARK Flexibility Score: inf
ROOT
ATOM      1  C   UNL     1      -0.425   7.398  84.376  1.00  0.00     0.191 C 
ENDROOT
BRANCH   1   2
ATOM      2  C   UNL     1      -0.589   7.398  82.882  1.00  0.00    -0.023 A 
ATOM      3  C   UNL     1      -0.821   7.372  80.085  1.00  0.00     0.000 A 
ATOM      4  C   UNL     1      -1.102   6.218  80.820  1.00  0.00     0.000 A 
ATOM      5  C   UNL     1      -0.415   8.538  80.742  1.00  0.00     0.000 A 
ATOM      6  C   UNL     1      -0.982   6.226  82.214  1.00  0.00     0.006 A 
ATOM      7  C   UNL     1      -0.293   8.550  82.136  1.00  0.00     0.006 A 
ENDBRANCH   1   2
BRANCH   1   8
ATOM      8  O   UNL     1      -1.439   6.635  84.972  1.00  0.00    -0.392 OA
ATOM      9  H   UNL     1      -2.105   6.446  84.260  1.00  0.00     0.211 HD
ENDBRANCH   1   8
TORSDOF 2
ENDMDL
MODEL 9
REMARK VINA RESULT:    -3.403      2.720      3.332
REMARK INTER + INTRA:          -3.716
REMARK INTER:                  -3.697
REMARK INTRA:                  -0.019
REMARK UNBOUND:                -0.015
REMARK SMILES OCc1ccccc1
REMARK SMILES IDX 2 1 3 2 6 3 5 4 7 5 4 6 8 7 1 8
REMARK H PARENT 1 9
REMARK Flexibility Score: inf
ROOT
ATOM      1  C   UNL     1      -1.793   5.494  80.826  1.00  0.00     0.191 C 
ENDROOT
BRANCH   1   2
ATOM      2  C   UNL     1      -1.426   6.308  82.036  1.00  0.00    -0.023 A 
ATOM      3  C   UNL     1      -0.716   7.761  84.330  1.00  0.00     0.000 A 
ATOM      4  C   UNL     1       0.235   7.517  83.335  1.00  0.00     0.000 A 
ATOM      5  C   UNL     1      -2.018   7.272  84.186  1.00  0.00     0.000 A 
ATOM      6  C   UNL     1      -0.115   6.789  82.193  1.00  0.00     0.006 A 
ATOM      7  C   UNL     1      -2.372   6.543  83.046  1.00  0.00     0.006 A 
ENDBRANCH   1   2
BRANCH   1   8
ATOM      8  O   UNL     1      -0.633   5.044  80.179  1.00  0.00    -0.392 OA
ATOM      9  H   UNL     1      -0.594   5.519  79.307  1.00  0.00     0.211 HD
ENDBRANCH   1   8
TORSDOF 2
ENDMDL
