MODEL 1
REMARK VINA RESULT:    -5.751      0.000      0.000
REMARK INTER + INTRA:         -12.769
REMARK INTER:                 -10.123
REMARK INTRA:                  -2.647
REMARK UNBOUND:                -2.647
REMARK SMILES CCCCCCC=CCCCCCCCC(=O)[O-]
REMARK SMILES IDX 10 1 11 2 12 3 13 4 14 5 15 6 16 7 17 8 18 9 9 10 8 11 7 12
REMARK SMILES IDX 6 13 5 14 4 15 3 16 2 17 1 18
REMARK H PARENT
REMARK Flexibility Score: inf
ROOT
ATOM      1  C   UNL     1       6.259  20.466  42.431  1.00  0.00     0.004 C 
ENDROOT
BRANCH   1   2
ATOM      2  C   UNL     1       6.054  21.941  42.046  1.00  0.00     0.000 C 
BRANCH   2   3
ATOM      3  C   UNL     1       7.168  22.893  42.523  1.00  0.00     0.000 C 
BRANCH   3   4
ATOM      4  C   UNL     1       6.657  24.291  42.931  1.00  0.00     0.000 C 
BRANCH   4   5
ATOM      5  C   UNL     1       5.149  24.454  42.696  1.00  0.00     0.006 C 
BRANCH   5   6
ATOM      6  C   UNL     1       4.605  25.679  43.436  1.00  0.00     0.053 C 
BRANCH   6   7
ATOM      7  C   UNL     1       3.123  25.574  43.606  1.00  0.00     0.041 C 
ATOM      8  O   UNL     1       2.379  26.541  43.291  1.00  0.00    -0.550 OA
ATOM      9  O   UNL     1       2.557  24.391  44.065  1.00  0.00    -0.550 OA
ENDBRANCH   6   7
ENDBRANCH   5   6
ENDBRANCH   4   5
ENDBRANCH   3   4
ENDBRANCH   2   3
ENDBRANCH   1   2
BRANCH   1  10
ATOM     10  C   UNL     1       5.572  20.097  43.754  1.00  0.00     0.027 C 
BRANCH  10  11
ATOM     11  C   UNL     1       4.593  21.170  44.160  1.00  0.00    -0.031 C 
ATOM     12  C   UNL     1       4.663  21.873  45.307  1.00  0.00    -0.031 C 
BRANCH  12  13
ATOM     13  C   UNL     1       5.779  21.757  46.314  1.00  0.00     0.027 C 
BRANCH  13  14
ATOM     14  C   UNL     1       6.531  23.086  46.447  1.00  0.00     0.004 C 
BRANCH  14  15
ATOM     15  C   UNL     1       8.009  22.922  46.072  1.00  0.00     0.000 C 
BRANCH  15  16
ATOM     16  C   UNL     1       8.356  21.446  45.835  1.00  0.00    -0.000 C 
BRANCH  16  17
ATOM     17  C   UNL     1       9.599  21.267  44.949  1.00  0.00    -0.003 C 
ATOM     18  C   UNL     1       9.437  20.144  43.925  1.00  0.00     0.004 C 
ENDBRANCH  16  17
ENDBRANCH  15  16
ENDBRANCH  14  15
ENDBRANCH  13  14
ENDBRANCH  12  13
ENDBRANCH  10  11
ENDBRANCH   1  10
TORSDOF 13
ENDMDL
MODEL 2
REMARK VINA RESULT:    -5.654      3.293      5.600
REMARK INTER + INTRA:         -12.598
REMARK INTER:                  -9.796
REMARK INTRA:                  -2.802
REMARK UNBOUND:                -2.647
REMARK SMILES CCCCCCC=CCCCCCCCC(=O)[O-]
REMARK SMILES IDX 10 1 11 2 12 3 13 4 14 5 15 6 16 7 17 8 18 9 9 10 8 11 7 12
REMARK SMILES IDX 6 13 5 14 4 15 3 16 2 17 1 18
REMARK H PARENT
REMARK Flexibility Score: inf
ROOT
ATOM      1  C   UNL     1       7.964  24.239  42.500  1.00  0.00     0.004 C 
ENDROOT
BRANCH   1   2
ATOM      2  C   UNL     1       8.001  22.730  42.209  1.00  0.00     0.000 C 
BRANCH   2   3
ATOM      3  C   UNL     1       6.629  22.099  41.902  1.00  0.00     0.000 C 
BRANCH   3   4
ATOM      4  C   UNL     1       6.433  20.703  42.532  1.00  0.00     0.000 C 
BRANCH   4   5
ATOM      5  C   UNL     1       7.743  20.119  43.078  1.00  0.00     0.006 C 
BRANCH   5   6
ATOM      6  C   UNL     1       7.568  19.624  44.516  1.00  0.00     0.053 C 
BRANCH   6   7
ATOM      7  C   UNL     1       8.894  19.294  45.123  1.00  0.00     0.041 C 
ATOM      8  O   UNL     1       9.166  19.665  46.295  1.00  0.00    -0.550 OA
ATOM      9  O   UNL     1       9.814  18.532  44.412  1.00  0.00    -0.550 OA
ENDBRANCH   6   7
ENDBRANCH   5   6
ENDBRANCH   4   5
ENDBRANCH   3   4
ENDBRANCH   2   3
ENDBRANCH   1   2
BRANCH   1  10
ATOM     10  C   UNL     1       7.968  24.554  44.003  1.00  0.00     0.027 C 
BRANCH  10  11
ATOM     11  C   UNL     1       8.601  23.428  44.780  1.00  0.00    -0.031 C 
ATOM     12  C   UNL     1       8.106  22.914  45.922  1.00  0.00    -0.031 C 
BRANCH  12  13
ATOM     13  C   UNL     1       6.796  23.325  46.547  1.00  0.00     0.027 C 
BRANCH  13  14
ATOM     14  C   UNL     1       5.771  22.190  46.459  1.00  0.00     0.004 C 
BRANCH  14  15
ATOM     15  C   UNL     1       4.943  22.295  45.173  1.00  0.00     0.000 C 
BRANCH  15  16
ATOM     16  C   UNL     1       4.340  23.699  45.019  1.00  0.00    -0.000 C 
BRANCH  16  17
ATOM     17  C   UNL     1       4.014  24.044  43.558  1.00  0.00    -0.003 C 
ATOM     18  C   UNL     1       4.500  25.437  43.158  1.00  0.00     0.004 C 
ENDBRANCH  16  17
ENDBRANCH  15  16
ENDBRANCH  14  15
ENDBRANCH  13  14
ENDBRANCH  12  13
ENDBRANCH  10  11
ENDBRANCH   1  10
TORSDOF 13
ENDMDL
MODEL 3
REMARK VINA RESULT:    -5.642      1.313      3.630
REMARK INTER + INTRA:         -12.577
REMARK INTER:                  -9.923
REMARK INTRA:                  -2.654
REMARK UNBOUND:                -2.647
REMARK SMILES CCCCCCC=CCCCCCCCC(=O)[O-]
REMARK SMILES IDX 10 1 11 2 12 3 13 4 14 5 15 6 16 7 17 8 18 9 9 10 8 11 7 12
REMARK SMILES IDX 6 13 5 14 4 15 3 16 2 17 1 18
REMARK H PARENT
REMARK Flexibility Score: inf
ROOT
ATOM      1  C   UNL     1       7.596  23.336  46.446  1.00  0.00     0.004 C 
ENDROOT
BRANCH   1   2
ATOM      2  C   UNL     1       6.108  23.508  46.100  1.00  0.00     0.000 C 
BRANCH   2   3
ATOM      3  C   UNL     1       5.334  22.190  45.906  1.00  0.00     0.000 C 
BRANCH   3   4
ATOM      4  C   UNL     1       4.362  22.211  44.707  1.00  0.00     0.000 C 
BRANCH   4   5
ATOM      5  C   UNL     1       4.299  23.588  44.030  1.00  0.00     0.006 C 
BRANCH   5   6
ATOM      6  C   UNL     1       2.887  24.175  44.106  1.00  0.00     0.053 C 
BRANCH   6   7
ATOM      7  C   UNL     1       2.872  25.575  43.581  1.00  0.00     0.041 C 
ATOM      8  O   UNL     1       3.863  26.025  42.946  1.00  0.00    -0.550 OA
ATOM      9  O   UNL     1       1.744  26.369  43.749  1.00  0.00    -0.550 OA
ENDBRANCH   6   7
ENDBRANCH   5   6
ENDBRANCH   4   5
ENDBRANCH   3   4
ENDBRANCH   2   3
ENDBRANCH   1   2
BRANCH   1  10
ATOM     10  C   UNL     1       8.504  23.412  45.209  1.00  0.00     0.027 C 
BRANCH  10  11
ATOM     11  C   UNL     1       7.939  24.371  44.193  1.00  0.00    -0.031 C 
ATOM     12  C   UNL     1       7.805  24.103  42.880  1.00  0.00    -0.031 C 
BRANCH  12  13
ATOM     13  C   UNL     1       8.117  22.772  42.244  1.00  0.00     0.027 C 
BRANCH  13  14
ATOM     14  C   UNL     1       6.835  22.088  41.757  1.00  0.00     0.004 C 
BRANCH  14  15
ATOM     15  C   UNL     1       6.607  20.760  42.488  1.00  0.00     0.000 C 
BRANCH  15  16
ATOM     16  C   UNL     1       7.869  20.326  43.247  1.00  0.00    -0.000 C 
BRANCH  16  17
ATOM     17  C   UNL     1       7.550  19.697  44.612  1.00  0.00    -0.003 C 
ATOM     18  C   UNL     1       8.733  19.751  45.578  1.00  0.00     0.004 C 
ENDBRANCH  16  17
ENDBRANCH  15  16
ENDBRANCH  14  15
ENDBRANCH  13  14
ENDBRANCH  12  13
ENDBRANCH  10  11
ENDBRANCH   1  10
TORSDOF 13
ENDMDL
MODEL 4
REMARK VINA RESULT:    -5.633      3.478      5.749
REMARK INTER + INTRA:         -12.561
REMARK INTER:                  -9.852
REMARK INTRA:                  -2.709
REMARK UNBOUND:                -2.647
REMARK SMILES CCCCCCC=CCCCCCCCC(=O)[O-]
REMARK SMILES IDX 10 1 11 2 12 3 13 4 14 5 15 6 16 7 17 8 18 9 9 10 8 11 7 12
REMARK SMILES IDX 6 13 5 14 4 15 3 16 2 17 1 18
REMARK H PARENT
REMARK Flexibility Score: inf
ROOT
ATOM      1  C   UNL     1       7.035  22.801  42.095  1.00  0.00     0.004 C 
ENDROOT
BRANCH   1   2
ATOM      2  C   UNL     1       8.210  22.625  43.071  1.00  0.00     0.000 C 
BRANCH   2   3
ATOM      3  C   UNL     1       8.096  23.444  44.372  1.00  0.00     0.000 C 
BRANCH   3   4
ATOM      4  C   UNL     1       8.445  22.642  45.643  1.00  0.00     0.000 C 
BRANCH   4   5
ATOM      5  C   UNL     1       9.485  21.545  45.375  1.00  0.00     0.006 C 
BRANCH   5   6
ATOM      6  C   UNL     1       8.968  20.174  45.821  1.00  0.00     0.053 C 
BRANCH   6   7
ATOM      7  C   UNL     1       9.772  19.081  45.195  1.00  0.00     0.041 C 
ATOM      8  O   UNL     1      10.948  18.855  45.585  1.00  0.00    -0.550 OA
ATOM      9  O   UNL     1       9.207  18.276  44.213  1.00  0.00    -0.550 OA
ENDBRANCH   6   7
ENDBRANCH   5   6
ENDBRANCH   4   5
ENDBRANCH   3   4
ENDBRANCH   2   3
ENDBRANCH   1   2
BRANCH   1  10
ATOM     10  C   UNL     1       6.255  21.498  41.865  1.00  0.00     0.027 C 
BRANCH  10  11
ATOM     11  C   UNL     1       6.690  20.439  42.846  1.00  0.00    -0.031 C 
ATOM     12  C   UNL     1       5.990  20.076  43.938  1.00  0.00    -0.031 C 
BRANCH  12  13
ATOM     13  C   UNL     1       4.626  20.610  44.295  1.00  0.00     0.027 C 
BRANCH  13  14
ATOM     14  C   UNL     1       4.703  21.523  45.524  1.00  0.00     0.004 C 
BRANCH  14  15
ATOM     15  C   UNL     1       4.658  23.000  45.116  1.00  0.00     0.000 C 
BRANCH  15  16
ATOM     16  C   UNL     1       3.583  23.243  44.047  1.00  0.00    -0.000 C 
BRANCH  16  17
ATOM     17  C   UNL     1       3.971  24.357  43.062  1.00  0.00    -0.003 C 
ATOM     18  C   UNL     1       4.914  25.389  43.680  1.00  0.00     0.004 C 
ENDBRANCH  16  17
ENDBRANCH  15  16
ENDBRANCH  14  15
ENDBRANCH  13  14
ENDBRANCH  12  13
ENDBRANCH  10  11
ENDBRANCH   1  10
TORSDOF 13
ENDMDL
MODEL 5
REMARK VINA RESULT:    -5.606      3.087      5.653
REMARK INTER + INTRA:         -12.514
REMARK INTER:                  -9.888
REMARK INTRA:                  -2.625
REMARK UNBOUND:                -2.647
REMARK SMILES CCCCCCC=CCCCCCCCC(=O)[O-]
REMARK SMILES IDX 10 1 11 2 12 3 13 4 14 5 15 6 16 7 17 8 18 9 9 10 8 11 7 12
REMARK SMILES IDX 6 13 5 14 4 15 3 16 2 17 1 18
REMARK H PARENT
REMARK Flexibility Score: inf
ROOT
ATOM      1  C   UNL     1       4.747  20.944  45.857  1.00  0.00     0.004 C 
ENDROOT
BRANCH   1   2
ATOM      2  C   UNL     1       6.245  21.165  46.126  1.00  0.00     0.000 C 
BRANCH   2   3
ATOM      3  C   UNL     1       6.673  22.643  46.215  1.00  0.00     0.000 C 
BRANCH   3   4
ATOM      4  C   UNL     1       8.203  22.845  46.246  1.00  0.00     0.000 C 
BRANCH   4   5
ATOM      5  C   UNL     1       8.891  22.296  44.987  1.00  0.00     0.006 C 
BRANCH   5   6
ATOM      6  C   UNL     1       9.613  20.979  45.284  1.00  0.00     0.053 C 
BRANCH   6   7
ATOM      7  C   UNL     1       9.446  20.021  44.148  1.00  0.00     0.041 C 
ATOM      8  O   UNL     1       9.697  20.386  42.969  1.00  0.00    -0.550 OA
ATOM      9  O   UNL     1       9.062  18.709  44.395  1.00  0.00    -0.550 OA
ENDBRANCH   6   7
ENDBRANCH   5   6
ENDBRANCH   4   5
ENDBRANCH   3   4
ENDBRANCH   2   3
ENDBRANCH   1   2
BRANCH   1  10
ATOM     10  C   UNL     1       4.437  20.732  44.368  1.00  0.00     0.027 C 
BRANCH  10  11
ATOM     11  C   UNL     1       5.624  20.133  43.659  1.00  0.00    -0.031 C 
ATOM     12  C   UNL     1       6.200  20.655  42.559  1.00  0.00    -0.031 C 
BRANCH  12  13
ATOM     13  C   UNL     1       5.801  21.963  41.924  1.00  0.00     0.027 C 
BRANCH  13  14
ATOM     14  C   UNL     1       6.611  23.123  42.513  1.00  0.00     0.004 C 
BRANCH  14  15
ATOM     15  C   UNL     1       5.689  24.249  42.996  1.00  0.00     0.000 C 
BRANCH  15  16
ATOM     16  C   UNL     1       4.230  23.969  42.609  1.00  0.00    -0.000 C 
BRANCH  16  17
ATOM     17  C   UNL     1       3.262  24.142  43.790  1.00  0.00    -0.003 C 
ATOM     18  C   UNL     1       3.956  24.655  45.051  1.00  0.00     0.004 C 
ENDBRANCH  16  17
ENDBRANCH  15  16
ENDBRANCH  14  15
ENDBRANCH  13  14
ENDBRANCH  12  13
ENDBRANCH  10  11
ENDBRANCH   1  10
TORSDOF 13
ENDMDL
MODEL 6
REMARK VINA RESULT:    -5.600      3.547      6.267
REMARK INTER + INTRA:         -12.503
REMARK INTER:                  -9.842
REMARK INTRA:                  -2.661
REMARK UNBOUND:                -2.647
REMARK SMILES CCCCCCC=CCCCCCCCC(=O)[O-]
REMARK SMILES IDX 10 1 11 2 12 3 13 4 14 5 15 6 16 7 17 8 18 9 9 10 8 11 7 12
REMARK SMILES IDX 6 13 5 14 4 15 3 16 2 17 1 18
REMARK H PARENT
REMARK Flexibility Score: inf
ROOT
ATOM      1  C   UNL     1       5.880  22.208  46.631  1.00  0.00     0.004 C 
ENDROOT
BRANCH   1   2
ATOM      2  C   UNL     1       6.242  20.860  45.986  1.00  0.00     0.000 C 
BRANCH   2   3
ATOM      3  C   UNL     1       5.687  20.656  44.563  1.00  0.00     0.000 C 
BRANCH   3   4
ATOM      4  C   UNL     1       6.726  20.098  43.566  1.00  0.00     0.000 C 
BRANCH   4   5
ATOM      5  C   UNL     1       7.727  19.146  44.236  1.00  0.00     0.006 C 
BRANCH   5   6
ATOM      6  C   UNL     1       9.156  19.431  43.768  1.00  0.00     0.053 C 
BRANCH   6   7
ATOM      7  C   UNL     1      10.145  18.982  44.796  1.00  0.00     0.041 C 
ATOM      8  O   UNL     1      10.294  19.637  45.862  1.00  0.00    -0.550 OA
ATOM      9  O   UNL     1      10.867  17.812  44.601  1.00  0.00    -0.550 OA
ENDBRANCH   6   7
ENDBRANCH   5   6
ENDBRANCH   4   5
ENDBRANCH   3   4
ENDBRANCH   2   3
ENDBRANCH   1   2
BRANCH   1  10
ATOM     10  C   UNL     1       7.005  23.246  46.506  1.00  0.00     0.027 C 
BRANCH  10  11
ATOM     11  C   UNL     1       8.237  22.623  45.900  1.00  0.00    -0.031 C 
ATOM     12  C   UNL     1       8.804  23.019  44.745  1.00  0.00    -0.031 C 
BRANCH  12  13
ATOM     13  C   UNL     1       8.347  24.202  43.929  1.00  0.00     0.027 C 
BRANCH  13  14
ATOM     14  C   UNL     1       7.601  23.740  42.672  1.00  0.00     0.004 C 
BRANCH  14  15
ATOM     15  C   UNL     1       6.083  23.821  42.872  1.00  0.00     0.000 C 
BRANCH  15  16
ATOM     16  C   UNL     1       5.705  25.033  43.734  1.00  0.00    -0.000 C 
BRANCH  16  17
ATOM     17  C   UNL     1       4.239  24.999  44.191  1.00  0.00    -0.003 C 
ATOM     18  C   UNL     1       3.603  23.618  44.034  1.00  0.00     0.004 C 
ENDBRANCH  16  17
ENDBRANCH  15  16
ENDBRANCH  14  15
ENDBRANCH  13  14
ENDBRANCH  12  13
ENDBRANCH  10  11
ENDBRANCH   1  10
TORSDOF 13
ENDMDL
MODEL 7
REMARK VINA RESULT:    -5.506      1.070      2.720
REMARK INTER + INTRA:         -12.338
REMARK INTER:                  -9.638
REMARK INTRA:                  -2.700
REMARK UNBOUND:                -2.647
REMARK SMILES CCCCCCC=CCCCCCCCC(=O)[O-]
REMARK SMILES IDX 10 1 11 2 12 3 13 4 14 5 15 6 16 7 17 8 18 9 9 10 8 11 7 12
REMARK SMILES IDX 6 13 5 14 4 15 3 16 2 17 1 18
REMARK H PARENT
REMARK Flexibility Score: inf
ROOT
ATOM      1  C   UNL     1       8.087  23.607  46.305  1.00  0.00     0.004 C 
ENDROOT
BRANCH   1   2
ATOM      2  C   UNL     1       8.225  24.287  44.933  1.00  0.00     0.000 C 
BRANCH   2   3
ATOM      3  C   UNL     1       8.316  23.318  43.739  1.00  0.00     0.000 C 
BRANCH   3   4
ATOM      4  C   UNL     1       7.315  23.631  42.607  1.00  0.00     0.000 C 
BRANCH   4   5
ATOM      5  C   UNL     1       6.218  24.610  43.050  1.00  0.00     0.006 C 
BRANCH   5   6
ATOM      6  C   UNL     1       4.833  24.112  42.631  1.00  0.00     0.053 C 
BRANCH   6   7
ATOM      7  C   UNL     1       3.762  24.932  43.277  1.00  0.00     0.041 C 
ATOM      8  O   UNL     1       3.697  26.172  43.062  1.00  0.00    -0.550 OA
ATOM      9  O   UNL     1       2.805  24.321  44.077  1.00  0.00    -0.550 OA
ENDBRANCH   6   7
ENDBRANCH   5   6
ENDBRANCH   4   5
ENDBRANCH   3   4
ENDBRANCH   2   3
ENDBRANCH   1   2
BRANCH   1  10
ATOM     10  C   UNL     1       7.246  22.323  46.248  1.00  0.00     0.027 C 
BRANCH  10  11
ATOM     11  C   UNL     1       5.781  22.654  46.119  1.00  0.00    -0.031 C 
ATOM     12  C   UNL     1       4.879  21.891  45.471  1.00  0.00    -0.031 C 
BRANCH  12  13
ATOM     13  C   UNL     1       5.181  20.548  44.856  1.00  0.00     0.027 C 
BRANCH  13  14
ATOM     14  C   UNL     1       5.339  20.669  43.336  1.00  0.00     0.004 C 
BRANCH  14  15
ATOM     15  C   UNL     1       6.678  20.084  42.873  1.00  0.00     0.000 C 
BRANCH  15  16
ATOM     16  C   UNL     1       7.515  19.612  44.070  1.00  0.00    -0.000 C 
BRANCH  16  17
ATOM     17  C   UNL     1       9.026  19.727  43.816  1.00  0.00    -0.003 C 
ATOM     18  C   UNL     1       9.806  20.134  45.066  1.00  0.00     0.004 C 
ENDBRANCH  16  17
ENDBRANCH  15  16
ENDBRANCH  14  15
ENDBRANCH  13  14
ENDBRANCH  12  13
ENDBRANCH  10  11
ENDBRANCH   1  10
TORSDOF 13
ENDMDL
MODEL 8
REMARK VINA RESULT:    -5.494      1.243      2.623
REMARK INTER + INTRA:         -12.316
REMARK INTER:                  -9.739
REMARK INTRA:                  -2.576
REMARK UNBOUND:                -2.647
REMARK SMILES CCCCCCC=CCCCCCCCC(=O)[O-]
REMARK SMILES IDX 10 1 11 2 12 3 13 4 14 5 15 6 16 7 17 8 18 9 9 10 8 11 7 12
REMARK SMILES IDX 6 13 5 14 4 15 3 16 2 17 1 18
REMARK H PARENT
REMARK Flexibility Score: inf
ROOT
ATOM      1  C   UNL     1       7.438  21.896  42.156  1.00  0.00     0.004 C 
ENDROOT
BRANCH   1   2
ATOM      2  C   UNL     1       5.901  21.908  42.123  1.00  0.00     0.000 C 
BRANCH   2   3
ATOM      3  C   UNL     1       5.225  21.071  43.226  1.00  0.00     0.000 C 
BRANCH   3   4
ATOM      4  C   UNL     1       4.777  21.902  44.448  1.00  0.00     0.000 C 
BRANCH   4   5
ATOM      5  C   UNL     1       3.625  22.861  44.112  1.00  0.00     0.006 C 
BRANCH   5   6
ATOM      6  C   UNL     1       3.855  24.238  44.740  1.00  0.00     0.053 C 
BRANCH   6   7
ATOM      7  C   UNL     1       3.307  25.314  43.858  1.00  0.00     0.041 C 
ATOM      8  O   UNL     1       2.109  25.685  43.978  1.00  0.00    -0.550 OA
ATOM      9  O   UNL     1       4.132  25.944  42.935  1.00  0.00    -0.550 OA
ENDBRANCH   6   7
ENDBRANCH   5   6
ENDBRANCH   4   5
ENDBRANCH   3   4
ENDBRANCH   2   3
ENDBRANCH   1   2
BRANCH   1  10
ATOM     10  C   UNL     1       8.043  23.307  42.133  1.00  0.00     0.027 C 
BRANCH  10  11
ATOM     11  C   UNL     1       7.252  24.238  43.017  1.00  0.00    -0.031 C 
ATOM     12  C   UNL     1       7.492  24.433  44.328  1.00  0.00    -0.031 C 
BRANCH  12  13
ATOM     13  C   UNL     1       8.641  23.820  45.088  1.00  0.00     0.027 C 
BRANCH  13  14
ATOM     14  C   UNL     1       8.156  22.663  45.968  1.00  0.00     0.004 C 
BRANCH  14  15
ATOM     15  C   UNL     1       8.873  21.357  45.605  1.00  0.00     0.000 C 
BRANCH  15  16
ATOM     16  C   UNL     1       7.902  20.169  45.641  1.00  0.00    -0.000 C 
BRANCH  16  17
ATOM     17  C   UNL     1       8.085  19.221  44.445  1.00  0.00    -0.003 C 
ATOM     18  C   UNL     1       9.536  19.139  43.972  1.00  0.00     0.004 C 
ENDBRANCH  16  17
ENDBRANCH  15  16
ENDBRANCH  14  15
ENDBRANCH  13  14
ENDBRANCH  12  13
ENDBRANCH  10  11
ENDBRANCH   1  10
TORSDOF 13
ENDMDL
MODEL 9
REMARK VINA RESULT:    -5.412      3.550      5.856
REMARK INTER + INTRA:         -12.171
REMARK INTER:                  -9.612
REMARK INTRA:                  -2.560
REMARK UNBOUND:                -2.647
REMARK SMILES CCCCCCC=CCCCCCCCC(=O)[O-]
REMARK SMILES IDX 10 1 11 2 12 3 13 4 14 5 15 6 16 7 17 8 18 9 9 10 8 11 7 12
REMARK SMILES IDX 6 13 5 14 4 15 3 16 2 17 1 18
REMARK H PARENT
REMARK Flexibility Score: inf
ROOT
ATOM      1  C   UNL     1       4.504  21.784  45.166  1.00  0.00     0.004 C 
ENDROOT
BRANCH   1   2
ATOM      2  C   UNL     1       5.537  22.115  46.255  1.00  0.00     0.000 C 
BRANCH   2   3
ATOM      3  C   UNL     1       6.843  21.300  46.174  1.00  0.00     0.000 C 
BRANCH   3   4
ATOM      4  C   UNL     1       8.101  22.165  45.950  1.00  0.00     0.000 C 
BRANCH   4   5
ATOM      5  C   UNL     1       9.309  21.333  45.495  1.00  0.00     0.006 C 
BRANCH   5   6
ATOM      6  C   UNL     1       9.124  19.855  45.849  1.00  0.00     0.053 C 
BRANCH   6   7
ATOM      7  C   UNL     1      10.121  19.012  45.120  1.00  0.00     0.041 C 
ATOM      8  O   UNL     1       9.937  18.716  43.909  1.00  0.00    -0.550 OA
ATOM      9  O   UNL     1      11.280  18.594  45.762  1.00  0.00    -0.550 OA
ENDBRANCH   6   7
ENDBRANCH   5   6
ENDBRANCH   4   5
ENDBRANCH   3   4
ENDBRANCH   2   3
ENDBRANCH   1   2
BRANCH   1  10
ATOM     10  C   UNL     1       3.951  23.039  44.473  1.00  0.00     0.027 C 
BRANCH  10  11
ATOM     11  C   UNL     1       4.683  24.270  44.941  1.00  0.00    -0.031 C 
ATOM     12  C   UNL     1       5.655  24.892  44.246  1.00  0.00    -0.031 C 
BRANCH  12  13
ATOM     13  C   UNL     1       6.093  24.504  42.856  1.00  0.00     0.027 C 
BRANCH  13  14
ATOM     14  C   UNL     1       7.545  24.013  42.861  1.00  0.00     0.004 C 
BRANCH  14  15
ATOM     15  C   UNL     1       7.642  22.575  42.337  1.00  0.00     0.000 C 
BRANCH  15  16
ATOM     16  C   UNL     1       6.350  22.164  41.617  1.00  0.00    -0.000 C 
BRANCH  16  17
ATOM     17  C   UNL     1       5.829  20.793  42.074  1.00  0.00    -0.003 C 
ATOM     18  C   UNL     1       6.849  20.025  42.915  1.00  0.00     0.004 C 
ENDBRANCH  16  17
ENDBRANCH  15  16
ENDBRANCH  14  15
ENDBRANCH  13  14
ENDBRANCH  12  13
ENDBRANCH  10  11
ENDBRANCH   1  10
TORSDOF 13
ENDMDL
