MODEL 1
REMARK VINA RESULT:    -2.319      0.000      0.000
REMARK INTER + INTRA:          -2.918
REMARK INTER:                  -2.658
REMARK INTRA:                  -0.260
REMARK UNBOUND:                -0.260
REMARK SMILES CC=Cc1ccc(O)c(OC)c1
REMARK SMILES IDX 4 1 12 2 9 3 7 4 6 5 5 6 3 7 1 8 2 9 10 10 11 11 8 12
REMARK H PARENT 8 13
REMARK Flexibility Score: inf
ROOT
ATOM      1  C   UNL     1     126.817 108.899 133.899  1.00  0.00    -0.022 A 
ATOM      2  C   UNL     1     126.281 108.728 135.184  1.00  0.00     0.058 A 
ATOM      3  C   UNL     1     126.000 109.843 136.000  1.00  0.00     0.161 A 
ATOM      4  C   UNL     1     126.285 111.134 135.518  1.00  0.00     0.157 A 
ATOM      5  C   UNL     1     126.848 111.300 134.249  1.00  0.00     0.051 A 
ATOM      6  C   UNL     1     127.123 110.191 133.447  1.00  0.00     0.012 A 
ENDROOT
BRANCH   1   7
ATOM      7  C   UNL     1     127.125 107.706 133.083  1.00  0.00     0.003 C 
ATOM      8  C   UNL     1     124.922 107.699 131.881  1.00  0.00     0.035 C 
ATOM      9  C   UNL     1     126.299 107.179 132.169  1.00  0.00    -0.030 C 
ENDBRANCH   1   7
BRANCH   3  10
ATOM     10  O   UNL     1     125.446 109.706 137.282  1.00  0.00    -0.493 OA
ATOM     11  C   UNL     1     126.191 109.391 138.454  1.00  0.00     0.278 C 
ENDBRANCH   3  10
BRANCH   4  12
ATOM     12  O   UNL     1     126.023 112.266 136.290  1.00  0.00    -0.504 OA
ATOM     13  H   UNL     1     125.133 112.410 136.752  1.00  0.00     0.293 HD
ENDBRANCH   4  12
TORSDOF 3
ENDMDL
MODEL 2
REMARK VINA RESULT:    -2.170      1.489      2.523
REMARK INTER + INTRA:          -2.747
REMARK INTER:                  -2.514
REMARK INTRA:                  -0.234
REMARK UNBOUND:                -0.260
REMARK SMILES CC=Cc1ccc(O)c(OC)c1
REMARK SMILES IDX 4 1 12 2 9 3 7 4 6 5 5 6 3 7 1 8 2 9 10 10 11 11 8 12
REMARK H PARENT 8 13
REMARK Flexibility Score: inf
ROOT
ATOM      1  C   UNL     1     126.644 109.256 134.226  1.00  0.00    -0.022 A 
ATOM      2  C   UNL     1     126.376 110.313 135.108  1.00  0.00     0.058 A 
ATOM      3  C   UNL     1     125.891 110.058 136.408  1.00  0.00     0.161 A 
ATOM      4  C   UNL     1     125.657 108.728 136.804  1.00  0.00     0.157 A 
ATOM      5  C   UNL     1     125.896 107.679 135.911  1.00  0.00     0.051 A 
ATOM      6  C   UNL     1     126.376 107.939 134.627  1.00  0.00     0.012 A 
ENDROOT
BRANCH   1   7
ATOM      7  C   UNL     1     127.125 109.562 132.862  1.00  0.00     0.003 C 
ATOM      8  C   UNL     1     124.831 109.704 131.855  1.00  0.00     0.035 C 
ATOM      9  C   UNL     1     126.328 109.784 131.809  1.00  0.00    -0.030 C 
ENDBRANCH   1   7
BRANCH   3  10
ATOM     10  O   UNL     1     125.631 111.093 137.321  1.00  0.00    -0.493 OA
ATOM     11  C   UNL     1     126.633 111.888 137.946  1.00  0.00     0.278 C 
ENDBRANCH   3  10
BRANCH   4  12
ATOM     12  O   UNL     1     125.178 108.430 138.080  1.00  0.00    -0.504 OA
ATOM     13  H   UNL     1     125.695 108.664 138.919  1.00  0.00     0.293 HD
ENDBRANCH   4  12
TORSDOF 3
ENDMDL
MODEL 3
REMARK VINA RESULT:    -2.169      1.574      3.335
REMARK INTER + INTRA:          -2.746
REMARK INTER:                  -2.508
REMARK INTRA:                  -0.238
REMARK UNBOUND:                -0.260
REMARK SMILES CC=Cc1ccc(O)c(OC)c1
REMARK SMILES IDX 4 1 12 2 9 3 7 4 6 5 5 6 3 7 1 8 2 9 10 10 11 11 8 12
REMARK H PARENT 8 13
REMARK Flexibility Score: inf
ROOT
ATOM      1  C   UNL     1     126.796 110.742 134.445  1.00  0.00    -0.022 A 
ATOM      2  C   UNL     1     126.197 110.578 135.703  1.00  0.00     0.058 A 
ATOM      3  C   UNL     1     125.846 109.295 136.169  1.00  0.00     0.161 A 
ATOM      4  C   UNL     1     126.085 108.178 135.347  1.00  0.00     0.157 A 
ATOM      5  C   UNL     1     126.654 108.348 134.082  1.00  0.00     0.051 A 
ATOM      6  C   UNL     1     126.999 109.621 133.628  1.00  0.00     0.012 A 
ENDROOT
BRANCH   1   7
ATOM      7  C   UNL     1     127.125 112.105 133.977  1.00  0.00     0.003 C 
ATOM      8  C   UNL     1     124.911 112.485 132.859  1.00  0.00     0.035 C 
ATOM      9  C   UNL     1     126.287 112.894 133.291  1.00  0.00    -0.030 C 
ENDBRANCH   1   7
BRANCH   3  10
ATOM     10  O   UNL     1     125.263 109.095 137.431  1.00  0.00    -0.493 OA
ATOM     11  C   UNL     1     125.978 109.102 138.661  1.00  0.00     0.278 C 
ENDBRANCH   3  10
BRANCH   4  12
ATOM     12  O   UNL     1     125.755 106.889 135.769  1.00  0.00    -0.504 OA
ATOM     13  H   UNL     1     125.555 106.142 135.117  1.00  0.00     0.293 HD
ENDBRANCH   4  12
TORSDOF 3
ENDMDL
MODEL 4
REMARK VINA RESULT:    -2.148      1.058      2.655
REMARK INTER + INTRA:          -2.723
REMARK INTER:                  -2.500
REMARK INTRA:                  -0.223
REMARK UNBOUND:                -0.260
REMARK SMILES CC=Cc1ccc(O)c(OC)c1
REMARK SMILES IDX 4 1 12 2 9 3 7 4 6 5 5 6 3 7 1 8 2 9 10 10 11 11 8 12
REMARK H PARENT 8 13
REMARK Flexibility Score: inf
ROOT
ATOM      1  C   UNL     1     126.772 109.058 134.203  1.00  0.00    -0.022 A 
ATOM      2  C   UNL     1     127.101 110.408 134.016  1.00  0.00     0.058 A 
ATOM      3  C   UNL     1     126.757 111.372 134.985  1.00  0.00     0.161 A 
ATOM      4  C   UNL     1     126.057 110.967 136.137  1.00  0.00     0.157 A 
ATOM      5  C   UNL     1     125.704 109.625 136.306  1.00  0.00     0.051 A 
ATOM      6  C   UNL     1     126.049 108.676 135.342  1.00  0.00     0.012 A 
ENDROOT
BRANCH   1   7
ATOM      7  C   UNL     1     127.124 108.078 133.153  1.00  0.00     0.003 C 
ATOM      8  C   UNL     1     124.978 108.348 131.883  1.00  0.00     0.035 C 
ATOM      9  C   UNL     1     126.344 107.773 132.108  1.00  0.00    -0.030 C 
ENDBRANCH   1   7
BRANCH   3  10
ATOM     10  O   UNL     1     127.088 112.729 134.836  1.00  0.00    -0.493 OA
ATOM     11  C   UNL     1     126.808 113.505 133.676  1.00  0.00     0.278 C 
ENDBRANCH   3  10
BRANCH   4  12
ATOM     12  O   UNL     1     125.697 111.887 137.122  1.00  0.00    -0.504 OA
ATOM     13  H   UNL     1     124.741 111.998 137.434  1.00  0.00     0.293 HD
ENDBRANCH   4  12
TORSDOF 3
ENDMDL
MODEL 5
REMARK VINA RESULT:    -2.133      1.340      1.455
REMARK INTER + INTRA:          -2.705
REMARK INTER:                  -2.472
REMARK INTRA:                  -0.233
REMARK UNBOUND:                -0.260
REMARK SMILES CC=Cc1ccc(O)c(OC)c1
REMARK SMILES IDX 4 1 12 2 9 3 7 4 6 5 5 6 3 7 1 8 2 9 10 10 11 11 8 12
REMARK H PARENT 8 13
REMARK Flexibility Score: inf
ROOT
ATOM      1  C   UNL     1     126.396 108.990 134.610  1.00  0.00    -0.022 A 
ATOM      2  C   UNL     1     125.998 109.581 135.818  1.00  0.00     0.058 A 
ATOM      3  C   UNL     1     126.137 110.970 136.018  1.00  0.00     0.161 A 
ATOM      4  C   UNL     1     126.701 111.757 134.996  1.00  0.00     0.157 A 
ATOM      5  C   UNL     1     127.124 111.161 133.805  1.00  0.00     0.051 A 
ATOM      6  C   UNL     1     126.983 109.785 133.615  1.00  0.00     0.012 A 
ENDROOT
BRANCH   1   7
ATOM      7  C   UNL     1     126.262 107.528 134.446  1.00  0.00     0.003 C 
ATOM      8  C   UNL     1     123.896 107.624 133.617  1.00  0.00     0.035 C 
ATOM      9  C   UNL     1     125.164 106.914 133.985  1.00  0.00    -0.030 C 
ENDBRANCH   1   7
BRANCH   3  10
ATOM     10  O   UNL     1     125.731 111.595 137.208  1.00  0.00    -0.493 OA
ATOM     11  C   UNL     1     126.094 111.158 138.514  1.00  0.00     0.278 C 
ENDBRANCH   3  10
BRANCH   4  12
ATOM     12  O   UNL     1     126.855 113.135 135.151  1.00  0.00    -0.504 OA
ATOM     13  H   UNL     1     126.259 113.802 134.677  1.00  0.00     0.293 HD
ENDBRANCH   4  12
TORSDOF 3
ENDMDL
MODEL 6
REMARK VINA RESULT:    -1.965      1.752      2.479
REMARK INTER + INTRA:          -2.513
REMARK INTER:                  -2.257
REMARK INTRA:                  -0.255
REMARK UNBOUND:                -0.260
REMARK SMILES CC=Cc1ccc(O)c(OC)c1
REMARK SMILES IDX 4 1 12 2 9 3 7 4 6 5 5 6 3 7 1 8 2 9 10 10 11 11 8 12
REMARK H PARENT 8 13
REMARK Flexibility Score: inf
ROOT
ATOM      1  C   UNL     1     126.234 110.759 134.317  1.00  0.00    -0.022 A 
ATOM      2  C   UNL     1     126.766 111.258 135.515  1.00  0.00     0.058 A 
ATOM      3  C   UNL     1     125.995 112.089 136.353  1.00  0.00     0.161 A 
ATOM      4  C   UNL     1     124.686 112.430 135.963  1.00  0.00     0.157 A 
ATOM      5  C   UNL     1     124.169 111.956 134.754  1.00  0.00     0.051 A 
ATOM      6  C   UNL     1     124.939 111.134 133.930  1.00  0.00     0.012 A 
ENDROOT
BRANCH   1   7
ATOM      7  C   UNL     1     127.081 109.913 133.450  1.00  0.00     0.003 C 
ATOM      8  C   UNL     1     126.355 107.749 134.490  1.00  0.00     0.035 C 
ATOM      9  C   UNL     1     127.125 108.576 133.505  1.00  0.00    -0.030 C 
ENDBRANCH   1   7
BRANCH   3  10
ATOM     10  O   UNL     1     126.492 112.589 137.567  1.00  0.00    -0.493 OA
ATOM     11  C   UNL     1     126.728 111.801 138.729  1.00  0.00     0.278 C 
ENDBRANCH   3  10
BRANCH   4  12
ATOM     12  O   UNL     1     123.887 113.248 136.762  1.00  0.00    -0.504 OA
ATOM     13  H   UNL     1     123.994 113.291 137.768  1.00  0.00     0.293 HD
ENDBRANCH   4  12
TORSDOF 3
ENDMDL
MODEL 7
REMARK VINA RESULT:    -1.881      1.514      3.168
REMARK INTER + INTRA:          -2.416
REMARK INTER:                  -2.187
REMARK INTRA:                  -0.229
REMARK UNBOUND:                -0.260
REMARK SMILES CC=Cc1ccc(O)c(OC)c1
REMARK SMILES IDX 4 1 12 2 9 3 7 4 6 5 5 6 3 7 1 8 2 9 10 10 11 11 8 12
REMARK H PARENT 8 13
REMARK Flexibility Score: inf
ROOT
ATOM      1  C   UNL     1     125.515 109.418 135.682  1.00  0.00    -0.022 A 
ATOM      2  C   UNL     1     125.886 110.769 135.637  1.00  0.00     0.058 A 
ATOM      3  C   UNL     1     126.431 111.403 136.772  1.00  0.00     0.161 A 
ATOM      4  C   UNL     1     126.578 110.667 137.963  1.00  0.00     0.157 A 
ATOM      5  C   UNL     1     126.179 109.329 138.013  1.00  0.00     0.051 A 
ATOM      6  C   UNL     1     125.641 108.709 136.885  1.00  0.00     0.012 A 
ENDROOT
BRANCH   1   7
ATOM      7  C   UNL     1     124.921 108.794 134.480  1.00  0.00     0.003 C 
ATOM      8  C   UNL     1     127.121 108.097 133.495  1.00  0.00     0.035 C 
ATOM      9  C   UNL     1     125.625 108.186 133.516  1.00  0.00    -0.030 C 
ENDBRANCH   1   7
BRANCH   3  10
ATOM     10  O   UNL     1     126.830 112.749 136.754  1.00  0.00    -0.493 OA
ATOM     11  C   UNL     1     127.047 113.511 135.571  1.00  0.00     0.278 C 
ENDBRANCH   3  10
BRANCH   4  12
ATOM     12  O   UNL     1     127.114 111.254 139.110  1.00  0.00    -0.504 OA
ATOM     13  H   UNL     1     127.874 111.922 139.071  1.00  0.00     0.293 HD
ENDBRANCH   4  12
TORSDOF 3
ENDMDL
MODEL 8
REMARK VINA RESULT:    -1.874      2.282      5.505
REMARK INTER + INTRA:          -2.409
REMARK INTER:                  -2.148
REMARK INTRA:                  -0.260
REMARK UNBOUND:                -0.260
REMARK SMILES CC=Cc1ccc(O)c(OC)c1
REMARK SMILES IDX 4 1 12 2 9 3 7 4 6 5 5 6 3 7 1 8 2 9 10 10 11 11 8 12
REMARK H PARENT 8 13
REMARK Flexibility Score: inf
ROOT
ATOM      1  C   UNL     1     126.668 111.033 138.014  1.00  0.00    -0.022 A 
ATOM      2  C   UNL     1     126.116 110.414 136.883  1.00  0.00     0.058 A 
ATOM      3  C   UNL     1     125.866 109.026 136.874  1.00  0.00     0.161 A 
ATOM      4  C   UNL     1     126.198 108.263 138.008  1.00  0.00     0.157 A 
ATOM      5  C   UNL     1     126.776 108.878 139.122  1.00  0.00     0.051 A 
ATOM      6  C   UNL     1     127.020 110.252 139.124  1.00  0.00     0.012 A 
ENDROOT
BRANCH   1   7
ATOM      7  C   UNL     1     126.942 112.485 137.978  1.00  0.00     0.003 C 
ATOM      8  C   UNL     1     124.753 113.139 139.015  1.00  0.00     0.035 C 
ATOM      9  C   UNL     1     126.107 113.426 138.440  1.00  0.00    -0.030 C 
ENDBRANCH   1   7
BRANCH   3  10
ATOM     10  O   UNL     1     125.296 108.380 135.765  1.00  0.00    -0.493 OA
ATOM     11  C   UNL     1     126.022 107.967 134.611  1.00  0.00     0.278 C 
ENDBRANCH   3  10
BRANCH   4  12
ATOM     12  O   UNL     1     125.966 106.887 138.043  1.00  0.00    -0.504 OA
ATOM     13  H   UNL     1     125.477 106.441 138.808  1.00  0.00     0.293 HD
ENDBRANCH   4  12
TORSDOF 3
ENDMDL
MODEL 9
REMARK VINA RESULT:    -1.870      2.035      3.742
REMARK INTER + INTRA:          -2.404
REMARK INTER:                  -2.156
REMARK INTRA:                  -0.247
REMARK UNBOUND:                -0.260
REMARK SMILES CC=Cc1ccc(O)c(OC)c1
REMARK SMILES IDX 4 1 12 2 9 3 7 4 6 5 5 6 3 7 1 8 2 9 10 10 11 11 8 12
REMARK H PARENT 8 13
REMARK Flexibility Score: inf
ROOT
ATOM      1  C   UNL     1     125.930 108.776 136.150  1.00  0.00    -0.022 A 
ATOM      2  C   UNL     1     125.952 110.176 136.072  1.00  0.00     0.058 A 
ATOM      3  C   UNL     1     126.343 110.823 134.882  1.00  0.00     0.161 A 
ATOM      4  C   UNL     1     126.732 110.046 133.775  1.00  0.00     0.157 A 
ATOM      5  C   UNL     1     126.737 108.651 133.865  1.00  0.00     0.051 A 
ATOM      6  C   UNL     1     126.349 108.018 135.047  1.00  0.00     0.012 A 
ENDROOT
BRANCH   1   7
ATOM      7  C   UNL     1     125.542 108.131 137.422  1.00  0.00     0.003 C 
ATOM      8  C   UNL     1     123.117 107.913 136.817  1.00  0.00     0.035 C 
ATOM      9  C   UNL     1     124.300 107.725 137.718  1.00  0.00    -0.030 C 
ENDBRANCH   1   7
BRANCH   3  10
ATOM     10  O   UNL     1     126.358 112.222 134.766  1.00  0.00    -0.493 OA
ATOM     11  C   UNL     1     126.982 113.102 135.695  1.00  0.00     0.278 C 
ENDBRANCH   3  10
BRANCH   4  12
ATOM     12  O   UNL     1     127.124 110.645 132.577  1.00  0.00    -0.504 OA
ATOM     13  H   UNL     1     127.875 111.322 132.532  1.00  0.00     0.293 HD
ENDBRANCH   4  12
TORSDOF 3
ENDMDL
