MODEL 1
REMARK VINA RESULT:    -4.346      0.000      0.000
REMARK INTER + INTRA:         -10.533
REMARK INTER:                  -9.427
REMARK INTRA:                  -1.106
REMARK UNBOUND:                -1.106
REMARK SMILES CCCCCCCCCCCCCCCCCCCCCC(=O)[O-]
REMARK SMILES IDX 12 1 11 2 10 3 9 4 8 5 7 6 6 7 5 8 4 9 3 10 2 11 1 12 13 13
REMARK SMILES IDX 14 14 15 15 16 16 17 17 18 18 19 19 20 20 21 21 22 22 23 23
REMARK SMILES IDX 24 24
REMARK H PARENT
REMARK Flexibility Score: inf
ROOT
ATOM      1  C   UNL     1      -6.815  -9.877   0.898  1.00  0.00     0.000 C 
ENDROOT
BRANCH   1   2
ATOM      2  C   UNL     1      -6.339 -11.314   0.622  1.00  0.00     0.000 C 
BRANCH   2   3
ATOM      3  C   UNL     1      -5.515 -11.895   1.782  1.00  0.00     0.000 C 
BRANCH   3   4
ATOM      4  C   UNL     1      -5.121 -13.363   1.548  1.00  0.00    -0.000 C 
BRANCH   4   5
ATOM      5  C   UNL     1      -5.994 -14.051   0.485  1.00  0.00    -0.000 C 
BRANCH   5   6
ATOM      6  C   UNL     1      -6.689 -15.335   0.988  1.00  0.00    -0.000 C 
BRANCH   6   7
ATOM      7  C   UNL     1      -5.680 -16.439   1.349  1.00  0.00    -0.000 C 
BRANCH   7   8
ATOM      8  C   UNL     1      -5.896 -17.726   0.525  1.00  0.00    -0.000 C 
BRANCH   8   9
ATOM      9  C   UNL     1      -6.704 -18.810   1.266  1.00  0.00    -0.000 C 
BRANCH   9  10
ATOM     10  C   UNL     1      -6.621 -20.214   0.646  1.00  0.00    -0.000 C 
BRANCH  10  11
ATOM     11  C   UNL     1      -7.494 -20.363  -0.607  1.00  0.00    -0.003 C 
ATOM     12  C   UNL     1      -6.646 -20.710  -1.828  1.00  0.00     0.004 C 
ENDBRANCH  10  11
ENDBRANCH   9  10
ENDBRANCH   8   9
ENDBRANCH   7   8
ENDBRANCH   6   7
ENDBRANCH   5   6
ENDBRANCH   4   5
ENDBRANCH   3   4
ENDBRANCH   2   3
ENDBRANCH   1   2
BRANCH   1  13
ATOM     13  C   UNL     1      -7.236  -9.138  -0.382  1.00  0.00     0.000 C 
BRANCH  13  14
ATOM     14  C   UNL     1      -7.584  -7.663  -0.130  1.00  0.00     0.000 C 
BRANCH  14  15
ATOM     15  C   UNL     1      -6.393  -6.755  -0.459  1.00  0.00     0.000 C 
BRANCH  15  16
ATOM     16  C   UNL     1      -6.009  -5.890   0.750  1.00  0.00     0.000 C 
BRANCH  16  17
ATOM     17  C   UNL     1      -5.668  -4.438   0.365  1.00  0.00     0.000 C 
BRANCH  17  18
ATOM     18  C   UNL     1      -5.785  -3.416   1.511  1.00  0.00     0.000 C 
BRANCH  18  19
ATOM     19  C   UNL     1      -6.640  -3.924   2.682  1.00  0.00     0.000 C 
BRANCH  19  20
ATOM     20  C   UNL     1      -8.071  -3.373   2.597  1.00  0.00     0.006 C 
BRANCH  20  21
ATOM     21  C   UNL     1      -9.113  -4.487   2.432  1.00  0.00     0.053 C 
BRANCH  21  22
ATOM     22  C   UNL     1     -10.504  -3.938   2.357  1.00  0.00     0.041 C 
ATOM     23  O   UNL     1     -11.493  -4.717   2.303  1.00  0.00    -0.550 OA
ATOM     24  O   UNL     1     -10.708  -2.564   2.314  1.00  0.00    -0.550 OA
ENDBRANCH  21  22
ENDBRANCH  20  21
ENDBRANCH  19  20
ENDBRANCH  18  19
ENDBRANCH  17  18
ENDBRANCH  16  17
ENDBRANCH  15  16
ENDBRANCH  14  15
ENDBRANCH  13  14
ENDBRANCH   1  13
TORSDOF 20
ENDMDL
MODEL 2
REMARK VINA RESULT:    -4.230      5.159     12.319
REMARK INTER + INTRA:         -10.281
REMARK INTER:                  -8.899
REMARK INTRA:                  -1.382
REMARK UNBOUND:                -1.106
REMARK SMILES CCCCCCCCCCCCCCCCCCCCCC(=O)[O-]
REMARK SMILES IDX 12 1 11 2 10 3 9 4 8 5 7 6 6 7 5 8 4 9 3 10 2 11 1 12 13 13
REMARK SMILES IDX 14 14 15 15 16 16 17 17 18 18 19 19 20 20 21 21 22 22 23 23
REMARK SMILES IDX 24 24
REMARK H PARENT
REMARK Flexibility Score: inf
ROOT
ATOM      1  C   UNL     1      -7.715  -8.950  -0.322  1.00  0.00     0.000 C 
ENDROOT
BRANCH   1   2
ATOM      2  C   UNL     1      -6.956  -7.612  -0.280  1.00  0.00     0.000 C 
BRANCH   2   3
ATOM      3  C   UNL     1      -7.532  -6.641   0.763  1.00  0.00     0.000 C 
BRANCH   3   4
ATOM      4  C   UNL     1      -6.459  -6.108   1.728  1.00  0.00    -0.000 C 
BRANCH   4   5
ATOM      5  C   UNL     1      -5.614  -4.980   1.114  1.00  0.00    -0.000 C 
BRANCH   5   6
ATOM      6  C   UNL     1      -6.174  -3.567   1.383  1.00  0.00    -0.000 C 
BRANCH   6   7
ATOM      7  C   UNL     1      -6.905  -3.480   2.735  1.00  0.00    -0.000 C 
BRANCH   7   8
ATOM      8  C   UNL     1      -8.027  -2.419   2.729  1.00  0.00    -0.000 C 
BRANCH   8   9
ATOM      9  C   UNL     1      -9.413  -2.978   3.106  1.00  0.00    -0.000 C 
BRANCH   9  10
ATOM     10  C   UNL     1      -9.628  -4.459   2.757  1.00  0.00    -0.000 C 
BRANCH  10  11
ATOM     11  C   UNL     1     -10.948  -4.710   2.014  1.00  0.00    -0.003 C 
ATOM     12  C   UNL     1     -12.036  -3.751   2.490  1.00  0.00     0.004 C 
ENDBRANCH  10  11
ENDBRANCH   9  10
ENDBRANCH   8   9
ENDBRANCH   7   8
ENDBRANCH   6   7
ENDBRANCH   5   6
ENDBRANCH   4   5
ENDBRANCH   3   4
ENDBRANCH   2   3
ENDBRANCH   1   2
BRANCH   1  13
ATOM     13  C   UNL     1      -6.776 -10.165  -0.249  1.00  0.00     0.000 C 
BRANCH  13  14
ATOM     14  C   UNL     1      -6.312 -10.473   1.183  1.00  0.00     0.000 C 
BRANCH  14  15
ATOM     15  C   UNL     1      -5.298 -11.623   1.195  1.00  0.00     0.000 C 
BRANCH  15  16
ATOM     16  C   UNL     1      -5.676 -12.702   0.169  1.00  0.00     0.000 C 
BRANCH  16  17
ATOM     17  C   UNL     1      -5.248 -14.117   0.599  1.00  0.00     0.000 C 
BRANCH  17  18
ATOM     18  C   UNL     1      -6.406 -15.101   0.845  1.00  0.00     0.000 C 
BRANCH  18  19
ATOM     19  C   UNL     1      -5.983 -16.336   1.655  1.00  0.00     0.000 C 
BRANCH  19  20
ATOM     20  C   UNL     1      -5.617 -17.502   0.726  1.00  0.00     0.006 C 
BRANCH  20  21
ATOM     21  C   UNL     1      -6.814 -18.420   0.445  1.00  0.00     0.053 C 
BRANCH  21  22
ATOM     22  C   UNL     1      -6.543 -19.831   0.867  1.00  0.00     0.041 C 
ATOM     23  O   UNL     1      -5.371 -20.194   1.153  1.00  0.00    -0.550 OA
ATOM     24  O   UNL     1      -7.580 -20.754   0.913  1.00  0.00    -0.550 OA
ENDBRANCH  21  22
ENDBRANCH  20  21
ENDBRANCH  19  20
ENDBRANCH  18  19
ENDBRANCH  17  18
ENDBRANCH  16  17
ENDBRANCH  15  16
ENDBRANCH  14  15
ENDBRANCH  13  14
ENDBRANCH   1  13
TORSDOF 20
ENDMDL
MODEL 3
REMARK VINA RESULT:    -3.570      1.257      2.925
REMARK INTER + INTRA:          -8.850
REMARK INTER:                  -7.615
REMARK INTRA:                  -1.236
REMARK UNBOUND:                -1.106
REMARK SMILES CCCCCCCCCCCCCCCCCCCCCC(=O)[O-]
REMARK SMILES IDX 12 1 11 2 10 3 9 4 8 5 7 6 6 7 5 8 4 9 3 10 2 11 1 12 13 13
REMARK SMILES IDX 14 14 15 15 16 16 17 17 18 18 19 19 20 20 21 21 22 22 23 23
REMARK SMILES IDX 24 24
REMARK H PARENT
REMARK Flexibility Score: inf
ROOT
ATOM      1  C   UNL     1      -7.578  -6.598   0.409  1.00  0.00     0.000 C 
ENDROOT
BRANCH   1   2
ATOM      2  C   UNL     1      -7.576  -7.875   1.268  1.00  0.00     0.000 C 
BRANCH   2   3
ATOM      3  C   UNL     1      -7.420  -9.151   0.426  1.00  0.00     0.000 C 
BRANCH   3   4
ATOM      4  C   UNL     1      -6.348 -10.101   0.987  1.00  0.00    -0.000 C 
BRANCH   4   5
ATOM      5  C   UNL     1      -6.139 -11.347   0.110  1.00  0.00    -0.000 C 
BRANCH   5   6
ATOM      6  C   UNL     1      -5.724 -12.603   0.906  1.00  0.00    -0.000 C 
BRANCH   6   7
ATOM      7  C   UNL     1      -5.983 -13.901   0.119  1.00  0.00    -0.000 C 
BRANCH   7   8
ATOM      8  C   UNL     1      -6.858 -14.900   0.906  1.00  0.00    -0.000 C 
BRANCH   8   9
ATOM      9  C   UNL     1      -6.100 -15.640   2.027  1.00  0.00    -0.000 C 
BRANCH   9  10
ATOM     10  C   UNL     1      -5.406 -16.939   1.588  1.00  0.00    -0.000 C 
BRANCH  10  11
ATOM     11  C   UNL     1      -6.350 -17.898   0.849  1.00  0.00    -0.003 C 
ATOM     12  C   UNL     1      -5.819 -19.328   0.887  1.00  0.00     0.004 C 
ENDBRANCH  10  11
ENDBRANCH   9  10
ENDBRANCH   8   9
ENDBRANCH   7   8
ENDBRANCH   6   7
ENDBRANCH   5   6
ENDBRANCH   4   5
ENDBRANCH   3   4
ENDBRANCH   2   3
ENDBRANCH   1   2
BRANCH   1  13
ATOM     13  C   UNL     1      -6.161  -6.138   0.031  1.00  0.00     0.000 C 
BRANCH  13  14
ATOM     14  C   UNL     1      -5.522  -5.241   1.103  1.00  0.00     0.000 C 
BRANCH  14  15
ATOM     15  C   UNL     1      -5.916  -3.774   0.894  1.00  0.00     0.000 C 
BRANCH  15  16
ATOM     16  C   UNL     1      -4.904  -2.831   1.563  1.00  0.00     0.000 C 
BRANCH  16  17
ATOM     17  C   UNL     1      -5.537  -1.943   2.651  1.00  0.00     0.000 C 
BRANCH  17  18
ATOM     18  C   UNL     1      -6.932  -2.390   3.125  1.00  0.00     0.000 C 
BRANCH  18  19
ATOM     19  C   UNL     1      -8.059  -1.473   2.624  1.00  0.00     0.000 C 
BRANCH  19  20
ATOM     20  C   UNL     1      -9.434  -2.108   2.871  1.00  0.00     0.006 C 
BRANCH  20  21
ATOM     21  C   UNL     1      -9.442  -3.613   2.567  1.00  0.00     0.053 C 
BRANCH  21  22
ATOM     22  C   UNL     1     -10.796  -4.083   2.132  1.00  0.00     0.041 C 
ATOM     23  O   UNL     1     -10.917  -4.823   1.120  1.00  0.00    -0.550 OA
ATOM     24  O   UNL     1     -11.929  -3.677   2.826  1.00  0.00    -0.550 OA
ENDBRANCH  21  22
ENDBRANCH  20  21
ENDBRANCH  19  20
ENDBRANCH  18  19
ENDBRANCH  17  18
ENDBRANCH  16  17
ENDBRANCH  15  16
ENDBRANCH  14  15
ENDBRANCH  13  14
ENDBRANCH   1  13
TORSDOF 20
ENDMDL
MODEL 4
REMARK VINA RESULT:    -3.208     21.110     23.265
REMARK INTER + INTRA:          -8.066
REMARK INTER:                  -5.384
REMARK INTRA:                  -2.682
REMARK UNBOUND:                -1.106
REMARK SMILES CCCCCCCCCCCCCCCCCCCCCC(=O)[O-]
REMARK SMILES IDX 12 1 11 2 10 3 9 4 8 5 7 6 6 7 5 8 4 9 3 10 2 11 1 12 13 13
REMARK SMILES IDX 14 14 15 15 16 16 17 17 18 18 19 19 20 20 21 21 22 22 23 23
REMARK SMILES IDX 24 24
REMARK H PARENT
REMARK Flexibility Score: inf
ROOT
ATOM      1  C   UNL     1     -20.581  -5.698 -13.083  1.00  0.00     0.000 C 
ENDROOT
BRANCH   1   2
ATOM      2  C   UNL     1     -22.093  -5.775 -12.809  1.00  0.00     0.000 C 
BRANCH   2   3
ATOM      3  C   UNL     1     -22.798  -4.424 -13.016  1.00  0.00     0.000 C 
BRANCH   3   4
ATOM      4  C   UNL     1     -24.102  -4.558 -13.821  1.00  0.00    -0.000 C 
BRANCH   4   5
ATOM      5  C   UNL     1     -23.862  -4.595 -15.340  1.00  0.00    -0.000 C 
BRANCH   5   6
ATOM      6  C   UNL     1     -25.009  -5.258 -16.133  1.00  0.00    -0.000 C 
BRANCH   6   7
ATOM      7  C   UNL     1     -24.525  -6.466 -16.955  1.00  0.00    -0.000 C 
BRANCH   7   8
ATOM      8  C   UNL     1     -23.001  -6.682 -16.840  1.00  0.00    -0.000 C 
BRANCH   8   9
ATOM      9  C   UNL     1     -22.604  -8.129 -16.483  1.00  0.00    -0.000 C 
BRANCH   9  10
ATOM     10  C   UNL     1     -23.550  -9.211 -17.029  1.00  0.00    -0.000 C 
BRANCH  10  11
ATOM     11  C   UNL     1     -23.437 -10.538 -16.266  1.00  0.00    -0.003 C 
ATOM     12  C   UNL     1     -24.789 -11.245 -16.191  1.00  0.00     0.004 C 
ENDBRANCH  10  11
ENDBRANCH   9  10
ENDBRANCH   8   9
ENDBRANCH   7   8
ENDBRANCH   6   7
ENDBRANCH   5   6
ENDBRANCH   4   5
ENDBRANCH   3   4
ENDBRANCH   2   3
ENDBRANCH   1   2
BRANCH   1  13
ATOM     13  C   UNL     1     -20.150  -4.328 -13.632  1.00  0.00     0.000 C 
BRANCH  13  14
ATOM     14  C   UNL     1     -19.494  -4.423 -15.017  1.00  0.00     0.000 C 
BRANCH  14  15
ATOM     15  C   UNL     1     -20.536  -4.253 -16.130  1.00  0.00     0.000 C 
BRANCH  15  16
ATOM     16  C   UNL     1     -20.252  -2.994 -16.963  1.00  0.00     0.000 C 
BRANCH  16  17
ATOM     17  C   UNL     1     -19.665  -1.841 -16.128  1.00  0.00     0.000 C 
BRANCH  17  18
ATOM     18  C   UNL     1     -20.681  -1.094 -15.245  1.00  0.00     0.000 C 
BRANCH  18  19
ATOM     19  C   UNL     1     -22.131  -1.542 -15.489  1.00  0.00     0.000 C 
BRANCH  19  20
ATOM     20  C   UNL     1     -23.086  -0.877 -14.487  1.00  0.00     0.006 C 
BRANCH  20  21
ATOM     21  C   UNL     1     -22.560  -0.952 -13.047  1.00  0.00     0.053 C 
BRANCH  21  22
ATOM     22  C   UNL     1     -23.677  -1.033 -12.052  1.00  0.00     0.041 C 
ATOM     23  O   UNL     1     -24.871  -1.118 -12.444  1.00  0.00    -0.550 OA
ATOM     24  O   UNL     1     -23.402  -0.981 -10.692  1.00  0.00    -0.550 OA
ENDBRANCH  21  22
ENDBRANCH  20  21
ENDBRANCH  19  20
ENDBRANCH  18  19
ENDBRANCH  17  18
ENDBRANCH  16  17
ENDBRANCH  15  16
ENDBRANCH  14  15
ENDBRANCH  13  14
ENDBRANCH   1  13
TORSDOF 20
ENDMDL
MODEL 5
REMARK VINA RESULT:    -3.050      2.692      3.571
REMARK INTER + INTRA:          -7.722
REMARK INTER:                  -6.575
REMARK INTRA:                  -1.147
REMARK UNBOUND:                -1.106
REMARK SMILES CCCCCCCCCCCCCCCCCCCCCC(=O)[O-]
REMARK SMILES IDX 12 1 11 2 10 3 9 4 8 5 7 6 6 7 5 8 4 9 3 10 2 11 1 12 13 13
REMARK SMILES IDX 14 14 15 15 16 16 17 17 18 18 19 19 20 20 21 21 22 22 23 23
REMARK SMILES IDX 24 24
REMARK H PARENT
REMARK Flexibility Score: inf
ROOT
ATOM      1  C   UNL     1      -7.668  -9.162   0.778  1.00  0.00     0.000 C 
ENDROOT
BRANCH   1   2
ATOM      2  C   UNL     1      -6.324  -9.630   1.362  1.00  0.00     0.000 C 
BRANCH   2   3
ATOM      3  C   UNL     1      -6.408 -11.037   1.978  1.00  0.00     0.000 C 
BRANCH   3   4
ATOM      4  C   UNL     1      -5.946 -12.134   1.005  1.00  0.00    -0.000 C 
BRANCH   4   5
ATOM      5  C   UNL     1      -6.290 -13.550   1.498  1.00  0.00    -0.000 C 
BRANCH   5   6
ATOM      6  C   UNL     1      -6.262 -14.619   0.384  1.00  0.00    -0.000 C 
BRANCH   6   7
ATOM      7  C   UNL     1      -6.554 -16.030   0.926  1.00  0.00    -0.000 C 
BRANCH   7   8
ATOM      8  C   UNL     1      -5.482 -17.056   0.500  1.00  0.00    -0.000 C 
BRANCH   8   9
ATOM      9  C   UNL     1      -5.589 -18.407   1.235  1.00  0.00    -0.000 C 
BRANCH   9  10
ATOM     10  C   UNL     1      -6.823 -19.246   0.868  1.00  0.00    -0.000 C 
BRANCH  10  11
ATOM     11  C   UNL     1      -6.700 -19.917  -0.507  1.00  0.00    -0.003 C 
ATOM     12  C   UNL     1      -5.294 -20.470  -0.724  1.00  0.00     0.004 C 
ENDBRANCH  10  11
ENDBRANCH   9  10
ENDBRANCH   8   9
ENDBRANCH   7   8
ENDBRANCH   6   7
ENDBRANCH   5   6
ENDBRANCH   4   5
ENDBRANCH   3   4
ENDBRANCH   2   3
ENDBRANCH   1   2
BRANCH   1  13
ATOM     13  C   UNL     1      -7.560  -7.807   0.060  1.00  0.00     0.000 C 
BRANCH  13  14
ATOM     14  C   UNL     1      -8.732  -6.868   0.383  1.00  0.00     0.000 C 
BRANCH  14  15
ATOM     15  C   UNL     1      -8.725  -6.472   1.864  1.00  0.00     0.000 C 
BRANCH  15  16
ATOM     16  C   UNL     1      -8.166  -5.054   2.053  1.00  0.00     0.000 C 
BRANCH  16  17
ATOM     17  C   UNL     1      -6.740  -5.043   2.635  1.00  0.00     0.000 C 
BRANCH  17  18
ATOM     18  C   UNL     1      -5.658  -4.479   1.696  1.00  0.00     0.000 C 
BRANCH  18  19
ATOM     19  C   UNL     1      -6.030  -4.599   0.210  1.00  0.00     0.000 C 
BRANCH  19  20
ATOM     20  C   UNL     1      -4.877  -4.123  -0.685  1.00  0.00     0.006 C 
BRANCH  20  21
ATOM     21  C   UNL     1      -5.106  -2.702  -1.220  1.00  0.00     0.053 C 
BRANCH  21  22
ATOM     22  C   UNL     1      -5.113  -2.669  -2.717  1.00  0.00     0.041 C 
ATOM     23  O   UNL     1      -4.956  -3.730  -3.377  1.00  0.00    -0.550 OA
ATOM     24  O   UNL     1      -5.261  -1.460  -3.385  1.00  0.00    -0.550 OA
ENDBRANCH  21  22
ENDBRANCH  20  21
ENDBRANCH  19  20
ENDBRANCH  18  19
ENDBRANCH  17  18
ENDBRANCH  16  17
ENDBRANCH  15  16
ENDBRANCH  14  15
ENDBRANCH  13  14
ENDBRANCH   1  13
TORSDOF 20
ENDMDL
MODEL 6
REMARK VINA RESULT:    -2.956     21.448     24.814
REMARK INTER + INTRA:          -7.519
REMARK INTER:                  -4.877
REMARK INTRA:                  -2.642
REMARK UNBOUND:                -1.106
REMARK SMILES CCCCCCCCCCCCCCCCCCCCCC(=O)[O-]
REMARK SMILES IDX 12 1 11 2 10 3 9 4 8 5 7 6 6 7 5 8 4 9 3 10 2 11 1 12 13 13
REMARK SMILES IDX 14 14 15 15 16 16 17 17 18 18 19 19 20 20 21 21 22 22 23 23
REMARK SMILES IDX 24 24
REMARK H PARENT
REMARK Flexibility Score: inf
ROOT
ATOM      1  C   UNL     1     -21.645  -4.799 -13.358  1.00  0.00     0.000 C 
ENDROOT
BRANCH   1   2
ATOM      2  C   UNL     1     -21.246  -3.335 -13.101  1.00  0.00     0.000 C 
BRANCH   2   3
ATOM      3  C   UNL     1     -21.941  -2.745 -11.863  1.00  0.00     0.000 C 
BRANCH   3   4
ATOM      4  C   UNL     1     -23.326  -2.159 -12.188  1.00  0.00    -0.000 C 
BRANCH   4   5
ATOM      5  C   UNL     1     -23.544  -1.948 -13.695  1.00  0.00    -0.000 C 
BRANCH   5   6
ATOM      6  C   UNL     1     -24.598  -2.895 -14.308  1.00  0.00    -0.000 C 
BRANCH   6   7
ATOM      7  C   UNL     1     -24.636  -2.805 -15.844  1.00  0.00    -0.000 C 
BRANCH   7   8
ATOM      8  C   UNL     1     -23.368  -2.144 -16.426  1.00  0.00    -0.000 C 
BRANCH   8   9
ATOM      9  C   UNL     1     -22.385  -3.143 -17.066  1.00  0.00    -0.000 C 
BRANCH   9  10
ATOM     10  C   UNL     1     -20.903  -2.886 -16.746  1.00  0.00    -0.000 C 
BRANCH  10  11
ATOM     11  C   UNL     1     -20.627  -1.433 -16.334  1.00  0.00    -0.003 C 
ATOM     12  C   UNL     1     -19.283  -1.311 -15.622  1.00  0.00     0.004 C 
ENDBRANCH  10  11
ENDBRANCH   9  10
ENDBRANCH   8   9
ENDBRANCH   7   8
ENDBRANCH   6   7
ENDBRANCH   5   6
ENDBRANCH   4   5
ENDBRANCH   3   4
ENDBRANCH   2   3
ENDBRANCH   1   2
BRANCH   1  13
ATOM     13  C   UNL     1     -20.630  -5.798 -12.780  1.00  0.00     0.000 C 
BRANCH  13  14
ATOM     14  C   UNL     1     -20.520  -7.083 -13.615  1.00  0.00     0.000 C 
BRANCH  14  15
ATOM     15  C   UNL     1     -19.879  -6.796 -14.979  1.00  0.00     0.000 C 
BRANCH  15  16
ATOM     16  C   UNL     1     -20.950  -6.531 -16.047  1.00  0.00     0.000 C 
BRANCH  16  17
ATOM     17  C   UNL     1     -22.304  -7.186 -15.716  1.00  0.00     0.000 C 
BRANCH  17  18
ATOM     18  C   UNL     1     -23.541  -6.367 -16.128  1.00  0.00     0.000 C 
BRANCH  18  19
ATOM     19  C   UNL     1     -24.464  -7.121 -17.097  1.00  0.00     0.000 C 
BRANCH  19  20
ATOM     20  C   UNL     1     -25.125  -8.321 -16.404  1.00  0.00     0.006 C 
BRANCH  20  21
ATOM     21  C   UNL     1     -24.829  -9.644 -17.125  1.00  0.00     0.053 C 
BRANCH  21  22
ATOM     22  C   UNL     1     -24.163 -10.632 -16.219  1.00  0.00     0.041 C 
ATOM     23  O   UNL     1     -24.825 -11.578 -15.714  1.00  0.00    -0.550 OA
ATOM     24  O   UNL     1     -22.817 -10.491 -15.904  1.00  0.00    -0.550 OA
ENDBRANCH  21  22
ENDBRANCH  20  21
ENDBRANCH  19  20
ENDBRANCH  18  19
ENDBRANCH  17  18
ENDBRANCH  16  17
ENDBRANCH  15  16
ENDBRANCH  14  15
ENDBRANCH  13  14
ENDBRANCH   1  13
TORSDOF 20
ENDMDL
MODEL 7
REMARK VINA RESULT:    -2.831     20.928     23.427
REMARK INTER + INTRA:          -7.247
REMARK INTER:                  -4.700
REMARK INTRA:                  -2.546
REMARK UNBOUND:                -1.106
REMARK SMILES CCCCCCCCCCCCCCCCCCCCCC(=O)[O-]
REMARK SMILES IDX 12 1 11 2 10 3 9 4 8 5 7 6 6 7 5 8 4 9 3 10 2 11 1 12 13 13
REMARK SMILES IDX 14 14 15 15 16 16 17 17 18 18 19 19 20 20 21 21 22 22 23 23
REMARK SMILES IDX 24 24
REMARK H PARENT
REMARK Flexibility Score: inf
ROOT
ATOM      1  C   UNL     1     -21.946  -4.612 -12.615  1.00  0.00     0.000 C 
ENDROOT
BRANCH   1   2
ATOM      2  C   UNL     1     -23.293  -4.942 -13.282  1.00  0.00     0.000 C 
BRANCH   2   3
ATOM      3  C   UNL     1     -23.289  -4.651 -14.792  1.00  0.00     0.000 C 
BRANCH   3   4
ATOM      4  C   UNL     1     -24.362  -5.452 -15.549  1.00  0.00    -0.000 C 
BRANCH   4   5
ATOM      5  C   UNL     1     -23.924  -5.835 -16.972  1.00  0.00    -0.000 C 
BRANCH   5   6
ATOM      6  C   UNL     1     -23.413  -7.287 -17.095  1.00  0.00    -0.000 C 
BRANCH   6   7
ATOM      7  C   UNL     1     -22.459  -7.666 -15.947  1.00  0.00    -0.000 C 
BRANCH   7   8
ATOM      8  C   UNL     1     -21.035  -7.109 -16.158  1.00  0.00    -0.000 C 
BRANCH   8   9
ATOM      9  C   UNL     1     -20.364  -6.612 -14.862  1.00  0.00    -0.000 C 
BRANCH   9  10
ATOM     10  C   UNL     1     -19.452  -7.639 -14.172  1.00  0.00    -0.000 C 
BRANCH  10  11
ATOM     11  C   UNL     1     -20.239  -8.737 -13.443  1.00  0.00    -0.003 C 
ATOM     12  C   UNL     1     -20.943  -8.181 -12.208  1.00  0.00     0.004 C 
ENDBRANCH  10  11
ENDBRANCH   9  10
ENDBRANCH   8   9
ENDBRANCH   7   8
ENDBRANCH   6   7
ENDBRANCH   5   6
ENDBRANCH   4   5
ENDBRANCH   3   4
ENDBRANCH   2   3
ENDBRANCH   1   2
BRANCH   1  13
ATOM     13  C   UNL     1     -22.006  -3.334 -11.763  1.00  0.00     0.000 C 
BRANCH  13  14
ATOM     14  C   UNL     1     -22.503  -2.115 -12.556  1.00  0.00     0.000 C 
BRANCH  14  15
ATOM     15  C   UNL     1     -23.962  -1.793 -12.210  1.00  0.00     0.000 C 
BRANCH  15  16
ATOM     16  C   UNL     1     -24.590  -0.875 -13.269  1.00  0.00     0.000 C 
BRANCH  16  17
ATOM     17  C   UNL     1     -23.815  -0.875 -14.600  1.00  0.00     0.000 C 
BRANCH  17  18
ATOM     18  C   UNL     1     -24.431  -1.745 -15.711  1.00  0.00     0.000 C 
BRANCH  18  19
ATOM     19  C   UNL     1     -23.918  -1.380 -17.113  1.00  0.00     0.000 C 
BRANCH  19  20
ATOM     20  C   UNL     1     -22.402  -1.142 -17.097  1.00  0.00     0.006 C 
BRANCH  20  21
ATOM     21  C   UNL     1     -21.608  -2.454 -17.026  1.00  0.00     0.053 C 
BRANCH  21  22
ATOM     22  C   UNL     1     -20.457  -2.354 -16.073  1.00  0.00     0.041 C 
ATOM     23  O   UNL     1     -20.252  -1.288 -15.433  1.00  0.00    -0.550 OA
ATOM     24  O   UNL     1     -19.589  -3.428 -15.916  1.00  0.00    -0.550 OA
ENDBRANCH  21  22
ENDBRANCH  20  21
ENDBRANCH  19  20
ENDBRANCH  18  19
ENDBRANCH  17  18
ENDBRANCH  16  17
ENDBRANCH  15  16
ENDBRANCH  14  15
ENDBRANCH  13  14
ENDBRANCH   1  13
TORSDOF 20
ENDMDL
MODEL 8
REMARK VINA RESULT:    -2.720     20.844     23.159
REMARK INTER + INTRA:          -7.006
REMARK INTER:                  -4.312
REMARK INTRA:                  -2.694
REMARK UNBOUND:                -1.106
REMARK SMILES CCCCCCCCCCCCCCCCCCCCCC(=O)[O-]
REMARK SMILES IDX 12 1 11 2 10 3 9 4 8 5 7 6 6 7 5 8 4 9 3 10 2 11 1 12 13 13
REMARK SMILES IDX 14 14 15 15 16 16 17 17 18 18 19 19 20 20 21 21 22 22 23 23
REMARK SMILES IDX 24 24
REMARK H PARENT
REMARK Flexibility Score: inf
ROOT
ATOM      1  C   UNL     1     -23.680  -4.950 -15.609  1.00  0.00     0.000 C 
ENDROOT
BRANCH   1   2
ATOM      2  C   UNL     1     -23.829  -5.588 -17.001  1.00  0.00     0.000 C 
BRANCH   2   3
ATOM      3  C   UNL     1     -23.073  -6.921 -17.122  1.00  0.00     0.000 C 
BRANCH   3   4
ATOM      4  C   UNL     1     -23.950  -8.131 -16.757  1.00  0.00    -0.000 C 
BRANCH   4   5
ATOM      5  C   UNL     1     -23.216  -9.471 -16.929  1.00  0.00    -0.000 C 
BRANCH   5   6
ATOM      6  C   UNL     1     -22.508  -9.960 -15.646  1.00  0.00    -0.000 C 
BRANCH   6   7
ATOM      7  C   UNL     1     -21.789  -8.816 -14.909  1.00  0.00    -0.000 C 
BRANCH   7   8
ATOM      8  C   UNL     1     -20.916  -9.327 -13.742  1.00  0.00    -0.000 C 
BRANCH   8   9
ATOM      9  C   UNL     1     -20.255  -8.201 -12.922  1.00  0.00    -0.000 C 
BRANCH   9  10
ATOM     10  C   UNL     1     -20.989  -6.852 -12.969  1.00  0.00    -0.000 C 
BRANCH  10  11
ATOM     11  C   UNL     1     -20.054  -5.676 -13.287  1.00  0.00    -0.003 C 
ATOM     12  C   UNL     1     -20.203  -5.234 -14.740  1.00  0.00     0.004 C 
ENDBRANCH  10  11
ENDBRANCH   9  10
ENDBRANCH   8   9
ENDBRANCH   7   8
ENDBRANCH   6   7
ENDBRANCH   5   6
ENDBRANCH   4   5
ENDBRANCH   3   4
ENDBRANCH   2   3
ENDBRANCH   1   2
BRANCH   1  13
ATOM     13  C   UNL     1     -25.036  -4.679 -14.936  1.00  0.00     0.000 C 
BRANCH  13  14
ATOM     14  C   UNL     1     -24.892  -4.097 -13.522  1.00  0.00     0.000 C 
BRANCH  14  15
ATOM     15  C   UNL     1     -23.475  -4.321 -12.979  1.00  0.00     0.000 C 
BRANCH  15  16
ATOM     16  C   UNL     1     -22.925  -3.043 -12.329  1.00  0.00     0.000 C 
BRANCH  16  17
ATOM     17  C   UNL     1     -23.431  -1.757 -13.010  1.00  0.00     0.000 C 
BRANCH  17  18
ATOM     18  C   UNL     1     -22.435  -1.102 -13.984  1.00  0.00     0.000 C 
BRANCH  18  19
ATOM     19  C   UNL     1     -22.673  -1.505 -15.447  1.00  0.00     0.000 C 
BRANCH  19  20
ATOM     20  C   UNL     1     -21.347  -1.588 -16.216  1.00  0.00     0.006 C 
BRANCH  20  21
ATOM     21  C   UNL     1     -20.130  -1.484 -15.287  1.00  0.00     0.053 C 
BRANCH  21  22
ATOM     22  C   UNL     1     -18.850  -1.750 -16.018  1.00  0.00     0.041 C 
ATOM     23  O   UNL     1     -17.928  -0.891 -16.020  1.00  0.00    -0.550 OA
ATOM     24  O   UNL     1     -18.687  -2.934 -16.726  1.00  0.00    -0.550 OA
ENDBRANCH  21  22
ENDBRANCH  20  21
ENDBRANCH  19  20
ENDBRANCH  18  19
ENDBRANCH  17  18
ENDBRANCH  16  17
ENDBRANCH  15  16
ENDBRANCH  14  15
ENDBRANCH  13  14
ENDBRANCH   1  13
TORSDOF 20
ENDMDL
MODEL 9
REMARK VINA RESULT:    -2.717     20.721     23.815
REMARK INTER + INTRA:          -7.000
REMARK INTER:                  -5.025
REMARK INTRA:                  -1.975
REMARK UNBOUND:                -1.106
REMARK SMILES CCCCCCCCCCCCCCCCCCCCCC(=O)[O-]
REMARK SMILES IDX 12 1 11 2 10 3 9 4 8 5 7 6 6 7 5 8 4 9 3 10 2 11 1 12 13 13
REMARK SMILES IDX 14 14 15 15 16 16 17 17 18 18 19 19 20 20 21 21 22 22 23 23
REMARK SMILES IDX 24 24
REMARK H PARENT
REMARK Flexibility Score: inf
ROOT
ATOM      1  C   UNL     1     -20.937  -6.495 -15.891  1.00  0.00     0.000 C 
ENDROOT
BRANCH   1   2
ATOM      2  C   UNL     1     -22.077  -6.470 -16.924  1.00  0.00     0.000 C 
BRANCH   2   3
ATOM      3  C   UNL     1     -23.273  -7.340 -16.501  1.00  0.00     0.000 C 
BRANCH   3   4
ATOM      4  C   UNL     1     -24.612  -6.591 -16.602  1.00  0.00    -0.000 C 
BRANCH   4   5
ATOM      5  C   UNL     1     -24.857  -5.645 -15.414  1.00  0.00    -0.000 C 
BRANCH   5   6
ATOM      6  C   UNL     1     -25.024  -4.165 -15.823  1.00  0.00    -0.000 C 
BRANCH   6   7
ATOM      7  C   UNL     1     -24.172  -3.802 -17.052  1.00  0.00    -0.000 C 
BRANCH   7   8
ATOM      8  C   UNL     1     -23.596  -2.373 -16.966  1.00  0.00    -0.000 C 
BRANCH   8   9
ATOM      9  C   UNL     1     -22.059  -2.327 -16.851  1.00  0.00    -0.000 C 
BRANCH   9  10
ATOM     10  C   UNL     1     -21.512  -1.204 -15.957  1.00  0.00    -0.000 C 
BRANCH  10  11
ATOM     11  C   UNL     1     -20.176  -1.568 -15.295  1.00  0.00    -0.003 C 
ATOM     12  C   UNL     1     -19.149  -2.008 -16.335  1.00  0.00     0.004 C 
ENDBRANCH  10  11
ENDBRANCH   9  10
ENDBRANCH   8   9
ENDBRANCH   7   8
ENDBRANCH   6   7
ENDBRANCH   5   6
ENDBRANCH   4   5
ENDBRANCH   3   4
ENDBRANCH   2   3
ENDBRANCH   1   2
BRANCH   1  13
ATOM     13  C   UNL     1     -21.376  -7.084 -14.540  1.00  0.00     0.000 C 
BRANCH  13  14
ATOM     14  C   UNL     1     -20.239  -7.112 -13.507  1.00  0.00     0.000 C 
BRANCH  14  15
ATOM     15  C   UNL     1     -20.254  -5.845 -12.642  1.00  0.00     0.000 C 
BRANCH  15  16
ATOM     16  C   UNL     1     -20.462  -4.591 -13.505  1.00  0.00     0.000 C 
BRANCH  16  17
ATOM     17  C   UNL     1     -21.948  -4.240 -13.707  1.00  0.00     0.000 C 
BRANCH  17  18
ATOM     18  C   UNL     1     -22.653  -3.658 -12.468  1.00  0.00     0.000 C 
BRANCH  18  19
ATOM     19  C   UNL     1     -24.054  -3.109 -12.778  1.00  0.00     0.000 C 
BRANCH  19  20
ATOM     20  C   UNL     1     -24.011  -1.592 -13.009  1.00  0.00     0.006 C 
BRANCH  20  21
ATOM     21  C   UNL     1     -22.757  -0.947 -12.402  1.00  0.00     0.053 C 
BRANCH  21  22
ATOM     22  C   UNL     1     -22.805  -0.944 -10.906  1.00  0.00     0.041 C 
ATOM     23  O   UNL     1     -21.738  -0.971 -10.236  1.00  0.00    -0.550 OA
ATOM     24  O   UNL     1     -24.029  -0.946 -10.249  1.00  0.00    -0.550 OA
ENDBRANCH  21  22
ENDBRANCH  20  21
ENDBRANCH  19  20
ENDBRANCH  18  19
ENDBRANCH  17  18
ENDBRANCH  16  17
ENDBRANCH  15  16
ENDBRANCH  14  15
ENDBRANCH  13  14
ENDBRANCH   1  13
TORSDOF 20
ENDMDL
