MODEL 1
REMARK VINA RESULT:    -4.586      0.000      0.000
REMARK INTER + INTRA:          -7.143
REMARK INTER:                  -6.195
REMARK INTRA:                  -0.948
REMARK UNBOUND:                -0.948
REMARK SMILES CC(=O)CCC=C(C)CCC=C(C)C
REMARK SMILES IDX 7 1 6 2 8 3 9 4 10 5 11 6 13 7 12 8 14 9 5 10 4 11 2 12 3 13
REMARK SMILES IDX 1 14
REMARK H PARENT
REMARK Flexibility Score: inf
ROOT
ATOM      1  C   UNL     1      18.406  26.402  28.109  1.00  0.00    -0.077 C 
ATOM      2  C   UNL     1      17.526  25.381  28.235  1.00  0.00    -0.028 C 
ATOM      3  C   UNL     1      18.016  27.717  27.475  1.00  0.00     0.039 C 
ENDROOT
BRANCH   1   4
ATOM      4  C   UNL     1      19.828  26.214  28.599  1.00  0.00     0.034 C 
BRANCH   4   5
ATOM      5  C   UNL     1      20.340  24.789  28.340  1.00  0.00     0.032 C 
BRANCH   5   6
ATOM      6  C   UNL     1      20.948  24.653  26.964  1.00  0.00    -0.028 C 
ATOM      7  C   UNL     1      21.218  23.723  24.688  1.00  0.00     0.039 C 
ATOM      8  C   UNL     1      20.510  23.794  26.016  1.00  0.00    -0.080 C 
ATOM      9  C   UNL     1      19.287  22.934  26.215  1.00  0.00     0.039 C 
ENDBRANCH   5   6
ENDBRANCH   4   5
ENDBRANCH   1   4
BRANCH   2  10
ATOM     10  C   UNL     1      16.079  25.445  27.819  1.00  0.00     0.035 C 
BRANCH  10  11
ATOM     11  C   UNL     1      15.695  24.215  26.991  1.00  0.00     0.079 C 
BRANCH  11  12
ATOM     12  C   UNL     1      14.942  23.219  27.833  1.00  0.00     0.130 C 
ATOM     13  O   UNL     1      14.585  23.532  28.959  1.00  0.00    -0.300 OA
ATOM     14  C   UNL     1      14.628  21.843  27.324  1.00  0.00     0.087 C 
ENDBRANCH  11  12
ENDBRANCH  10  11
ENDBRANCH   2  10
TORSDOF 6
ENDMDL
MODEL 2
REMARK VINA RESULT:    -4.404      2.744      5.549
REMARK INTER + INTRA:          -6.897
REMARK INTER:                  -5.931
REMARK INTRA:                  -0.966
REMARK UNBOUND:                -0.948
REMARK SMILES CC(=O)CCC=C(C)CCC=C(C)C
REMARK SMILES IDX 7 1 6 2 8 3 9 4 10 5 11 6 13 7 12 8 14 9 5 10 4 11 2 12 3 13
REMARK SMILES IDX 1 14
REMARK H PARENT
REMARK Flexibility Score: inf
ROOT
ATOM      1  C   UNL     1      17.749  26.074  27.954  1.00  0.00    -0.077 C 
ATOM      2  C   UNL     1      18.642  25.062  27.852  1.00  0.00    -0.028 C 
ATOM      3  C   UNL     1      18.078  27.477  27.502  1.00  0.00     0.039 C 
ENDROOT
BRANCH   1   4
ATOM      4  C   UNL     1      16.386  25.795  28.557  1.00  0.00     0.034 C 
BRANCH   4   5
ATOM      5  C   UNL     1      15.381  25.310  27.502  1.00  0.00     0.032 C 
BRANCH   5   6
ATOM      6  C   UNL     1      14.844  23.936  27.828  1.00  0.00    -0.028 C 
ATOM      7  C   UNL     1      14.570  21.491  27.572  1.00  0.00     0.039 C 
ATOM      8  C   UNL     1      15.196  22.803  27.178  1.00  0.00    -0.080 C 
ATOM      9  C   UNL     1      16.250  22.791  26.099  1.00  0.00     0.039 C 
ENDBRANCH   5   6
ENDBRANCH   4   5
ENDBRANCH   1   4
BRANCH   2  10
ATOM     10  C   UNL     1      20.016  25.195  27.246  1.00  0.00     0.035 C 
BRANCH  10  11
ATOM     11  C   UNL     1      21.098  25.116  28.327  1.00  0.00     0.079 C 
BRANCH  11  12
ATOM     12  C   UNL     1      21.604  26.491  28.677  1.00  0.00     0.130 C 
ATOM     13  O   UNL     1      22.547  26.960  28.059  1.00  0.00    -0.300 OA
ATOM     14  C   UNL     1      20.981  27.295  29.779  1.00  0.00     0.087 C 
ENDBRANCH  11  12
ENDBRANCH  10  11
ENDBRANCH   2  10
TORSDOF 6
ENDMDL
MODEL 3
REMARK VINA RESULT:    -4.282      3.536      5.887
REMARK INTER + INTRA:          -6.732
REMARK INTER:                  -6.125
REMARK INTRA:                  -0.608
REMARK UNBOUND:                -0.948
REMARK SMILES CC(=O)CCC=C(C)CCC=C(C)C
REMARK SMILES IDX 7 1 6 2 8 3 9 4 10 5 11 6 13 7 12 8 14 9 5 10 4 11 2 12 3 13
REMARK SMILES IDX 1 14
REMARK H PARENT
REMARK Flexibility Score: inf
ROOT
ATOM      1  C   UNL     1      20.023  25.308  27.857  1.00  0.00    -0.077 C 
ATOM      2  C   UNL     1      21.023  24.771  27.120  1.00  0.00    -0.028 C 
ATOM      3  C   UNL     1      18.569  25.097  27.504  1.00  0.00     0.039 C 
ENDROOT
BRANCH   1   4
ATOM      4  C   UNL     1      20.372  26.161  29.060  1.00  0.00     0.034 C 
BRANCH   4   5
ATOM      5  C   UNL     1      20.364  27.659  28.722  1.00  0.00     0.032 C 
BRANCH   5   6
ATOM      6  C   UNL     1      21.460  28.404  29.449  1.00  0.00    -0.028 C 
ATOM      7  C   UNL     1      23.766  29.183  29.886  1.00  0.00     0.039 C 
ATOM      8  C   UNL     1      22.755  28.431  29.061  1.00  0.00    -0.080 C 
ATOM      9  C   UNL     1      23.224  27.778  27.785  1.00  0.00     0.039 C 
ENDBRANCH   5   6
ENDBRANCH   4   5
ENDBRANCH   1   4
BRANCH   2  10
ATOM     10  C   UNL     1      20.816  23.881  25.921  1.00  0.00     0.035 C 
BRANCH  10  11
ATOM     11  C   UNL     1      21.332  24.554  24.646  1.00  0.00     0.079 C 
BRANCH  11  12
ATOM     12  C   UNL     1      21.795  23.525  23.649  1.00  0.00     0.130 C 
ATOM     13  O   UNL     1      22.990  23.304  23.523  1.00  0.00    -0.300 OA
ATOM     14  C   UNL     1      20.820  22.769  22.796  1.00  0.00     0.087 C 
ENDBRANCH  11  12
ENDBRANCH  10  11
ENDBRANCH   2  10
TORSDOF 6
ENDMDL
MODEL 4
REMARK VINA RESULT:    -4.270      4.804      7.901
REMARK INTER + INTRA:          -6.715
REMARK INTER:                  -5.557
REMARK INTRA:                  -1.159
REMARK UNBOUND:                -0.948
REMARK SMILES CC(=O)CCC=C(C)CCC=C(C)C
REMARK SMILES IDX 7 1 6 2 8 3 9 4 10 5 11 6 13 7 12 8 14 9 5 10 4 11 2 12 3 13
REMARK SMILES IDX 1 14
REMARK H PARENT
REMARK Flexibility Score: inf
ROOT
ATOM      1  C   UNL     1      18.608  32.020  29.755  1.00  0.00    -0.077 C 
ATOM      2  C   UNL     1      18.603  30.900  28.994  1.00  0.00    -0.028 C 
ATOM      3  C   UNL     1      19.201  32.037  31.145  1.00  0.00     0.039 C 
ENDROOT
BRANCH   1   4
ATOM      4  C   UNL     1      17.985  33.287  29.205  1.00  0.00     0.034 C 
BRANCH   4   5
ATOM      5  C   UNL     1      16.485  33.113  28.924  1.00  0.00     0.032 C 
BRANCH   5   6
ATOM      6  C   UNL     1      15.690  32.958  30.200  1.00  0.00    -0.028 C 
ATOM      7  C   UNL     1      14.195  31.828  31.814  1.00  0.00     0.039 C 
ATOM      8  C   UNL     1      14.976  31.856  30.527  1.00  0.00    -0.080 C 
ATOM      9  C   UNL     1      14.980  30.614  29.672  1.00  0.00     0.039 C 
ENDBRANCH   5   6
ENDBRANCH   4   5
ENDBRANCH   1   4
BRANCH   2  10
ATOM     10  C   UNL     1      19.214  29.585  29.406  1.00  0.00     0.035 C 
BRANCH  10  11
ATOM     11  C   UNL     1      18.150  28.647  29.983  1.00  0.00     0.079 C 
BRANCH  11  12
ATOM     12  C   UNL     1      17.483  27.859  28.885  1.00  0.00     0.130 C 
ATOM     13  O   UNL     1      16.361  27.412  29.064  1.00  0.00    -0.300 OA
ATOM     14  C   UNL     1      18.173  27.601  27.578  1.00  0.00     0.087 C 
ENDBRANCH  11  12
ENDBRANCH  10  11
ENDBRANCH   2  10
TORSDOF 6
ENDMDL
MODEL 5
REMARK VINA RESULT:    -4.224      3.069      6.293
REMARK INTER + INTRA:          -6.654
REMARK INTER:                  -6.093
REMARK INTRA:                  -0.561
REMARK UNBOUND:                -0.948
REMARK SMILES CC(=O)CCC=C(C)CCC=C(C)C
REMARK SMILES IDX 7 1 6 2 8 3 9 4 10 5 11 6 13 7 12 8 14 9 5 10 4 11 2 12 3 13
REMARK SMILES IDX 1 14
REMARK H PARENT
REMARK Flexibility Score: inf
ROOT
ATOM      1  C   UNL     1      18.645  27.563  28.248  1.00  0.00    -0.077 C 
ATOM      2  C   UNL     1      19.748  26.845  28.565  1.00  0.00    -0.028 C 
ATOM      3  C   UNL     1      17.308  26.904  28.001  1.00  0.00     0.039 C 
ENDROOT
BRANCH   1   4
ATOM      4  C   UNL     1      18.758  29.069  28.116  1.00  0.00     0.034 C 
BRANCH   4   5
ATOM      5  C   UNL     1      18.543  29.779  29.461  1.00  0.00     0.032 C 
BRANCH   5   6
ATOM      6  C   UNL     1      18.130  31.220  29.274  1.00  0.00    -0.028 C 
ATOM      7  C   UNL     1      16.560  33.127  29.131  1.00  0.00     0.039 C 
ATOM      8  C   UNL     1      16.857  31.670  29.369  1.00  0.00    -0.080 C 
ATOM      9  C   UNL     1      15.716  30.769  29.769  1.00  0.00     0.039 C 
ENDBRANCH   5   6
ENDBRANCH   4   5
ENDBRANCH   1   4
BRANCH   2  10
ATOM     10  C   UNL     1      19.767  25.350  28.758  1.00  0.00     0.035 C 
BRANCH  10  11
ATOM     11  C   UNL     1      20.855  24.704  27.895  1.00  0.00     0.079 C 
BRANCH  11  12
ATOM     12  C   UNL     1      20.249  24.009  26.704  1.00  0.00     0.130 C 
ATOM     13  O   UNL     1      19.109  23.576  26.777  1.00  0.00    -0.300 OA
ATOM     14  C   UNL     1      21.019  23.826  25.430  1.00  0.00     0.087 C 
ENDBRANCH  11  12
ENDBRANCH  10  11
ENDBRANCH   2  10
TORSDOF 6
ENDMDL
MODEL 6
REMARK VINA RESULT:    -4.218      5.718      7.398
REMARK INTER + INTRA:          -6.645
REMARK INTER:                  -5.158
REMARK INTRA:                  -1.488
REMARK UNBOUND:                -0.948
REMARK SMILES CC(=O)CCC=C(C)CCC=C(C)C
REMARK SMILES IDX 7 1 6 2 8 3 9 4 10 5 11 6 13 7 12 8 14 9 5 10 4 11 2 12 3 13
REMARK SMILES IDX 1 14
REMARK H PARENT
REMARK Flexibility Score: inf
ROOT
ATOM      1  C   UNL     1      15.409  32.061  30.193  1.00  0.00    -0.077 C 
ATOM      2  C   UNL     1      15.211  30.994  29.383  1.00  0.00    -0.028 C 
ATOM      3  C   UNL     1      15.003  32.044  31.648  1.00  0.00     0.039 C 
ENDROOT
BRANCH   1   4
ATOM      4  C   UNL     1      16.039  33.314  29.618  1.00  0.00     0.034 C 
BRANCH   4   5
ATOM      5  C   UNL     1      17.329  33.005  28.845  1.00  0.00     0.032 C 
BRANCH   5   6
ATOM      6  C   UNL     1      18.466  32.645  29.773  1.00  0.00    -0.028 C 
ATOM      7  C   UNL     1      20.209  31.197  30.766  1.00  0.00     0.039 C 
ATOM      8  C   UNL     1      19.108  31.454  29.771  1.00  0.00    -0.080 C 
ATOM      9  C   UNL     1      18.803  30.380  28.757  1.00  0.00     0.039 C 
ENDBRANCH   5   6
ENDBRANCH   4   5
ENDBRANCH   1   4
BRANCH   2  10
ATOM     10  C   UNL     1      14.626  29.679  29.832  1.00  0.00     0.035 C 
BRANCH  10  11
ATOM     11  C   UNL     1      15.670  28.562  29.749  1.00  0.00     0.079 C 
BRANCH  11  12
ATOM     12  C   UNL     1      16.133  28.163  31.126  1.00  0.00     0.130 C 
ATOM     13  O   UNL     1      15.591  27.228  31.695  1.00  0.00    -0.300 OA
ATOM     14  C   UNL     1      17.243  28.895  31.820  1.00  0.00     0.087 C 
ENDBRANCH  11  12
ENDBRANCH  10  11
ENDBRANCH   2  10
TORSDOF 6
ENDMDL
MODEL 7
REMARK VINA RESULT:    -4.214      4.390      6.435
REMARK INTER + INTRA:          -6.640
REMARK INTER:                  -6.002
REMARK INTRA:                  -0.637
REMARK UNBOUND:                -0.948
REMARK SMILES CC(=O)CCC=C(C)CCC=C(C)C
REMARK SMILES IDX 7 1 6 2 8 3 9 4 10 5 11 6 13 7 12 8 14 9 5 10 4 11 2 12 3 13
REMARK SMILES IDX 1 14
REMARK H PARENT
REMARK Flexibility Score: inf
ROOT
ATOM      1  C   UNL     1      19.206  29.023  28.562  1.00  0.00    -0.077 C 
ATOM      2  C   UNL     1      18.628  30.232  28.755  1.00  0.00    -0.028 C 
ATOM      3  C   UNL     1      20.623  28.737  28.998  1.00  0.00     0.039 C 
ENDROOT
BRANCH   1   4
ATOM      4  C   UNL     1      18.414  27.931  27.870  1.00  0.00     0.034 C 
BRANCH   4   5
ATOM      5  C   UNL     1      18.649  26.557  28.514  1.00  0.00     0.032 C 
BRANCH   5   6
ATOM      6  C   UNL     1      19.015  25.511  27.487  1.00  0.00    -0.028 C 
ATOM      7  C   UNL     1      20.481  23.898  26.318  1.00  0.00     0.039 C 
ATOM      8  C   UNL     1      20.222  24.905  27.407  1.00  0.00    -0.080 C 
ATOM      9  C   UNL     1      21.314  25.156  28.417  1.00  0.00     0.039 C 
ENDBRANCH   5   6
ENDBRANCH   4   5
ENDBRANCH   1   4
BRANCH   2  10
ATOM     10  C   UNL     1      19.291  31.392  29.455  1.00  0.00     0.035 C 
BRANCH  10  11
ATOM     11  C   UNL     1      18.304  32.099  30.390  1.00  0.00     0.079 C 
BRANCH  11  12
ATOM     12  C   UNL     1      17.598  33.218  29.671  1.00  0.00     0.130 C 
ATOM     13  O   UNL     1      18.205  34.246  29.415  1.00  0.00    -0.300 OA
ATOM     14  C   UNL     1      16.156  33.103  29.271  1.00  0.00     0.087 C 
ENDBRANCH  11  12
ENDBRANCH  10  11
ENDBRANCH   2  10
TORSDOF 6
ENDMDL
MODEL 8
REMARK VINA RESULT:    -4.203      4.066      6.362
REMARK INTER + INTRA:          -6.625
REMARK INTER:                  -5.849
REMARK INTRA:                  -0.776
REMARK UNBOUND:                -0.948
REMARK SMILES CC(=O)CCC=C(C)CCC=C(C)C
REMARK SMILES IDX 7 1 6 2 8 3 9 4 10 5 11 6 13 7 12 8 14 9 5 10 4 11 2 12 3 13
REMARK SMILES IDX 1 14
REMARK H PARENT
REMARK Flexibility Score: inf
ROOT
ATOM      1  C   UNL     1      19.171  28.693  28.583  1.00  0.00    -0.077 C 
ATOM      2  C   UNL     1      20.494  28.413  28.646  1.00  0.00    -0.028 C 
ATOM      3  C   UNL     1      18.622  30.042  28.986  1.00  0.00     0.039 C 
ENDROOT
BRANCH   1   4
ATOM      4  C   UNL     1      18.212  27.618  28.115  1.00  0.00     0.034 C 
BRANCH   4   5
ATOM      5  C   UNL     1      18.618  26.226  28.621  1.00  0.00     0.032 C 
BRANCH   5   6
ATOM      6  C   UNL     1      19.066  25.327  27.492  1.00  0.00    -0.028 C 
ATOM      7  C   UNL     1      20.651  23.950  26.184  1.00  0.00     0.039 C 
ATOM      8  C   UNL     1      20.311  24.811  27.373  1.00  0.00    -0.080 C 
ATOM      9  C   UNL     1      21.369  25.014  28.428  1.00  0.00     0.039 C 
ENDBRANCH   5   6
ENDBRANCH   4   5
ENDBRANCH   1   4
BRANCH   2  10
ATOM     10  C   UNL     1      21.556  29.397  29.064  1.00  0.00     0.035 C 
BRANCH  10  11
ATOM     11  C   UNL     1      22.624  28.715  29.924  1.00  0.00     0.079 C 
BRANCH  11  12
ATOM     12  C   UNL     1      23.925  28.607  29.173  1.00  0.00     0.130 C 
ATOM     13  O   UNL     1      24.980  28.701  29.782  1.00  0.00    -0.300 OA
ATOM     14  C   UNL     1      23.956  28.397  27.689  1.00  0.00     0.087 C 
ENDBRANCH  11  12
ENDBRANCH  10  11
ENDBRANCH   2  10
TORSDOF 6
ENDMDL
MODEL 9
REMARK VINA RESULT:    -4.189      4.803      7.648
REMARK INTER + INTRA:          -6.607
REMARK INTER:                  -5.847
REMARK INTRA:                  -0.760
REMARK UNBOUND:                -0.948
REMARK SMILES CC(=O)CCC=C(C)CCC=C(C)C
REMARK SMILES IDX 7 1 6 2 8 3 9 4 10 5 11 6 13 7 12 8 14 9 5 10 4 11 2 12 3 13
REMARK SMILES IDX 1 14
REMARK H PARENT
REMARK Flexibility Score: inf
ROOT
ATOM      1  C   UNL     1      21.398  26.553  29.004  1.00  0.00    -0.077 C 
ATOM      2  C   UNL     1      22.485  26.810  28.239  1.00  0.00    -0.028 C 
ATOM      3  C   UNL     1      20.892  27.541  30.028  1.00  0.00     0.039 C 
ENDROOT
BRANCH   1   4
ATOM      4  C   UNL     1      20.681  25.228  28.842  1.00  0.00     0.034 C 
BRANCH   4   5
ATOM      5  C   UNL     1      19.804  25.201  27.581  1.00  0.00     0.032 C 
BRANCH   5   6
ATOM      6  C   UNL     1      18.332  25.210  27.921  1.00  0.00    -0.028 C 
ATOM      7  C   UNL     1      16.111  26.211  28.351  1.00  0.00     0.039 C 
ATOM      8  C   UNL     1      17.564  26.322  27.968  1.00  0.00    -0.080 C 
ATOM      9  C   UNL     1      18.095  27.681  27.587  1.00  0.00     0.039 C 
ENDBRANCH   5   6
ENDBRANCH   4   5
ENDBRANCH   1   4
BRANCH   2  10
ATOM     10  C   UNL     1      23.270  28.097  28.277  1.00  0.00     0.035 C 
BRANCH  10  11
ATOM     11  C   UNL     1      24.723  27.836  28.685  1.00  0.00     0.079 C 
BRANCH  11  12
ATOM     12  C   UNL     1      25.533  29.104  28.611  1.00  0.00     0.130 C 
ATOM     13  O   UNL     1      26.468  29.174  27.829  1.00  0.00    -0.300 OA
ATOM     14  C   UNL     1      25.224  30.282  29.487  1.00  0.00     0.087 C 
ENDBRANCH  11  12
ENDBRANCH  10  11
ENDBRANCH   2  10
TORSDOF 6
ENDMDL
