MODEL 1
REMARK VINA RESULT:    -3.326      0.000      0.000
REMARK INTER + INTRA:          -4.199
REMARK INTER:                  -4.104
REMARK INTRA:                  -0.095
REMARK UNBOUND:                -0.095
REMARK SMILES Oc1cc(O)c2cc(O)c(-c3cc(O)c(O)c(O)c3)[o+]c2c1.[Cl-]
REMARK SMILES IDX 10 1 20 2 21 3 22 4 2 5 3 6 4 7 6 8 7 9 8 10 11 11 12 12
REMARK SMILES IDX 13 13 19 14 15 15 17 16 14 17 16 19 18 21 9 23 1 25 5 27
REMARK H PARENT 14 18 16 20 18 22 9 24 1 26 5 28
REMARK Flexibility Score: inf
ROOT
ATOM      1  C   UNL     1      32.672  -1.408  43.458  1.00  0.00     0.402 A 
ATOM      2  O   UNL     1      33.451  -2.463  43.678  1.00  0.00    -0.202 OA
ATOM      3  C   UNL     1      34.744  -2.492  43.372  1.00  0.00     0.368 A 
ATOM      4  C   UNL     1      35.481  -3.650  43.637  1.00  0.00     0.162 A 
ATOM      5  C   UNL     1      36.839  -3.709  43.324  1.00  0.00     0.128 A 
ATOM      6  C   UNL     1      37.468  -2.604  42.739  1.00  0.00     0.093 A 
ATOM      7  C   UNL     1      36.753  -1.433  42.463  1.00  0.00     0.136 A 
ATOM      8  C   UNL     1      35.371  -1.367  42.782  1.00  0.00     0.125 A 
ATOM      9  C   UNL     1      34.578  -0.231  42.554  1.00  0.00     0.078 A 
ATOM     10  C   UNL     1      33.224  -0.240  42.900  1.00  0.00     0.223 A 
ENDROOT
BRANCH   1  11
ATOM     11  C   UNL     1      31.243  -1.502  43.834  1.00  0.00     0.091 A 
ATOM     12  C   UNL     1      30.892  -2.013  45.094  1.00  0.00     0.068 A 
ATOM     13  C   UNL     1      29.550  -2.133  45.468  1.00  0.00     0.162 A 
ATOM     14  C   UNL     1      30.224  -1.144  42.935  1.00  0.00     0.068 A 
ATOM     15  C   UNL     1      28.536  -1.753  44.573  1.00  0.00     0.200 A 
ATOM     16  C   UNL     1      28.876  -1.262  43.302  1.00  0.00     0.162 A 
BRANCH  13  17
ATOM     17  O   UNL     1      29.245  -2.631  46.734  1.00  0.00    -0.504 OA
ATOM     18  H   UNL     1      28.772  -3.517  46.866  1.00  0.00     0.293 HD
ENDBRANCH  13  17
BRANCH  15  19
ATOM     19  O   UNL     1      27.199  -1.872  44.956  1.00  0.00    -0.502 OA
ATOM     20  H   UNL     1      26.552  -2.483  44.473  1.00  0.00     0.293 HD
ENDBRANCH  15  19
BRANCH  16  21
ATOM     21  O   UNL     1      27.874  -0.897  42.403  1.00  0.00    -0.504 OA
ATOM     22  H   UNL     1      26.893  -0.939  42.654  1.00  0.00     0.293 HD
ENDBRANCH  16  21
ENDBRANCH   1  11
BRANCH  10  23
ATOM     23  O   UNL     1      32.448   0.905  42.719  1.00  0.00    -0.500 OA
ATOM     24  H   UNL     1      31.498   0.965  43.067  1.00  0.00     0.294 HD
ENDBRANCH  10  23
BRANCH   5  25
ATOM     25  O   UNL     1      37.556  -4.872  43.597  1.00  0.00    -0.507 OA
ATOM     26  H   UNL     1      37.320  -5.755  43.159  1.00  0.00     0.293 HD
ENDBRANCH   5  25
BRANCH   7  27
ATOM     27  O   UNL     1      37.452  -0.374  41.875  1.00  0.00    -0.507 OA
ATOM     28  H   UNL     1      37.813   0.421  42.381  1.00  0.00     0.293 HD
ENDBRANCH   7  27
TORSDOF 7
ENDMDL
MODEL 2
REMARK VINA RESULT:    -3.104      0.087      1.796
REMARK INTER + INTRA:          -3.925
REMARK INTER:                  -3.888
REMARK INTRA:                  -0.037
REMARK UNBOUND:                -0.095
REMARK SMILES Oc1cc(O)c2cc(O)c(-c3cc(O)c(O)c(O)c3)[o+]c2c1.[Cl-]
REMARK SMILES IDX 10 1 20 2 21 3 22 4 2 5 3 6 4 7 6 8 7 9 8 10 11 11 12 12
REMARK SMILES IDX 13 13 19 14 15 15 17 16 14 17 16 19 18 21 9 23 1 25 5 27
REMARK H PARENT 14 18 16 20 18 22 9 24 1 26 5 28
REMARK Flexibility Score: inf
ROOT
ATOM      1  C   UNL     1      32.705  -1.428  43.469  1.00  0.00     0.402 A 
ATOM      2  O   UNL     1      33.485  -2.485  43.677  1.00  0.00    -0.202 OA
ATOM      3  C   UNL     1      34.777  -2.511  43.365  1.00  0.00     0.368 A 
ATOM      4  C   UNL     1      35.515  -3.670  43.618  1.00  0.00     0.162 A 
ATOM      5  C   UNL     1      36.872  -3.727  43.299  1.00  0.00     0.128 A 
ATOM      6  C   UNL     1      37.499  -2.617  42.721  1.00  0.00     0.093 A 
ATOM      7  C   UNL     1      36.782  -1.443  42.457  1.00  0.00     0.136 A 
ATOM      8  C   UNL     1      35.401  -1.381  42.783  1.00  0.00     0.125 A 
ATOM      9  C   UNL     1      34.607  -0.243  42.567  1.00  0.00     0.078 A 
ATOM     10  C   UNL     1      33.254  -0.255  42.918  1.00  0.00     0.223 A 
ENDROOT
BRANCH   1  11
ATOM     11  C   UNL     1      31.277  -1.526  43.849  1.00  0.00     0.091 A 
ATOM     12  C   UNL     1      30.291  -1.123  42.936  1.00  0.00     0.068 A 
ATOM     13  C   UNL     1      28.936  -1.185  43.275  1.00  0.00     0.162 A 
ATOM     14  C   UNL     1      30.888  -1.960  45.128  1.00  0.00     0.068 A 
ATOM     15  C   UNL     1      28.551  -1.641  44.547  1.00  0.00     0.200 A 
ATOM     16  C   UNL     1      29.532  -2.024  45.476  1.00  0.00     0.162 A 
BRANCH  13  17
ATOM     17  O   UNL     1      27.986  -0.790  42.333  1.00  0.00    -0.504 OA
ATOM     18  H   UNL     1      27.559   0.129  42.350  1.00  0.00     0.293 HD
ENDBRANCH  13  17
BRANCH  15  19
ATOM     19  O   UNL     1      27.196  -1.703  44.876  1.00  0.00    -0.502 OA
ATOM     20  H   UNL     1      26.877  -1.815  45.831  1.00  0.00     0.293 HD
ENDBRANCH  15  19
BRANCH  16  21
ATOM     21  O   UNL     1      29.158  -2.463  46.746  1.00  0.00    -0.504 OA
ATOM     22  H   UNL     1      29.086  -1.825  47.530  1.00  0.00     0.293 HD
ENDBRANCH  16  21
ENDBRANCH   1  11
BRANCH  10  23
ATOM     23  O   UNL     1      32.477   0.891  42.750  1.00  0.00    -0.500 OA
ATOM     24  H   UNL     1      32.080   1.386  43.540  1.00  0.00     0.294 HD
ENDBRANCH  10  23
BRANCH   5  25
ATOM     25  O   UNL     1      37.591  -4.891  43.559  1.00  0.00    -0.507 OA
ATOM     26  H   UNL     1      38.170  -4.983  44.386  1.00  0.00     0.293 HD
ENDBRANCH   5  25
BRANCH   7  27
ATOM     27  O   UNL     1      37.479  -0.380  41.876  1.00  0.00    -0.507 OA
ATOM     28  H   UNL     1      37.722  -0.324  40.897  1.00  0.00     0.293 HD
ENDBRANCH   7  27
TORSDOF 7
ENDMDL
MODEL 3
REMARK VINA RESULT:    -1.671      1.363      1.769
REMARK INTER + INTRA:          -2.157
REMARK INTER:                  -2.467
REMARK INTRA:                   0.310
REMARK UNBOUND:                -0.095
REMARK SMILES Oc1cc(O)c2cc(O)c(-c3cc(O)c(O)c(O)c3)[o+]c2c1.[Cl-]
REMARK SMILES IDX 10 1 20 2 21 3 22 4 2 5 3 6 4 7 6 8 7 9 8 10 11 11 12 12
REMARK SMILES IDX 13 13 19 14 15 15 17 16 14 17 16 19 18 21 9 23 1 25 5 27
REMARK H PARENT 14 18 16 20 18 22 9 24 1 26 5 28
REMARK Flexibility Score: inf
ROOT
ATOM      1  C   UNL     1      32.299  -1.944  44.102  1.00  0.00     0.402 A 
ATOM      2  O   UNL     1      33.179  -2.933  44.224  1.00  0.00    -0.202 OA
ATOM      3  C   UNL     1      34.418  -2.871  43.747  1.00  0.00     0.368 A 
ATOM      4  C   UNL     1      35.270  -3.964  43.920  1.00  0.00     0.162 A 
ATOM      5  C   UNL     1      36.575  -3.928  43.428  1.00  0.00     0.128 A 
ATOM      6  C   UNL     1      37.033  -2.790  42.753  1.00  0.00     0.093 A 
ATOM      7  C   UNL     1      36.199  -1.681  42.565  1.00  0.00     0.136 A 
ATOM      8  C   UNL     1      34.872  -1.714  43.068  1.00  0.00     0.125 A 
ATOM      9  C   UNL     1      33.970  -0.645  42.938  1.00  0.00     0.078 A 
ATOM     10  C   UNL     1      32.679  -0.748  43.463  1.00  0.00     0.223 A 
ENDROOT
BRANCH   1  11
ATOM     11  C   UNL     1      30.944  -2.138  44.668  1.00  0.00     0.091 A 
ATOM     12  C   UNL     1      30.199  -1.019  45.075  1.00  0.00     0.068 A 
ATOM     13  C   UNL     1      28.926  -1.173  45.631  1.00  0.00     0.162 A 
ATOM     14  C   UNL     1      30.408  -3.422  44.861  1.00  0.00     0.068 A 
ATOM     15  C   UNL     1      28.385  -2.458  45.801  1.00  0.00     0.200 A 
ATOM     16  C   UNL     1      29.132  -3.585  45.419  1.00  0.00     0.162 A 
BRANCH  13  17
ATOM     17  O   UNL     1      28.212  -0.035  46.008  1.00  0.00    -0.504 OA
ATOM     18  H   UNL     1      28.299   0.375  46.930  1.00  0.00     0.293 HD
ENDBRANCH  13  17
BRANCH  15  19
ATOM     19  O   UNL     1      27.112  -2.603  46.355  1.00  0.00    -0.502 OA
ATOM     20  H   UNL     1      26.664  -3.506  46.450  1.00  0.00     0.293 HD
ENDBRANCH  15  19
BRANCH  16  21
ATOM     21  O   UNL     1      28.608  -4.865  45.600  1.00  0.00    -0.504 OA
ATOM     22  H   UNL     1      28.079  -5.111  46.428  1.00  0.00     0.293 HD
ENDBRANCH  16  21
ENDBRANCH   1  11
BRANCH  10  23
ATOM     23  O   UNL     1      31.800   0.331  43.379  1.00  0.00    -0.500 OA
ATOM     24  H   UNL     1      32.003   1.139  42.802  1.00  0.00     0.294 HD
ENDBRANCH  10  23
BRANCH   5  25
ATOM     25  O   UNL     1      37.409  -5.028  43.612  1.00  0.00    -0.507 OA
ATOM     26  H   UNL     1      37.877  -5.196  44.495  1.00  0.00     0.293 HD
ENDBRANCH   5  25
BRANCH   7  27
ATOM     27  O   UNL     1      36.730  -0.585  41.879  1.00  0.00    -0.507 OA
ATOM     28  H   UNL     1      36.196   0.023  41.275  1.00  0.00     0.293 HD
ENDBRANCH   7  27
TORSDOF 7
ENDMDL
MODEL 4
REMARK VINA RESULT:    -1.462      1.387      1.508
REMARK INTER + INTRA:          -1.899
REMARK INTER:                  -2.199
REMARK INTRA:                   0.300
REMARK UNBOUND:                -0.095
REMARK SMILES Oc1cc(O)c2cc(O)c(-c3cc(O)c(O)c(O)c3)[o+]c2c1.[Cl-]
REMARK SMILES IDX 10 1 20 2 21 3 22 4 2 5 3 6 4 7 6 8 7 9 8 10 11 11 12 12
REMARK SMILES IDX 13 13 19 14 15 15 17 16 14 17 16 19 18 21 9 23 1 25 5 27
REMARK H PARENT 14 18 16 20 18 22 9 24 1 26 5 28
REMARK Flexibility Score: inf
ROOT
ATOM      1  C   UNL     1      32.150  -1.862  44.138  1.00  0.00     0.402 A 
ATOM      2  O   UNL     1      33.017  -2.869  44.195  1.00  0.00    -0.202 OA
ATOM      3  C   UNL     1      34.247  -2.801  43.696  1.00  0.00     0.368 A 
ATOM      4  C   UNL     1      35.086  -3.914  43.800  1.00  0.00     0.162 A 
ATOM      5  C   UNL     1      36.381  -3.873  43.283  1.00  0.00     0.128 A 
ATOM      6  C   UNL     1      36.843  -2.712  42.653  1.00  0.00     0.093 A 
ATOM      7  C   UNL     1      36.022  -1.584  42.534  1.00  0.00     0.136 A 
ATOM      8  C   UNL     1      34.705  -1.621  43.062  1.00  0.00     0.125 A 
ATOM      9  C   UNL     1      33.817  -0.534  43.000  1.00  0.00     0.078 A 
ATOM     10  C   UNL     1      32.536  -0.644  43.547  1.00  0.00     0.223 A 
ENDROOT
BRANCH   1  11
ATOM     11  C   UNL     1      30.804  -2.063  44.722  1.00  0.00     0.091 A 
ATOM     12  C   UNL     1      30.295  -3.364  44.851  1.00  0.00     0.068 A 
ATOM     13  C   UNL     1      29.019  -3.583  45.380  1.00  0.00     0.162 A 
ATOM     14  C   UNL     1      30.000  -0.974  45.099  1.00  0.00     0.068 A 
ATOM     15  C   UNL     1      28.228  -2.492  45.776  1.00  0.00     0.200 A 
ATOM     16  C   UNL     1      28.719  -1.185  45.630  1.00  0.00     0.162 A 
BRANCH  13  17
ATOM     17  O   UNL     1      28.556  -4.893  45.505  1.00  0.00    -0.504 OA
ATOM     18  H   UNL     1      28.537  -5.536  44.722  1.00  0.00     0.293 HD
ENDBRANCH  13  17
BRANCH  15  19
ATOM     19  O   UNL     1      26.957  -2.720  46.306  1.00  0.00    -0.502 OA
ATOM     20  H   UNL     1      26.123  -2.305  45.907  1.00  0.00     0.293 HD
ENDBRANCH  15  19
BRANCH  16  21
ATOM     21  O   UNL     1      27.932  -0.096  46.006  1.00  0.00    -0.504 OA
ATOM     22  H   UNL     1      27.980   0.297  46.938  1.00  0.00     0.293 HD
ENDBRANCH  16  21
ENDBRANCH   1  11
BRANCH  10  23
ATOM     23  O   UNL     1      31.671   0.451  43.531  1.00  0.00    -0.500 OA
ATOM     24  H   UNL     1      30.701   0.359  43.253  1.00  0.00     0.294 HD
ENDBRANCH  10  23
BRANCH   5  25
ATOM     25  O   UNL     1      37.202  -4.992  43.399  1.00  0.00    -0.507 OA
ATOM     26  H   UNL     1      37.007  -5.848  42.891  1.00  0.00     0.293 HD
ENDBRANCH   5  25
BRANCH   7  27
ATOM     27  O   UNL     1      36.556  -0.464  41.888  1.00  0.00    -0.507 OA
ATOM     28  H   UNL     1      37.024  -0.491  40.994  1.00  0.00     0.293 HD
ENDBRANCH   7  27
TORSDOF 7
ENDMDL
MODEL 5
REMARK VINA RESULT:    -1.443      1.088      6.875
REMARK INTER + INTRA:          -1.876
REMARK INTER:                  -2.225
REMARK INTRA:                   0.349
REMARK UNBOUND:                -0.095
REMARK SMILES Oc1cc(O)c2cc(O)c(-c3cc(O)c(O)c(O)c3)[o+]c2c1.[Cl-]
REMARK SMILES IDX 10 1 20 2 21 3 22 4 2 5 3 6 4 7 6 8 7 9 8 10 11 11 12 12
REMARK SMILES IDX 13 13 19 14 15 15 17 16 14 17 16 19 18 21 9 23 1 25 5 27
REMARK H PARENT 14 18 16 20 18 22 9 24 1 26 5 28
REMARK Flexibility Score: inf
ROOT
ATOM      1  C   UNL     1      32.796  -1.893  43.463  1.00  0.00     0.402 A 
ATOM      2  O   UNL     1      32.098  -2.688  44.269  1.00  0.00    -0.202 OA
ATOM      3  C   UNL     1      30.796  -2.539  44.492  1.00  0.00     0.368 A 
ATOM      4  C   UNL     1      30.149  -3.423  45.360  1.00  0.00     0.162 A 
ATOM      5  C   UNL     1      28.784  -3.290  45.615  1.00  0.00     0.128 A 
ATOM      6  C   UNL     1      28.057  -2.264  44.999  1.00  0.00     0.093 A 
ATOM      7  C   UNL     1      28.682  -1.365  44.126  1.00  0.00     0.136 A 
ATOM      8  C   UNL     1      30.070  -1.499  43.862  1.00  0.00     0.125 A 
ATOM      9  C   UNL     1      30.776  -0.653  42.991  1.00  0.00     0.078 A 
ATOM     10  C   UNL     1      32.143  -0.850  42.777  1.00  0.00     0.223 A 
ENDROOT
BRANCH   1  11
ATOM     11  C   UNL     1      34.245  -2.154  43.304  1.00  0.00     0.091 A 
ATOM     12  C   UNL     1      34.803  -3.313  43.865  1.00  0.00     0.068 A 
ATOM     13  C   UNL     1      36.171  -3.575  43.749  1.00  0.00     0.162 A 
ATOM     14  C   UNL     1      35.087  -1.238  42.651  1.00  0.00     0.068 A 
ATOM     15  C   UNL     1      37.005  -2.667  43.076  1.00  0.00     0.200 A 
ATOM     16  C   UNL     1      36.460  -1.493  42.531  1.00  0.00     0.162 A 
BRANCH  13  17
ATOM     17  O   UNL     1      36.683  -4.747  44.308  1.00  0.00    -0.504 OA
ATOM     18  H   UNL     1      36.337  -5.123  45.182  1.00  0.00     0.293 HD
ENDBRANCH  13  17
BRANCH  15  19
ATOM     19  O   UNL     1      38.369  -2.939  42.961  1.00  0.00    -0.502 OA
ATOM     20  H   UNL     1      38.822  -3.057  42.063  1.00  0.00     0.293 HD
ENDBRANCH  15  19
BRANCH  16  21
ATOM     21  O   UNL     1      37.284  -0.579  41.875  1.00  0.00    -0.504 OA
ATOM     22  H   UNL     1      38.061  -0.881  41.299  1.00  0.00     0.293 HD
ENDBRANCH  16  21
ENDBRANCH   1  11
BRANCH  10  23
ATOM     23  O   UNL     1      32.834  -0.042  41.875  1.00  0.00    -0.500 OA
ATOM     24  H   UNL     1      32.595   0.934  41.743  1.00  0.00     0.294 HD
ENDBRANCH  10  23
BRANCH   5  25
ATOM     25  O   UNL     1      28.158  -4.181  46.483  1.00  0.00    -0.507 OA
ATOM     26  H   UNL     1      27.222  -4.527  46.302  1.00  0.00     0.293 HD
ENDBRANCH   5  25
BRANCH   7  27
ATOM     27  O   UNL     1      27.888  -0.366  43.554  1.00  0.00    -0.507 OA
ATOM     28  H   UNL     1      26.888  -0.294  43.673  1.00  0.00     0.293 HD
ENDBRANCH   7  27
TORSDOF 7
ENDMDL
MODEL 6
REMARK VINA RESULT:    -1.432      1.087      7.043
REMARK INTER + INTRA:          -1.861
REMARK INTER:                  -2.275
REMARK INTRA:                   0.414
REMARK UNBOUND:                -0.095
REMARK SMILES Oc1cc(O)c2cc(O)c(-c3cc(O)c(O)c(O)c3)[o+]c2c1.[Cl-]
REMARK SMILES IDX 10 1 20 2 21 3 22 4 2 5 3 6 4 7 6 8 7 9 8 10 11 11 12 12
REMARK SMILES IDX 13 13 19 14 15 15 17 16 14 17 16 19 18 21 9 23 1 25 5 27
REMARK H PARENT 14 18 16 20 18 22 9 24 1 26 5 28
REMARK Flexibility Score: inf
ROOT
ATOM      1  C   UNL     1      32.797  -1.872  43.484  1.00  0.00     0.402 A 
ATOM      2  O   UNL     1      32.105  -2.664  44.298  1.00  0.00    -0.202 OA
ATOM      3  C   UNL     1      30.801  -2.524  44.516  1.00  0.00     0.368 A 
ATOM      4  C   UNL     1      30.160  -3.403  45.393  1.00  0.00     0.162 A 
ATOM      5  C   UNL     1      28.793  -3.278  45.643  1.00  0.00     0.128 A 
ATOM      6  C   UNL     1      28.059  -2.266  45.014  1.00  0.00     0.093 A 
ATOM      7  C   UNL     1      28.677  -1.372  44.132  1.00  0.00     0.136 A 
ATOM      8  C   UNL     1      30.068  -1.497  43.873  1.00  0.00     0.125 A 
ATOM      9  C   UNL     1      30.769  -0.655  42.994  1.00  0.00     0.078 A 
ATOM     10  C   UNL     1      32.138  -0.843  42.785  1.00  0.00     0.223 A 
ENDROOT
BRANCH   1  11
ATOM     11  C   UNL     1      34.249  -2.123  43.331  1.00  0.00     0.091 A 
ATOM     12  C   UNL     1      35.052  -1.161  42.698  1.00  0.00     0.068 A 
ATOM     13  C   UNL     1      36.422  -1.380  42.521  1.00  0.00     0.162 A 
ATOM     14  C   UNL     1      34.832  -3.328  43.755  1.00  0.00     0.068 A 
ATOM     15  C   UNL     1      37.005  -2.577  42.967  1.00  0.00     0.200 A 
ATOM     16  C   UNL     1      36.205  -3.555  43.581  1.00  0.00     0.162 A 
BRANCH  13  17
ATOM     17  O   UNL     1      37.188  -0.392  41.901  1.00  0.00    -0.504 OA
ATOM     18  H   UNL     1      37.212   0.563  42.238  1.00  0.00     0.293 HD
ENDBRANCH  13  17
BRANCH  15  19
ATOM     19  O   UNL     1      38.374  -2.786  42.790  1.00  0.00    -0.502 OA
ATOM     20  H   UNL     1      38.877  -2.415  41.993  1.00  0.00     0.293 HD
ENDBRANCH  15  19
BRANCH  16  21
ATOM     21  O   UNL     1      36.774  -4.754  44.012  1.00  0.00    -0.504 OA
ATOM     22  H   UNL     1      36.204  -5.555  44.258  1.00  0.00     0.293 HD
ENDBRANCH  16  21
ENDBRANCH   1  11
BRANCH  10  23
ATOM     23  O   UNL     1      32.824  -0.039  41.875  1.00  0.00    -0.500 OA
ATOM     24  H   UNL     1      33.799  -0.201  41.651  1.00  0.00     0.294 HD
ENDBRANCH  10  23
BRANCH   5  25
ATOM     25  O   UNL     1      28.172  -4.166  46.520  1.00  0.00    -0.507 OA
ATOM     26  H   UNL     1      27.564  -3.839  47.261  1.00  0.00     0.293 HD
ENDBRANCH   5  25
BRANCH   7  27
ATOM     27  O   UNL     1      27.876  -0.387  43.547  1.00  0.00    -0.507 OA
ATOM     28  H   UNL     1      27.799   0.561  43.886  1.00  0.00     0.293 HD
ENDBRANCH   7  27
TORSDOF 7
ENDMDL
MODEL 7
REMARK VINA RESULT:    -1.309      1.288      7.334
REMARK INTER + INTRA:          -1.710
REMARK INTER:                  -1.713
REMARK INTRA:                   0.002
REMARK UNBOUND:                -0.095
REMARK SMILES Oc1cc(O)c2cc(O)c(-c3cc(O)c(O)c(O)c3)[o+]c2c1.[Cl-]
REMARK SMILES IDX 10 1 20 2 21 3 22 4 2 5 3 6 4 7 6 8 7 9 8 10 11 11 12 12
REMARK SMILES IDX 13 13 19 14 15 15 17 16 14 17 16 19 18 21 9 23 1 25 5 27
REMARK H PARENT 14 18 16 20 18 22 9 24 1 26 5 28
REMARK Flexibility Score: inf
ROOT
ATOM      1  C   UNL     1      32.456  -1.845  43.476  1.00  0.00     0.402 A 
ATOM      2  O   UNL     1      31.538  -1.142  42.819  1.00  0.00    -0.202 OA
ATOM      3  C   UNL     1      30.241  -1.185  43.108  1.00  0.00     0.368 A 
ATOM      4  C   UNL     1      29.350  -0.412  42.357  1.00  0.00     0.162 A 
ATOM      5  C   UNL     1      27.984  -0.440  42.636  1.00  0.00     0.128 A 
ATOM      6  C   UNL     1      27.500  -1.248  43.672  1.00  0.00     0.093 A 
ATOM      7  C   UNL     1      28.371  -2.032  44.438  1.00  0.00     0.136 A 
ATOM      8  C   UNL     1      29.763  -2.005  44.159  1.00  0.00     0.125 A 
ATOM      9  C   UNL     1      30.710  -2.747  44.883  1.00  0.00     0.078 A 
ATOM     10  C   UNL     1      32.066  -2.664  44.553  1.00  0.00     0.223 A 
ENDROOT
BRANCH   1  11
ATOM     11  C   UNL     1      33.869  -1.719  43.054  1.00  0.00     0.091 A 
ATOM     12  C   UNL     1      34.652  -2.875  42.910  1.00  0.00     0.068 A 
ATOM     13  C   UNL     1      35.995  -2.786  42.532  1.00  0.00     0.162 A 
ATOM     14  C   UNL     1      34.463  -0.463  42.848  1.00  0.00     0.068 A 
ATOM     15  C   UNL     1      36.578  -1.528  42.306  1.00  0.00     0.200 A 
ATOM     16  C   UNL     1      35.810  -0.364  42.470  1.00  0.00     0.162 A 
BRANCH  13  17
ATOM     17  O   UNL     1      36.734  -3.960  42.385  1.00  0.00    -0.504 OA
ATOM     18  H   UNL     1      37.235  -4.179  41.532  1.00  0.00     0.293 HD
ENDBRANCH  13  17
BRANCH  15  19
ATOM     19  O   UNL     1      37.919  -1.448  41.926  1.00  0.00    -0.502 OA
ATOM     20  H   UNL     1      38.304  -2.018  41.182  1.00  0.00     0.293 HD
ENDBRANCH  15  19
BRANCH  16  21
ATOM     21  O   UNL     1      36.386   0.889  42.263  1.00  0.00    -0.504 OA
ATOM     22  H   UNL     1      37.336   1.092  42.550  1.00  0.00     0.293 HD
ENDBRANCH  16  21
ENDBRANCH   1  11
BRANCH  10  23
ATOM     23  O   UNL     1      33.013  -3.362  45.303  1.00  0.00    -0.500 OA
ATOM     24  H   UNL     1      32.860  -3.583  46.280  1.00  0.00     0.294 HD
ENDBRANCH  10  23
BRANCH   5  25
ATOM     25  O   UNL     1      27.113   0.338  41.877  1.00  0.00    -0.507 OA
ATOM     26  H   UNL     1      26.331  -0.073  41.380  1.00  0.00     0.293 HD
ENDBRANCH   5  25
BRANCH   7  27
ATOM     27  O   UNL     1      27.810  -2.815  45.452  1.00  0.00    -0.507 OA
ATOM     28  H   UNL     1      27.280  -3.660  45.293  1.00  0.00     0.293 HD
ENDBRANCH   7  27
TORSDOF 7
ENDMDL
MODEL 8
REMARK VINA RESULT:    -1.144      2.101      3.546
REMARK INTER + INTRA:          -1.507
REMARK INTER:                  -1.939
REMARK INTRA:                   0.433
REMARK UNBOUND:                -0.095
REMARK SMILES Oc1cc(O)c2cc(O)c(-c3cc(O)c(O)c(O)c3)[o+]c2c1.[Cl-]
REMARK SMILES IDX 10 1 20 2 21 3 22 4 2 5 3 6 4 7 6 8 7 9 8 10 11 11 12 12
REMARK SMILES IDX 13 13 19 14 15 15 17 16 14 17 16 19 18 21 9 23 1 25 5 27
REMARK H PARENT 14 18 16 20 18 22 9 24 1 26 5 28
REMARK Flexibility Score: inf
ROOT
ATOM      1  C   UNL     1      31.434  -1.936  44.484  1.00  0.00     0.402 A 
ATOM      2  O   UNL     1      31.694  -0.726  43.997  1.00  0.00    -0.202 OA
ATOM      3  C   UNL     1      32.849  -0.401  43.427  1.00  0.00     0.368 A 
ATOM      4  C   UNL     1      33.031   0.900  42.948  1.00  0.00     0.162 A 
ATOM      5  C   UNL     1      34.234   1.269  42.348  1.00  0.00     0.128 A 
ATOM      6  C   UNL     1      35.268   0.334  42.225  1.00  0.00     0.093 A 
ATOM      7  C   UNL     1      35.113  -0.975  42.698  1.00  0.00     0.136 A 
ATOM      8  C   UNL     1      33.888  -1.356  43.307  1.00  0.00     0.125 A 
ATOM      9  C   UNL     1      33.638  -2.648  43.798  1.00  0.00     0.078 A 
ATOM     10  C   UNL     1      32.405  -2.950  44.381  1.00  0.00     0.223 A 
ENDROOT
BRANCH   1  11
ATOM     11  C   UNL     1      30.111  -2.172  45.106  1.00  0.00     0.091 A 
ATOM     12  C   UNL     1      29.701  -3.487  45.378  1.00  0.00     0.068 A 
ATOM     13  C   UNL     1      28.449  -3.741  45.945  1.00  0.00     0.162 A 
ATOM     14  C   UNL     1      29.230  -1.112  45.377  1.00  0.00     0.068 A 
ATOM     15  C   UNL     1      27.581  -2.676  46.236  1.00  0.00     0.200 A 
ATOM     16  C   UNL     1      27.972  -1.359  45.945  1.00  0.00     0.162 A 
BRANCH  13  17
ATOM     17  O   UNL     1      28.087  -5.061  46.215  1.00  0.00    -0.504 OA
ATOM     18  H   UNL     1      27.633  -5.648  45.524  1.00  0.00     0.293 HD
ENDBRANCH  13  17
BRANCH  15  19
ATOM     19  O   UNL     1      26.334  -2.939  46.805  1.00  0.00    -0.502 OA
ATOM     20  H   UNL     1      26.226  -3.166  47.786  1.00  0.00     0.293 HD
ENDBRANCH  15  19
BRANCH  16  21
ATOM     21  O   UNL     1      27.109  -0.297  46.216  1.00  0.00    -0.504 OA
ATOM     22  H   UNL     1      27.019   0.091  47.147  1.00  0.00     0.293 HD
ENDBRANCH  16  21
ENDBRANCH   1  11
BRANCH  10  23
ATOM     23  O   UNL     1      32.138  -4.246  44.823  1.00  0.00    -0.500 OA
ATOM     24  H   UNL     1      32.721  -4.703  45.514  1.00  0.00     0.294 HD
ENDBRANCH  10  23
BRANCH   5  25
ATOM     25  O   UNL     1      34.394   2.570  41.875  1.00  0.00    -0.507 OA
ATOM     26  H   UNL     1      33.718   2.994  41.251  1.00  0.00     0.293 HD
ENDBRANCH   5  25
BRANCH   7  27
ATOM     27  O   UNL     1      36.193  -1.849  42.542  1.00  0.00    -0.507 OA
ATOM     28  H   UNL     1      37.141  -1.639  42.820  1.00  0.00     0.293 HD
ENDBRANCH   7  27
TORSDOF 7
ENDMDL
MODEL 9
REMARK VINA RESULT:    -1.084      1.950      7.391
REMARK INTER + INTRA:          -1.433
REMARK INTER:                  -1.818
REMARK INTRA:                   0.385
REMARK UNBOUND:                -0.095
REMARK SMILES Oc1cc(O)c2cc(O)c(-c3cc(O)c(O)c(O)c3)[o+]c2c1.[Cl-]
REMARK SMILES IDX 10 1 20 2 21 3 22 4 2 5 3 6 4 7 6 8 7 9 8 10 11 11 12 12
REMARK SMILES IDX 13 13 19 14 15 15 17 16 14 17 16 19 18 21 9 23 1 25 5 27
REMARK H PARENT 14 18 16 20 18 22 9 24 1 26 5 28
REMARK Flexibility Score: inf
ROOT
ATOM      1  C   UNL     1      31.819  -1.873  44.387  1.00  0.00     0.402 A 
ATOM      2  O   UNL     1      30.748  -1.142  44.687  1.00  0.00    -0.202 OA
ATOM      3  C   UNL     1      29.655  -1.647  45.249  1.00  0.00     0.368 A 
ATOM      4  C   UNL     1      28.577  -0.800  45.524  1.00  0.00     0.162 A 
ATOM      5  C   UNL     1      27.416  -1.303  46.111  1.00  0.00     0.128 A 
ATOM      6  C   UNL     1      27.327  -2.664  46.425  1.00  0.00     0.093 A 
ATOM      7  C   UNL     1      28.391  -3.534  46.159  1.00  0.00     0.136 A 
ATOM      8  C   UNL     1      29.576  -3.026  45.565  1.00  0.00     0.125 A 
ATOM      9  C   UNL     1      30.698  -3.820  45.275  1.00  0.00     0.078 A 
ATOM     10  C   UNL     1      31.832  -3.247  44.693  1.00  0.00     0.223 A 
ENDROOT
BRANCH   1  11
ATOM     11  C   UNL     1      32.973  -1.196  43.754  1.00  0.00     0.091 A 
ATOM     12  C   UNL     1      32.842   0.133  43.322  1.00  0.00     0.068 A 
ATOM     13  C   UNL     1      33.909   0.791  42.702  1.00  0.00     0.162 A 
ATOM     14  C   UNL     1      34.182  -1.873  43.521  1.00  0.00     0.068 A 
ATOM     15  C   UNL     1      35.123   0.116  42.492  1.00  0.00     0.200 A 
ATOM     16  C   UNL     1      35.256  -1.222  42.899  1.00  0.00     0.162 A 
BRANCH  13  17
ATOM     17  O   UNL     1      33.743   2.117  42.303  1.00  0.00    -0.504 OA
ATOM     18  H   UNL     1      32.850   2.478  41.987  1.00  0.00     0.293 HD
ENDBRANCH  13  17
BRANCH  15  19
ATOM     19  O   UNL     1      36.184   0.782  41.876  1.00  0.00    -0.502 OA
ATOM     20  H   UNL     1      36.164   1.036  40.895  1.00  0.00     0.293 HD
ENDBRANCH  15  19
BRANCH  16  21
ATOM     21  O   UNL     1      36.453  -1.903  42.680  1.00  0.00    -0.504 OA
ATOM     22  H   UNL     1      36.865  -2.496  43.390  1.00  0.00     0.293 HD
ENDBRANCH  16  21
ENDBRANCH   1  11
BRANCH  10  23
ATOM     23  O   UNL     1      32.964  -4.025  44.451  1.00  0.00    -0.500 OA
ATOM     24  H   UNL     1      33.416  -4.551  45.190  1.00  0.00     0.294 HD
ENDBRANCH  10  23
BRANCH   5  25
ATOM     25  O   UNL     1      26.354  -0.442  46.377  1.00  0.00    -0.507 OA
ATOM     26  H   UNL     1      25.631  -0.683  47.046  1.00  0.00     0.293 HD
ENDBRANCH   5  25
BRANCH   7  27
ATOM     27  O   UNL     1      28.224  -4.880  46.500  1.00  0.00    -0.507 OA
ATOM     28  H   UNL     1      28.681  -5.332  47.279  1.00  0.00     0.293 HD
ENDBRANCH   7  27
TORSDOF 7
ENDMDL
