MODEL 1
REMARK VINA RESULT:     5.276      0.000      0.000
REMARK INTER + INTRA:           9.326
REMARK INTER:                   7.126
REMARK INTRA:                   2.200
REMARK UNBOUND:                 2.200
REMARK SMILES C=C1CCC=C(C)CC[C@H]2[C@H]1CC2(C)C
REMARK SMILES IDX 11 1 12 2 13 3 10 4 14 5 15 6 9 7 8 8 6 9 7 10 5 11 2 13
REMARK SMILES IDX 1 14 3 15 4 16
REMARK H PARENT
REMARK Flexibility Score: 70.00
ROOT
ATOM      1  C   UNL     1       5.803   7.000  13.843  1.00  0.00     0.018 C 
ATOM      2  C   UNL     1       4.332   7.068  13.384  1.00  0.00     0.015 C 
ATOM      3  C   UNL     1       4.696   8.101  12.308  1.00  0.00    -0.031 C 
ATOM      4  C   UNL     1       6.190   7.942  12.685  1.00  0.00     0.002 C 
ATOM      5  C   UNL     1       4.052   9.479  12.575  1.00  0.00     0.011 C 
ATOM      6  C   UNL     1       4.386   7.612  10.879  1.00  0.00     0.011 C 
ENDROOT
BRANCH   4   7
ATOM      7  C   UNL     1       6.959   9.201  13.119  1.00  0.00     0.009 C 
BRANCH   7   8
ATOM      8  C   UNL     1       8.076   8.893  14.122  1.00  0.00     0.030 C 
BRANCH   8   9
ATOM      9  C   UNL     1       9.272   8.151  13.537  1.00  0.00    -0.077 C 
ATOM     10  C   UNL     1      10.644   8.617  13.970  1.00  0.00     0.039 C 
ATOM     11  C   UNL     1       9.232   7.052  12.732  1.00  0.00    -0.028 CG0
ATOM     12  G   UNL     1       8.092   6.422  11.944  1.00  0.00     0.000 G0
ENDBRANCH   8   9
ENDBRANCH   7   8
ENDBRANCH   4   7
BRANCH   1  13
ATOM     13  C   UNL     1       6.503   5.638  13.825  1.00  0.00    -0.074 C 
ATOM     14  C   UNL     1       6.583   4.877  14.936  1.00  0.00     0.008 C 
BRANCH  13  15
ATOM     15  C   UNL     1       7.336   5.226  12.614  1.00  0.00     0.035 C 
BRANCH  15  16
ATOM     16  C   UNL     1       8.062   6.413  11.960  1.00  0.00     0.032 CG0
ATOM     17  G   UNL     1       9.231   7.048  12.699  1.00  0.00     0.000 G0
ENDBRANCH  15  16
ENDBRANCH  13  15
ENDBRANCH   1  13
TORSDOF 0
ENDMDL
