MODEL 1
REMARK VINA RESULT:    -4.804      0.000      0.000
REMARK INTER + INTRA:          -7.508
REMARK INTER:                  -6.629
REMARK INTRA:                  -0.879
REMARK UNBOUND:                -0.879
REMARK SMILES CCCCc1cccc(O)c1CCCC
REMARK SMILES IDX 5 1 11 2 9 3 8 4 7 5 6 6 4 7 3 8 2 9 1 10 12 11 13 12 14 13
REMARK SMILES IDX 15 14 10 15
REMARK H PARENT 10 16
REMARK Flexibility Score: inf
ROOT
ATOM      1  C   UNL     1      11.461 -27.204  15.026  1.00  0.00    -0.041 A 
ATOM      2  C   UNL     1      10.217 -26.840  15.623  1.00  0.00    -0.003 A 
ATOM      3  C   UNL     1      10.165 -26.619  17.020  1.00  0.00     0.119 A 
ATOM      4  C   UNL     1      11.306 -26.809  17.808  1.00  0.00     0.046 A 
ATOM      5  C   UNL     1      12.504 -27.209  17.228  1.00  0.00     0.004 A 
ATOM      6  C   UNL     1      12.583 -27.401  15.850  1.00  0.00     0.004 A 
ENDROOT
BRANCH   1   7
ATOM      7  C   UNL     1      11.663 -27.354  13.530  1.00  0.00     0.036 C 
BRANCH   7   8
ATOM      8  C   UNL     1      12.827 -26.479  13.041  1.00  0.00     0.004 C 
BRANCH   8   9
ATOM      9  C   UNL     1      12.445 -24.995  13.051  1.00  0.00    -0.003 C 
ATOM     10  C   UNL     1      13.504 -24.147  12.353  1.00  0.00     0.004 C 
ENDBRANCH   8   9
ENDBRANCH   7   8
ENDBRANCH   1   7
BRANCH   2  11
ATOM     11  C   UNL     1       8.943 -26.667  14.813  1.00  0.00     0.040 C 
BRANCH  11  12
ATOM     12  C   UNL     1       8.866 -25.269  14.187  1.00  0.00     0.005 C 
BRANCH  12  13
ATOM     13  C   UNL     1       7.450 -24.694  14.297  1.00  0.00    -0.003 C 
ATOM     14  C   UNL     1       7.237 -24.003  15.641  1.00  0.00     0.004 C 
ENDBRANCH  12  13
ENDBRANCH  11  12
ENDBRANCH   2  11
BRANCH   3  15
ATOM     15  O   UNL     1       8.978 -26.208  17.628  1.00  0.00    -0.508 OA
ATOM     16  H   UNL     1       8.451 -25.413  17.287  1.00  0.00     0.293 HD
ENDBRANCH   3  15
TORSDOF 7
ENDMDL
MODEL 2
REMARK VINA RESULT:    -4.776      1.275      3.897
REMARK INTER + INTRA:          -7.470
REMARK INTER:                  -6.351
REMARK INTRA:                  -1.119
REMARK UNBOUND:                -0.879
REMARK SMILES CCCCc1cccc(O)c1CCCC
REMARK SMILES IDX 5 1 11 2 9 3 8 4 7 5 6 6 4 7 3 8 2 9 1 10 12 11 13 12 14 13
REMARK SMILES IDX 15 14 10 15
REMARK H PARENT 10 16
REMARK Flexibility Score: inf
ROOT
ATOM      1  C   UNL     1       9.065 -26.395  14.591  1.00  0.00    -0.041 A 
ATOM      2  C   UNL     1       8.785 -26.884  15.903  1.00  0.00    -0.003 A 
ATOM      3  C   UNL     1       7.518 -26.625  16.476  1.00  0.00     0.119 A 
ATOM      4  C   UNL     1       6.575 -25.854  15.787  1.00  0.00     0.046 A 
ATOM      5  C   UNL     1       6.869 -25.340  14.529  1.00  0.00     0.004 A 
ATOM      6  C   UNL     1       8.099 -25.610  13.934  1.00  0.00     0.004 A 
ENDROOT
BRANCH   1   7
ATOM      7  C   UNL     1      10.340 -26.706  13.832  1.00  0.00     0.036 C 
BRANCH   7   8
ATOM      8  C   UNL     1      11.110 -25.419  13.499  1.00  0.00     0.004 C 
BRANCH   8   9
ATOM      9  C   UNL     1      12.622 -25.671  13.473  1.00  0.00    -0.003 C 
ATOM     10  C   UNL     1      13.360 -24.536  12.769  1.00  0.00     0.004 C 
ENDBRANCH   8   9
ENDBRANCH   7   8
ENDBRANCH   1   7
BRANCH   2  11
ATOM     11  C   UNL     1       9.796 -27.686  16.705  1.00  0.00     0.040 C 
BRANCH  11  12
ATOM     12  C   UNL     1      10.701 -26.769  17.536  1.00  0.00     0.005 C 
BRANCH  12  13
ATOM     13  C   UNL     1      12.168 -26.916  17.117  1.00  0.00    -0.003 C 
ATOM     14  C   UNL     1      12.429 -28.283  16.490  1.00  0.00     0.004 C 
ENDBRANCH  12  13
ENDBRANCH  11  12
ENDBRANCH   2  11
BRANCH   3  15
ATOM     15  O   UNL     1       7.193 -27.136  17.733  1.00  0.00    -0.508 OA
ATOM     16  H   UNL     1       6.318 -26.912  18.191  1.00  0.00     0.293 HD
ENDBRANCH   3  15
TORSDOF 7
ENDMDL
MODEL 3
REMARK VINA RESULT:    -4.609      3.730      6.283
REMARK INTER + INTRA:          -7.239
REMARK INTER:                  -5.897
REMARK INTRA:                  -1.342
REMARK UNBOUND:                -0.879
REMARK SMILES CCCCc1cccc(O)c1CCCC
REMARK SMILES IDX 5 1 11 2 9 3 8 4 7 5 6 6 4 7 3 8 2 9 1 10 12 11 13 12 14 13
REMARK SMILES IDX 15 14 10 15
REMARK H PARENT 10 16
REMARK Flexibility Score: inf
ROOT
ATOM      1  C   UNL     1      13.081 -25.163  11.792  1.00  0.00    -0.041 A 
ATOM      2  C   UNL     1      13.118 -26.431  11.138  1.00  0.00    -0.003 A 
ATOM      3  C   UNL     1      12.656 -27.574  11.833  1.00  0.00     0.119 A 
ATOM      4  C   UNL     1      12.223 -27.468  13.160  1.00  0.00     0.046 A 
ATOM      5  C   UNL     1      12.233 -26.238  13.807  1.00  0.00     0.004 A 
ATOM      6  C   UNL     1      12.653 -25.095  13.130  1.00  0.00     0.004 A 
ENDROOT
BRANCH   1   7
ATOM      7  C   UNL     1      13.440 -23.855  11.111  1.00  0.00     0.036 C 
BRANCH   7   8
ATOM      8  C   UNL     1      14.548 -23.121  11.880  1.00  0.00     0.004 C 
BRANCH   8   9
ATOM      9  C   UNL     1      15.871 -23.892  11.814  1.00  0.00    -0.003 C 
ATOM     10  C   UNL     1      16.339 -24.307  13.206  1.00  0.00     0.004 C 
ENDBRANCH   8   9
ENDBRANCH   7   8
ENDBRANCH   1   7
BRANCH   2  11
ATOM     11  C   UNL     1      13.623 -26.600   9.715  1.00  0.00     0.040 C 
BRANCH  11  12
ATOM     12  C   UNL     1      15.146 -26.767   9.682  1.00  0.00     0.005 C 
BRANCH  12  13
ATOM     13  C   UNL     1      15.725 -26.279   8.349  1.00  0.00    -0.003 C 
ATOM     14  C   UNL     1      15.647 -24.759   8.237  1.00  0.00     0.004 C 
ENDBRANCH  12  13
ENDBRANCH  11  12
ENDBRANCH   2  11
BRANCH   3  15
ATOM     15  O   UNL     1      12.627 -28.820  11.204  1.00  0.00    -0.508 OA
ATOM     16  H   UNL     1      12.005 -29.558  11.512  1.00  0.00     0.293 HD
ENDBRANCH   3  15
TORSDOF 7
ENDMDL
MODEL 4
REMARK VINA RESULT:    -4.587      3.487      6.384
REMARK INTER + INTRA:          -7.208
REMARK INTER:                  -6.467
REMARK INTRA:                  -0.742
REMARK UNBOUND:                -0.879
REMARK SMILES CCCCc1cccc(O)c1CCCC
REMARK SMILES IDX 5 1 11 2 9 3 8 4 7 5 6 6 4 7 3 8 2 9 1 10 12 11 13 12 14 13
REMARK SMILES IDX 15 14 10 15
REMARK H PARENT 10 16
REMARK Flexibility Score: inf
ROOT
ATOM      1  C   UNL     1      12.816 -26.301  12.265  1.00  0.00    -0.041 A 
ATOM      2  C   UNL     1      13.291 -25.512  11.175  1.00  0.00    -0.003 A 
ATOM      3  C   UNL     1      13.873 -26.162  10.061  1.00  0.00     0.119 A 
ATOM      4  C   UNL     1      14.029 -27.552  10.055  1.00  0.00     0.046 A 
ATOM      5  C   UNL     1      13.606 -28.313  11.139  1.00  0.00     0.004 A 
ATOM      6  C   UNL     1      13.002 -27.695  12.232  1.00  0.00     0.004 A 
ENDROOT
BRANCH   1   7
ATOM      7  C   UNL     1      12.074 -25.728  13.457  1.00  0.00     0.036 C 
BRANCH   7   8
ATOM      8  C   UNL     1      10.752 -26.474  13.693  1.00  0.00     0.004 C 
BRANCH   8   9
ATOM      9  C   UNL     1       9.631 -25.503  14.082  1.00  0.00    -0.003 C 
ATOM     10  C   UNL     1       8.264 -26.048  13.679  1.00  0.00     0.004 C 
ENDBRANCH   8   9
ENDBRANCH   7   8
ENDBRANCH   1   7
BRANCH   2  11
ATOM     11  C   UNL     1      13.185 -23.996  11.159  1.00  0.00     0.040 C 
BRANCH  11  12
ATOM     12  C   UNL     1      14.144 -23.361  12.173  1.00  0.00     0.005 C 
BRANCH  12  13
ATOM     13  C   UNL     1      15.588 -23.806  11.919  1.00  0.00    -0.003 C 
ATOM     14  C   UNL     1      16.174 -24.506  13.142  1.00  0.00     0.004 C 
ENDBRANCH  12  13
ENDBRANCH  11  12
ENDBRANCH   2  11
BRANCH   3  15
ATOM     15  O   UNL     1      14.298 -25.424   8.955  1.00  0.00    -0.508 OA
ATOM     16  H   UNL     1      15.229 -25.527   8.569  1.00  0.00     0.293 HD
ENDBRANCH   3  15
TORSDOF 7
ENDMDL
MODEL 5
REMARK VINA RESULT:    -4.561      2.765      5.249
REMARK INTER + INTRA:          -7.173
REMARK INTER:                  -6.550
REMARK INTRA:                  -0.622
REMARK UNBOUND:                -0.879
REMARK SMILES CCCCc1cccc(O)c1CCCC
REMARK SMILES IDX 5 1 11 2 9 3 8 4 7 5 6 6 4 7 3 8 2 9 1 10 12 11 13 12 14 13
REMARK SMILES IDX 15 14 10 15
REMARK H PARENT 10 16
REMARK Flexibility Score: inf
ROOT
ATOM      1  C   UNL     1      10.541 -26.578  13.680  1.00  0.00    -0.041 A 
ATOM      2  C   UNL     1      11.945 -26.505  13.432  1.00  0.00    -0.003 A 
ATOM      3  C   UNL     1      12.650 -27.694  13.130  1.00  0.00     0.119 A 
ATOM      4  C   UNL     1      11.989 -28.928  13.130  1.00  0.00     0.046 A 
ATOM      5  C   UNL     1      10.631 -28.999  13.418  1.00  0.00     0.004 A 
ATOM      6  C   UNL     1       9.912 -27.837  13.686  1.00  0.00     0.004 A 
ENDROOT
BRANCH   1   7
ATOM      7  C   UNL     1       9.662 -25.362  13.900  1.00  0.00     0.036 C 
BRANCH   7   8
ATOM      8  C   UNL     1       8.175 -25.740  13.841  1.00  0.00     0.004 C 
BRANCH   8   9
ATOM      9  C   UNL     1       7.288 -24.556  14.244  1.00  0.00    -0.003 C 
ATOM     10  C   UNL     1       7.536 -24.148  15.693  1.00  0.00     0.004 C 
ENDBRANCH   8   9
ENDBRANCH   7   8
ENDBRANCH   1   7
BRANCH   2  11
ATOM     11  C   UNL     1      12.712 -25.194  13.467  1.00  0.00     0.040 C 
BRANCH  11  12
ATOM     12  C   UNL     1      12.879 -24.610  12.060  1.00  0.00     0.005 C 
BRANCH  12  13
ATOM     13  C   UNL     1      14.101 -23.687  11.989  1.00  0.00    -0.003 C 
ATOM     14  C   UNL     1      15.297 -24.297  12.714  1.00  0.00     0.004 C 
ENDBRANCH  12  13
ENDBRANCH  11  12
ENDBRANCH   2  11
BRANCH   3  15
ATOM     15  O   UNL     1      14.012 -27.651  12.829  1.00  0.00    -0.508 OA
ATOM     16  H   UNL     1      14.379 -28.019  11.959  1.00  0.00     0.293 HD
ENDBRANCH   3  15
TORSDOF 7
ENDMDL
MODEL 6
REMARK VINA RESULT:    -4.549      1.890      4.518
REMARK INTER + INTRA:          -7.157
REMARK INTER:                  -6.119
REMARK INTRA:                  -1.038
REMARK UNBOUND:                -0.879
REMARK SMILES CCCCc1cccc(O)c1CCCC
REMARK SMILES IDX 5 1 11 2 9 3 8 4 7 5 6 6 4 7 3 8 2 9 1 10 12 11 13 12 14 13
REMARK SMILES IDX 15 14 10 15
REMARK H PARENT 10 16
REMARK Flexibility Score: inf
ROOT
ATOM      1  C   UNL     1       8.448 -27.139  16.109  1.00  0.00    -0.041 A 
ATOM      2  C   UNL     1       8.164 -26.341  14.960  1.00  0.00    -0.003 A 
ATOM      3  C   UNL     1       7.033 -25.491  14.978  1.00  0.00     0.119 A 
ATOM      4  C   UNL     1       6.177 -25.477  16.085  1.00  0.00     0.046 A 
ATOM      5  C   UNL     1       6.432 -26.290  17.183  1.00  0.00     0.004 A 
ATOM      6  C   UNL     1       7.558 -27.110  17.198  1.00  0.00     0.004 A 
ENDROOT
BRANCH   1   7
ATOM      7  C   UNL     1       9.690 -27.998  16.250  1.00  0.00     0.036 C 
BRANCH   7   8
ATOM      8  C   UNL     1      10.234 -27.948  17.685  1.00  0.00     0.004 C 
BRANCH   8   9
ATOM      9  C   UNL     1      11.317 -26.872  17.828  1.00  0.00    -0.003 C 
ATOM     10  C   UNL     1      12.487 -27.137  16.885  1.00  0.00     0.004 C 
ENDBRANCH   8   9
ENDBRANCH   7   8
ENDBRANCH   1   7
BRANCH   2  11
ATOM     11  C   UNL     1       9.040 -26.359  13.719  1.00  0.00     0.040 C 
BRANCH  11  12
ATOM     12  C   UNL     1      10.201 -25.366  13.842  1.00  0.00     0.005 C 
BRANCH  12  13
ATOM     13  C   UNL     1      11.539 -26.040  13.520  1.00  0.00    -0.003 C 
ATOM     14  C   UNL     1      12.598 -25.010  13.135  1.00  0.00     0.004 C 
ENDBRANCH  12  13
ENDBRANCH  11  12
ENDBRANCH   2  11
BRANCH   3  15
ATOM     15  O   UNL     1       6.758 -24.657  13.893  1.00  0.00    -0.508 OA
ATOM     16  H   UNL     1       6.870 -23.652  13.951  1.00  0.00     0.293 HD
ENDBRANCH   3  15
TORSDOF 7
ENDMDL
MODEL 7
REMARK VINA RESULT:    -4.455      3.039      4.819
REMARK INTER + INTRA:          -7.026
REMARK INTER:                  -5.539
REMARK INTRA:                  -1.487
REMARK UNBOUND:                -0.879
REMARK SMILES CCCCc1cccc(O)c1CCCC
REMARK SMILES IDX 5 1 11 2 9 3 8 4 7 5 6 6 4 7 3 8 2 9 1 10 12 11 13 12 14 13
REMARK SMILES IDX 15 14 10 15
REMARK H PARENT 10 16
REMARK Flexibility Score: inf
ROOT
ATOM      1  C   UNL     1      13.232 -27.281  12.755  1.00  0.00    -0.041 A 
ATOM      2  C   UNL     1      12.516 -26.097  13.106  1.00  0.00    -0.003 A 
ATOM      3  C   UNL     1      11.165 -26.208  13.512  1.00  0.00     0.119 A 
ATOM      4  C   UNL     1      10.527 -27.454  13.514  1.00  0.00     0.046 A 
ATOM      5  C   UNL     1      11.216 -28.597  13.128  1.00  0.00     0.004 A 
ATOM      6  C   UNL     1      12.556 -28.514  12.756  1.00  0.00     0.004 A 
ENDROOT
BRANCH   1   7
ATOM      7  C   UNL     1      14.711 -27.300  12.417  1.00  0.00     0.036 C 
BRANCH   7   8
ATOM      8  C   UNL     1      14.951 -27.920  11.033  1.00  0.00     0.004 C 
BRANCH   8   9
ATOM      9  C   UNL     1      14.952 -26.846   9.939  1.00  0.00    -0.003 C 
ATOM     10  C   UNL     1      13.631 -26.833   9.176  1.00  0.00     0.004 C 
ENDBRANCH   8   9
ENDBRANCH   7   8
ENDBRANCH   1   7
BRANCH   2  11
ATOM     11  C   UNL     1      13.155 -24.718  13.073  1.00  0.00     0.040 C 
BRANCH  11  12
ATOM     12  C   UNL     1      13.090 -24.109  11.669  1.00  0.00     0.005 C 
BRANCH  12  13
ATOM     13  C   UNL     1      14.402 -23.401  11.314  1.00  0.00    -0.003 C 
ATOM     14  C   UNL     1      15.509 -23.765  12.299  1.00  0.00     0.004 C 
ENDBRANCH  12  13
ENDBRANCH  11  12
ENDBRANCH   2  11
BRANCH   3  15
ATOM     15  O   UNL     1      10.453 -25.077  13.915  1.00  0.00    -0.508 OA
ATOM     16  H   UNL     1      10.440 -24.769  14.879  1.00  0.00     0.293 HD
ENDBRANCH   3  15
TORSDOF 7
ENDMDL
MODEL 8
REMARK VINA RESULT:    -4.390      4.624      7.688
REMARK INTER + INTRA:          -6.937
REMARK INTER:                  -5.562
REMARK INTRA:                  -1.374
REMARK UNBOUND:                -0.879
REMARK SMILES CCCCc1cccc(O)c1CCCC
REMARK SMILES IDX 5 1 11 2 9 3 8 4 7 5 6 6 4 7 3 8 2 9 1 10 12 11 13 12 14 13
REMARK SMILES IDX 15 14 10 15
REMARK H PARENT 10 16
REMARK Flexibility Score: inf
ROOT
ATOM      1  C   UNL     1      14.648 -27.094   9.899  1.00  0.00    -0.041 A 
ATOM      2  C   UNL     1      14.758 -25.862   9.187  1.00  0.00    -0.003 A 
ATOM      3  C   UNL     1      14.367 -25.818   7.828  1.00  0.00     0.119 A 
ATOM      4  C   UNL     1      13.931 -26.980   7.180  1.00  0.00     0.046 A 
ATOM      5  C   UNL     1      13.870 -28.187   7.865  1.00  0.00     0.004 A 
ATOM      6  C   UNL     1      14.220 -28.245   9.212  1.00  0.00     0.004 A 
ENDROOT
BRANCH   1   7
ATOM      7  C   UNL     1      14.927 -27.234  11.383  1.00  0.00     0.036 C 
BRANCH   7   8
ATOM      8  C   UNL     1      13.621 -27.387  12.177  1.00  0.00     0.004 C 
BRANCH   8   9
ATOM      9  C   UNL     1      13.544 -26.363  13.315  1.00  0.00    -0.003 C 
ATOM     10  C   UNL     1      12.244 -25.567  13.254  1.00  0.00     0.004 C 
ENDBRANCH   8   9
ENDBRANCH   7   8
ENDBRANCH   1   7
BRANCH   2  11
ATOM     11  C   UNL     1      15.269 -24.587   9.838  1.00  0.00     0.040 C 
BRANCH  11  12
ATOM     12  C   UNL     1      14.132 -23.816  10.518  1.00  0.00     0.005 C 
BRANCH  12  13
ATOM     13  C   UNL     1      14.627 -23.112  11.786  1.00  0.00    -0.003 C 
ATOM     14  C   UNL     1      15.907 -23.756  12.312  1.00  0.00     0.004 C 
ENDBRANCH  12  13
ENDBRANCH  11  12
ENDBRANCH   2  11
BRANCH   3  15
ATOM     15  O   UNL     1      14.409 -24.617   7.118  1.00  0.00    -0.508 OA
ATOM     16  H   UNL     1      13.577 -24.063   6.955  1.00  0.00     0.293 HD
ENDBRANCH   3  15
TORSDOF 7
ENDMDL
MODEL 9
REMARK VINA RESULT:    -4.335      3.167      5.667
REMARK INTER + INTRA:          -6.861
REMARK INTER:                  -5.832
REMARK INTRA:                  -1.029
REMARK UNBOUND:                -0.879
REMARK SMILES CCCCc1cccc(O)c1CCCC
REMARK SMILES IDX 5 1 11 2 9 3 8 4 7 5 6 6 4 7 3 8 2 9 1 10 12 11 13 12 14 13
REMARK SMILES IDX 15 14 10 15
REMARK H PARENT 10 16
REMARK Flexibility Score: inf
ROOT
ATOM      1  C   UNL     1      12.436 -25.781  12.910  1.00  0.00    -0.041 A 
ATOM      2  C   UNL     1      13.095 -26.721  12.062  1.00  0.00    -0.003 A 
ATOM      3  C   UNL     1      14.064 -26.255  11.143  1.00  0.00     0.119 A 
ATOM      4  C   UNL     1      14.331 -24.885  11.032  1.00  0.00     0.046 A 
ATOM      5  C   UNL     1      13.653 -23.969  11.827  1.00  0.00     0.004 A 
ATOM      6  C   UNL     1      12.718 -24.411  12.760  1.00  0.00     0.004 A 
ENDROOT
BRANCH   1   7
ATOM      7  C   UNL     1      11.466 -26.174  14.008  1.00  0.00     0.036 C 
BRANCH   7   8
ATOM      8  C   UNL     1      10.140 -25.410  13.871  1.00  0.00     0.004 C 
BRANCH   8   9
ATOM      9  C   UNL     1       8.942 -26.360  13.985  1.00  0.00    -0.003 C 
ATOM     10  C   UNL     1       7.624 -25.600  13.875  1.00  0.00     0.004 C 
ENDBRANCH   8   9
ENDBRANCH   7   8
ENDBRANCH   1   7
BRANCH   2  11
ATOM     11  C   UNL     1      12.803 -28.212  12.117  1.00  0.00     0.040 C 
BRANCH  11  12
ATOM     12  C   UNL     1      11.610 -28.578  11.226  1.00  0.00     0.005 C 
BRANCH  12  13
ATOM     13  C   UNL     1      10.447 -29.125  12.061  1.00  0.00    -0.003 C 
ATOM     14  C   UNL     1       9.126 -29.017  11.304  1.00  0.00     0.004 C 
ENDBRANCH  12  13
ENDBRANCH  11  12
ENDBRANCH   2  11
BRANCH   3  15
ATOM     15  O   UNL     1      14.766 -27.153  10.339  1.00  0.00    -0.508 OA
ATOM     16  H   UNL     1      14.749 -28.151  10.512  1.00  0.00     0.293 HD
ENDBRANCH   3  15
TORSDOF 7
ENDMDL
