MODEL 1
REMARK VINA RESULT:    -4.802      0.000      0.000
REMARK INTER + INTRA:          -6.111
REMARK INTER:                  -6.768
REMARK INTRA:                   0.657
REMARK UNBOUND:                 0.657
REMARK SMILES CC1=CCC(=C(C)C)C(=O)CC(C)=CCC1
REMARK SMILES IDX 12 1 14 2 13 3 15 4 16 5 2 6 1 7 3 8 11 10 9 11 10 12 5 13
REMARK SMILES IDX 6 14 7 15 8 16 4 17
REMARK H PARENT
REMARK Flexibility Score: 60.00
ROOT
ATOM      1  C   UNL     1      30.471  19.231  24.293  1.00  0.00    -0.070 C 
ATOM      2  C   UNL     1      31.131  19.232  25.472  1.00  0.00    -0.027 C 
ATOM      3  C   UNL     1      28.993  19.531  24.311  1.00  0.00     0.039 C 
ENDROOT
BRANCH   2   4
ATOM      4  C   UNL     1      32.585  18.862  25.670  1.00  0.00     0.032 C 
BRANCH   4   5
ATOM      5  C   UNL     1      33.589  19.993  25.364  1.00  0.00     0.034 C 
BRANCH   5   6
ATOM      6  C   UNL     1      34.480  19.693  24.172  1.00  0.00    -0.077 C 
ATOM      7  C   UNL     1      35.628  18.736  24.379  1.00  0.00     0.039 C 
ATOM      8  C   UNL     1      34.354  20.278  22.956  1.00  0.00    -0.023 CG0
ATOM      9  G   UNL     1      33.275  21.247  22.515  1.00  0.00     0.000 G0
ENDBRANCH   5   6
ENDBRANCH   4   5
ENDBRANCH   2   4
BRANCH   1  10
ATOM     10  C   UNL     1      31.121  18.858  22.976  1.00  0.00     0.111 C 
BRANCH  10  11
ATOM     11  C   UNL     1      31.081  19.998  21.993  1.00  0.00     0.163 C 
ATOM     12  O   UNL     1      29.957  20.365  21.554  1.00  0.00    -0.294 OA
BRANCH  11  13
ATOM     13  C   UNL     1      32.318  20.659  21.481  1.00  0.00    -0.002 C 
ATOM     14  C   UNL     1      32.621  20.640  20.148  1.00  0.00    -0.069 C 
ATOM     15  C   UNL     1      31.644  20.094  19.130  1.00  0.00     0.039 C 
ATOM     16  C   UNL     1      33.939  21.160  19.618  1.00  0.00     0.039 C 
BRANCH  13  17
ATOM     17  C   UNL     1      33.263  21.259  22.510  1.00  0.00     0.066 CG0
ATOM     18  G   UNL     1      34.342  20.285  22.939  1.00  0.00     0.000 G0
ENDBRANCH  13  17
ENDBRANCH  11  13
ENDBRANCH  10  11
ENDBRANCH   1  10
TORSDOF 0
ENDMDL
MODEL 2
REMARK VINA RESULT:    -4.597      1.681      3.595
REMARK INTER + INTRA:          -5.822
REMARK INTER:                  -6.489
REMARK INTRA:                   0.668
REMARK UNBOUND:                 0.657
REMARK SMILES CC1=CCC(=C(C)C)C(=O)CC(C)=CCC1
REMARK SMILES IDX 12 1 14 2 13 3 15 4 16 5 2 6 1 7 3 8 11 10 9 11 10 12 5 13
REMARK SMILES IDX 6 14 7 15 8 16 4 17
REMARK H PARENT
REMARK Flexibility Score: 60.00
ROOT
ATOM      1  C   UNL     1      34.404  20.069  25.071  1.00  0.00    -0.070 C 
ATOM      2  C   UNL     1      33.663  19.183  25.771  1.00  0.00    -0.027 C 
ATOM      3  C   UNL     1      35.170  21.115  25.844  1.00  0.00     0.039 C 
ENDROOT
BRANCH   2   4
ATOM      4  C   UNL     1      32.755  18.128  25.178  1.00  0.00     0.032 C 
BRANCH   4   5
ATOM      5  C   UNL     1      31.300  18.164  25.689  1.00  0.00     0.034 C 
BRANCH   5   6
ATOM      6  C   UNL     1      30.490  19.307  25.105  1.00  0.00    -0.077 C 
ATOM      7  C   UNL     1      29.595  20.081  26.040  1.00  0.00     0.039 C 
ATOM      8  C   UNL     1      30.468  19.634  23.790  1.00  0.00    -0.023 CG0
ATOM      9  G   UNL     1      31.291  19.014  22.678  1.00  0.00     0.000 G0
ENDBRANCH   5   6
ENDBRANCH   4   5
ENDBRANCH   2   4
BRANCH   1  10
ATOM     10  C   UNL     1      34.430  20.120  23.557  1.00  0.00     0.111 C 
BRANCH  10  11
ATOM     11  C   UNL     1      33.173  20.734  23.000  1.00  0.00     0.163 C 
ATOM     12  O   UNL     1      32.853  21.890  23.389  1.00  0.00    -0.294 OA
BRANCH  11  13
ATOM     13  C   UNL     1      32.272  20.001  22.060  1.00  0.00    -0.002 C 
ATOM     14  C   UNL     1      32.282  20.280  20.722  1.00  0.00    -0.069 C 
ATOM     15  C   UNL     1      33.309  21.217  20.124  1.00  0.00     0.039 C 
ATOM     16  C   UNL     1      31.277  19.671  19.770  1.00  0.00     0.039 C 
BRANCH  13  17
ATOM     17  C   UNL     1      31.288  19.015  22.668  1.00  0.00     0.066 CG0
ATOM     18  G   UNL     1      30.463  19.635  23.778  1.00  0.00     0.000 G0
ENDBRANCH  13  17
ENDBRANCH  11  13
ENDBRANCH  10  11
ENDBRANCH   1  10
TORSDOF 0
ENDMDL
MODEL 3
REMARK VINA RESULT:    -4.542      1.696      4.380
REMARK INTER + INTRA:          -5.743
REMARK INTER:                  -6.592
REMARK INTRA:                   0.849
REMARK UNBOUND:                 0.657
REMARK SMILES CC1=CCC(=C(C)C)C(=O)CC(C)=CCC1
REMARK SMILES IDX 12 1 14 2 13 3 15 4 16 5 2 6 1 7 3 8 11 10 9 11 10 12 5 13
REMARK SMILES IDX 6 14 7 15 8 16 4 17
REMARK H PARENT
REMARK Flexibility Score: 60.00
ROOT
ATOM      1  C   UNL     1      31.881  20.297  21.948  1.00  0.00    -0.070 C 
ATOM      2  C   UNL     1      33.209  20.287  21.699  1.00  0.00    -0.027 C 
ATOM      3  C   UNL     1      30.946  19.995  20.803  1.00  0.00     0.039 C 
ENDROOT
BRANCH   2   4
ATOM      4  C   UNL     1      34.295  20.657  22.686  1.00  0.00     0.032 C 
BRANCH   4   5
ATOM      5  C   UNL     1      34.669  19.543  23.685  1.00  0.00     0.034 C 
BRANCH   5   6
ATOM      6  C   UNL     1      34.252  19.855  25.111  1.00  0.00    -0.077 C 
ATOM      7  C   UNL     1      35.092  20.837  25.889  1.00  0.00     0.039 C 
ATOM      8  C   UNL     1      33.215  19.261  25.752  1.00  0.00    -0.023 CG0
ATOM      9  G   UNL     1      32.228  18.268  25.171  1.00  0.00     0.000 G0
ENDBRANCH   5   6
ENDBRANCH   4   5
ENDBRANCH   2   4
BRANCH   1  10
ATOM     10  C   UNL     1      31.289  20.683  23.288  1.00  0.00     0.111 C 
BRANCH  10  11
ATOM     11  C   UNL     1      30.431  19.582  23.854  1.00  0.00     0.163 C 
ATOM     12  O   UNL     1      29.334  19.331  23.285  1.00  0.00    -0.294 OA
BRANCH  11  13
ATOM     13  C   UNL     1      30.805  18.830  25.090  1.00  0.00    -0.002 C 
ATOM     14  C   UNL     1      29.933  18.731  26.138  1.00  0.00    -0.069 C 
ATOM     15  C   UNL     1      28.511  19.236  26.026  1.00  0.00     0.039 C 
ATOM     16  C   UNL     1      30.337  18.115  27.459  1.00  0.00     0.039 C 
BRANCH  13  17
ATOM     17  C   UNL     1      32.217  18.273  25.164  1.00  0.00     0.066 CG0
ATOM     18  G   UNL     1      33.202  19.275  25.734  1.00  0.00     0.000 G0
ENDBRANCH  13  17
ENDBRANCH  11  13
ENDBRANCH  10  11
ENDBRANCH   1  10
TORSDOF 0
ENDMDL
MODEL 4
REMARK VINA RESULT:    -4.451      5.239      7.679
REMARK INTER + INTRA:          -5.616
REMARK INTER:                  -5.750
REMARK INTRA:                   0.134
REMARK UNBOUND:                 0.657
REMARK SMILES CC1=CCC(=C(C)C)C(=O)CC(C)=CCC1
REMARK SMILES IDX 12 1 14 2 13 3 15 4 16 5 2 6 1 7 3 8 11 10 9 11 10 12 5 13
REMARK SMILES IDX 6 14 7 15 8 16 4 17
REMARK H PARENT
REMARK Flexibility Score: 60.00
ROOT
ATOM      1  C   UNL     1      36.138  20.369  25.126  1.00  0.00    -0.070 C 
ATOM      2  C   UNL     1      35.826  21.304  26.050  1.00  0.00    -0.027 C 
ATOM      3  C   UNL     1      35.014  19.545  24.549  1.00  0.00     0.039 C 
ENDROOT
BRANCH   2   4
ATOM      4  C   UNL     1      36.816  22.159  26.812  1.00  0.00     0.032 C 
BRANCH   4   5
ATOM      5  C   UNL     1      37.366  21.518  28.102  1.00  0.00     0.034 C 
BRANCH   5   6
ATOM      6  C   UNL     1      38.879  21.589  28.206  1.00  0.00    -0.077 C 
ATOM      7  C   UNL     1      39.498  22.924  28.534  1.00  0.00     0.039 C 
ATOM      8  C   UNL     1      39.712  20.548  27.958  1.00  0.00    -0.023 CG0
ATOM      9  G   UNL     1      39.321  19.121  27.632  1.00  0.00     0.000 G0
ENDBRANCH   5   6
ENDBRANCH   4   5
ENDBRANCH   2   4
BRANCH   1  10
ATOM     10  C   UNL     1      37.560  20.050  24.713  1.00  0.00     0.111 C 
BRANCH  10  11
ATOM     11  C   UNL     1      38.078  18.819  25.410  1.00  0.00     0.163 C 
ATOM     12  O   UNL     1      37.358  17.784  25.401  1.00  0.00    -0.294 OA
BRANCH  11  13
ATOM     13  C   UNL     1      39.374  18.805  26.153  1.00  0.00    -0.002 C 
ATOM     14  C   UNL     1      40.535  18.444  25.527  1.00  0.00    -0.069 C 
ATOM     15  C   UNL     1      40.578  18.203  24.034  1.00  0.00     0.039 C 
ATOM     16  C   UNL     1      41.831  18.267  26.286  1.00  0.00     0.039 C 
BRANCH  13  17
ATOM     17  C   UNL     1      39.325  19.110  27.641  1.00  0.00     0.066 CG0
ATOM     18  G   UNL     1      39.733  20.537  27.949  1.00  0.00     0.000 G0
ENDBRANCH  13  17
ENDBRANCH  11  13
ENDBRANCH  10  11
ENDBRANCH   1  10
TORSDOF 0
ENDMDL
MODEL 5
REMARK VINA RESULT:    -4.429      4.032      6.270
REMARK INTER + INTRA:          -5.585
REMARK INTER:                  -6.529
REMARK INTRA:                   0.944
REMARK UNBOUND:                 0.657
REMARK SMILES CC1=CCC(=C(C)C)C(=O)CC(C)=CCC1
REMARK SMILES IDX 12 1 14 2 13 3 15 4 16 5 2 6 1 7 3 8 11 10 9 11 10 12 5 13
REMARK SMILES IDX 6 14 7 15 8 16 4 17
REMARK H PARENT
REMARK Flexibility Score: 60.00
ROOT
ATOM      1  C   UNL     1      31.613  17.736  16.328  1.00  0.00    -0.070 C 
ATOM      2  C   UNL     1      31.261  17.839  17.628  1.00  0.00    -0.027 C 
ATOM      3  C   UNL     1      30.626  17.106  15.377  1.00  0.00     0.039 C 
ENDROOT
BRANCH   2   4
ATOM      4  C   UNL     1      32.146  18.348  18.745  1.00  0.00     0.032 C 
BRANCH   4   5
ATOM      5  C   UNL     1      31.577  19.553  19.523  1.00  0.00     0.034 C 
BRANCH   5   6
ATOM      6  C   UNL     1      32.554  20.710  19.628  1.00  0.00    -0.077 C 
ATOM      7  C   UNL     1      33.126  21.024  20.988  1.00  0.00     0.039 C 
ATOM      8  C   UNL     1      32.894  21.521  18.595  1.00  0.00    -0.023 CG0
ATOM      9  G   UNL     1      32.462  21.388  17.148  1.00  0.00     0.000 G0
ENDBRANCH   5   6
ENDBRANCH   4   5
ENDBRANCH   2   4
BRANCH   1  10
ATOM     10  C   UNL     1      32.976  18.136  15.801  1.00  0.00     0.111 C 
BRANCH  10  11
ATOM     11  C   UNL     1      33.010  19.586  15.393  1.00  0.00     0.163 C 
ATOM     12  O   UNL     1      32.647  19.882  14.222  1.00  0.00    -0.294 OA
BRANCH  11  13
ATOM     13  C   UNL     1      33.513  20.661  16.298  1.00  0.00    -0.002 C 
ATOM     14  C   UNL     1      34.853  20.901  16.423  1.00  0.00    -0.069 C 
ATOM     15  C   UNL     1      35.860  20.200  15.538  1.00  0.00     0.039 C 
ATOM     16  C   UNL     1      35.402  21.872  17.445  1.00  0.00     0.039 C 
BRANCH  13  17
ATOM     17  C   UNL     1      32.484  21.402  17.137  1.00  0.00     0.066 CG0
ATOM     18  G   UNL     1      32.900  21.516  18.590  1.00  0.00     0.000 G0
ENDBRANCH  13  17
ENDBRANCH  11  13
ENDBRANCH  10  11
ENDBRANCH   1  10
TORSDOF 0
ENDMDL
MODEL 6
REMARK VINA RESULT:    -4.423      3.291      6.976
REMARK INTER + INTRA:          -5.576
REMARK INTER:                  -6.564
REMARK INTRA:                   0.988
REMARK UNBOUND:                 0.657
REMARK SMILES CC1=CCC(=C(C)C)C(=O)CC(C)=CCC1
REMARK SMILES IDX 12 1 14 2 13 3 15 4 16 5 2 6 1 7 3 8 11 10 9 11 10 12 5 13
REMARK SMILES IDX 6 14 7 15 8 16 4 17
REMARK H PARENT
REMARK Flexibility Score: 60.00
ROOT
ATOM      1  C   UNL     1      33.975  21.155  16.289  1.00  0.00    -0.070 C 
ATOM      2  C   UNL     1      33.341  20.432  15.340  1.00  0.00    -0.027 C 
ATOM      3  C   UNL     1      35.484  21.173  16.271  1.00  0.00     0.039 C 
ENDROOT
BRANCH   2   4
ATOM      4  C   UNL     1      31.846  20.212  15.249  1.00  0.00     0.032 C 
BRANCH   4   5
ATOM      5  C   UNL     1      31.376  18.794  15.631  1.00  0.00     0.034 C 
BRANCH   5   6
ATOM      6  C   UNL     1      32.277  18.121  16.651  1.00  0.00    -0.077 C 
ATOM      7  C   UNL     1      33.138  16.976  16.179  1.00  0.00     0.039 C 
ATOM      8  C   UNL     1      32.308  18.436  17.969  1.00  0.00    -0.023 CG0
ATOM      9  G   UNL     1      31.551  19.552  18.661  1.00  0.00     0.000 G0
ENDBRANCH   5   6
ENDBRANCH   4   5
ENDBRANCH   2   4
BRANCH   1  10
ATOM     10  C   UNL     1      33.253  21.868  17.413  1.00  0.00     0.111 C 
BRANCH  10  11
ATOM     11  C   UNL     1      33.513  21.214  18.744  1.00  0.00     0.163 C 
ATOM     12  O   UNL     1      34.681  21.274  19.217  1.00  0.00    -0.294 OA
BRANCH  11  13
ATOM     13  C   UNL     1      32.461  20.454  19.483  1.00  0.00    -0.002 C 
ATOM     14  C   UNL     1      32.387  20.508  20.847  1.00  0.00    -0.069 C 
ATOM     15  C   UNL     1      33.258  21.457  21.642  1.00  0.00     0.039 C 
ATOM     16  C   UNL     1      31.438  19.631  21.633  1.00  0.00     0.039 C 
BRANCH  13  17
ATOM     17  C   UNL     1      31.551  19.552  18.665  1.00  0.00     0.066 CG0
ATOM     18  G   UNL     1      32.314  18.439  17.974  1.00  0.00     0.000 G0
ENDBRANCH  13  17
ENDBRANCH  11  13
ENDBRANCH  10  11
ENDBRANCH   1  10
TORSDOF 0
ENDMDL
MODEL 7
REMARK VINA RESULT:    -4.365      5.324      7.825
REMARK INTER + INTRA:          -5.494
REMARK INTER:                  -5.994
REMARK INTRA:                   0.500
REMARK UNBOUND:                 0.657
REMARK SMILES CC1=CCC(=C(C)C)C(=O)CC(C)=CCC1
REMARK SMILES IDX 12 1 14 2 13 3 15 4 16 5 2 6 1 7 3 8 11 10 9 11 10 12 5 13
REMARK SMILES IDX 6 14 7 15 8 16 4 17
REMARK H PARENT
REMARK Flexibility Score: 60.00
ROOT
ATOM      1  C   UNL     1      36.500  21.820  26.516  1.00  0.00    -0.070 C 
ATOM      2  C   UNL     1      35.556  21.079  25.896  1.00  0.00    -0.027 C 
ATOM      3  C   UNL     1      36.045  22.824  27.546  1.00  0.00     0.039 C 
ENDROOT
BRANCH   2   4
ATOM      4  C   UNL     1      35.802  20.095  24.772  1.00  0.00     0.032 C 
BRANCH   4   5
ATOM      5  C   UNL     1      35.580  18.615  25.147  1.00  0.00     0.034 C 
BRANCH   5   6
ATOM      6  C   UNL     1      36.872  17.870  25.429  1.00  0.00    -0.077 C 
ATOM      7  C   UNL     1      37.420  16.980  24.342  1.00  0.00     0.039 C 
ATOM      8  C   UNL     1      37.528  17.900  26.615  1.00  0.00    -0.023 CG0
ATOM      9  G   UNL     1      37.178  18.729  27.834  1.00  0.00     0.000 G0
ENDBRANCH   5   6
ENDBRANCH   4   5
ENDBRANCH   2   4
BRANCH   1  10
ATOM     10  C   UNL     1      37.972  21.754  26.166  1.00  0.00     0.111 C 
BRANCH  10  11
ATOM     11  C   UNL     1      38.645  20.569  26.808  1.00  0.00     0.163 C 
ATOM     12  O   UNL     1      39.667  20.090  26.247  1.00  0.00    -0.294 OA
BRANCH  11  13
ATOM     13  C   UNL     1      38.111  19.916  28.040  1.00  0.00    -0.002 C 
ATOM     14  C   UNL     1      38.513  20.326  29.281  1.00  0.00    -0.069 C 
ATOM     15  C   UNL     1      39.382  21.551  29.456  1.00  0.00     0.039 C 
ATOM     16  C   UNL     1      38.114  19.585  30.538  1.00  0.00     0.039 C 
BRANCH  13  17
ATOM     17  C   UNL     1      37.187  18.723  27.849  1.00  0.00     0.066 CG0
ATOM     18  G   UNL     1      37.542  17.911  26.620  1.00  0.00     0.000 G0
ENDBRANCH  13  17
ENDBRANCH  11  13
ENDBRANCH  10  11
ENDBRANCH   1  10
TORSDOF 0
ENDMDL
MODEL 8
REMARK VINA RESULT:    -4.332      4.380      7.161
REMARK INTER + INTRA:          -5.447
REMARK INTER:                  -5.767
REMARK INTRA:                   0.320
REMARK UNBOUND:                 0.657
REMARK SMILES CC1=CCC(=C(C)C)C(=O)CC(C)=CCC1
REMARK SMILES IDX 12 1 14 2 13 3 15 4 16 5 2 6 1 7 3 8 11 10 9 11 10 12 5 13
REMARK SMILES IDX 6 14 7 15 8 16 4 17
REMARK H PARENT
REMARK Flexibility Score: 60.00
ROOT
ATOM      1  C   UNL     1      37.510  21.714  27.466  1.00  0.00    -0.070 C 
ATOM      2  C   UNL     1      36.207  21.948  27.197  1.00  0.00    -0.027 C 
ATOM      3  C   UNL     1      38.071  22.254  28.758  1.00  0.00     0.039 C 
ENDROOT
BRANCH   2   4
ATOM      4  C   UNL     1      35.489  21.574  25.918  1.00  0.00     0.032 C 
BRANCH   4   5
ATOM      5  C   UNL     1      34.757  20.217  25.959  1.00  0.00     0.034 C 
BRANCH   5   6
ATOM      6  C   UNL     1      35.126  19.304  24.804  1.00  0.00    -0.077 C 
ATOM      7  C   UNL     1      34.391  19.491  23.500  1.00  0.00     0.039 C 
ATOM      8  C   UNL     1      36.022  18.290  24.887  1.00  0.00    -0.023 CG0
ATOM      9  G   UNL     1      36.886  17.928  26.078  1.00  0.00     0.000 G0
ENDBRANCH   5   6
ENDBRANCH   4   5
ENDBRANCH   2   4
BRANCH   1  10
ATOM     10  C   UNL     1      38.448  21.020  26.500  1.00  0.00     0.111 C 
BRANCH  10  11
ATOM     11  C   UNL     1      38.675  19.581  26.882  1.00  0.00     0.163 C 
ATOM     12  O   UNL     1      39.244  19.340  27.981  1.00  0.00    -0.294 OA
BRANCH  11  13
ATOM     13  C   UNL     1      38.307  18.446  25.984  1.00  0.00    -0.002 C 
ATOM     14  C   UNL     1      39.192  17.972  25.056  1.00  0.00    -0.069 C 
ATOM     15  C   UNL     1      40.621  18.468  25.012  1.00  0.00     0.039 C 
ATOM     16  C   UNL     1      38.798  16.934  24.029  1.00  0.00     0.039 C 
BRANCH  13  17
ATOM     17  C   UNL     1      36.886  17.914  26.082  1.00  0.00     0.066 CG0
ATOM     18  G   UNL     1      36.044  18.299  24.881  1.00  0.00     0.000 G0
ENDBRANCH  13  17
ENDBRANCH  11  13
ENDBRANCH  10  11
ENDBRANCH   1  10
TORSDOF 0
ENDMDL
MODEL 9
REMARK VINA RESULT:    -4.178      3.419      5.651
REMARK INTER + INTRA:          -5.231
REMARK INTER:                  -5.720
REMARK INTRA:                   0.489
REMARK UNBOUND:                 0.657
REMARK SMILES CC1=CCC(=C(C)C)C(=O)CC(C)=CCC1
REMARK SMILES IDX 12 1 14 2 13 3 15 4 16 5 2 6 1 7 3 8 11 10 9 11 10 12 5 13
REMARK SMILES IDX 6 14 7 15 8 16 4 17
REMARK H PARENT
REMARK Flexibility Score: 60.00
ROOT
ATOM      1  C   UNL     1      37.300  21.414  26.426  1.00  0.00    -0.070 C 
ATOM      2  C   UNL     1      37.951  20.462  27.130  1.00  0.00    -0.027 C 
ATOM      3  C   UNL     1      38.122  22.514  25.801  1.00  0.00     0.039 C 
ENDROOT
BRANCH   2   4
ATOM      4  C   UNL     1      37.300  19.339  27.908  1.00  0.00     0.032 C 
BRANCH   4   5
ATOM      5  C   UNL     1      37.530  17.929  27.324  1.00  0.00     0.034 C 
BRANCH   5   6
ATOM      6  C   UNL     1      37.517  17.902  25.807  1.00  0.00    -0.077 C 
ATOM      7  C   UNL     1      38.840  17.750  25.097  1.00  0.00     0.039 C 
ATOM      8  C   UNL     1      36.407  18.073  25.048  1.00  0.00    -0.023 CG0
ATOM      9  G   UNL     1      34.980  18.224  25.536  1.00  0.00     0.000 G0
ENDBRANCH   5   6
ENDBRANCH   4   5
ENDBRANCH   2   4
BRANCH   1  10
ATOM     10  C   UNL     1      35.791  21.478  26.311  1.00  0.00     0.111 C 
BRANCH  10  11
ATOM     11  C   UNL     1      35.293  20.734  25.100  1.00  0.00     0.163 C 
ATOM     12  O   UNL     1      35.638  21.152  23.962  1.00  0.00    -0.294 OA
BRANCH  11  13
ATOM     13  C   UNL     1      34.365  19.568  25.202  1.00  0.00    -0.002 C 
ATOM     14  C   UNL     1      33.014  19.737  25.081  1.00  0.00    -0.069 C 
ATOM     15  C   UNL     1      32.424  21.073  24.682  1.00  0.00     0.039 C 
ATOM     16  C   UNL     1      32.039  18.609  25.334  1.00  0.00     0.039 C 
BRANCH  13  17
ATOM     17  C   UNL     1      34.977  18.219  25.541  1.00  0.00     0.066 CG0
ATOM     18  G   UNL     1      36.400  18.089  25.036  1.00  0.00     0.000 G0
ENDBRANCH  13  17
ENDBRANCH  11  13
ENDBRANCH  10  11
ENDBRANCH   1  10
TORSDOF 0
ENDMDL
