MODEL 1
REMARK VINA RESULT:    -5.283      0.000      0.000
REMARK INTER + INTRA:          -5.283
REMARK INTER:                  -5.283
REMARK INTRA:                   0.000
REMARK UNBOUND:                 0.000
REMARK SMILES O=c1ccc2ccccc2o1
REMARK SMILES IDX 7 1 8 2 9 3 10 4 5 5 6 6 4 7 3 8 2 9 1 10 11 11
REMARK H PARENT
REMARK Flexibility Score: inf
ROOT
ATOM      1  C   UNL     1      19.788  -1.216 -18.293  1.00  0.00     0.001 A 
ATOM      2  C   UNL     1      20.373  -0.009 -17.898  1.00  0.00     0.004 A 
ATOM      3  C   UNL     1      21.049   0.785 -18.830  1.00  0.00     0.048 A 
ATOM      4  C   UNL     1      21.142   0.373 -20.164  1.00  0.00     0.138 A 
ATOM      5  C   UNL     1      20.550  -0.846 -20.565  1.00  0.00     0.018 A 
ATOM      6  C   UNL     1      19.874  -1.637 -19.624  1.00  0.00     0.012 A 
ATOM      7  C   UNL     1      20.658  -1.231 -21.904  1.00  0.00     0.019 A 
ATOM      8  C   UNL     1      21.341  -0.408 -22.800  1.00  0.00     0.094 A 
ATOM      9  C   UNL     1      21.901   0.785 -22.331  1.00  0.00     0.336 A 
ATOM     10  O   UNL     1      22.521   1.541 -23.125  1.00  0.00    -0.246 OA
ATOM     11  O   UNL     1      21.784   1.129 -21.052  1.00  0.00    -0.423 OA
ENDROOT
TORSDOF 0
ENDMDL
MODEL 2
REMARK VINA RESULT:    -5.271      1.673      3.863
REMARK INTER + INTRA:          -5.271
REMARK INTER:                  -5.271
REMARK INTRA:                   0.000
REMARK UNBOUND:                 0.000
REMARK SMILES O=c1ccc2ccccc2o1
REMARK SMILES IDX 7 1 8 2 9 3 10 4 5 5 6 6 4 7 3 8 2 9 1 10 11 11
REMARK H PARENT
REMARK Flexibility Score: inf
ROOT
ATOM      1  C   UNL     1      21.379  -0.367 -22.646  1.00  0.00     0.001 A 
ATOM      2  C   UNL     1      21.933   0.840 -22.209  1.00  0.00     0.004 A 
ATOM      3  C   UNL     1      21.773   1.251 -20.882  1.00  0.00     0.048 A 
ATOM      4  C   UNL     1      21.054   0.453 -19.984  1.00  0.00     0.138 A 
ATOM      5  C   UNL     1      20.494  -0.768 -20.425  1.00  0.00     0.018 A 
ATOM      6  C   UNL     1      20.659  -1.173 -21.757  1.00  0.00     0.012 A 
ATOM      7  C   UNL     1      19.781  -1.544 -19.506  1.00  0.00     0.019 A 
ATOM      8  C   UNL     1      19.645  -1.096 -18.192  1.00  0.00     0.094 A 
ATOM      9  C   UNL     1      20.228   0.123 -17.828  1.00  0.00     0.336 A 
ATOM     10  O   UNL     1      20.116   0.544 -16.646  1.00  0.00    -0.246 OA
ATOM     11  O   UNL     1      20.900   0.843 -18.721  1.00  0.00    -0.423 OA
ENDROOT
TORSDOF 0
ENDMDL
MODEL 3
REMARK VINA RESULT:    -5.082      2.809      4.213
REMARK INTER + INTRA:          -5.082
REMARK INTER:                  -5.082
REMARK INTRA:                   0.000
REMARK UNBOUND:                 0.000
REMARK SMILES O=c1ccc2ccccc2o1
REMARK SMILES IDX 7 1 8 2 9 3 10 4 5 5 6 6 4 7 3 8 2 9 1 10 11 11
REMARK H PARENT
REMARK Flexibility Score: inf
ROOT
ATOM      1  C   UNL     1      19.508  -0.514 -20.316  1.00  0.00     0.001 A 
ATOM      2  C   UNL     1      18.884  -0.918 -19.131  1.00  0.00     0.004 A 
ATOM      3  C   UNL     1      19.423  -0.555 -17.893  1.00  0.00     0.048 A 
ATOM      4  C   UNL     1      20.590   0.214 -17.835  1.00  0.00     0.138 A 
ATOM      5  C   UNL     1      21.220   0.624 -19.032  1.00  0.00     0.018 A 
ATOM      6  C   UNL     1      20.674   0.256 -20.270  1.00  0.00     0.012 A 
ATOM      7  C   UNL     1      22.385   1.392 -18.943  1.00  0.00     0.019 A 
ATOM      8  C   UNL     1      22.887   1.730 -17.686  1.00  0.00     0.094 A 
ATOM      9  C   UNL     1      22.209   1.290 -16.544  1.00  0.00     0.336 A 
ATOM     10  O   UNL     1      22.647   1.586 -15.401  1.00  0.00    -0.246 OA
ATOM     11  O   UNL     1      21.103   0.560 -16.656  1.00  0.00    -0.423 OA
ENDROOT
TORSDOF 0
ENDMDL
MODEL 4
REMARK VINA RESULT:    -5.022      7.559      8.825
REMARK INTER + INTRA:          -5.022
REMARK INTER:                  -5.022
REMARK INTRA:                   0.000
REMARK UNBOUND:                 0.000
REMARK SMILES O=c1ccc2ccccc2o1
REMARK SMILES IDX 7 1 8 2 9 3 10 4 5 5 6 6 4 7 3 8 2 9 1 10 11 11
REMARK H PARENT
REMARK Flexibility Score: inf
ROOT
ATOM      1  C   UNL     1      24.278   9.989 -17.460  1.00  0.00     0.001 A 
ATOM      2  C   UNL     1      22.912  10.062 -17.752  1.00  0.00     0.004 A 
ATOM      3  C   UNL     1      22.288   9.035 -18.465  1.00  0.00     0.048 A 
ATOM      4  C   UNL     1      23.030   7.927 -18.892  1.00  0.00     0.138 A 
ATOM      5  C   UNL     1      24.410   7.852 -18.597  1.00  0.00     0.018 A 
ATOM      6  C   UNL     1      25.029   8.887 -17.881  1.00  0.00     0.012 A 
ATOM      7  C   UNL     1      25.125   6.734 -19.036  1.00  0.00     0.019 A 
ATOM      8  C   UNL     1      24.461   5.732 -19.745  1.00  0.00     0.094 A 
ATOM      9  C   UNL     1      23.093   5.874 -19.999  1.00  0.00     0.336 A 
ATOM     10  O   UNL     1      22.477   4.981 -20.637  1.00  0.00    -0.246 OA
ATOM     11  O   UNL     1      22.435   6.949 -19.571  1.00  0.00    -0.423 OA
ENDROOT
TORSDOF 0
ENDMDL
MODEL 5
REMARK VINA RESULT:    -4.961      2.139      4.471
REMARK INTER + INTRA:          -4.961
REMARK INTER:                  -4.961
REMARK INTRA:                   0.000
REMARK UNBOUND:                 0.000
REMARK SMILES O=c1ccc2ccccc2o1
REMARK SMILES IDX 7 1 8 2 9 3 10 4 5 5 6 6 4 7 3 8 2 9 1 10 11 11
REMARK H PARENT
REMARK Flexibility Score: inf
ROOT
ATOM      1  C   UNL     1      21.850   0.661 -21.984  1.00  0.00     0.001 A 
ATOM      2  C   UNL     1      21.183  -0.499 -22.392  1.00  0.00     0.004 A 
ATOM      3  C   UNL     1      20.413  -1.227 -21.479  1.00  0.00     0.048 A 
ATOM      4  C   UNL     1      20.307  -0.796 -20.151  1.00  0.00     0.138 A 
ATOM      5  C   UNL     1      20.980   0.376 -19.739  1.00  0.00     0.018 A 
ATOM      6  C   UNL     1      21.751   1.101 -20.660  1.00  0.00     0.012 A 
ATOM      7  C   UNL     1      20.857   0.783 -18.407  1.00  0.00     0.019 A 
ATOM      8  C   UNL     1      20.078   0.026 -17.531  1.00  0.00     0.094 A 
ATOM      9  C   UNL     1      19.440  -1.123 -18.010  1.00  0.00     0.336 A 
ATOM     10  O   UNL     1      18.733  -1.818 -17.234  1.00  0.00    -0.246 OA
ATOM     11  O   UNL     1      19.575  -1.488 -19.282  1.00  0.00    -0.423 OA
ENDROOT
TORSDOF 0
ENDMDL
MODEL 6
REMARK VINA RESULT:    -4.935      1.896      3.209
REMARK INTER + INTRA:          -4.935
REMARK INTER:                  -4.935
REMARK INTRA:                   0.000
REMARK UNBOUND:                 0.000
REMARK SMILES O=c1ccc2ccccc2o1
REMARK SMILES IDX 7 1 8 2 9 3 10 4 5 5 6 6 4 7 3 8 2 9 1 10 11 11
REMARK H PARENT
REMARK Flexibility Score: inf
ROOT
ATOM      1  C   UNL     1      21.642   1.380 -15.956  1.00  0.00     0.001 A 
ATOM      2  C   UNL     1      22.630   1.708 -16.891  1.00  0.00     0.004 A 
ATOM      3  C   UNL     1      22.493   1.317 -18.227  1.00  0.00     0.048 A 
ATOM      4  C   UNL     1      21.365   0.595 -18.634  1.00  0.00     0.138 A 
ATOM      5  C   UNL     1      20.366   0.265 -17.690  1.00  0.00     0.018 A 
ATOM      6  C   UNL     1      20.510   0.660 -16.352  1.00  0.00     0.012 A 
ATOM      7  C   UNL     1      19.250  -0.456 -18.125  1.00  0.00     0.019 A 
ATOM      8  C   UNL     1      19.155  -0.826 -19.467  1.00  0.00     0.094 A 
ATOM      9  C   UNL     1      20.183  -0.463 -20.344  1.00  0.00     0.336 A 
ATOM     10  O   UNL     1      20.114  -0.787 -21.559  1.00  0.00    -0.246 OA
ATOM     11  O   UNL     1      21.234   0.223 -19.905  1.00  0.00    -0.423 OA
ENDROOT
TORSDOF 0
ENDMDL
MODEL 7
REMARK VINA RESULT:    -4.867      7.718      8.905
REMARK INTER + INTRA:          -4.867
REMARK INTER:                  -4.867
REMARK INTRA:                   0.000
REMARK UNBOUND:                 0.000
REMARK SMILES O=c1ccc2ccccc2o1
REMARK SMILES IDX 7 1 8 2 9 3 10 4 5 5 6 6 4 7 3 8 2 9 1 10 11 11
REMARK H PARENT
REMARK Flexibility Score: inf
ROOT
ATOM      1  C   UNL     1      23.582  10.223 -17.482  1.00  0.00     0.001 A 
ATOM      2  C   UNL     1      24.859   9.653 -17.455  1.00  0.00     0.004 A 
ATOM      3  C   UNL     1      25.125   8.486 -18.178  1.00  0.00     0.048 A 
ATOM      4  C   UNL     1      24.111   7.882 -18.932  1.00  0.00     0.138 A 
ATOM      5  C   UNL     1      22.821   8.458 -18.960  1.00  0.00     0.018 A 
ATOM      6  C   UNL     1      22.562   9.629 -18.232  1.00  0.00     0.012 A 
ATOM      7  C   UNL     1      21.829   7.834 -19.721  1.00  0.00     0.019 A 
ATOM      8  C   UNL     1      22.138   6.671 -20.427  1.00  0.00     0.094 A 
ATOM      9  C   UNL     1      23.438   6.159 -20.353  1.00  0.00     0.336 A 
ATOM     10  O   UNL     1      23.736   5.110 -20.984  1.00  0.00    -0.246 OA
ATOM     11  O   UNL     1      24.364   6.772 -19.621  1.00  0.00    -0.423 OA
ENDROOT
TORSDOF 0
ENDMDL
MODEL 8
REMARK VINA RESULT:    -4.853     16.599     18.548
REMARK INTER + INTRA:          -4.853
REMARK INTER:                  -4.853
REMARK INTRA:                   0.000
REMARK UNBOUND:                 0.000
REMARK SMILES O=c1ccc2ccccc2o1
REMARK SMILES IDX 7 1 8 2 9 3 10 4 5 5 6 6 4 7 3 8 2 9 1 10 11 11
REMARK H PARENT
REMARK Flexibility Score: inf
ROOT
ATOM      1  C   UNL     1       7.572  -7.619  -5.866  1.00  0.00     0.001 A 
ATOM      2  C   UNL     1       7.808  -6.248  -5.722  1.00  0.00     0.004 A 
ATOM      3  C   UNL     1       8.808  -5.623  -6.472  1.00  0.00     0.048 A 
ATOM      4  C   UNL     1       9.579  -6.369  -7.372  1.00  0.00     0.138 A 
ATOM      5  C   UNL     1       9.340  -7.754  -7.519  1.00  0.00     0.018 A 
ATOM      6  C   UNL     1       8.335  -8.374  -6.762  1.00  0.00     0.012 A 
ATOM      7  C   UNL     1      10.125  -8.473  -8.425  1.00  0.00     0.019 A 
ATOM      8  C   UNL     1      11.112  -7.808  -9.153  1.00  0.00     0.094 A 
ATOM      9  C   UNL     1      11.291  -6.435  -8.955  1.00  0.00     0.336 A 
ATOM     10  O   UNL     1      12.177  -5.817  -9.604  1.00  0.00    -0.246 OA
ATOM     11  O   UNL     1      10.531  -5.774  -8.086  1.00  0.00    -0.423 OA
ENDROOT
TORSDOF 0
ENDMDL
MODEL 9
REMARK VINA RESULT:    -4.797      8.038      9.415
REMARK INTER + INTRA:          -4.797
REMARK INTER:                  -4.797
REMARK INTRA:                   0.000
REMARK UNBOUND:                 0.000
REMARK SMILES O=c1ccc2ccccc2o1
REMARK SMILES IDX 7 1 8 2 9 3 10 4 5 5 6 6 4 7 3 8 2 9 1 10 11 11
REMARK H PARENT
REMARK Flexibility Score: inf
ROOT
ATOM      1  C   UNL     1      24.422   5.641 -20.014  1.00  0.00     0.001 A 
ATOM      2  C   UNL     1      23.058   5.816 -20.269  1.00  0.00     0.004 A 
ATOM      3  C   UNL     1      22.387   6.939 -19.776  1.00  0.00     0.048 A 
ATOM      4  C   UNL     1      23.080   7.895 -19.023  1.00  0.00     0.138 A 
ATOM      5  C   UNL     1      24.458   7.719 -18.766  1.00  0.00     0.018 A 
ATOM      6  C   UNL     1      25.124   6.589 -19.263  1.00  0.00     0.012 A 
ATOM      7  C   UNL     1      25.125   8.689 -18.011  1.00  0.00     0.019 A 
ATOM      8  C   UNL     1      24.416   9.794 -17.539  1.00  0.00     0.094 A 
ATOM      9  C   UNL     1      23.053   9.902 -17.834  1.00  0.00     0.336 A 
ATOM     10  O   UNL     1      22.397  10.892 -17.417  1.00  0.00    -0.246 OA
ATOM     11  O   UNL     1      22.442   8.964 -18.554  1.00  0.00    -0.423 OA
ENDROOT
TORSDOF 0
ENDMDL
