MODEL 1
REMARK VINA RESULT:    -4.053      0.000      0.000
REMARK INTER + INTRA:          -6.115
REMARK INTER:                  -5.475
REMARK INTRA:                  -0.641
REMARK UNBOUND:                -0.641
REMARK SMILES CC(=O)CCC=C(C)CCC=C(C)C
REMARK SMILES IDX 7 1 6 2 8 3 9 4 10 5 11 6 13 7 12 8 14 9 5 10 4 11 2 12 3 13
REMARK SMILES IDX 1 14
REMARK H PARENT
REMARK Flexibility Score: inf
ROOT
ATOM      1  C   UNL     1     183.386 191.044 223.697  1.00  0.00    -0.077 C 
ATOM      2  C   UNL     1     182.419 190.412 222.997  1.00  0.00    -0.028 C 
ATOM      3  C   UNL     1     183.339 191.130 225.203  1.00  0.00     0.039 C 
ENDROOT
BRANCH   1   4
ATOM      4  C   UNL     1     184.556 191.659 222.958  1.00  0.00     0.034 C 
BRANCH   4   5
ATOM      5  C   UNL     1     185.819 191.711 223.830  1.00  0.00     0.032 C 
BRANCH   5   6
ATOM      6  C   UNL     1     186.686 190.487 223.659  1.00  0.00    -0.028 C 
ATOM      7  C   UNL     1     188.153 188.636 224.333  1.00  0.00     0.039 C 
ATOM      8  C   UNL     1     187.250 189.793 224.673  1.00  0.00    -0.080 C 
ATOM      9  C   UNL     1     186.992 190.138 226.121  1.00  0.00     0.039 C 
ENDBRANCH   5   6
ENDBRANCH   4   5
ENDBRANCH   1   4
BRANCH   2  10
ATOM     10  C   UNL     1     181.229 189.743 223.644  1.00  0.00     0.035 C 
BRANCH  10  11
ATOM     11  C   UNL     1     179.929 190.018 222.876  1.00  0.00     0.079 C 
BRANCH  11  12
ATOM     12  C   UNL     1     178.730 189.425 223.571  1.00  0.00     0.130 C 
ATOM     13  O   UNL     1     177.818 188.956 222.907  1.00  0.00    -0.300 OA
ATOM     14  C   UNL     1     178.634 189.399 225.069  1.00  0.00     0.087 C 
ENDBRANCH  11  12
ENDBRANCH  10  11
ENDBRANCH   2  10
TORSDOF 6
ENDMDL
MODEL 2
REMARK VINA RESULT:    -3.961     16.146     17.290
REMARK INTER + INTRA:          -5.990
REMARK INTER:                  -5.387
REMARK INTRA:                  -0.603
REMARK UNBOUND:                -0.641
REMARK SMILES CC(=O)CCC=C(C)CCC=C(C)C
REMARK SMILES IDX 7 1 6 2 8 3 9 4 10 5 11 6 13 7 12 8 14 9 5 10 4 11 2 12 3 13
REMARK SMILES IDX 1 14
REMARK H PARENT
REMARK Flexibility Score: inf
ROOT
ATOM      1  C   UNL     1     179.682 182.275 237.892  1.00  0.00    -0.077 C 
ATOM      2  C   UNL     1     178.842 181.321 237.434  1.00  0.00    -0.028 C 
ATOM      3  C   UNL     1     179.346 183.741 237.776  1.00  0.00     0.039 C 
ENDROOT
BRANCH   1   4
ATOM      4  C   UNL     1     180.977 181.864 238.562  1.00  0.00     0.034 C 
BRANCH   4   5
ATOM      5  C   UNL     1     181.000 182.251 240.048  1.00  0.00     0.032 C 
BRANCH   5   6
ATOM      6  C   UNL     1     181.969 183.373 240.335  1.00  0.00    -0.028 C 
ATOM      7  C   UNL     1     182.698 185.641 240.933  1.00  0.00     0.039 C 
ATOM      8  C   UNL     1     181.617 184.605 240.765  1.00  0.00    -0.080 C 
ATOM      9  C   UNL     1     180.185 184.963 241.089  1.00  0.00     0.039 C 
ENDBRANCH   5   6
ENDBRANCH   4   5
ENDBRANCH   1   4
BRANCH   2  10
ATOM     10  C   UNL     1     177.516 181.628 236.779  1.00  0.00     0.035 C 
BRANCH  10  11
ATOM     11  C   UNL     1     176.422 180.640 237.207  1.00  0.00     0.079 C 
BRANCH  11  12
ATOM     12  C   UNL     1     176.509 179.342 236.444  1.00  0.00     0.130 C 
ATOM     13  O   UNL     1     175.882 179.211 235.404  1.00  0.00    -0.300 OA
ATOM     14  C   UNL     1     177.354 178.204 236.939  1.00  0.00     0.087 C 
ENDBRANCH  11  12
ENDBRANCH  10  11
ENDBRANCH   2  10
TORSDOF 6
ENDMDL
MODEL 3
REMARK VINA RESULT:    -3.937      2.386      6.161
REMARK INTER + INTRA:          -5.958
REMARK INTER:                  -5.052
REMARK INTRA:                  -0.906
REMARK UNBOUND:                -0.641
REMARK SMILES CC(=O)CCC=C(C)CCC=C(C)C
REMARK SMILES IDX 7 1 6 2 8 3 9 4 10 5 11 6 13 7 12 8 14 9 5 10 4 11 2 12 3 13
REMARK SMILES IDX 1 14
REMARK H PARENT
REMARK Flexibility Score: inf
ROOT
ATOM      1  C   UNL     1     183.415 191.173 223.694  1.00  0.00    -0.077 C 
ATOM      2  C   UNL     1     184.607 191.093 223.065  1.00  0.00    -0.028 C 
ATOM      3  C   UNL     1     183.322 191.335 225.191  1.00  0.00     0.039 C 
ENDROOT
BRANCH   1   4
ATOM      4  C   UNL     1     182.140 191.125 222.876  1.00  0.00     0.034 C 
BRANCH   4   5
ATOM      5  C   UNL     1     181.515 189.722 222.875  1.00  0.00     0.032 C 
BRANCH   5   6
ATOM      6  C   UNL     1     180.038 189.751 223.191  1.00  0.00    -0.028 C 
ATOM      7  C   UNL     1     177.997 189.427 224.519  1.00  0.00     0.039 C 
ATOM      8  C   UNL     1     179.498 189.420 224.385  1.00  0.00    -0.080 C 
ATOM      9  C   UNL     1     180.352 189.057 225.578  1.00  0.00     0.039 C 
ENDBRANCH   5   6
ENDBRANCH   4   5
ENDBRANCH   1   4
BRANCH   2  10
ATOM     10  C   UNL     1     185.932 191.160 223.789  1.00  0.00     0.035 C 
BRANCH  10  11
ATOM     11  C   UNL     1     186.775 189.898 223.559  1.00  0.00     0.079 C 
BRANCH  11  12
ATOM     12  C   UNL     1     186.063 188.654 224.027  1.00  0.00     0.130 C 
ATOM     13  O   UNL     1     185.732 187.806 223.212  1.00  0.00    -0.300 OA
ATOM     14  C   UNL     1     185.750 188.437 225.479  1.00  0.00     0.087 C 
ENDBRANCH  11  12
ENDBRANCH  10  11
ENDBRANCH   2  10
TORSDOF 6
ENDMDL
MODEL 4
REMARK VINA RESULT:    -3.921      8.253     11.651
REMARK INTER + INTRA:          -5.936
REMARK INTER:                  -4.780
REMARK INTRA:                  -1.156
REMARK UNBOUND:                -0.641
REMARK SMILES CC(=O)CCC=C(C)CCC=C(C)C
REMARK SMILES IDX 7 1 6 2 8 3 9 4 10 5 11 6 13 7 12 8 14 9 5 10 4 11 2 12 3 13
REMARK SMILES IDX 1 14
REMARK H PARENT
REMARK Flexibility Score: inf
ROOT
ATOM      1  C   UNL     1     189.610 182.800 225.111  1.00  0.00    -0.077 C 
ATOM      2  C   UNL     1     190.136 182.161 224.043  1.00  0.00    -0.028 C 
ATOM      3  C   UNL     1     189.661 184.303 225.233  1.00  0.00     0.039 C 
ENDROOT
BRANCH   1   4
ATOM      4  C   UNL     1     188.930 181.992 226.197  1.00  0.00     0.034 C 
BRANCH   4   5
ATOM      5  C   UNL     1     187.671 181.281 225.676  1.00  0.00     0.032 C 
BRANCH   5   6
ATOM      6  C   UNL     1     186.499 182.222 225.530  1.00  0.00    -0.028 C 
ATOM      7  C   UNL     1     184.885 183.669 224.375  1.00  0.00     0.039 C 
ATOM      8  C   UNL     1     186.016 182.673 224.351  1.00  0.00    -0.080 C 
ATOM      9  C   UNL     1     186.566 182.201 223.025  1.00  0.00     0.039 C 
ENDBRANCH   5   6
ENDBRANCH   4   5
ENDBRANCH   1   4
BRANCH   2  10
ATOM     10  C   UNL     1     190.809 182.879 222.896  1.00  0.00     0.035 C 
BRANCH  10  11
ATOM     11  C   UNL     1     192.324 182.633 222.875  1.00  0.00     0.079 C 
BRANCH  11  12
ATOM     12  C   UNL     1     193.078 183.713 223.609  1.00  0.00     0.130 C 
ATOM     13  O   UNL     1     192.789 184.885 223.420  1.00  0.00    -0.300 OA
ATOM     14  C   UNL     1     194.182 183.376 224.569  1.00  0.00     0.087 C 
ENDBRANCH  11  12
ENDBRANCH  10  11
ENDBRANCH   2  10
TORSDOF 6
ENDMDL
MODEL 5
REMARK VINA RESULT:    -3.914      1.731      2.177
REMARK INTER + INTRA:          -5.928
REMARK INTER:                  -4.687
REMARK INTRA:                  -1.240
REMARK UNBOUND:                -0.641
REMARK SMILES CC(=O)CCC=C(C)CCC=C(C)C
REMARK SMILES IDX 7 1 6 2 8 3 9 4 10 5 11 6 13 7 12 8 14 9 5 10 4 11 2 12 3 13
REMARK SMILES IDX 1 14
REMARK H PARENT
REMARK Flexibility Score: inf
ROOT
ATOM      1  C   UNL     1     184.157 191.312 223.995  1.00  0.00    -0.077 C 
ATOM      2  C   UNL     1     183.427 191.079 222.883  1.00  0.00    -0.028 C 
ATOM      3  C   UNL     1     183.546 191.219 225.372  1.00  0.00     0.039 C 
ENDROOT
BRANCH   1   4
ATOM      4  C   UNL     1     185.628 191.648 223.861  1.00  0.00     0.034 C 
BRANCH   4   5
ATOM      5  C   UNL     1     186.380 190.598 223.029  1.00  0.00     0.032 C 
BRANCH   5   6
ATOM      6  C   UNL     1     187.014 189.530 223.890  1.00  0.00    -0.028 C 
ATOM      7  C   UNL     1     187.208 187.374 225.051  1.00  0.00     0.039 C 
ATOM      8  C   UNL     1     186.492 188.302 224.103  1.00  0.00    -0.080 C 
ATOM      9  C   UNL     1     185.229 187.836 223.415  1.00  0.00     0.039 C 
ENDBRANCH   5   6
ENDBRANCH   4   5
ENDBRANCH   1   4
BRANCH   2  10
ATOM     10  C   UNL     1     181.962 190.710 222.914  1.00  0.00     0.035 C 
BRANCH  10  11
ATOM     11  C   UNL     1     181.754 189.189 222.889  1.00  0.00     0.079 C 
BRANCH  11  12
ATOM     12  C   UNL     1     181.214 188.676 224.200  1.00  0.00     0.130 C 
ATOM     13  O   UNL     1     180.386 189.335 224.812  1.00  0.00    -0.300 OA
ATOM     14  C   UNL     1     181.675 187.366 224.772  1.00  0.00     0.087 C 
ENDBRANCH  11  12
ENDBRANCH  10  11
ENDBRANCH   2  10
TORSDOF 6
ENDMDL
MODEL 6
REMARK VINA RESULT:    -3.886     15.934     17.783
REMARK INTER + INTRA:          -5.889
REMARK INTER:                  -4.863
REMARK INTRA:                  -1.026
REMARK UNBOUND:                -0.641
REMARK SMILES CC(=O)CCC=C(C)CCC=C(C)C
REMARK SMILES IDX 7 1 6 2 8 3 9 4 10 5 11 6 13 7 12 8 14 9 5 10 4 11 2 12 3 13
REMARK SMILES IDX 1 14
REMARK H PARENT
REMARK Flexibility Score: inf
ROOT
ATOM      1  C   UNL     1     177.129 181.181 236.487  1.00  0.00    -0.077 C 
ATOM      2  C   UNL     1     177.853 181.552 237.566  1.00  0.00    -0.028 C 
ATOM      3  C   UNL     1     177.229 181.924 235.177  1.00  0.00     0.039 C 
ENDROOT
BRANCH   1   4
ATOM      4  C   UNL     1     176.215 179.977 236.586  1.00  0.00     0.034 C 
BRANCH   4   5
ATOM      5  C   UNL     1     176.943 178.752 237.160  1.00  0.00     0.032 C 
BRANCH   5   6
ATOM      6  C   UNL     1     177.732 178.008 236.108  1.00  0.00    -0.028 C 
ATOM      7  C   UNL     1     179.715 177.276 234.858  1.00  0.00     0.039 C 
ATOM      8  C   UNL     1     179.080 178.008 236.012  1.00  0.00    -0.080 C 
ATOM      9  C   UNL     1     179.956 178.706 237.027  1.00  0.00     0.039 C 
ENDBRANCH   5   6
ENDBRANCH   4   5
ENDBRANCH   1   4
BRANCH   2  10
ATOM     10  C   UNL     1     178.812 182.719 237.559  1.00  0.00     0.035 C 
BRANCH  10  11
ATOM     11  C   UNL     1     180.221 182.306 238.005  1.00  0.00     0.079 C 
BRANCH  11  12
ATOM     12  C   UNL     1     180.524 182.770 239.408  1.00  0.00     0.130 C 
ATOM     13  O   UNL     1     181.319 182.143 240.092  1.00  0.00    -0.300 OA
ATOM     14  C   UNL     1     179.865 183.990 239.983  1.00  0.00     0.087 C 
ENDBRANCH  11  12
ENDBRANCH  10  11
ENDBRANCH   2  10
TORSDOF 6
ENDMDL
MODEL 7
REMARK VINA RESULT:    -3.870      2.113      3.070
REMARK INTER + INTRA:          -5.868
REMARK INTER:                  -4.373
REMARK INTRA:                  -1.496
REMARK UNBOUND:                -0.641
REMARK SMILES CC(=O)CCC=C(C)CCC=C(C)C
REMARK SMILES IDX 7 1 6 2 8 3 9 4 10 5 11 6 13 7 12 8 14 9 5 10 4 11 2 12 3 13
REMARK SMILES IDX 1 14
REMARK H PARENT
REMARK Flexibility Score: inf
ROOT
ATOM      1  C   UNL     1     183.370 190.587 225.980  1.00  0.00    -0.077 C 
ATOM      2  C   UNL     1     182.984 190.869 224.717  1.00  0.00    -0.028 C 
ATOM      3  C   UNL     1     182.803 189.408 226.733  1.00  0.00     0.039 C 
ENDROOT
BRANCH   1   4
ATOM      4  C   UNL     1     184.416 191.456 226.649  1.00  0.00     0.034 C 
BRANCH   4   5
ATOM      5  C   UNL     1     185.593 191.759 225.709  1.00  0.00     0.032 C 
BRANCH   5   6
ATOM      6  C   UNL     1     186.501 190.567 225.524  1.00  0.00    -0.028 C 
ATOM      7  C   UNL     1     187.630 188.741 224.329  1.00  0.00     0.039 C 
ATOM      8  C   UNL     1     186.760 189.971 224.338  1.00  0.00    -0.080 C 
ATOM      9  C   UNL     1     186.213 190.508 223.035  1.00  0.00     0.039 C 
ENDBRANCH   5   6
ENDBRANCH   4   5
ENDBRANCH   1   4
BRANCH   2  10
ATOM     10  C   UNL     1     181.971 190.046 223.956  1.00  0.00     0.035 C 
BRANCH  10  11
ATOM     11  C   UNL     1     182.631 189.180 222.875  1.00  0.00     0.079 C 
BRANCH  11  12
ATOM     12  C   UNL     1     182.852 187.765 223.347  1.00  0.00     0.130 C 
ATOM     13  O   UNL     1     181.956 186.942 223.227  1.00  0.00    -0.300 OA
ATOM     14  C   UNL     1     184.155 187.345 223.963  1.00  0.00     0.087 C 
ENDBRANCH  11  12
ENDBRANCH  10  11
ENDBRANCH   2  10
TORSDOF 6
ENDMDL
MODEL 8
REMARK VINA RESULT:    -3.849      2.874      4.801
REMARK INTER + INTRA:          -5.840
REMARK INTER:                  -4.551
REMARK INTRA:                  -1.289
REMARK UNBOUND:                -0.641
REMARK SMILES CC(=O)CCC=C(C)CCC=C(C)C
REMARK SMILES IDX 7 1 6 2 8 3 9 4 10 5 11 6 13 7 12 8 14 9 5 10 4 11 2 12 3 13
REMARK SMILES IDX 1 14
REMARK H PARENT
REMARK Flexibility Score: inf
ROOT
ATOM      1  C   UNL     1     186.325 189.538 223.791  1.00  0.00    -0.077 C 
ATOM      2  C   UNL     1     185.717 188.373 223.479  1.00  0.00    -0.028 C 
ATOM      3  C   UNL     1     187.198 189.668 225.014  1.00  0.00     0.039 C 
ENDROOT
BRANCH   1   4
ATOM      4  C   UNL     1     186.147 190.735 222.879  1.00  0.00     0.034 C 
BRANCH   4   5
ATOM      5  C   UNL     1     185.075 191.700 223.405  1.00  0.00     0.032 C 
BRANCH   5   6
ATOM      6  C   UNL     1     183.698 191.374 222.875  1.00  0.00    -0.028 C 
ATOM      7  C   UNL     1     181.433 190.426 222.884  1.00  0.00     0.039 C 
ATOM      8  C   UNL     1     182.730 190.748 223.580  1.00  0.00    -0.080 C 
ATOM      9  C   UNL     1     182.908 190.379 225.035  1.00  0.00     0.039 C 
ENDBRANCH   5   6
ENDBRANCH   4   5
ENDBRANCH   1   4
BRANCH   2  10
ATOM     10  C   UNL     1     185.855 187.118 224.309  1.00  0.00     0.035 C 
BRANCH  10  11
ATOM     11  C   UNL     1     184.602 186.847 225.152  1.00  0.00     0.079 C 
BRANCH  11  12
ATOM     12  C   UNL     1     183.542 186.118 224.364  1.00  0.00     0.130 C 
ATOM     13  O   UNL     1     183.699 184.937 224.091  1.00  0.00    -0.300 OA
ATOM     14  C   UNL     1     182.294 186.816 223.908  1.00  0.00     0.087 C 
ENDBRANCH  11  12
ENDBRANCH  10  11
ENDBRANCH   2  10
TORSDOF 6
ENDMDL
MODEL 9
REMARK VINA RESULT:    -3.815      1.355      2.050
REMARK INTER + INTRA:          -5.793
REMARK INTER:                  -4.605
REMARK INTRA:                  -1.188
REMARK UNBOUND:                -0.641
REMARK SMILES CC(=O)CCC=C(C)CCC=C(C)C
REMARK SMILES IDX 7 1 6 2 8 3 9 4 10 5 11 6 13 7 12 8 14 9 5 10 4 11 2 12 3 13
REMARK SMILES IDX 1 14
REMARK H PARENT
REMARK Flexibility Score: inf
ROOT
ATOM      1  C   UNL     1     182.947 189.774 225.242  1.00  0.00    -0.077 C 
ATOM      2  C   UNL     1     182.487 190.507 224.204  1.00  0.00    -0.028 C 
ATOM      3  C   UNL     1     182.894 188.266 225.225  1.00  0.00     0.039 C 
ENDROOT
BRANCH   1   4
ATOM      4  C   UNL     1     183.553 190.479 226.437  1.00  0.00     0.034 C 
BRANCH   4   5
ATOM      5  C   UNL     1     184.816 191.266 226.056  1.00  0.00     0.032 C 
BRANCH   5   6
ATOM      6  C   UNL     1     185.934 190.365 225.588  1.00  0.00    -0.028 C 
ATOM      7  C   UNL     1     187.503 189.336 224.002  1.00  0.00     0.039 C 
ATOM      8  C   UNL     1     186.437 190.349 224.333  1.00  0.00    -0.080 C 
ATOM      9  C   UNL     1     185.971 191.317 223.270  1.00  0.00     0.039 C 
ENDBRANCH   5   6
ENDBRANCH   4   5
ENDBRANCH   1   4
BRANCH   2  10
ATOM     10  C   UNL     1     181.892 189.897 222.957  1.00  0.00     0.035 C 
BRANCH  10  11
ATOM     11  C   UNL     1     180.376 190.122 222.875  1.00  0.00     0.079 C 
BRANCH  11  12
ATOM     12  C   UNL     1     179.609 189.042 223.596  1.00  0.00     0.130 C 
ATOM     13  O   UNL     1     179.738 187.877 223.251  1.00  0.00    -0.300 OA
ATOM     14  C   UNL     1     178.686 189.371 224.734  1.00  0.00     0.087 C 
ENDBRANCH  11  12
ENDBRANCH  10  11
ENDBRANCH   2  10
TORSDOF 6
ENDMDL
