MODEL 1
REMARK VINA RESULT:    -8.142      0.000      0.000
REMARK INTER + INTRA:         -11.674
REMARK INTER:                 -10.284
REMARK INTRA:                  -1.390
REMARK UNBOUND:                -1.390
REMARK SMILES O[C@H]1OC[C@@H](Cc2ccc3c(c2)OCO3)[C@@H]1Cc1ccc2c(c1)OCO2
REMARK SMILES IDX 4 1 5 2 16 3 2 4 3 5 6 6 7 7 12 8 8 9 11 10 9 11 10 12 13 13
REMARK SMILES IDX 15 14 14 15 17 16 18 17 23 18 19 19 22 20 20 21 21 22 24 23
REMARK SMILES IDX 26 24 25 25 1 26
REMARK H PARENT 1 27
REMARK Flexibility Score: inf
ROOT
ATOM      1  C   UNL     1     -13.641 -29.419 -13.241  1.00  0.00     0.168 C 
ATOM      2  C   UNL     1     -14.152 -29.231 -11.819  1.00  0.00     0.028 C 
ATOM      3  C   UNL     1     -15.268 -30.247 -11.746  1.00  0.00     0.055 C 
ATOM      4  C   UNL     1     -14.774 -31.325 -12.716  1.00  0.00     0.250 C 
ATOM      5  O   UNL     1     -13.890 -30.744 -13.651  1.00  0.00    -0.352 OA
ENDROOT
BRANCH   2   6
ATOM      6  C   UNL     1     -14.630 -27.792 -11.530  1.00  0.00     0.042 C 
BRANCH   6   7
ATOM      7  C   UNL     1     -14.026 -27.264 -10.254  1.00  0.00    -0.044 A 
ATOM      8  C   UNL     1     -12.625 -27.115 -10.146  1.00  0.00     0.054 A 
ATOM      9  C   UNL     1     -14.859 -26.873  -9.174  1.00  0.00     0.008 A 
ATOM     10  C   UNL     1     -12.113 -26.593  -8.962  1.00  0.00     0.166 A 
ATOM     11  C   UNL     1     -14.299 -26.350  -7.994  1.00  0.00     0.051 A 
ATOM     12  C   UNL     1     -12.914 -26.227  -7.930  1.00  0.00     0.165 A 
ATOM     13  O   UNL     1     -10.793 -26.359  -8.625  1.00  0.00    -0.454 OA
ATOM     14  O   UNL     1     -12.139 -25.745  -6.893  1.00  0.00    -0.454 OA
ATOM     15  C   UNL     1     -10.765 -25.812  -7.298  1.00  0.00     0.468 C 
ENDBRANCH   6   7
ENDBRANCH   2   6
BRANCH   3  16
ATOM     16  C   UNL     1     -15.501 -30.775 -10.313  1.00  0.00     0.044 C 
BRANCH  16  17
ATOM     17  C   UNL     1     -14.196 -31.062  -9.617  1.00  0.00    -0.044 A 
ATOM     18  C   UNL     1     -13.425 -32.183  -9.999  1.00  0.00     0.054 A 
ATOM     19  C   UNL     1     -13.713 -30.188  -8.609  1.00  0.00     0.008 A 
ATOM     20  C   UNL     1     -12.211 -32.391  -9.352  1.00  0.00     0.166 A 
ATOM     21  C   UNL     1     -12.479 -30.436  -7.981  1.00  0.00     0.051 A 
ATOM     22  C   UNL     1     -11.758 -31.555  -8.386  1.00  0.00     0.165 A 
ATOM     23  O   UNL     1     -11.294 -33.406  -9.550  1.00  0.00    -0.454 OA
ATOM     24  O   UNL     1     -10.533 -32.002  -7.926  1.00  0.00    -0.454 OA
ATOM     25  C   UNL     1     -10.197 -33.194  -8.650  1.00  0.00     0.468 C 
ENDBRANCH  16  17
ENDBRANCH   3  16
BRANCH   4  26
ATOM     26  O   UNL     1     -15.850 -31.939 -13.379  1.00  0.00    -0.368 OA
ATOM     27  H   UNL     1     -15.480 -32.390 -14.182  1.00  0.00     0.213 HD
ENDBRANCH   4  26
TORSDOF 5
ENDMDL
MODEL 2
REMARK VINA RESULT:    -8.019      2.298      4.868
REMARK INTER + INTRA:         -11.519
REMARK INTER:                  -9.693
REMARK INTRA:                  -1.825
REMARK UNBOUND:                -1.390
REMARK SMILES O[C@H]1OC[C@@H](Cc2ccc3c(c2)OCO3)[C@@H]1Cc1ccc2c(c1)OCO2
REMARK SMILES IDX 4 1 5 2 16 3 2 4 3 5 6 6 7 7 12 8 8 9 11 10 9 11 10 12 13 13
REMARK SMILES IDX 15 14 14 15 17 16 18 17 23 18 19 19 22 20 20 21 21 22 24 23
REMARK SMILES IDX 26 24 25 25 1 26
REMARK H PARENT 1 27
REMARK Flexibility Score: inf
ROOT
ATOM      1  C   UNL     1     -13.232 -33.054 -13.252  1.00  0.00     0.168 C 
ATOM      2  C   UNL     1     -13.184 -31.699 -12.558  1.00  0.00     0.028 C 
ATOM      3  C   UNL     1     -12.490 -32.033 -11.259  1.00  0.00     0.055 C 
ATOM      4  C   UNL     1     -11.597 -33.208 -11.672  1.00  0.00     0.250 C 
ATOM      5  O   UNL     1     -12.153 -33.843 -12.804  1.00  0.00    -0.352 OA
ENDROOT
BRANCH   2   6
ATOM      6  C   UNL     1     -14.579 -31.072 -12.352  1.00  0.00     0.042 C 
BRANCH   6   7
ATOM      7  C   UNL     1     -14.563 -29.596 -12.655  1.00  0.00    -0.044 A 
ATOM      8  C   UNL     1     -13.511 -29.045 -13.421  1.00  0.00     0.054 A 
ATOM      9  C   UNL     1     -15.622 -28.761 -12.213  1.00  0.00     0.008 A 
ATOM     10  C   UNL     1     -13.553 -27.683 -13.704  1.00  0.00     0.166 A 
ATOM     11  C   UNL     1     -15.625 -27.389 -12.522  1.00  0.00     0.051 A 
ATOM     12  C   UNL     1     -14.565 -26.889 -13.273  1.00  0.00     0.165 A 
ATOM     13  O   UNL     1     -12.650 -26.926 -14.425  1.00  0.00    -0.454 OA
ATOM     14  O   UNL     1     -14.348 -25.593 -13.700  1.00  0.00    -0.454 OA
ATOM     15  C   UNL     1     -13.124 -25.572 -14.447  1.00  0.00     0.468 C 
ENDBRANCH   6   7
ENDBRANCH   2   6
BRANCH   3  16
ATOM     16  C   UNL     1     -11.700 -30.838 -10.681  1.00  0.00     0.044 C 
BRANCH  16  17
ATOM     17  C   UNL     1     -12.593 -29.927  -9.881  1.00  0.00    -0.044 A 
ATOM     18  C   UNL     1     -12.539 -28.530 -10.085  1.00  0.00     0.054 A 
ATOM     19  C   UNL     1     -13.524 -30.465  -8.954  1.00  0.00     0.008 A 
ATOM     20  C   UNL     1     -13.406 -27.728  -9.349  1.00  0.00     0.166 A 
ATOM     21  C   UNL     1     -14.382 -29.618  -8.231  1.00  0.00     0.051 A 
ATOM     22  C   UNL     1     -14.289 -28.249  -8.461  1.00  0.00     0.165 A 
ATOM     23  O   UNL     1     -13.536 -26.352  -9.374  1.00  0.00    -0.454 OA
ATOM     24  O   UNL     1     -15.018 -27.228  -7.882  1.00  0.00    -0.454 OA
ATOM     25  C   UNL     1     -14.564 -25.988  -8.442  1.00  0.00     0.468 C 
ENDBRANCH  16  17
ENDBRANCH   3  16
BRANCH   4  26
ATOM     26  O   UNL     1     -11.452 -34.127 -10.620  1.00  0.00    -0.368 OA
ATOM     27  H   UNL     1     -12.170 -34.805 -10.723  1.00  0.00     0.213 HD
ENDBRANCH   4  26
TORSDOF 5
ENDMDL
MODEL 3
REMARK VINA RESULT:    -7.801      2.083      4.868
REMARK INTER + INTRA:         -11.244
REMARK INTER:                  -9.667
REMARK INTRA:                  -1.576
REMARK UNBOUND:                -1.390
REMARK SMILES O[C@H]1OC[C@@H](Cc2ccc3c(c2)OCO3)[C@@H]1Cc1ccc2c(c1)OCO2
REMARK SMILES IDX 4 1 5 2 16 3 2 4 3 5 6 6 7 7 12 8 8 9 11 10 9 11 10 12 13 13
REMARK SMILES IDX 15 14 14 15 17 16 18 17 23 18 19 19 22 20 20 21 21 22 24 23
REMARK SMILES IDX 26 24 25 25 1 26
REMARK H PARENT 1 27
REMARK Flexibility Score: inf
ROOT
ATOM      1  C   UNL     1     -13.611 -32.446 -11.087  1.00  0.00     0.168 C 
ATOM      2  C   UNL     1     -12.565 -31.680 -10.288  1.00  0.00     0.028 C 
ATOM      3  C   UNL     1     -13.417 -30.910  -9.306  1.00  0.00     0.055 C 
ATOM      4  C   UNL     1     -14.619 -31.844  -9.134  1.00  0.00     0.250 C 
ATOM      5  O   UNL     1     -14.746 -32.661 -10.278  1.00  0.00    -0.352 OA
ENDROOT
BRANCH   2   6
ATOM      6  C   UNL     1     -11.680 -30.767 -11.163  1.00  0.00     0.042 C 
BRANCH   6   7
ATOM      7  C   UNL     1     -12.333 -29.428 -11.386  1.00  0.00    -0.044 A 
ATOM      8  C   UNL     1     -13.568 -29.350 -12.070  1.00  0.00     0.054 A 
ATOM      9  C   UNL     1     -11.739 -28.244 -10.876  1.00  0.00     0.008 A 
ATOM     10  C   UNL     1     -14.151 -28.096 -12.226  1.00  0.00     0.166 A 
ATOM     11  C   UNL     1     -12.362 -26.997 -11.057  1.00  0.00     0.051 A 
ATOM     12  C   UNL     1     -13.574 -26.969 -11.742  1.00  0.00     0.165 A 
ATOM     13  O   UNL     1     -15.340 -27.773 -12.852  1.00  0.00    -0.454 OA
ATOM     14  O   UNL     1     -14.370 -25.879 -12.040  1.00  0.00    -0.454 OA
ATOM     15  C   UNL     1     -15.519 -26.353 -12.755  1.00  0.00     0.468 C 
ENDBRANCH   6   7
ENDBRANCH   2   6
BRANCH   3  16
ATOM     16  C   UNL     1     -12.679 -30.612  -7.982  1.00  0.00     0.044 C 
BRANCH  16  17
ATOM     17  C   UNL     1     -12.643 -29.133  -7.697  1.00  0.00    -0.044 A 
ATOM     18  C   UNL     1     -11.438 -28.524  -7.282  1.00  0.00     0.054 A 
ATOM     19  C   UNL     1     -13.803 -28.337  -7.885  1.00  0.00     0.008 A 
ATOM     20  C   UNL     1     -11.442 -27.150  -7.062  1.00  0.00     0.166 A 
ATOM     21  C   UNL     1     -13.763 -26.951  -7.651  1.00  0.00     0.051 A 
ATOM     22  C   UNL     1     -12.556 -26.396  -7.239  1.00  0.00     0.165 A 
ATOM     23  O   UNL     1     -10.398 -26.340  -6.656  1.00  0.00    -0.454 OA
ATOM     24  O   UNL     1     -12.269 -25.076  -6.952  1.00  0.00    -0.454 OA
ATOM     25  C   UNL     1     -10.888 -24.995  -6.572  1.00  0.00     0.468 C 
ENDBRANCH  16  17
ENDBRANCH   3  16
BRANCH   4  26
ATOM     26  O   UNL     1     -15.800 -31.113  -8.924  1.00  0.00    -0.368 OA
ATOM     27  H   UNL     1     -15.590 -30.159  -9.100  1.00  0.00     0.213 HD
ENDBRANCH   4  26
TORSDOF 5
ENDMDL
MODEL 4
REMARK VINA RESULT:    -7.786      2.410      4.935
REMARK INTER + INTRA:         -11.225
REMARK INTER:                  -9.235
REMARK INTRA:                  -1.990
REMARK UNBOUND:                -1.390
REMARK SMILES O[C@H]1OC[C@@H](Cc2ccc3c(c2)OCO3)[C@@H]1Cc1ccc2c(c1)OCO2
REMARK SMILES IDX 4 1 5 2 16 3 2 4 3 5 6 6 7 7 12 8 8 9 11 10 9 11 10 12 13 13
REMARK SMILES IDX 15 14 14 15 17 16 18 17 23 18 19 19 22 20 20 21 21 22 24 23
REMARK SMILES IDX 26 24 25 25 1 26
REMARK H PARENT 1 27
REMARK Flexibility Score: inf
ROOT
ATOM      1  C   UNL     1     -10.489 -32.885 -11.534  1.00  0.00     0.168 C 
ATOM      2  C   UNL     1     -11.650 -31.912 -11.380  1.00  0.00     0.028 C 
ATOM      3  C   UNL     1     -12.308 -31.986 -12.738  1.00  0.00     0.055 C 
ATOM      4  C   UNL     1     -11.987 -33.423 -13.164  1.00  0.00     0.250 C 
ATOM      5  O   UNL     1     -10.827 -33.863 -12.491  1.00  0.00    -0.352 OA
ENDROOT
BRANCH   2   6
ATOM      6  C   UNL     1     -11.201 -30.484 -11.006  1.00  0.00     0.042 C 
BRANCH   6   7
ATOM      7  C   UNL     1     -12.188 -29.829 -10.075  1.00  0.00    -0.044 A 
ATOM      8  C   UNL     1     -12.344 -28.424 -10.086  1.00  0.00     0.054 A 
ATOM      9  C   UNL     1     -12.996 -30.617  -9.215  1.00  0.00     0.008 A 
ATOM     10  C   UNL     1     -13.290 -27.864  -9.233  1.00  0.00     0.166 A 
ATOM     11  C   UNL     1     -13.940 -30.010  -8.367  1.00  0.00     0.051 A 
ATOM     12  C   UNL     1     -14.054 -28.624  -8.408  1.00  0.00     0.165 A 
ATOM     13  O   UNL     1     -13.617 -26.532  -9.067  1.00  0.00    -0.454 OA
ATOM     14  O   UNL     1     -14.900 -27.807  -7.682  1.00  0.00    -0.454 OA
ATOM     15  C   UNL     1     -14.651 -26.450  -8.076  1.00  0.00     0.468 C 
ENDBRANCH   6   7
ENDBRANCH   2   6
BRANCH   3  16
ATOM     16  C   UNL     1     -13.822 -31.688 -12.685  1.00  0.00     0.044 C 
BRANCH  16  17
ATOM     17  C   UNL     1     -14.093 -30.210 -12.799  1.00  0.00    -0.044 A 
ATOM     18  C   UNL     1     -13.277 -29.406 -13.627  1.00  0.00     0.054 A 
ATOM     19  C   UNL     1     -15.190 -29.626 -12.115  1.00  0.00     0.008 A 
ATOM     20  C   UNL     1     -13.584 -28.053 -13.730  1.00  0.00     0.166 A 
ATOM     21  C   UNL     1     -15.464 -28.253 -12.246  1.00  0.00     0.051 A 
ATOM     22  C   UNL     1     -14.631 -27.500 -13.068  1.00  0.00     0.165 A 
ATOM     23  O   UNL     1     -12.940 -27.078 -14.468  1.00  0.00    -0.454 OA
ATOM     24  O   UNL     1     -14.698 -26.151 -13.356  1.00  0.00    -0.454 OA
ATOM     25  C   UNL     1     -13.625 -25.836 -14.255  1.00  0.00     0.468 C 
ENDBRANCH  16  17
ENDBRANCH   3  16
BRANCH   4  26
ATOM     26  O   UNL     1     -11.805 -33.509 -14.554  1.00  0.00    -0.368 OA
ATOM     27  H   UNL     1     -11.036 -34.115 -14.712  1.00  0.00     0.213 HD
ENDBRANCH   4  26
TORSDOF 5
ENDMDL
MODEL 5
REMARK VINA RESULT:    -7.777      1.857      5.111
REMARK INTER + INTRA:         -11.213
REMARK INTER:                  -9.607
REMARK INTRA:                  -1.607
REMARK UNBOUND:                -1.390
REMARK SMILES O[C@H]1OC[C@@H](Cc2ccc3c(c2)OCO3)[C@@H]1Cc1ccc2c(c1)OCO2
REMARK SMILES IDX 4 1 5 2 16 3 2 4 3 5 6 6 7 7 12 8 8 9 11 10 9 11 10 12 13 13
REMARK SMILES IDX 15 14 14 15 17 16 18 17 23 18 19 19 22 20 20 21 21 22 24 23
REMARK SMILES IDX 26 24 25 25 1 26
REMARK H PARENT 1 27
REMARK Flexibility Score: inf
ROOT
ATOM      1  C   UNL     1     -11.112 -27.221  -6.592  1.00  0.00     0.168 C 
ATOM      2  C   UNL     1     -12.466 -27.855  -6.882  1.00  0.00     0.028 C 
ATOM      3  C   UNL     1     -12.094 -28.986  -7.812  1.00  0.00     0.055 C 
ATOM      4  C   UNL     1     -10.678 -29.330  -7.338  1.00  0.00     0.250 C 
ATOM      5  O   UNL     1     -10.106 -28.201  -6.713  1.00  0.00    -0.352 OA
ENDROOT
BRANCH   2   6
ATOM      6  C   UNL     1     -13.478 -26.871  -7.506  1.00  0.00     0.042 C 
BRANCH   6   7
ATOM      7  C   UNL     1     -13.381 -26.871  -9.009  1.00  0.00    -0.044 A 
ATOM      8  C   UNL     1     -14.545 -27.050  -9.791  1.00  0.00     0.054 A 
ATOM      9  C   UNL     1     -12.134 -26.648  -9.648  1.00  0.00     0.008 A 
ATOM     10  C   UNL     1     -14.415 -27.011 -11.176  1.00  0.00     0.166 A 
ATOM     11  C   UNL     1     -12.047 -26.617 -11.052  1.00  0.00     0.051 A 
ATOM     12  C   UNL     1     -13.218 -26.804 -11.780  1.00  0.00     0.165 A 
ATOM     13  O   UNL     1     -15.397 -27.159 -12.137  1.00  0.00    -0.454 OA
ATOM     14  O   UNL     1     -13.388 -26.813 -13.152  1.00  0.00    -0.454 OA
ATOM     15  C   UNL     1     -14.777 -27.039 -13.425  1.00  0.00     0.468 C 
ENDBRANCH   6   7
ENDBRANCH   2   6
BRANCH   3  16
ATOM     16  C   UNL     1     -13.074 -30.176  -7.726  1.00  0.00     0.044 C 
BRANCH  16  17
ATOM     17  C   UNL     1     -13.736 -30.437  -9.054  1.00  0.00    -0.044 A 
ATOM     18  C   UNL     1     -12.986 -30.338 -10.247  1.00  0.00     0.054 A 
ATOM     19  C   UNL     1     -15.100 -30.826  -9.112  1.00  0.00     0.008 A 
ATOM     20  C   UNL     1     -13.629 -30.620 -11.448  1.00  0.00     0.166 A 
ATOM     21  C   UNL     1     -15.711 -31.101 -10.348  1.00  0.00     0.051 A 
ATOM     22  C   UNL     1     -14.934 -30.985 -11.497  1.00  0.00     0.165 A 
ATOM     23  O   UNL     1     -13.111 -30.591 -12.729  1.00  0.00    -0.454 OA
ATOM     24  O   UNL     1     -15.303 -31.204 -12.811  1.00  0.00    -0.454 OA
ATOM     25  C   UNL     1     -14.157 -30.960 -13.638  1.00  0.00     0.468 C 
ENDBRANCH  16  17
ENDBRANCH   3  16
BRANCH   4  26
ATOM     26  O   UNL     1      -9.875 -29.754  -8.409  1.00  0.00    -0.368 OA
ATOM     27  H   UNL     1      -8.936 -29.536  -8.175  1.00  0.00     0.213 HD
ENDBRANCH   4  26
TORSDOF 5
ENDMDL
MODEL 6
REMARK VINA RESULT:    -7.734      0.872      5.128
REMARK INTER + INTRA:         -11.159
REMARK INTER:                  -9.641
REMARK INTRA:                  -1.518
REMARK UNBOUND:                -1.390
REMARK SMILES O[C@H]1OC[C@@H](Cc2ccc3c(c2)OCO3)[C@@H]1Cc1ccc2c(c1)OCO2
REMARK SMILES IDX 4 1 5 2 16 3 2 4 3 5 6 6 7 7 12 8 8 9 11 10 9 11 10 12 13 13
REMARK SMILES IDX 15 14 14 15 17 16 18 17 23 18 19 19 22 20 20 21 21 22 24 23
REMARK SMILES IDX 26 24 25 25 1 26
REMARK H PARENT 1 27
REMARK Flexibility Score: inf
ROOT
ATOM      1  C   UNL     1     -15.585 -31.936 -12.234  1.00  0.00     0.168 C 
ATOM      2  C   UNL     1     -15.692 -30.761 -11.270  1.00  0.00     0.028 C 
ATOM      3  C   UNL     1     -14.604 -29.840 -11.771  1.00  0.00     0.055 C 
ATOM      4  C   UNL     1     -14.573 -30.174 -13.267  1.00  0.00     0.250 C 
ATOM      5  O   UNL     1     -15.072 -31.480 -13.465  1.00  0.00    -0.352 OA
ENDROOT
BRANCH   2   6
ATOM      6  C   UNL     1     -15.504 -31.166  -9.793  1.00  0.00     0.042 C 
BRANCH   6   7
ATOM      7  C   UNL     1     -14.055 -31.441  -9.484  1.00  0.00    -0.044 A 
ATOM      8  C   UNL     1     -13.406 -32.550 -10.072  1.00  0.00     0.054 A 
ATOM      9  C   UNL     1     -13.324 -30.567  -8.638  1.00  0.00     0.008 A 
ATOM     10  C   UNL     1     -12.059 -32.747  -9.783  1.00  0.00     0.166 A 
ATOM     11  C   UNL     1     -11.963 -30.803  -8.373  1.00  0.00     0.051 A 
ATOM     12  C   UNL     1     -11.367 -31.911  -8.969  1.00  0.00     0.165 A 
ATOM     13  O   UNL     1     -11.220 -33.749 -10.232  1.00  0.00    -0.454 OA
ATOM     14  O   UNL     1     -10.060 -32.346  -8.865  1.00  0.00    -0.454 OA
ATOM     15  C   UNL     1      -9.922 -33.529  -9.664  1.00  0.00     0.468 C 
ENDBRANCH   6   7
ENDBRANCH   2   6
BRANCH   3  16
ATOM     16  C   UNL     1     -14.902 -28.352 -11.483  1.00  0.00     0.044 C 
BRANCH  16  17
ATOM     17  C   UNL     1     -13.830 -27.737 -10.622  1.00  0.00    -0.044 A 
ATOM     18  C   UNL     1     -14.177 -27.102  -9.408  1.00  0.00     0.054 A 
ATOM     19  C   UNL     1     -12.465 -27.828 -11.001  1.00  0.00     0.008 A 
ATOM     20  C   UNL     1     -13.152 -26.577  -8.628  1.00  0.00     0.166 A 
ATOM     21  C   UNL     1     -11.460 -27.283 -10.182  1.00  0.00     0.051 A 
ATOM     22  C   UNL     1     -11.850 -26.663  -8.999  1.00  0.00     0.165 A 
ATOM     23  O   UNL     1     -13.243 -25.919  -7.417  1.00  0.00    -0.454 OA
ATOM     24  O   UNL     1     -11.057 -26.063  -8.040  1.00  0.00    -0.454 OA
ATOM     25  C   UNL     1     -11.915 -25.569  -7.002  1.00  0.00     0.468 C 
ENDBRANCH  16  17
ENDBRANCH   3  16
BRANCH   4  26
ATOM     26  O   UNL     1     -13.272 -30.065 -13.782  1.00  0.00    -0.368 OA
ATOM     27  H   UNL     1     -12.709 -30.723 -13.297  1.00  0.00     0.213 HD
ENDBRANCH   4  26
TORSDOF 5
ENDMDL
MODEL 7
REMARK VINA RESULT:    -7.688      1.517      5.522
REMARK INTER + INTRA:         -11.100
REMARK INTER:                  -9.313
REMARK INTRA:                  -1.787
REMARK UNBOUND:                -1.390
REMARK SMILES O[C@H]1OC[C@@H](Cc2ccc3c(c2)OCO3)[C@@H]1Cc1ccc2c(c1)OCO2
REMARK SMILES IDX 4 1 5 2 16 3 2 4 3 5 6 6 7 7 12 8 8 9 11 10 9 11 10 12 13 13
REMARK SMILES IDX 15 14 14 15 17 16 18 17 23 18 19 19 22 20 20 21 21 22 24 23
REMARK SMILES IDX 26 24 25 25 1 26
REMARK H PARENT 1 27
REMARK Flexibility Score: inf
ROOT
ATOM      1  C   UNL     1     -11.580 -26.127  -7.719  1.00  0.00     0.168 C 
ATOM      2  C   UNL     1     -11.714 -26.627  -9.152  1.00  0.00     0.028 C 
ATOM      3  C   UNL     1     -13.052 -27.327  -9.119  1.00  0.00     0.055 C 
ATOM      4  C   UNL     1     -13.799 -26.528  -8.046  1.00  0.00     0.250 C 
ATOM      5  O   UNL     1     -12.865 -25.924  -7.177  1.00  0.00    -0.352 OA
ENDROOT
BRANCH   2   6
ATOM      6  C   UNL     1     -10.559 -27.555  -9.583  1.00  0.00     0.042 C 
BRANCH   6   7
ATOM      7  C   UNL     1     -10.970 -29.003  -9.517  1.00  0.00    -0.044 A 
ATOM      8  C   UNL     1     -10.999 -29.781 -10.697  1.00  0.00     0.054 A 
ATOM      9  C   UNL     1     -11.287 -29.603  -8.272  1.00  0.00     0.008 A 
ATOM     10  C   UNL     1     -11.354 -31.122 -10.585  1.00  0.00     0.166 A 
ATOM     11  C   UNL     1     -11.641 -30.963  -8.204  1.00  0.00     0.051 A 
ATOM     12  C   UNL     1     -11.662 -31.689  -9.391  1.00  0.00     0.165 A 
ATOM     13  O   UNL     1     -11.454 -32.072 -11.584  1.00  0.00    -0.454 OA
ATOM     14  O   UNL     1     -11.972 -33.022  -9.580  1.00  0.00    -0.454 OA
ATOM     15  C   UNL     1     -11.850 -33.311 -10.980  1.00  0.00     0.468 C 
ENDBRANCH   6   7
ENDBRANCH   2   6
BRANCH   3  16
ATOM     16  C   UNL     1     -13.762 -27.322 -10.491  1.00  0.00     0.044 C 
BRANCH  16  17
ATOM     17  C   UNL     1     -14.209 -28.707 -10.881  1.00  0.00    -0.044 A 
ATOM     18  C   UNL     1     -14.078 -29.139 -12.220  1.00  0.00     0.054 A 
ATOM     19  C   UNL     1     -14.720 -29.598  -9.902  1.00  0.00     0.008 A 
ATOM     20  C   UNL     1     -14.473 -30.437 -12.529  1.00  0.00     0.166 A 
ATOM     21  C   UNL     1     -15.108 -30.902 -10.258  1.00  0.00     0.051 A 
ATOM     22  C   UNL     1     -14.966 -31.282 -11.589  1.00  0.00     0.165 A 
ATOM     23  O   UNL     1     -14.442 -31.077 -13.753  1.00  0.00    -0.454 OA
ATOM     24  O   UNL     1     -15.270 -32.495 -12.175  1.00  0.00    -0.454 OA
ATOM     25  C   UNL     1     -14.948 -32.407 -13.570  1.00  0.00     0.468 C 
ENDBRANCH  16  17
ENDBRANCH   3  16
BRANCH   4  26
ATOM     26  O   UNL     1     -14.676 -27.352  -7.322  1.00  0.00    -0.368 OA
ATOM     27  H   UNL     1     -14.568 -28.274  -7.672  1.00  0.00     0.213 HD
ENDBRANCH   4  26
TORSDOF 5
ENDMDL
MODEL 8
REMARK VINA RESULT:    -7.681      1.640      6.052
REMARK INTER + INTRA:         -11.092
REMARK INTER:                  -9.728
REMARK INTRA:                  -1.363
REMARK UNBOUND:                -1.390
REMARK SMILES O[C@H]1OC[C@@H](Cc2ccc3c(c2)OCO3)[C@@H]1Cc1ccc2c(c1)OCO2
REMARK SMILES IDX 4 1 5 2 16 3 2 4 3 5 6 6 7 7 12 8 8 9 11 10 9 11 10 12 13 13
REMARK SMILES IDX 15 14 14 15 17 16 18 17 23 18 19 19 22 20 20 21 21 22 24 23
REMARK SMILES IDX 26 24 25 25 1 26
REMARK H PARENT 1 27
REMARK Flexibility Score: inf
ROOT
ATOM      1  C   UNL     1     -11.029 -27.793  -8.994  1.00  0.00     0.168 C 
ATOM      2  C   UNL     1     -11.919 -28.908  -8.460  1.00  0.00     0.028 C 
ATOM      3  C   UNL     1     -12.962 -28.138  -7.685  1.00  0.00     0.055 C 
ATOM      4  C   UNL     1     -13.019 -26.818  -8.461  1.00  0.00     0.250 C 
ATOM      5  O   UNL     1     -11.794 -26.617  -9.135  1.00  0.00    -0.352 OA
ENDROOT
BRANCH   2   6
ATOM      6  C   UNL     1     -11.156 -29.930  -7.590  1.00  0.00     0.042 C 
BRANCH   6   7
ATOM      7  C   UNL     1     -10.994 -31.243  -8.309  1.00  0.00    -0.044 A 
ATOM      8  C   UNL     1     -11.188 -31.311  -9.708  1.00  0.00     0.054 A 
ATOM      9  C   UNL     1     -10.604 -32.408  -7.598  1.00  0.00     0.008 A 
ATOM     10  C   UNL     1     -10.996 -32.538 -10.336  1.00  0.00     0.166 A 
ATOM     11  C   UNL     1     -10.422 -33.629  -8.273  1.00  0.00     0.051 A 
ATOM     12  C   UNL     1     -10.630 -33.649  -9.649  1.00  0.00     0.165 A 
ATOM     13  O   UNL     1     -11.126 -32.848 -11.676  1.00  0.00    -0.454 OA
ATOM     14  O   UNL     1     -10.512 -34.713 -10.522  1.00  0.00    -0.454 OA
ATOM     15  C   UNL     1     -10.823 -34.240 -11.840  1.00  0.00     0.468 C 
ENDBRANCH   6   7
ENDBRANCH   2   6
BRANCH   3  16
ATOM     16  C   UNL     1     -14.320 -28.870  -7.623  1.00  0.00     0.044 C 
BRANCH  16  17
ATOM     17  C   UNL     1     -14.491 -29.805  -8.792  1.00  0.00    -0.044 A 
ATOM     18  C   UNL     1     -14.456 -29.299 -10.111  1.00  0.00     0.054 A 
ATOM     19  C   UNL     1     -14.644 -31.200  -8.579  1.00  0.00     0.008 A 
ATOM     20  C   UNL     1     -14.584 -30.202 -11.161  1.00  0.00     0.166 A 
ATOM     21  C   UNL     1     -14.771 -32.078  -9.670  1.00  0.00     0.051 A 
ATOM     22  C   UNL     1     -14.735 -31.533 -10.950  1.00  0.00     0.165 A 
ATOM     23  O   UNL     1     -14.580 -29.948 -12.520  1.00  0.00    -0.454 OA
ATOM     24  O   UNL     1     -14.834 -32.184 -12.165  1.00  0.00    -0.454 OA
ATOM     25  C   UNL     1     -14.740 -31.199 -13.204  1.00  0.00     0.468 C 
ENDBRANCH  16  17
ENDBRANCH   3  16
BRANCH   4  26
ATOM     26  O   UNL     1     -13.286 -25.738  -7.604  1.00  0.00    -0.368 OA
ATOM     27  H   UNL     1     -13.539 -24.967  -8.175  1.00  0.00     0.213 HD
ENDBRANCH   4  26
TORSDOF 5
ENDMDL
MODEL 9
REMARK VINA RESULT:    -7.619      1.668      5.229
REMARK INTER + INTRA:         -11.013
REMARK INTER:                  -9.460
REMARK INTRA:                  -1.553
REMARK UNBOUND:                -1.390
REMARK SMILES O[C@H]1OC[C@@H](Cc2ccc3c(c2)OCO3)[C@@H]1Cc1ccc2c(c1)OCO2
REMARK SMILES IDX 4 1 5 2 16 3 2 4 3 5 6 6 7 7 12 8 8 9 11 10 9 11 10 12 13 13
REMARK SMILES IDX 15 14 14 15 17 16 18 17 23 18 19 19 22 20 20 21 21 22 24 23
REMARK SMILES IDX 26 24 25 25 1 26
REMARK H PARENT 1 27
REMARK Flexibility Score: inf
ROOT
ATOM      1  C   UNL     1     -12.542 -26.242  -7.246  1.00  0.00     0.168 C 
ATOM      2  C   UNL     1     -12.492 -27.744  -7.003  1.00  0.00     0.028 C 
ATOM      3  C   UNL     1     -11.486 -28.199  -8.035  1.00  0.00     0.055 C 
ATOM      4  C   UNL     1     -10.583 -26.967  -8.158  1.00  0.00     0.250 C 
ATOM      5  O   UNL     1     -11.307 -25.816  -7.775  1.00  0.00    -0.352 OA
ENDROOT
BRANCH   2   6
ATOM      6  C   UNL     1     -13.865 -28.431  -7.158  1.00  0.00     0.042 C 
BRANCH   6   7
ATOM      7  C   UNL     1     -14.146 -28.769  -8.599  1.00  0.00    -0.044 A 
ATOM      8  C   UNL     1     -14.505 -30.089  -8.957  1.00  0.00     0.054 A 
ATOM      9  C   UNL     1     -14.096 -27.761  -9.595  1.00  0.00     0.008 A 
ATOM     10  C   UNL     1     -14.787 -30.349 -10.295  1.00  0.00     0.166 A 
ATOM     11  C   UNL     1     -14.388 -28.067 -10.937  1.00  0.00     0.051 A 
ATOM     12  C   UNL     1     -14.730 -29.381 -11.244  1.00  0.00     0.165 A 
ATOM     13  O   UNL     1     -15.153 -31.546 -10.880  1.00  0.00    -0.454 OA
ATOM     14  O   UNL     1     -15.058 -29.921 -12.472  1.00  0.00    -0.454 OA
ATOM     15  C   UNL     1     -15.338 -31.315 -12.283  1.00  0.00     0.468 C 
ENDBRANCH   6   7
ENDBRANCH   2   6
BRANCH   3  16
ATOM     16  C   UNL     1     -10.727 -29.474  -7.606  1.00  0.00     0.044 C 
BRANCH  16  17
ATOM     17  C   UNL     1     -11.015 -30.622  -8.537  1.00  0.00    -0.044 A 
ATOM     18  C   UNL     1     -11.133 -30.390  -9.926  1.00  0.00     0.054 A 
ATOM     19  C   UNL     1     -11.126 -31.944  -8.034  1.00  0.00     0.008 A 
ATOM     20  C   UNL     1     -11.366 -31.485 -10.753  1.00  0.00     0.166 A 
ATOM     21  C   UNL     1     -11.362 -33.022  -8.906  1.00  0.00     0.051 A 
ATOM     22  C   UNL     1     -11.477 -32.745 -10.265  1.00  0.00     0.165 A 
ATOM     23  O   UNL     1     -11.517 -31.508 -12.127  1.00  0.00    -0.454 OA
ATOM     24  O   UNL     1     -11.703 -33.625 -11.306  1.00  0.00    -0.454 OA
ATOM     25  C   UNL     1     -11.737 -32.869 -12.525  1.00  0.00     0.468 C 
ENDBRANCH  16  17
ENDBRANCH   3  16
BRANCH   4  26
ATOM     26  O   UNL     1     -10.099 -26.825  -9.468  1.00  0.00    -0.368 OA
ATOM     27  H   UNL     1     -10.599 -26.077  -9.886  1.00  0.00     0.213 HD
ENDBRANCH   4  26
TORSDOF 5
ENDMDL
