MODEL 1
REMARK VINA RESULT:    -2.926      0.000      0.000
REMARK INTER + INTRA:          -2.856
REMARK INTER:                  -3.610
REMARK INTRA:                   0.754
REMARK UNBOUND:                 0.754
REMARK SMILES CC1=CC=CC(C)(C)CC1=O
REMARK SMILES IDX 1 1 2 2 3 3 10 4 11 5 9 6 4 8 5 9 6 10 7 11 8 12
REMARK H PARENT
REMARK Flexibility Score: 80.00
ROOT
ATOM      1  C   UNL     1      12.747  62.034  19.852  1.00  0.00     0.048 C 
ATOM      2  C   UNL     1      14.029  61.968  20.649  1.00  0.00    -0.008 C 
ATOM      3  C   UNL     1      15.095  61.374  20.072  1.00  0.00     0.007 C 
ENDROOT
BRANCH   2   4
ATOM      4  C   UNL     1      13.990  62.496  22.036  1.00  0.00     0.159 C 
ATOM      5  O   UNL     1      12.871  62.774  22.550  1.00  0.00    -0.295 OA
BRANCH   4   6
ATOM      6  C   UNL     1      15.214  62.732  22.864  1.00  0.00     0.091 CG0
ATOM      7  G   UNL     1      16.049  61.453  23.098  1.00  0.00     0.000 G0
ENDBRANCH   4   6
ENDBRANCH   2   4
BRANCH   3   8
ATOM      8  C   UNL     1      16.457  61.139  20.605  1.00  0.00    -0.003 C 
ATOM      9  C   UNL     1      16.881  61.156  21.875  1.00  0.00    -0.020 C 
BRANCH   9  10
ATOM     10  C   UNL     1      16.046  61.456  23.096  1.00  0.00    -0.010 CG0
ATOM     11  C   UNL     1      16.999  61.722  24.284  1.00  0.00     0.016 C 
ATOM     12  C   UNL     1      15.171  60.232  23.453  1.00  0.00     0.016 C 
ATOM     13  G   UNL     1      15.211  62.734  22.854  1.00  0.00     0.000 G0
ENDBRANCH   9  10
ENDBRANCH   3   8
TORSDOF 0
ENDMDL
MODEL 2
REMARK VINA RESULT:    -2.904      1.804      2.965
REMARK INTER + INTRA:          -2.829
REMARK INTER:                  -3.579
REMARK INTRA:                   0.750
REMARK UNBOUND:                 0.754
REMARK SMILES CC1=CC=CC(C)(C)CC1=O
REMARK SMILES IDX 1 1 2 2 3 3 10 4 11 5 9 6 4 8 5 9 6 10 7 11 8 12
REMARK H PARENT
REMARK Flexibility Score: 80.00
ROOT
ATOM      1  C   UNL     1      15.605  61.121  19.758  1.00  0.00     0.048 C 
ATOM      2  C   UNL     1      15.062  61.879  20.947  1.00  0.00    -0.008 C 
ATOM      3  C   UNL     1      15.901  62.106  21.981  1.00  0.00     0.007 C 
ENDROOT
BRANCH   2   4
ATOM      4  C   UNL     1      13.624  62.246  20.915  1.00  0.00     0.159 C 
ATOM      5  O   UNL     1      12.891  61.756  20.012  1.00  0.00    -0.295 OA
BRANCH   4   6
ATOM      6  C   UNL     1      12.990  63.185  21.894  1.00  0.00     0.091 CG0
ATOM      7  G   UNL     1      13.118  62.715  23.361  1.00  0.00     0.000 G0
ENDBRANCH   4   6
ENDBRANCH   2   4
BRANCH   3   8
ATOM      8  C   UNL     1      15.655  62.787  23.273  1.00  0.00    -0.003 C 
ATOM      9  C   UNL     1      14.491  63.046  23.883  1.00  0.00    -0.020 C 
BRANCH   9  10
ATOM     10  C   UNL     1      13.113  62.717  23.362  1.00  0.00    -0.010 CG0
ATOM     11  C   UNL     1      12.078  63.509  24.194  1.00  0.00     0.016 C 
ATOM     12  C   UNL     1      12.822  61.210  23.549  1.00  0.00     0.016 C 
ATOM     13  G   UNL     1      12.992  63.168  21.889  1.00  0.00     0.000 G0
ENDBRANCH   9  10
ENDBRANCH   3   8
TORSDOF 0
ENDMDL
MODEL 3
REMARK VINA RESULT:    -2.838     13.551     15.360
REMARK INTER + INTRA:          -2.747
REMARK INTER:                  -3.506
REMARK INTRA:                   0.759
REMARK UNBOUND:                 0.754
REMARK SMILES CC1=CC=CC(C)(C)CC1=O
REMARK SMILES IDX 1 1 2 2 3 3 10 4 11 5 9 6 4 8 5 9 6 10 7 11 8 12
REMARK H PARENT
REMARK Flexibility Score: 80.00
ROOT
ATOM      1  C   UNL     1      15.273  52.277  37.468  1.00  0.00     0.048 C 
ATOM      2  C   UNL     1      15.943  52.783  36.212  1.00  0.00    -0.008 C 
ATOM      3  C   UNL     1      17.119  52.220  35.859  1.00  0.00     0.007 C 
ENDROOT
BRANCH   2   4
ATOM      4  C   UNL     1      15.291  53.915  35.506  1.00  0.00     0.159 C 
ATOM      5  O   UNL     1      14.355  54.533  36.084  1.00  0.00    -0.295 OA
BRANCH   4   6
ATOM      6  C   UNL     1      15.674  54.360  34.130  1.00  0.00     0.091 CG0
ATOM      7  G   UNL     1      17.148  54.813  34.023  1.00  0.00     0.000 G0
ENDBRANCH   4   6
ENDBRANCH   2   4
BRANCH   3   8
ATOM      8  C   UNL     1      18.011  52.518  34.715  1.00  0.00    -0.003 C 
ATOM      9  C   UNL     1      18.053  53.608  33.938  1.00  0.00    -0.020 C 
BRANCH   9  10
ATOM     10  C   UNL     1      17.150  54.814  34.036  1.00  0.00    -0.010 CG0
ATOM     11  C   UNL     1      17.310  55.646  32.743  1.00  0.00     0.016 C 
ATOM     12  C   UNL     1      17.579  55.700  35.229  1.00  0.00     0.016 C 
ATOM     13  G   UNL     1      15.678  54.356  34.134  1.00  0.00     0.000 G0
ENDBRANCH   9  10
ENDBRANCH   3   8
TORSDOF 0
ENDMDL
MODEL 4
REMARK VINA RESULT:    -2.772     13.833     15.492
REMARK INTER + INTRA:          -2.666
REMARK INTER:                  -3.421
REMARK INTRA:                   0.755
REMARK UNBOUND:                 0.754
REMARK SMILES CC1=CC=CC(C)(C)CC1=O
REMARK SMILES IDX 1 1 2 2 3 3 10 4 11 5 9 6 4 8 5 9 6 10 7 11 8 12
REMARK H PARENT
REMARK Flexibility Score: 80.00
ROOT
ATOM      1  C   UNL     1      15.089  52.280  36.279  1.00  0.00     0.048 C 
ATOM      2  C   UNL     1      16.402  52.485  35.561  1.00  0.00    -0.008 C 
ATOM      3  C   UNL     1      17.457  52.905  36.292  1.00  0.00     0.007 C 
ENDROOT
BRANCH   2   4
ATOM      4  C   UNL     1      16.407  52.280  34.090  1.00  0.00     0.159 C 
ATOM      5  O   UNL     1      15.306  52.134  33.493  1.00  0.00    -0.295 OA
BRANCH   4   6
ATOM      6  C   UNL     1      17.658  52.222  33.269  1.00  0.00     0.091 CG0
ATOM      7  G   UNL     1      18.509  53.508  33.363  1.00  0.00     0.000 G0
ENDBRANCH   4   6
ENDBRANCH   2   4
BRANCH   3   8
ATOM      8  C   UNL     1      18.843  53.214  35.871  1.00  0.00    -0.003 C 
ATOM      9  C   UNL     1      19.314  53.483  34.647  1.00  0.00    -0.020 C 
BRANCH   9  10
ATOM     10  C   UNL     1      18.517  53.507  33.364  1.00  0.00    -0.010 CG0
ATOM     11  C   UNL     1      19.507  53.505  32.177  1.00  0.00     0.016 C 
ATOM     12  C   UNL     1      17.681  54.805  33.285  1.00  0.00     0.016 C 
ATOM     13  G   UNL     1      17.648  52.233  33.268  1.00  0.00     0.000 G0
ENDBRANCH   9  10
ENDBRANCH   3   8
TORSDOF 0
ENDMDL
MODEL 5
REMARK VINA RESULT:    -2.766     14.606     15.804
REMARK INTER + INTRA:          -2.659
REMARK INTER:                  -3.396
REMARK INTRA:                   0.737
REMARK UNBOUND:                 0.754
REMARK SMILES CC1=CC=CC(C)(C)CC1=O
REMARK SMILES IDX 1 1 2 2 3 3 10 4 11 5 9 6 4 8 5 9 6 10 7 11 8 12
REMARK H PARENT
REMARK Flexibility Score: 80.00
ROOT
ATOM      1  C   UNL     1      18.778  53.227  35.963  1.00  0.00     0.048 C 
ATOM      2  C   UNL     1      17.604  52.773  35.126  1.00  0.00    -0.008 C 
ATOM      3  C   UNL     1      17.822  52.550  33.812  1.00  0.00     0.007 C 
ENDROOT
BRANCH   2   4
ATOM      4  C   UNL     1      16.286  52.683  35.802  1.00  0.00     0.159 C 
ATOM      5  O   UNL     1      16.159  53.178  36.956  1.00  0.00    -0.295 OA
BRANCH   4   6
ATOM      6  C   UNL     1      15.089  52.020  35.194  1.00  0.00     0.091 CG0
ATOM      7  G   UNL     1      14.648  52.664  33.859  1.00  0.00     0.000 G0
ENDBRANCH   4   6
ENDBRANCH   2   4
BRANCH   3   8
ATOM      8  C   UNL     1      16.880  52.130  32.749  1.00  0.00    -0.003 C 
ATOM      9  C   UNL     1      15.541  52.177  32.742  1.00  0.00    -0.020 C 
BRANCH   9  10
ATOM     10  C   UNL     1      14.653  52.659  33.864  1.00  0.00    -0.010 CG0
ATOM     11  C   UNL     1      13.210  52.184  33.580  1.00  0.00     0.016 C 
ATOM     12  C   UNL     1      14.646  54.205  33.906  1.00  0.00     0.016 C 
ATOM     13  G   UNL     1      15.113  52.030  35.198  1.00  0.00     0.000 G0
ENDBRANCH   9  10
ENDBRANCH   3   8
TORSDOF 0
ENDMDL
MODEL 6
REMARK VINA RESULT:    -2.734      1.375      2.351
REMARK INTER + INTRA:          -2.619
REMARK INTER:                  -3.395
REMARK INTRA:                   0.776
REMARK UNBOUND:                 0.754
REMARK SMILES CC1=CC=CC(C)(C)CC1=O
REMARK SMILES IDX 1 1 2 2 3 3 10 4 11 5 9 6 4 8 5 9 6 10 7 11 8 12
REMARK H PARENT
REMARK Flexibility Score: 80.00
ROOT
ATOM      1  C   UNL     1      12.214  63.691  23.701  1.00  0.00     0.048 C 
ATOM      2  C   UNL     1      13.260  63.048  22.819  1.00  0.00    -0.008 C 
ATOM      3  C   UNL     1      12.865  62.594  21.610  1.00  0.00     0.007 C 
ENDROOT
BRANCH   2   4
ATOM      4  C   UNL     1      14.624  62.899  23.386  1.00  0.00     0.159 C 
ATOM      5  O   UNL     1      14.794  63.099  24.620  1.00  0.00    -0.295 OA
BRANCH   4   6
ATOM      6  C   UNL     1      15.823  62.536  22.567  1.00  0.00     0.091 CG0
ATOM      7  G   UNL     1      15.689  61.167  21.863  1.00  0.00     0.000 G0
ENDBRANCH   4   6
ENDBRANCH   2   4
BRANCH   3   8
ATOM      8  C   UNL     1      13.642  61.906  20.553  1.00  0.00    -0.003 C 
ATOM      9  C   UNL     1      14.826  61.286  20.643  1.00  0.00    -0.020 C 
BRANCH   9  10
ATOM     10  C   UNL     1      15.683  61.163  21.880  1.00  0.00    -0.010 CG0
ATOM     11  C   UNL     1      17.092  60.695  21.450  1.00  0.00     0.016 C 
ATOM     12  C   UNL     1      15.094  60.094  22.828  1.00  0.00     0.016 C 
ATOM     13  G   UNL     1      15.821  62.547  22.555  1.00  0.00     0.000 G0
ENDBRANCH   9  10
ENDBRANCH   3   8
TORSDOF 0
ENDMDL
MODEL 7
REMARK VINA RESULT:    -2.718     13.878     15.204
REMARK INTER + INTRA:          -2.600
REMARK INTER:                  -3.356
REMARK INTRA:                   0.756
REMARK UNBOUND:                 0.754
REMARK SMILES CC1=CC=CC(C)(C)CC1=O
REMARK SMILES IDX 1 1 2 2 3 3 10 4 11 5 9 6 4 8 5 9 6 10 7 11 8 12
REMARK H PARENT
REMARK Flexibility Score: 80.00
ROOT
ATOM      1  C   UNL     1      19.979  52.841  33.753  1.00  0.00     0.048 C 
ATOM      2  C   UNL     1      18.716  53.310  34.436  1.00  0.00    -0.008 C 
ATOM      3  C   UNL     1      18.002  52.395  35.128  1.00  0.00     0.007 C 
ENDROOT
BRANCH   2   4
ATOM      4  C   UNL     1      18.320  54.725  34.229  1.00  0.00     0.159 C 
ATOM      5  O   UNL     1      18.922  55.402  33.350  1.00  0.00    -0.295 OA
BRANCH   4   6
ATOM      6  C   UNL     1      17.248  55.408  35.020  1.00  0.00     0.091 CG0
ATOM      7  G   UNL     1      15.865  54.731  34.884  1.00  0.00     0.000 G0
ENDBRANCH   4   6
ENDBRANCH   2   4
BRANCH   3   8
ATOM      8  C   UNL     1      16.728  52.545  35.869  1.00  0.00    -0.003 C 
ATOM      9  C   UNL     1      15.804  53.511  35.774  1.00  0.00    -0.020 C 
BRANCH   9  10
ATOM     10  C   UNL     1      15.863  54.724  34.877  1.00  0.00    -0.010 CG0
ATOM     11  C   UNL     1      14.790  55.731  35.351  1.00  0.00     0.016 C 
ATOM     12  C   UNL     1      15.530  54.323  33.422  1.00  0.00     0.016 C 
ATOM     13  G   UNL     1      17.247  55.399  35.007  1.00  0.00     0.000 G0
ENDBRANCH   9  10
ENDBRANCH   3   8
TORSDOF 0
ENDMDL
MODEL 8
REMARK VINA RESULT:    -2.655     14.336     15.566
REMARK INTER + INTRA:          -2.522
REMARK INTER:                  -3.268
REMARK INTRA:                   0.746
REMARK UNBOUND:                 0.754
REMARK SMILES CC1=CC=CC(C)(C)CC1=O
REMARK SMILES IDX 1 1 2 2 3 3 10 4 11 5 9 6 4 8 5 9 6 10 7 11 8 12
REMARK H PARENT
REMARK Flexibility Score: 80.00
ROOT
ATOM      1  C   UNL     1      18.934  51.419  32.974  1.00  0.00     0.048 C 
ATOM      2  C   UNL     1      18.082  52.322  33.835  1.00  0.00    -0.008 C 
ATOM      3  C   UNL     1      18.505  52.568  35.094  1.00  0.00     0.007 C 
ENDROOT
BRANCH   2   4
ATOM      4  C   UNL     1      16.806  52.807  33.251  1.00  0.00     0.159 C 
ATOM      5  O   UNL     1      16.395  52.290  32.176  1.00  0.00    -0.295 OA
BRANCH   4   6
ATOM      6  C   UNL     1      15.978  53.893  33.863  1.00  0.00     0.091 CG0
ATOM      7  G   UNL     1      15.501  53.564  35.296  1.00  0.00     0.000 G0
ENDBRANCH   4   6
ENDBRANCH   2   4
BRANCH   3   8
ATOM      8  C   UNL     1      17.881  53.378  36.166  1.00  0.00    -0.003 C 
ATOM      9  C   UNL     1      16.615  53.798  36.278  1.00  0.00    -0.020 C 
BRANCH   9  10
ATOM     10  C   UNL     1      15.498  53.556  35.291  1.00  0.00    -0.010 CG0
ATOM     11  C   UNL     1      14.334  54.515  35.630  1.00  0.00     0.016 C 
ATOM     12  C   UNL     1      14.977  52.107  35.426  1.00  0.00     0.016 C 
ATOM     13  G   UNL     1      15.988  53.882  33.862  1.00  0.00     0.000 G0
ENDBRANCH   9  10
ENDBRANCH   3   8
TORSDOF 0
ENDMDL
MODEL 9
REMARK VINA RESULT:    -2.600      1.802      3.435
REMARK INTER + INTRA:          -2.454
REMARK INTER:                  -3.207
REMARK INTRA:                   0.753
REMARK UNBOUND:                 0.754
REMARK SMILES CC1=CC=CC(C)(C)CC1=O
REMARK SMILES IDX 1 1 2 2 3 3 10 4 11 5 9 6 4 8 5 9 6 10 7 11 8 12
REMARK H PARENT
REMARK Flexibility Score: 80.00
ROOT
ATOM      1  C   UNL     1      17.437  63.017  23.556  1.00  0.00     0.048 C 
ATOM      2  C   UNL     1      16.255  62.345  22.897  1.00  0.00    -0.008 C 
ATOM      3  C   UNL     1      16.193  62.371  21.548  1.00  0.00     0.007 C 
ENDROOT
BRANCH   2   4
ATOM      4  C   UNL     1      15.215  61.776  23.790  1.00  0.00     0.159 C 
ATOM      5  O   UNL     1      15.265  62.037  25.024  1.00  0.00    -0.295 OA
BRANCH   4   6
ATOM      6  C   UNL     1      14.108  60.891  23.310  1.00  0.00     0.091 CG0
ATOM      7  G   UNL     1      13.218  61.556  22.235  1.00  0.00     0.000 G0
ENDBRANCH   4   6
ENDBRANCH   2   4
BRANCH   3   8
ATOM      8  C   UNL     1      15.162  61.830  20.633  1.00  0.00    -0.003 C 
ATOM      9  C   UNL     1      13.895  61.487  20.897  1.00  0.00    -0.020 C 
BRANCH   9  10
ATOM     10  C   UNL     1      13.210  61.547  22.242  1.00  0.00    -0.010 CG0
ATOM     11  C   UNL     1      11.902  60.729  22.158  1.00  0.00     0.016 C 
ATOM     12  C   UNL     1      12.838  63.009  22.581  1.00  0.00     0.016 C 
ATOM     13  G   UNL     1      14.114  60.900  23.315  1.00  0.00     0.000 G0
ENDBRANCH   9  10
ENDBRANCH   3   8
TORSDOF 0
ENDMDL
