MODEL 1
REMARK VINA RESULT:    -5.728      0.000      0.000
REMARK INTER + INTRA:         -10.368
REMARK INTER:                  -8.742
REMARK INTRA:                  -1.626
REMARK UNBOUND:                -1.626
REMARK SMILES CC(=O)CCC=C(C)CCC=C(C)CCC=C(C)C
REMARK SMILES IDX 10 1 11 2 12 3 13 4 14 5 15 6 16 7 18 8 17 9 19 10 9 11 7 12
REMARK SMILES IDX 6 13 8 14 5 15 4 16 2 17 3 18 1 19
REMARK H PARENT
REMARK Flexibility Score: inf
ROOT
ATOM      1  C   UNL     1     -12.796   3.271 -11.673  1.00  0.00     0.032 C 
ENDROOT
BRANCH   1   2
ATOM      2  C   UNL     1     -11.574   3.172 -12.553  1.00  0.00    -0.028 C 
ATOM      3  C   UNL     1     -11.579   2.831 -13.863  1.00  0.00    -0.077 C 
ATOM      4  C   UNL     1     -10.256   2.737 -14.578  1.00  0.00     0.039 C 
BRANCH   3   5
ATOM      5  C   UNL     1     -12.851   2.596 -14.662  1.00  0.00     0.034 C 
BRANCH   5   6
ATOM      6  C   UNL     1     -12.707   3.067 -16.116  1.00  0.00     0.032 C 
BRANCH   6   7
ATOM      7  C   UNL     1     -13.564   4.276 -16.410  1.00  0.00    -0.028 C 
ATOM      8  C   UNL     1     -11.688   5.900 -16.065  1.00  0.00     0.039 C 
ATOM      9  C   UNL     1     -13.117   5.552 -16.412  1.00  0.00    -0.080 C 
ATOM     10  C   UNL     1     -14.083   6.650 -16.771  1.00  0.00     0.039 C 
ENDBRANCH   6   7
ENDBRANCH   5   6
ENDBRANCH   3   5
ENDBRANCH   1   2
BRANCH   1  11
ATOM     11  C   UNL     1     -13.131   1.929 -11.007  1.00  0.00     0.034 C 
BRANCH  11  12
ATOM     12  C   UNL     1     -14.598   1.580 -11.150  1.00  0.00    -0.077 C 
ATOM     13  C   UNL     1     -15.319   2.162 -12.135  1.00  0.00    -0.028 C 
ATOM     14  C   UNL     1     -15.219   0.612 -10.170  1.00  0.00     0.039 C 
BRANCH  13  15
ATOM     15  C   UNL     1     -16.775   1.877 -12.416  1.00  0.00     0.035 C 
BRANCH  15  16
ATOM     16  C   UNL     1     -17.606   3.167 -12.473  1.00  0.00     0.079 C 
BRANCH  16  17
ATOM     17  C   UNL     1     -18.234   3.362 -13.830  1.00  0.00     0.130 C 
ATOM     18  O   UNL     1     -19.354   2.923 -14.044  1.00  0.00    -0.300 OA
ATOM     19  C   UNL     1     -17.507   4.081 -14.928  1.00  0.00     0.087 C 
ENDBRANCH  16  17
ENDBRANCH  15  16
ENDBRANCH  13  15
ENDBRANCH  11  12
ENDBRANCH   1  11
TORSDOF 9
ENDMDL
MODEL 2
REMARK VINA RESULT:    -5.406      2.106      5.407
REMARK INTER + INTRA:          -9.877
REMARK INTER:                  -8.106
REMARK INTRA:                  -1.771
REMARK UNBOUND:                -1.626
REMARK SMILES CC(=O)CCC=C(C)CCC=C(C)CCC=C(C)C
REMARK SMILES IDX 10 1 11 2 12 3 13 4 14 5 15 6 16 7 18 8 17 9 19 10 9 11 7 12
REMARK SMILES IDX 6 13 8 14 5 15 4 16 2 17 3 18 1 19
REMARK H PARENT
REMARK Flexibility Score: inf
ROOT
ATOM      1  C   UNL     1     -13.056   2.894 -11.483  1.00  0.00     0.032 C 
ENDROOT
BRANCH   1   2
ATOM      2  C   UNL     1     -13.675   1.688 -10.819  1.00  0.00    -0.028 C 
ATOM      3  C   UNL     1     -14.999   1.503 -10.612  1.00  0.00    -0.077 C 
ATOM      4  C   UNL     1     -15.438   0.256  -9.889  1.00  0.00     0.039 C 
BRANCH   3   5
ATOM      5  C   UNL     1     -16.067   2.458 -11.119  1.00  0.00     0.034 C 
BRANCH   5   6
ATOM      6  C   UNL     1     -16.759   1.923 -12.381  1.00  0.00     0.032 C 
BRANCH   6   7
ATOM      7  C   UNL     1     -16.636   2.877 -13.545  1.00  0.00    -0.028 C 
ATOM      8  C   UNL     1     -19.110   3.006 -13.921  1.00  0.00     0.039 C 
ATOM      9  C   UNL     1     -17.681   3.389 -14.232  1.00  0.00    -0.080 C 
ATOM     10  C   UNL     1     -17.400   4.368 -15.342  1.00  0.00     0.039 C 
ENDBRANCH   6   7
ENDBRANCH   5   6
ENDBRANCH   3   5
ENDBRANCH   1   2
BRANCH   1  11
ATOM     11  C   UNL     1     -11.718   2.551 -12.156  1.00  0.00     0.034 C 
BRANCH  11  12
ATOM     12  C   UNL     1     -11.819   2.602 -13.667  1.00  0.00    -0.077 C 
ATOM     13  C   UNL     1     -13.036   2.508 -14.248  1.00  0.00    -0.028 C 
ATOM     14  C   UNL     1     -10.552   2.732 -14.480  1.00  0.00     0.039 C 
BRANCH  13  15
ATOM     15  C   UNL     1     -13.285   2.584 -15.736  1.00  0.00     0.035 C 
BRANCH  15  16
ATOM     16  C   UNL     1     -13.689   3.999 -16.172  1.00  0.00     0.079 C 
BRANCH  16  17
ATOM     17  C   UNL     1     -12.530   4.743 -16.786  1.00  0.00     0.130 C 
ATOM     18  O   UNL     1     -12.086   4.380 -17.865  1.00  0.00    -0.300 OA
ATOM     19  C   UNL     1     -11.906   5.919 -16.096  1.00  0.00     0.087 C 
ENDBRANCH  16  17
ENDBRANCH  15  16
ENDBRANCH  13  15
ENDBRANCH  11  12
ENDBRANCH   1  11
TORSDOF 9
ENDMDL
MODEL 3
REMARK VINA RESULT:    -5.328      2.036      5.477
REMARK INTER + INTRA:          -9.757
REMARK INTER:                  -8.306
REMARK INTRA:                  -1.451
REMARK UNBOUND:                -1.626
REMARK SMILES CC(=O)CCC=C(C)CCC=C(C)CCC=C(C)C
REMARK SMILES IDX 10 1 11 2 12 3 13 4 14 5 15 6 16 7 18 8 17 9 19 10 9 11 7 12
REMARK SMILES IDX 6 13 8 14 5 15 4 16 2 17 3 18 1 19
REMARK H PARENT
REMARK Flexibility Score: inf
ROOT
ATOM      1  C   UNL     1     -12.491   3.157 -12.200  1.00  0.00     0.032 C 
ENDROOT
BRANCH   1   2
ATOM      2  C   UNL     1     -13.147   2.075 -11.377  1.00  0.00    -0.028 C 
ATOM      3  C   UNL     1     -14.481   1.909 -11.226  1.00  0.00    -0.077 C 
ATOM      4  C   UNL     1     -14.962   0.799 -10.327  1.00  0.00     0.039 C 
BRANCH   3   5
ATOM      5  C   UNL     1     -15.518   2.746 -11.958  1.00  0.00     0.034 C 
BRANCH   5   6
ATOM      6  C   UNL     1     -16.014   2.052 -13.235  1.00  0.00     0.032 C 
BRANCH   6   7
ATOM      7  C   UNL     1     -17.517   2.118 -13.370  1.00  0.00    -0.028 C 
ATOM      8  C   UNL     1     -17.464   4.123 -14.870  1.00  0.00     0.039 C 
ATOM      9  C   UNL     1     -18.182   3.027 -14.117  1.00  0.00    -0.080 C 
ATOM     10  C   UNL     1     -19.683   2.935 -14.190  1.00  0.00     0.039 C 
ENDBRANCH   6   7
ENDBRANCH   5   6
ENDBRANCH   3   5
ENDBRANCH   1   2
BRANCH   1  11
ATOM     11  C   UNL     1     -11.799   2.585 -13.446  1.00  0.00     0.034 C 
BRANCH  11  12
ATOM     12  C   UNL     1     -12.313   3.227 -14.719  1.00  0.00    -0.077 C 
ATOM     13  C   UNL     1     -11.961   4.501 -15.001  1.00  0.00    -0.028 C 
ATOM     14  C   UNL     1     -13.226   2.431 -15.622  1.00  0.00     0.039 C 
BRANCH  13  15
ATOM     15  C   UNL     1     -12.367   5.247 -16.250  1.00  0.00     0.035 C 
BRANCH  15  16
ATOM     16  C   UNL     1     -12.267   6.767 -16.061  1.00  0.00     0.079 C 
BRANCH  16  17
ATOM     17  C   UNL     1     -13.629   7.401 -15.934  1.00  0.00     0.130 C 
ATOM     18  O   UNL     1     -13.760   8.421 -15.274  1.00  0.00    -0.300 OA
ATOM     19  C   UNL     1     -14.833   6.801 -16.599  1.00  0.00     0.087 C 
ENDBRANCH  16  17
ENDBRANCH  15  16
ENDBRANCH  13  15
ENDBRANCH  11  12
ENDBRANCH   1  11
TORSDOF 9
ENDMDL
MODEL 4
REMARK VINA RESULT:    -5.268      1.100      1.965
REMARK INTER + INTRA:          -9.666
REMARK INTER:                  -8.663
REMARK INTRA:                  -1.003
REMARK UNBOUND:                -1.626
REMARK SMILES CC(=O)CCC=C(C)CCC=C(C)CCC=C(C)C
REMARK SMILES IDX 10 1 11 2 12 3 13 4 14 5 15 6 16 7 18 8 17 9 19 10 9 11 7 12
REMARK SMILES IDX 6 13 8 14 5 15 4 16 2 17 3 18 1 19
REMARK H PARENT
REMARK Flexibility Score: inf
ROOT
ATOM      1  C   UNL     1     -12.074   2.917 -12.701  1.00  0.00     0.032 C 
ENDROOT
BRANCH   1   2
ATOM      2  C   UNL     1     -12.578   2.638 -14.096  1.00  0.00    -0.028 C 
ATOM      3  C   UNL     1     -12.264   3.357 -15.199  1.00  0.00    -0.077 C 
ATOM      4  C   UNL     1     -12.897   2.962 -16.508  1.00  0.00     0.039 C 
BRANCH   3   5
ATOM      5  C   UNL     1     -11.264   4.501 -15.196  1.00  0.00     0.034 C 
BRANCH   5   6
ATOM      6  C   UNL     1     -11.601   5.558 -16.257  1.00  0.00     0.032 C 
BRANCH   6   7
ATOM      7  C   UNL     1     -12.131   6.832 -15.643  1.00  0.00    -0.028 C 
ATOM      8  C   UNL     1     -14.283   6.755 -16.923  1.00  0.00     0.039 C 
ATOM      9  C   UNL     1     -13.341   7.370 -15.914  1.00  0.00    -0.080 C 
ATOM     10  C   UNL     1     -13.749   8.623 -15.185  1.00  0.00     0.039 C 
ENDBRANCH   6   7
ENDBRANCH   5   6
ENDBRANCH   3   5
ENDBRANCH   1   2
BRANCH   1  11
ATOM     11  C   UNL     1     -12.809   2.072 -11.650  1.00  0.00     0.034 C 
BRANCH  11  12
ATOM     12  C   UNL     1     -14.222   2.567 -11.418  1.00  0.00    -0.077 C 
ATOM     13  C   UNL     1     -15.194   2.207 -12.285  1.00  0.00    -0.028 C 
ATOM     14  C   UNL     1     -14.497   3.470 -10.238  1.00  0.00     0.039 C 
BRANCH  13  15
ATOM     15  C   UNL     1     -16.648   2.593 -12.153  1.00  0.00     0.035 C 
BRANCH  15  16
ATOM     16  C   UNL     1     -17.506   1.968 -13.262  1.00  0.00     0.079 C 
BRANCH  16  17
ATOM     17  C   UNL     1     -18.265   3.017 -14.034  1.00  0.00     0.130 C 
ATOM     18  O   UNL     1     -19.487   2.983 -14.054  1.00  0.00    -0.300 OA
ATOM     19  C   UNL     1     -17.551   4.102 -14.784  1.00  0.00     0.087 C 
ENDBRANCH  16  17
ENDBRANCH  15  16
ENDBRANCH  13  15
ENDBRANCH  11  12
ENDBRANCH   1  11
TORSDOF 9
ENDMDL
MODEL 5
REMARK VINA RESULT:    -5.246      2.055      5.439
REMARK INTER + INTRA:          -9.633
REMARK INTER:                  -8.224
REMARK INTRA:                  -1.409
REMARK UNBOUND:                -1.626
REMARK SMILES CC(=O)CCC=C(C)CCC=C(C)CCC=C(C)C
REMARK SMILES IDX 10 1 11 2 12 3 13 4 14 5 15 6 16 7 18 8 17 9 19 10 9 11 7 12
REMARK SMILES IDX 6 13 8 14 5 15 4 16 2 17 3 18 1 19
REMARK H PARENT
REMARK Flexibility Score: inf
ROOT
ATOM      1  C   UNL     1     -11.779   3.296 -12.348  1.00  0.00     0.032 C 
ENDROOT
BRANCH   1   2
ATOM      2  C   UNL     1     -12.096   2.147 -11.422  1.00  0.00    -0.028 C 
ATOM      3  C   UNL     1     -13.321   1.857 -10.927  1.00  0.00    -0.077 C 
ATOM      4  C   UNL     1     -13.447   0.695  -9.976  1.00  0.00     0.039 C 
BRANCH   3   5
ATOM      5  C   UNL     1     -14.583   2.606 -11.324  1.00  0.00     0.034 C 
BRANCH   5   6
ATOM      6  C   UNL     1     -15.746   1.649 -11.622  1.00  0.00     0.032 C 
BRANCH   6   7
ATOM      7  C   UNL     1     -16.510   2.051 -12.861  1.00  0.00    -0.028 C 
ATOM      8  C   UNL     1     -18.100   3.527 -11.608  1.00  0.00     0.039 C 
ATOM      9  C   UNL     1     -17.554   2.909 -12.875  1.00  0.00    -0.080 C 
ATOM     10  C   UNL     1     -18.187   3.249 -14.198  1.00  0.00     0.039 C 
ENDBRANCH   6   7
ENDBRANCH   5   6
ENDBRANCH   3   5
ENDBRANCH   1   2
BRANCH   1  11
ATOM     11  C   UNL     1     -11.299   2.805 -13.722  1.00  0.00     0.034 C 
BRANCH  11  12
ATOM     12  C   UNL     1     -12.311   3.099 -14.810  1.00  0.00    -0.077 C 
ATOM     13  C   UNL     1     -12.079   4.119 -15.665  1.00  0.00    -0.028 C 
ATOM     14  C   UNL     1     -13.564   2.257 -14.890  1.00  0.00     0.039 C 
BRANCH  13  15
ATOM     15  C   UNL     1     -12.981   4.496 -16.817  1.00  0.00     0.035 C 
BRANCH  15  16
ATOM     16  C   UNL     1     -12.838   5.978 -17.189  1.00  0.00     0.079 C 
BRANCH  16  17
ATOM     17  C   UNL     1     -13.685   6.857 -16.304  1.00  0.00     0.130 C 
ATOM     18  O   UNL     1     -13.144   7.607 -15.505  1.00  0.00    -0.300 OA
ATOM     19  C   UNL     1     -15.183   6.827 -16.381  1.00  0.00     0.087 C 
ENDBRANCH  16  17
ENDBRANCH  15  16
ENDBRANCH  13  15
ENDBRANCH  11  12
ENDBRANCH   1  11
TORSDOF 9
ENDMDL
MODEL 6
REMARK VINA RESULT:    -5.195      1.453      2.369
REMARK INTER + INTRA:          -9.554
REMARK INTER:                  -7.561
REMARK INTRA:                  -1.994
REMARK UNBOUND:                -1.626
REMARK SMILES CC(=O)CCC=C(C)CCC=C(C)CCC=C(C)C
REMARK SMILES IDX 10 1 11 2 12 3 13 4 14 5 15 6 16 7 18 8 17 9 19 10 9 11 7 12
REMARK SMILES IDX 6 13 8 14 5 15 4 16 2 17 3 18 1 19
REMARK H PARENT
REMARK Flexibility Score: inf
ROOT
ATOM      1  C   UNL     1     -11.290   3.416 -10.938  1.00  0.00     0.032 C 
ENDROOT
BRANCH   1   2
ATOM      2  C   UNL     1     -11.496   4.568 -11.890  1.00  0.00    -0.028 C 
ATOM      3  C   UNL     1     -10.791   4.779 -13.026  1.00  0.00    -0.077 C 
ATOM      4  C   UNL     1     -11.102   6.011 -13.836  1.00  0.00     0.039 C 
BRANCH   3   5
ATOM      5  C   UNL     1      -9.745   3.811 -13.555  1.00  0.00     0.034 C 
BRANCH   5   6
ATOM      6  C   UNL     1     -10.115   3.274 -14.945  1.00  0.00     0.032 C 
BRANCH   6   7
ATOM      7  C   UNL     1     -11.424   2.521 -14.933  1.00  0.00    -0.028 C 
ATOM      8  C   UNL     1     -12.445   3.928 -16.737  1.00  0.00     0.039 C 
ATOM      9  C   UNL     1     -12.471   2.787 -15.746  1.00  0.00    -0.080 C 
ATOM     10  C   UNL     1     -13.695   1.916 -15.648  1.00  0.00     0.039 C 
ENDBRANCH   6   7
ENDBRANCH   5   6
ENDBRANCH   3   5
ENDBRANCH   1   2
BRANCH   1  11
ATOM     11  C   UNL     1     -12.152   2.202 -11.316  1.00  0.00     0.034 C 
BRANCH  11  12
ATOM     12  C   UNL     1     -13.626   2.465 -11.086  1.00  0.00    -0.077 C 
ATOM     13  C   UNL     1     -14.505   2.185 -12.074  1.00  0.00    -0.028 C 
ATOM     14  C   UNL     1     -14.066   3.058  -9.767  1.00  0.00     0.039 C 
BRANCH  13  15
ATOM     15  C   UNL     1     -16.002   2.360 -11.966  1.00  0.00     0.035 C 
BRANCH  15  16
ATOM     16  C   UNL     1     -16.712   2.006 -13.280  1.00  0.00     0.079 C 
BRANCH  16  17
ATOM     17  C   UNL     1     -17.725   3.054 -13.662  1.00  0.00     0.130 C 
ATOM     18  O   UNL     1     -18.754   3.164 -13.011  1.00  0.00    -0.300 OA
ATOM     19  C   UNL     1     -17.500   3.966 -14.833  1.00  0.00     0.087 C 
ENDBRANCH  16  17
ENDBRANCH  15  16
ENDBRANCH  13  15
ENDBRANCH  11  12
ENDBRANCH   1  11
TORSDOF 9
ENDMDL
MODEL 7
REMARK VINA RESULT:    -5.161      2.924      4.833
REMARK INTER + INTRA:          -9.503
REMARK INTER:                  -7.950
REMARK INTRA:                  -1.553
REMARK UNBOUND:                -1.626
REMARK SMILES CC(=O)CCC=C(C)CCC=C(C)CCC=C(C)C
REMARK SMILES IDX 10 1 11 2 12 3 13 4 14 5 15 6 16 7 18 8 17 9 19 10 9 11 7 12
REMARK SMILES IDX 6 13 8 14 5 15 4 16 2 17 3 18 1 19
REMARK H PARENT
REMARK Flexibility Score: inf
ROOT
ATOM      1  C   UNL     1     -10.045   3.250 -14.763  1.00  0.00     0.032 C 
ENDROOT
BRANCH   1   2
ATOM      2  C   UNL     1     -11.454   2.723 -14.641  1.00  0.00    -0.028 C 
ATOM      3  C   UNL     1     -12.443   2.921 -15.544  1.00  0.00    -0.077 C 
ATOM      4  C   UNL     1     -13.807   2.358 -15.238  1.00  0.00     0.039 C 
BRANCH   3   5
ATOM      5  C   UNL     1     -12.235   3.630 -16.872  1.00  0.00     0.034 C 
BRANCH   5   6
ATOM      6  C   UNL     1     -13.046   4.930 -16.959  1.00  0.00     0.032 C 
BRANCH   6   7
ATOM      7  C   UNL     1     -12.394   6.059 -16.195  1.00  0.00    -0.028 C 
ATOM      8  C   UNL     1     -14.481   7.443 -16.123  1.00  0.00     0.039 C 
ATOM      9  C   UNL     1     -13.029   7.182 -15.794  1.00  0.00    -0.080 C 
ATOM     10  C   UNL     1     -12.254   8.199 -14.999  1.00  0.00     0.039 C 
ENDBRANCH   6   7
ENDBRANCH   5   6
ENDBRANCH   3   5
ENDBRANCH   1   2
BRANCH   1  11
ATOM     11  C   UNL     1      -9.062   2.455 -13.890  1.00  0.00     0.034 C 
BRANCH  11  12
ATOM     12  C   UNL     1      -9.482   2.446 -12.434  1.00  0.00    -0.077 C 
ATOM     13  C   UNL     1      -9.816   1.271 -11.855  1.00  0.00    -0.028 C 
ATOM     14  C   UNL     1      -9.542   3.755 -11.682  1.00  0.00     0.039 C 
BRANCH  13  15
ATOM     15  C   UNL     1     -10.213   1.111 -10.407  1.00  0.00     0.035 C 
BRANCH  15  16
ATOM     16  C   UNL     1     -11.677   0.672 -10.264  1.00  0.00     0.079 C 
BRANCH  16  17
ATOM     17  C   UNL     1     -12.616   1.851 -10.299  1.00  0.00     0.130 C 
ATOM     18  O   UNL     1     -12.694   2.587  -9.327  1.00  0.00    -0.300 OA
ATOM     19  C   UNL     1     -13.462   2.137 -11.504  1.00  0.00     0.087 C 
ENDBRANCH  16  17
ENDBRANCH  15  16
ENDBRANCH  13  15
ENDBRANCH  11  12
ENDBRANCH   1  11
TORSDOF 9
ENDMDL
MODEL 8
REMARK VINA RESULT:    -5.159      2.690      5.738
REMARK INTER + INTRA:          -9.500
REMARK INTER:                  -7.267
REMARK INTRA:                  -2.233
REMARK UNBOUND:                -1.626
REMARK SMILES CC(=O)CCC=C(C)CCC=C(C)CCC=C(C)C
REMARK SMILES IDX 10 1 11 2 12 3 13 4 14 5 15 6 16 7 18 8 17 9 19 10 9 11 7 12
REMARK SMILES IDX 6 13 8 14 5 15 4 16 2 17 3 18 1 19
REMARK H PARENT
REMARK Flexibility Score: inf
ROOT
ATOM      1  C   UNL     1      -9.347   2.317 -13.950  1.00  0.00     0.032 C 
ENDROOT
BRANCH   1   2
ATOM      2  C   UNL     1      -9.119   1.553 -12.668  1.00  0.00    -0.028 C 
ATOM      3  C   UNL     1      -9.175   2.081 -11.424  1.00  0.00    -0.077 C 
ATOM      4  C   UNL     1      -8.875   1.178 -10.255  1.00  0.00     0.039 C 
BRANCH   3   5
ATOM      5  C   UNL     1      -9.580   3.519 -11.141  1.00  0.00     0.034 C 
BRANCH   5   6
ATOM      6  C   UNL     1     -10.908   3.599 -10.374  1.00  0.00     0.032 C 
BRANCH   6   7
ATOM      7  C   UNL     1     -12.101   3.429 -11.285  1.00  0.00    -0.028 C 
ATOM      8  C   UNL     1     -12.637   1.134 -10.437  1.00  0.00     0.039 C 
ATOM      9  C   UNL     1     -12.900   2.339 -11.309  1.00  0.00    -0.080 C 
ATOM     10  C   UNL     1     -14.082   2.338 -12.242  1.00  0.00     0.039 C 
ENDBRANCH   6   7
ENDBRANCH   5   6
ENDBRANCH   3   5
ENDBRANCH   1   2
BRANCH   1  11
ATOM     11  C   UNL     1     -10.829   2.328 -14.352  1.00  0.00     0.034 C 
BRANCH  11  12
ATOM     12  C   UNL     1     -11.209   3.611 -15.064  1.00  0.00    -0.077 C 
ATOM     13  C   UNL     1     -11.920   3.538 -16.212  1.00  0.00    -0.028 C 
ATOM     14  C   UNL     1     -10.758   4.931 -14.484  1.00  0.00     0.039 C 
BRANCH  13  15
ATOM     15  C   UNL     1     -12.399   4.734 -17.001  1.00  0.00     0.035 C 
BRANCH  15  16
ATOM     16  C   UNL     1     -13.747   5.253 -16.485  1.00  0.00     0.079 C 
BRANCH  16  17
ATOM     17  C   UNL     1     -13.871   6.745 -16.660  1.00  0.00     0.130 C 
ATOM     18  O   UNL     1     -14.534   7.191 -17.584  1.00  0.00    -0.300 OA
ATOM     19  C   UNL     1     -13.190   7.699 -15.723  1.00  0.00     0.087 C 
ENDBRANCH  16  17
ENDBRANCH  15  16
ENDBRANCH  13  15
ENDBRANCH  11  12
ENDBRANCH   1  11
TORSDOF 9
ENDMDL
MODEL 9
REMARK VINA RESULT:    -5.106      1.635      2.772
REMARK INTER + INTRA:          -9.419
REMARK INTER:                  -7.651
REMARK INTRA:                  -1.767
REMARK UNBOUND:                -1.626
REMARK SMILES CC(=O)CCC=C(C)CCC=C(C)CCC=C(C)C
REMARK SMILES IDX 10 1 11 2 12 3 13 4 14 5 15 6 16 7 18 8 17 9 19 10 9 11 7 12
REMARK SMILES IDX 6 13 8 14 5 15 4 16 2 17 3 18 1 19
REMARK H PARENT
REMARK Flexibility Score: inf
ROOT
ATOM      1  C   UNL     1     -12.356   1.814 -10.988  1.00  0.00     0.032 C 
ENDROOT
BRANCH   1   2
ATOM      2  C   UNL     1     -11.198   2.708 -10.615  1.00  0.00    -0.028 C 
ATOM      3  C   UNL     1      -9.913   2.521 -10.994  1.00  0.00    -0.077 C 
ATOM      4  C   UNL     1      -8.875   3.491 -10.490  1.00  0.00     0.039 C 
BRANCH   3   5
ATOM      5  C   UNL     1      -9.472   1.421 -11.946  1.00  0.00     0.034 C 
BRANCH   5   6
ATOM      6  C   UNL     1      -9.042   1.983 -13.309  1.00  0.00     0.032 C 
BRANCH   6   7
ATOM      7  C   UNL     1     -10.218   2.199 -14.231  1.00  0.00    -0.028 C 
ATOM      8  C   UNL     1     -10.188   4.690 -13.964  1.00  0.00     0.039 C 
ATOM      9  C   UNL     1     -10.730   3.408 -14.552  1.00  0.00    -0.080 C 
ATOM     10  C   UNL     1     -11.879   3.465 -15.525  1.00  0.00     0.039 C 
ENDBRANCH   6   7
ENDBRANCH   5   6
ENDBRANCH   3   5
ENDBRANCH   1   2
BRANCH   1  11
ATOM     11  C   UNL     1     -13.290   2.485 -12.006  1.00  0.00     0.034 C 
BRANCH  11  12
ATOM     12  C   UNL     1     -14.737   2.435 -11.560  1.00  0.00    -0.077 C 
ATOM     13  C   UNL     1     -15.695   2.152 -12.471  1.00  0.00    -0.028 C 
ATOM     14  C   UNL     1     -15.068   2.728 -10.116  1.00  0.00     0.039 C 
BRANCH  13  15
ATOM     15  C   UNL     1     -17.168   2.030 -12.158  1.00  0.00     0.035 C 
BRANCH  15  16
ATOM     16  C   UNL     1     -17.922   3.334 -12.456  1.00  0.00     0.079 C 
BRANCH  16  17
ATOM     17  C   UNL     1     -18.357   3.405 -13.898  1.00  0.00     0.130 C 
ATOM     18  O   UNL     1     -19.436   2.932 -14.225  1.00  0.00    -0.300 OA
ATOM     19  C   UNL     1     -17.490   4.041 -14.943  1.00  0.00     0.087 C 
ENDBRANCH  16  17
ENDBRANCH  15  16
ENDBRANCH  13  15
ENDBRANCH  11  12
ENDBRANCH   1  11
TORSDOF 9
ENDMDL
