MODEL 1
REMARK VINA RESULT:    -4.348      0.000      0.000
REMARK INTER + INTRA:         -10.861
REMARK INTER:                  -8.414
REMARK INTRA:                  -2.447
REMARK UNBOUND:                -2.447
REMARK SMILES CCCCCCCCCCCCCCCCCC(=O)[O-]
REMARK SMILES IDX 10 1 11 2 12 3 13 4 14 5 15 6 16 7 17 8 18 9 19 10 20 11
REMARK SMILES IDX 9 12 8 13 7 14 6 15 5 16 4 17 3 18 2 19 1 20
REMARK H PARENT
REMARK Flexibility Score: inf
ROOT
ATOM      1  C   UNL     1     101.467   0.129  23.018  1.00  0.00     0.000 C 
ENDROOT
BRANCH   1   2
ATOM      2  C   UNL     1     100.258  -0.540  23.692  1.00  0.00     0.000 C 
BRANCH   2   3
ATOM      3  C   UNL     1      99.448   0.428  24.574  1.00  0.00     0.000 C 
BRANCH   3   4
ATOM      4  C   UNL     1      98.075   0.844  24.014  1.00  0.00     0.000 C 
BRANCH   4   5
ATOM      5  C   UNL     1      97.426   1.994  24.803  1.00  0.00     0.000 C 
BRANCH   5   6
ATOM      6  C   UNL     1      96.242   2.639  24.060  1.00  0.00     0.000 C 
BRANCH   6   7
ATOM      7  C   UNL     1      96.254   4.181  24.012  1.00  0.00     0.006 C 
BRANCH   7   8
ATOM      8  C   UNL     1      95.744   4.864  25.290  1.00  0.00     0.053 C 
BRANCH   8   9
ATOM      9  C   UNL     1      96.866   5.396  26.128  1.00  0.00     0.041 C 
ATOM     10  O   UNL     1      97.366   6.523  25.875  1.00  0.00    -0.550 OA
ATOM     11  O   UNL     1      97.382   4.631  27.167  1.00  0.00    -0.550 OA
ENDBRANCH   8   9
ENDBRANCH   7   8
ENDBRANCH   6   7
ENDBRANCH   5   6
ENDBRANCH   4   5
ENDBRANCH   3   4
ENDBRANCH   2   3
ENDBRANCH   1   2
BRANCH   1  12
ATOM     12  C   UNL     1     102.814  -0.355  23.586  1.00  0.00     0.000 C 
BRANCH  12  13
ATOM     13  C   UNL     1     103.966   0.669  23.517  1.00  0.00    -0.000 C 
BRANCH  13  14
ATOM     14  C   UNL     1     103.623   2.073  24.042  1.00  0.00    -0.000 C 
BRANCH  14  15
ATOM     15  C   UNL     1     103.870   2.219  25.554  1.00  0.00    -0.000 C 
BRANCH  15  16
ATOM     16  C   UNL     1     102.641   2.758  26.303  1.00  0.00    -0.000 C 
BRANCH  16  17
ATOM     17  C   UNL     1     102.031   3.997  25.624  1.00  0.00    -0.000 C 
BRANCH  17  18
ATOM     18  C   UNL     1     100.491   3.928  25.561  1.00  0.00    -0.000 C 
BRANCH  18  19
ATOM     19  C   UNL     1      99.904   4.487  24.254  1.00  0.00    -0.003 C 
ATOM     20  C   UNL     1     100.232   3.628  23.036  1.00  0.00     0.004 C 
ENDBRANCH  18  19
ENDBRANCH  17  18
ENDBRANCH  16  17
ENDBRANCH  15  16
ENDBRANCH  14  15
ENDBRANCH  13  14
ENDBRANCH  12  13
ENDBRANCH   1  12
TORSDOF 16
ENDMDL
MODEL 2
REMARK VINA RESULT:    -4.276      3.748      7.202
REMARK INTER + INTRA:         -10.723
REMARK INTER:                  -8.283
REMARK INTRA:                  -2.440
REMARK UNBOUND:                -2.447
REMARK SMILES CCCCCCCCCCCCCCCCCC(=O)[O-]
REMARK SMILES IDX 10 1 11 2 12 3 13 4 14 5 15 6 16 7 17 8 18 9 19 10 20 11
REMARK SMILES IDX 9 12 8 13 7 14 6 15 5 16 4 17 3 18 2 19 1 20
REMARK H PARENT
REMARK Flexibility Score: inf
ROOT
ATOM      1  C   UNL     1      97.735   5.075  23.449  1.00  0.00     0.000 C 
ENDROOT
BRANCH   1   2
ATOM      2  C   UNL     1      96.474   4.226  23.680  1.00  0.00     0.000 C 
BRANCH   2   3
ATOM      3  C   UNL     1      96.088   4.113  25.166  1.00  0.00     0.000 C 
BRANCH   3   4
ATOM      4  C   UNL     1      96.401   5.351  26.028  1.00  0.00     0.000 C 
BRANCH   4   5
ATOM      5  C   UNL     1      97.518   5.101  27.056  1.00  0.00     0.000 C 
BRANCH   5   6
ATOM      6  C   UNL     1      97.968   3.630  27.108  1.00  0.00     0.000 C 
BRANCH   6   7
ATOM      7  C   UNL     1      99.345   3.338  26.476  1.00  0.00     0.006 C 
BRANCH   7   8
ATOM      8  C   UNL     1      99.519   1.902  25.957  1.00  0.00     0.053 C 
BRANCH   8   9
ATOM      9  C   UNL     1      99.110   1.771  24.521  1.00  0.00     0.041 C 
ATOM     10  O   UNL     1      98.051   1.161  24.218  1.00  0.00    -0.550 OA
ATOM     11  O   UNL     1      99.916   2.292  23.517  1.00  0.00    -0.550 OA
ENDBRANCH   8   9
ENDBRANCH   7   8
ENDBRANCH   6   7
ENDBRANCH   5   6
ENDBRANCH   4   5
ENDBRANCH   3   4
ENDBRANCH   2   3
ENDBRANCH   1   2
BRANCH   1  12
ATOM     12  C   UNL     1      97.498   6.248  22.480  1.00  0.00     0.000 C 
BRANCH  12  13
ATOM     13  C   UNL     1      97.257   7.619  23.147  1.00  0.00    -0.000 C 
BRANCH  13  14
ATOM     14  C   UNL     1      95.780   7.968  23.401  1.00  0.00    -0.000 C 
BRANCH  14  15
ATOM     15  C   UNL     1      94.819   7.195  22.481  1.00  0.00    -0.000 C 
BRANCH  15  16
ATOM     16  C   UNL     1      94.428   7.997  21.231  1.00  0.00    -0.000 C 
BRANCH  16  17
ATOM     17  C   UNL     1      94.551   7.173  19.937  1.00  0.00    -0.000 C 
BRANCH  17  18
ATOM     18  C   UNL     1      95.558   7.793  18.945  1.00  0.00    -0.000 C 
BRANCH  18  19
ATOM     19  C   UNL     1      96.967   7.183  19.039  1.00  0.00    -0.003 C 
ATOM     20  C   UNL     1      98.040   8.208  19.399  1.00  0.00     0.004 C 
ENDBRANCH  18  19
ENDBRANCH  17  18
ENDBRANCH  16  17
ENDBRANCH  15  16
ENDBRANCH  14  15
ENDBRANCH  13  14
ENDBRANCH  12  13
ENDBRANCH   1  12
TORSDOF 16
ENDMDL
MODEL 3
REMARK VINA RESULT:    -4.264      2.520      5.282
REMARK INTER + INTRA:         -10.700
REMARK INTER:                  -8.288
REMARK INTRA:                  -2.411
REMARK UNBOUND:                -2.447
REMARK SMILES CCCCCCCCCCCCCCCCCC(=O)[O-]
REMARK SMILES IDX 10 1 11 2 12 3 13 4 14 5 15 6 16 7 17 8 18 9 19 10 20 11
REMARK SMILES IDX 9 12 8 13 7 14 6 15 5 16 4 17 3 18 2 19 1 20
REMARK H PARENT
REMARK Flexibility Score: inf
ROOT
ATOM      1  C   UNL     1      98.084   3.291  27.069  1.00  0.00     0.000 C 
ENDROOT
BRANCH   1   2
ATOM      2  C   UNL     1      98.201   4.611  27.850  1.00  0.00     0.000 C 
BRANCH   2   3
ATOM      3  C   UNL     1      97.245   5.702  27.333  1.00  0.00     0.000 C 
BRANCH   3   4
ATOM      4  C   UNL     1      97.912   6.855  26.558  1.00  0.00     0.000 C 
BRANCH   4   5
ATOM      5  C   UNL     1      97.323   7.053  25.151  1.00  0.00     0.000 C 
BRANCH   5   6
ATOM      6  C   UNL     1      95.802   6.818  25.099  1.00  0.00     0.000 C 
BRANCH   6   7
ATOM      7  C   UNL     1      95.297   6.034  23.870  1.00  0.00     0.006 C 
BRANCH   7   8
ATOM      8  C   UNL     1      94.663   6.903  22.773  1.00  0.00     0.053 C 
BRANCH   8   9
ATOM      9  C   UNL     1      95.356   6.736  21.455  1.00  0.00     0.041 C 
ATOM     10  O   UNL     1      96.557   6.361  21.415  1.00  0.00    -0.550 OA
ATOM     11  O   UNL     1      94.685   7.029  20.274  1.00  0.00    -0.550 OA
ENDBRANCH   8   9
ENDBRANCH   7   8
ENDBRANCH   6   7
ENDBRANCH   5   6
ENDBRANCH   4   5
ENDBRANCH   3   4
ENDBRANCH   2   3
ENDBRANCH   1   2
BRANCH   1  12
ATOM     12  C   UNL     1      97.086   3.374  25.899  1.00  0.00     0.000 C 
BRANCH  12  13
ATOM     13  C   UNL     1      97.625   2.895  24.535  1.00  0.00    -0.000 C 
BRANCH  13  14
ATOM     14  C   UNL     1      98.342   3.973  23.703  1.00  0.00    -0.000 C 
BRANCH  14  15
ATOM     15  C   UNL     1      99.852   4.042  23.995  1.00  0.00    -0.000 C 
BRANCH  15  16
ATOM     16  C   UNL     1     100.668   3.091  23.106  1.00  0.00    -0.000 C 
BRANCH  16  17
ATOM     17  C   UNL     1     101.832   2.427  23.863  1.00  0.00    -0.000 C 
BRANCH  17  18
ATOM     18  C   UNL     1     101.842   0.894  23.686  1.00  0.00    -0.000 C 
BRANCH  18  19
ATOM     19  C   UNL     1     100.437   0.276  23.596  1.00  0.00    -0.003 C 
ATOM     20  C   UNL     1      99.817  -0.003  24.962  1.00  0.00     0.004 C 
ENDBRANCH  18  19
ENDBRANCH  17  18
ENDBRANCH  16  17
ENDBRANCH  15  16
ENDBRANCH  14  15
ENDBRANCH  13  14
ENDBRANCH  12  13
ENDBRANCH   1  12
TORSDOF 16
ENDMDL
MODEL 4
REMARK VINA RESULT:    -4.263      3.579      6.824
REMARK INTER + INTRA:         -10.697
REMARK INTER:                  -8.381
REMARK INTRA:                  -2.316
REMARK UNBOUND:                -2.447
REMARK SMILES CCCCCCCCCCCCCCCCCC(=O)[O-]
REMARK SMILES IDX 10 1 11 2 12 3 13 4 14 5 15 6 16 7 17 8 18 9 19 10 20 11
REMARK SMILES IDX 9 12 8 13 7 14 6 15 5 16 4 17 3 18 2 19 1 20
REMARK H PARENT
REMARK Flexibility Score: inf
ROOT
ATOM      1  C   UNL     1      96.163   3.374  23.999  1.00  0.00     0.000 C 
ENDROOT
BRANCH   1   2
ATOM      2  C   UNL     1      96.741   2.447  25.081  1.00  0.00     0.000 C 
BRANCH   2   3
ATOM      3  C   UNL     1      97.341   3.215  26.274  1.00  0.00     0.000 C 
BRANCH   3   4
ATOM      4  C   UNL     1      98.880   3.251  26.332  1.00  0.00     0.000 C 
BRANCH   4   5
ATOM      5  C   UNL     1      99.478   4.502  25.666  1.00  0.00     0.000 C 
BRANCH   5   6
ATOM      6  C   UNL     1     100.642   4.175  24.712  1.00  0.00     0.000 C 
BRANCH   6   7
ATOM      7  C   UNL     1     100.251   3.406  23.433  1.00  0.00     0.006 C 
BRANCH   7   8
ATOM      8  C   UNL     1     101.173   2.226  23.090  1.00  0.00     0.053 C 
BRANCH   8   9
ATOM      9  C   UNL     1     100.695   0.944  23.702  1.00  0.00     0.041 C 
ATOM     10  O   UNL     1     101.513   0.167  24.261  1.00  0.00    -0.550 OA
ATOM     11  O   UNL     1      99.354   0.592  23.623  1.00  0.00    -0.550 OA
ENDBRANCH   8   9
ENDBRANCH   7   8
ENDBRANCH   6   7
ENDBRANCH   5   6
ENDBRANCH   4   5
ENDBRANCH   3   4
ENDBRANCH   2   3
ENDBRANCH   1   2
BRANCH   1  12
ATOM     12  C   UNL     1      95.876   4.796  24.519  1.00  0.00     0.000 C 
BRANCH  12  13
ATOM     13  C   UNL     1      96.272   5.942  23.565  1.00  0.00    -0.000 C 
BRANCH  13  14
ATOM     14  C   UNL     1      97.549   5.693  22.744  1.00  0.00    -0.000 C 
BRANCH  14  15
ATOM     15  C   UNL     1      98.022   6.947  21.987  1.00  0.00    -0.000 C 
BRANCH  15  16
ATOM     16  C   UNL     1      97.790   6.842  20.471  1.00  0.00    -0.000 C 
BRANCH  16  17
ATOM     17  C   UNL     1      96.923   7.990  19.925  1.00  0.00    -0.000 C 
BRANCH  17  18
ATOM     18  C   UNL     1      95.564   7.490  19.392  1.00  0.00    -0.000 C 
BRANCH  18  19
ATOM     19  C   UNL     1      94.537   7.201  20.500  1.00  0.00    -0.003 C 
ATOM     20  C   UNL     1      94.371   8.360  21.480  1.00  0.00     0.004 C 
ENDBRANCH  18  19
ENDBRANCH  17  18
ENDBRANCH  16  17
ENDBRANCH  15  16
ENDBRANCH  14  15
ENDBRANCH  13  14
ENDBRANCH  12  13
ENDBRANCH   1  12
TORSDOF 16
ENDMDL
MODEL 5
REMARK VINA RESULT:    -4.263      2.580      6.125
REMARK INTER + INTRA:         -10.697
REMARK INTER:                  -8.351
REMARK INTRA:                  -2.345
REMARK UNBOUND:                -2.447
REMARK SMILES CCCCCCCCCCCCCCCCCC(=O)[O-]
REMARK SMILES IDX 10 1 11 2 12 3 13 4 14 5 15 6 16 7 17 8 18 9 19 10 20 11
REMARK SMILES IDX 9 12 8 13 7 14 6 15 5 16 4 17 3 18 2 19 1 20
REMARK H PARENT
REMARK Flexibility Score: inf
ROOT
ATOM      1  C   UNL     1     100.083   4.462  25.851  1.00  0.00     0.000 C 
ENDROOT
BRANCH   1   2
ATOM      2  C   UNL     1     101.467   4.603  26.505  1.00  0.00     0.000 C 
BRANCH   2   3
ATOM      3  C   UNL     1     101.990   3.281  27.097  1.00  0.00     0.000 C 
BRANCH   3   4
ATOM      4  C   UNL     1     103.436   2.911  26.715  1.00  0.00     0.000 C 
BRANCH   4   5
ATOM      5  C   UNL     1     103.582   2.499  25.241  1.00  0.00     0.000 C 
BRANCH   5   6
ATOM      6  C   UNL     1     102.451   1.571  24.762  1.00  0.00     0.000 C 
BRANCH   6   7
ATOM      7  C   UNL     1     101.739   2.012  23.466  1.00  0.00     0.006 C 
BRANCH   7   8
ATOM      8  C   UNL     1     100.237   1.690  23.420  1.00  0.00     0.053 C 
BRANCH   8   9
ATOM      9  C   UNL     1      99.959   0.262  23.778  1.00  0.00     0.041 C 
ATOM     10  O   UNL     1     100.194  -0.656  22.950  1.00  0.00    -0.550 OA
ATOM     11  O   UNL     1      99.407  -0.051  25.014  1.00  0.00    -0.550 OA
ENDBRANCH   8   9
ENDBRANCH   7   8
ENDBRANCH   6   7
ENDBRANCH   5   6
ENDBRANCH   4   5
ENDBRANCH   3   4
ENDBRANCH   2   3
ENDBRANCH   1   2
BRANCH   1  12
ATOM     12  C   UNL     1      99.288   3.256  26.385  1.00  0.00     0.000 C 
BRANCH  12  13
ATOM     13  C   UNL     1      97.757   3.442  26.432  1.00  0.00    -0.000 C 
BRANCH  13  14
ATOM     14  C   UNL     1      96.967   2.607  25.410  1.00  0.00    -0.000 C 
BRANCH  14  15
ATOM     15  C   UNL     1      96.305   3.471  24.322  1.00  0.00    -0.000 C 
BRANCH  15  16
ATOM     16  C   UNL     1      95.916   4.866  24.832  1.00  0.00    -0.000 C 
BRANCH  16  17
ATOM     17  C   UNL     1      95.674   5.868  23.689  1.00  0.00    -0.000 C 
BRANCH  17  18
ATOM     18  C   UNL     1      96.922   6.727  23.393  1.00  0.00    -0.000 C 
BRANCH  18  19
ATOM     19  C   UNL     1      97.724   6.245  22.173  1.00  0.00    -0.003 C 
ATOM     20  C   UNL     1      98.920   5.375  22.548  1.00  0.00     0.004 C 
ENDBRANCH  18  19
ENDBRANCH  17  18
ENDBRANCH  16  17
ENDBRANCH  15  16
ENDBRANCH  14  15
ENDBRANCH  13  14
ENDBRANCH  12  13
ENDBRANCH   1  12
TORSDOF 16
ENDMDL
MODEL 6
REMARK VINA RESULT:    -4.252      2.781      5.881
REMARK INTER + INTRA:         -10.676
REMARK INTER:                  -8.060
REMARK INTRA:                  -2.616
REMARK UNBOUND:                -2.447
REMARK SMILES CCCCCCCCCCCCCCCCCC(=O)[O-]
REMARK SMILES IDX 10 1 11 2 12 3 13 4 14 5 15 6 16 7 17 8 18 9 19 10 20 11
REMARK SMILES IDX 9 12 8 13 7 14 6 15 5 16 4 17 3 18 2 19 1 20
REMARK H PARENT
REMARK Flexibility Score: inf
ROOT
ATOM      1  C   UNL     1     102.345   3.156  26.912  1.00  0.00     0.000 C 
ENDROOT
BRANCH   1   2
ATOM      2  C   UNL     1     103.846   2.969  26.641  1.00  0.00     0.000 C 
BRANCH   2   3
ATOM      3  C   UNL     1     104.179   2.876  25.140  1.00  0.00     0.000 C 
BRANCH   3   4
ATOM      4  C   UNL     1     104.459   1.457  24.610  1.00  0.00     0.000 C 
BRANCH   4   5
ATOM      5  C   UNL     1     103.423   0.987  23.574  1.00  0.00     0.000 C 
BRANCH   5   6
ATOM      6  C   UNL     1     102.258   1.979  23.398  1.00  0.00     0.000 C 
BRANCH   6   7
ATOM      7  C   UNL     1     100.848   1.357  23.455  1.00  0.00     0.006 C 
BRANCH   7   8
ATOM      8  C   UNL     1     100.535   0.598  24.755  1.00  0.00     0.053 C 
BRANCH   8   9
ATOM      9  C   UNL     1     100.347  -0.869  24.516  1.00  0.00     0.041 C 
ATOM     10  O   UNL     1     100.107  -1.641  25.481  1.00  0.00    -0.550 OA
ATOM     11  O   UNL     1     100.471  -1.388  23.233  1.00  0.00    -0.550 OA
ENDBRANCH   8   9
ENDBRANCH   7   8
ENDBRANCH   6   7
ENDBRANCH   5   6
ENDBRANCH   4   5
ENDBRANCH   3   4
ENDBRANCH   2   3
ENDBRANCH   1   2
BRANCH   1  12
ATOM     12  C   UNL     1     101.767   4.417  26.242  1.00  0.00     0.000 C 
BRANCH  12  13
ATOM     13  C   UNL     1     100.432   4.924  26.826  1.00  0.00    -0.000 C 
BRANCH  13  14
ATOM     14  C   UNL     1      99.351   3.846  27.013  1.00  0.00    -0.000 C 
BRANCH  14  15
ATOM     15  C   UNL     1      97.979   4.438  27.382  1.00  0.00    -0.000 C 
BRANCH  15  16
ATOM     16  C   UNL     1      96.985   4.397  26.211  1.00  0.00    -0.000 C 
BRANCH  16  17
ATOM     17  C   UNL     1      97.052   3.077  25.423  1.00  0.00    -0.000 C 
BRANCH  17  18
ATOM     18  C   UNL     1      97.220   3.311  23.907  1.00  0.00    -0.000 C 
BRANCH  18  19
ATOM     19  C   UNL     1      97.817   4.686  23.560  1.00  0.00    -0.003 C 
ATOM     20  C   UNL     1      99.311   4.629  23.255  1.00  0.00     0.004 C 
ENDBRANCH  18  19
ENDBRANCH  17  18
ENDBRANCH  16  17
ENDBRANCH  15  16
ENDBRANCH  14  15
ENDBRANCH  13  14
ENDBRANCH  12  13
ENDBRANCH   1  12
TORSDOF 16
ENDMDL
MODEL 7
REMARK VINA RESULT:    -4.216      2.076      4.410
REMARK INTER + INTRA:         -10.607
REMARK INTER:                  -7.802
REMARK INTRA:                  -2.805
REMARK UNBOUND:                -2.447
REMARK SMILES CCCCCCCCCCCCCCCCCC(=O)[O-]
REMARK SMILES IDX 10 1 11 2 12 3 13 4 14 5 15 6 16 7 17 8 18 9 19 10 20 11
REMARK SMILES IDX 9 12 8 13 7 14 6 15 5 16 4 17 3 18 2 19 1 20
REMARK H PARENT
REMARK Flexibility Score: inf
ROOT
ATOM      1  C   UNL     1      97.991   3.758  27.652  1.00  0.00     0.000 C 
ENDROOT
BRANCH   1   2
ATOM      2  C   UNL     1      97.491   2.996  26.414  1.00  0.00     0.000 C 
BRANCH   2   3
ATOM      3  C   UNL     1      98.635   2.512  25.503  1.00  0.00     0.000 C 
BRANCH   3   4
ATOM      4  C   UNL     1      98.449   2.795  24.000  1.00  0.00     0.000 C 
BRANCH   4   5
ATOM      5  C   UNL     1      99.063   4.135  23.560  1.00  0.00     0.000 C 
BRANCH   5   6
ATOM      6  C   UNL     1      98.010   5.241  23.361  1.00  0.00     0.000 C 
BRANCH   6   7
ATOM      7  C   UNL     1      96.542   4.786  23.494  1.00  0.00     0.006 C 
BRANCH   7   8
ATOM      8  C   UNL     1      95.630   5.774  24.238  1.00  0.00     0.053 C 
BRANCH   8   9
ATOM      9  C   UNL     1      95.369   7.011  23.433  1.00  0.00     0.041 C 
ATOM     10  O   UNL     1      95.986   8.077  23.693  1.00  0.00    -0.550 OA
ATOM     11  O   UNL     1      94.418   6.995  22.420  1.00  0.00    -0.550 OA
ENDBRANCH   8   9
ENDBRANCH   7   8
ENDBRANCH   6   7
ENDBRANCH   5   6
ENDBRANCH   4   5
ENDBRANCH   3   4
ENDBRANCH   2   3
ENDBRANCH   1   2
BRANCH   1  12
ATOM     12  C   UNL     1      97.867   5.286  27.505  1.00  0.00     0.000 C 
BRANCH  12  13
ATOM     13  C   UNL     1      99.071   5.987  26.842  1.00  0.00    -0.000 C 
BRANCH  13  14
ATOM     14  C   UNL     1     100.444   5.624  27.435  1.00  0.00    -0.000 C 
BRANCH  14  15
ATOM     15  C   UNL     1     101.324   4.829  26.455  1.00  0.00    -0.000 C 
BRANCH  15  16
ATOM     16  C   UNL     1     101.873   3.534  27.073  1.00  0.00    -0.000 C 
BRANCH  16  17
ATOM     17  C   UNL     1     102.860   2.807  26.143  1.00  0.00    -0.000 C 
BRANCH  17  18
ATOM     18  C   UNL     1     102.379   2.795  24.677  1.00  0.00    -0.000 C 
BRANCH  18  19
ATOM     19  C   UNL     1     101.981   1.398  24.171  1.00  0.00    -0.003 C 
ATOM     20  C   UNL     1     103.161   0.605  23.614  1.00  0.00     0.004 C 
ENDBRANCH  18  19
ENDBRANCH  17  18
ENDBRANCH  16  17
ENDBRANCH  15  16
ENDBRANCH  14  15
ENDBRANCH  13  14
ENDBRANCH  12  13
ENDBRANCH   1  12
TORSDOF 16
ENDMDL
MODEL 8
REMARK VINA RESULT:    -4.204      2.256      4.762
REMARK INTER + INTRA:         -10.582
REMARK INTER:                  -8.087
REMARK INTRA:                  -2.495
REMARK UNBOUND:                -2.447
REMARK SMILES CCCCCCCCCCCCCCCCCC(=O)[O-]
REMARK SMILES IDX 10 1 11 2 12 3 13 4 14 5 15 6 16 7 17 8 18 9 19 10 20 11
REMARK SMILES IDX 9 12 8 13 7 14 6 15 5 16 4 17 3 18 2 19 1 20
REMARK H PARENT
REMARK Flexibility Score: inf
ROOT
ATOM      1  C   UNL     1      99.344   4.751  24.439  1.00  0.00     0.000 C 
ENDROOT
BRANCH   1   2
ATOM      2  C   UNL     1      99.399   4.483  25.952  1.00  0.00     0.000 C 
BRANCH   2   3
ATOM      3  C   UNL     1      98.817   5.638  26.788  1.00  0.00     0.000 C 
BRANCH   3   4
ATOM      4  C   UNL     1      97.529   6.275  26.233  1.00  0.00     0.000 C 
BRANCH   4   5
ATOM      5  C   UNL     1      96.287   5.388  26.425  1.00  0.00     0.000 C 
BRANCH   5   6
ATOM      6  C   UNL     1      95.449   5.242  25.142  1.00  0.00     0.000 C 
BRANCH   6   7
ATOM      7  C   UNL     1      95.695   6.320  24.066  1.00  0.00     0.006 C 
BRANCH   7   8
ATOM      8  C   UNL     1      96.031   5.767  22.672  1.00  0.00     0.053 C 
BRANCH   8   9
ATOM      9  C   UNL     1      95.588   6.693  21.580  1.00  0.00     0.041 C 
ATOM     10  O   UNL     1      96.343   6.920  20.599  1.00  0.00    -0.550 OA
ATOM     11  O   UNL     1      94.357   7.331  21.664  1.00  0.00    -0.550 OA
ENDBRANCH   8   9
ENDBRANCH   7   8
ENDBRANCH   6   7
ENDBRANCH   5   6
ENDBRANCH   4   5
ENDBRANCH   3   4
ENDBRANCH   2   3
ENDBRANCH   1   2
BRANCH   1  12
ATOM     12  C   UNL     1      98.663   3.614  23.654  1.00  0.00     0.000 C 
BRANCH  12  13
ATOM     13  C   UNL     1      97.958   2.545  24.515  1.00  0.00    -0.000 C 
BRANCH  13  14
ATOM     14  C   UNL     1      98.462   1.106  24.310  1.00  0.00    -0.000 C 
BRANCH  14  15
ATOM     15  C   UNL     1      99.759   0.815  25.086  1.00  0.00    -0.000 C 
BRANCH  15  16
ATOM     16  C   UNL     1     100.705  -0.124  24.322  1.00  0.00    -0.000 C 
BRANCH  16  17
ATOM     17  C   UNL     1     102.086   0.506  24.069  1.00  0.00    -0.000 C 
BRANCH  17  18
ATOM     18  C   UNL     1     101.988   2.005  23.719  1.00  0.00    -0.000 C 
BRANCH  18  19
ATOM     19  C   UNL     1     102.630   2.925  24.771  1.00  0.00    -0.003 C 
ATOM     20  C   UNL     1     103.772   2.258  25.532  1.00  0.00     0.004 C 
ENDBRANCH  18  19
ENDBRANCH  17  18
ENDBRANCH  16  17
ENDBRANCH  15  16
ENDBRANCH  14  15
ENDBRANCH  13  14
ENDBRANCH  12  13
ENDBRANCH   1  12
TORSDOF 16
ENDMDL
MODEL 9
REMARK VINA RESULT:    -4.196      2.811      6.343
REMARK INTER + INTRA:         -10.567
REMARK INTER:                  -7.998
REMARK INTRA:                  -2.569
REMARK UNBOUND:                -2.447
REMARK SMILES CCCCCCCCCCCCCCCCCC(=O)[O-]
REMARK SMILES IDX 10 1 11 2 12 3 13 4 14 5 15 6 16 7 17 8 18 9 19 10 20 11
REMARK SMILES IDX 9 12 8 13 7 14 6 15 5 16 4 17 3 18 2 19 1 20
REMARK H PARENT
REMARK Flexibility Score: inf
ROOT
ATOM      1  C   UNL     1      98.453   3.989  27.490  1.00  0.00     0.000 C 
ENDROOT
BRANCH   1   2
ATOM      2  C   UNL     1      99.025   5.348  27.056  1.00  0.00     0.000 C 
BRANCH   2   3
ATOM      3  C   UNL     1     100.561   5.350  26.954  1.00  0.00     0.000 C 
BRANCH   3   4
ATOM      4  C   UNL     1     101.235   3.969  27.069  1.00  0.00     0.000 C 
BRANCH   4   5
ATOM      5  C   UNL     1     102.365   3.765  26.047  1.00  0.00     0.000 C 
BRANCH   5   6
ATOM      6  C   UNL     1     102.510   2.300  25.597  1.00  0.00     0.000 C 
BRANCH   6   7
ATOM      7  C   UNL     1     102.986   2.099  24.143  1.00  0.00     0.006 C 
BRANCH   7   8
ATOM      8  C   UNL     1     103.167   0.632  23.725  1.00  0.00     0.053 C 
BRANCH   8   9
ATOM      9  C   UNL     1     101.853  -0.053  23.501  1.00  0.00     0.041 C 
ATOM     10  O   UNL     1     100.921   0.545  22.903  1.00  0.00    -0.550 OA
ATOM     11  O   UNL     1     101.648  -1.340  23.982  1.00  0.00    -0.550 OA
ENDBRANCH   8   9
ENDBRANCH   7   8
ENDBRANCH   6   7
ENDBRANCH   5   6
ENDBRANCH   4   5
ENDBRANCH   3   4
ENDBRANCH   2   3
ENDBRANCH   1   2
BRANCH   1  12
ATOM     12  C   UNL     1      97.646   3.295  26.377  1.00  0.00     0.000 C 
BRANCH  12  13
ATOM     13  C   UNL     1      98.458   2.362  25.454  1.00  0.00    -0.000 C 
BRANCH  13  14
ATOM     14  C   UNL     1      98.475   2.766  23.970  1.00  0.00    -0.000 C 
BRANCH  14  15
ATOM     15  C   UNL     1      99.530   3.843  23.659  1.00  0.00    -0.000 C 
BRANCH  15  16
ATOM     16  C   UNL     1      98.960   5.005  22.831  1.00  0.00    -0.000 C 
BRANCH  16  17
ATOM     17  C   UNL     1      97.900   5.814  23.598  1.00  0.00    -0.000 C 
BRANCH  17  18
ATOM     18  C   UNL     1      96.478   5.582  23.047  1.00  0.00    -0.000 C 
BRANCH  18  19
ATOM     19  C   UNL     1      95.373   6.211  23.912  1.00  0.00    -0.003 C 
ATOM     20  C   UNL     1      95.298   5.613  25.315  1.00  0.00     0.004 C 
ENDBRANCH  18  19
ENDBRANCH  17  18
ENDBRANCH  16  17
ENDBRANCH  15  16
ENDBRANCH  14  15
ENDBRANCH  13  14
ENDBRANCH  12  13
ENDBRANCH   1  12
TORSDOF 16
ENDMDL
