MODEL 1
REMARK VINA RESULT:    -5.871      0.000      0.000
REMARK INTER + INTRA:          -6.386
REMARK INTER:                  -6.386
REMARK INTRA:                   0.000
REMARK UNBOUND:                 0.000
REMARK SMILES Cc1cc(O)c2c(c1)C(=O)c1cc(O)cc(O)c1C2=O
REMARK SMILES IDX 1 1 2 2 8 3 7 4 6 5 4 6 3 7 19 8 20 9 18 10 11 11 9 12 10 13
REMARK SMILES IDX 12 14 13 15 15 16 16 17 5 18 17 20 14 22
REMARK H PARENT 5 19 17 21 14 23
REMARK Flexibility Score: inf
ROOT
ATOM      1  C   UNL     1      12.338   2.635   3.574  1.00  0.00     0.044 C 
ATOM      2  C   UNL     1      11.004   2.001   3.837  1.00  0.00    -0.047 A 
ATOM      3  C   UNL     1      10.869   1.033   4.838  1.00  0.00     0.016 A 
ATOM      4  C   UNL     1       9.630   0.414   5.073  1.00  0.00     0.038 A 
ATOM      5  C   UNL     1       8.506   0.768   4.292  1.00  0.00     0.076 A 
ATOM      6  C   UNL     1       8.670   1.687   3.223  1.00  0.00     0.127 A 
ATOM      7  C   UNL     1       9.907   2.305   3.023  1.00  0.00     0.050 A 
ATOM      8  C   UNL     1       7.185   0.202   4.665  1.00  0.00     0.201 C 
ATOM      9  O   UNL     1       6.135   0.859   4.434  1.00  0.00    -0.288 OA
ATOM     10  C   UNL     1       7.116  -1.042   5.475  1.00  0.00     0.076 A 
ATOM     11  C   UNL     1       8.241  -1.395   6.253  1.00  0.00     0.041 A 
ATOM     12  C   UNL     1       9.497  -0.617   6.131  1.00  0.00     0.194 C 
ATOM     13  O   UNL     1      10.461  -0.847   6.911  1.00  0.00    -0.289 OA
ATOM     14  C   UNL     1       8.167  -2.486   7.135  1.00  0.00     0.059 A 
ATOM     15  C   UNL     1       6.992  -3.235   7.239  1.00  0.00     0.120 A 
ATOM     16  C   UNL     1       5.893  -2.914   6.443  1.00  0.00     0.093 A 
ATOM     17  C   UNL     1       5.948  -1.846   5.542  1.00  0.00     0.131 A 
ENDROOT
BRANCH   6  18
ATOM     18  O   UNL     1       7.647   1.984   2.321  1.00  0.00    -0.507 OA
ATOM     19  H   UNL     1       7.714   2.709   1.618  1.00  0.00     0.293 HD
ENDBRANCH   6  18
BRANCH  17  20
ATOM     20  O   UNL     1       4.842  -1.643   4.715  1.00  0.00    -0.507 OA
ATOM     21  H   UNL     1       4.807  -0.940   3.989  1.00  0.00     0.293 HD
ENDBRANCH  17  20
BRANCH  15  22
ATOM     22  O   UNL     1       6.910  -4.310   8.122  1.00  0.00    -0.508 OA
ATOM     23  H   UNL     1       6.022  -4.625   8.493  1.00  0.00     0.293 HD
ENDBRANCH  15  22
TORSDOF 3
ENDMDL
MODEL 2
REMARK VINA RESULT:    -5.829     15.998     18.734
REMARK INTER + INTRA:          -6.341
REMARK INTER:                  -6.341
REMARK INTRA:                   0.000
REMARK UNBOUND:                 0.000
REMARK SMILES Cc1cc(O)c2c(c1)C(=O)c1cc(O)cc(O)c1C2=O
REMARK SMILES IDX 1 1 2 2 8 3 7 4 6 5 4 6 3 7 19 8 20 9 18 10 11 11 9 12 10 13
REMARK SMILES IDX 12 14 13 15 15 16 16 17 5 18 17 20 14 22
REMARK H PARENT 5 19 17 21 14 23
REMARK Flexibility Score: inf
ROOT
ATOM      1  C   UNL     1      -4.716 -12.451   1.514  1.00  0.00     0.044 C 
ATOM      2  C   UNL     1      -3.815 -12.155   0.352  1.00  0.00    -0.047 A 
ATOM      3  C   UNL     1      -4.222 -12.462  -0.951  1.00  0.00     0.016 A 
ATOM      4  C   UNL     1      -3.375 -12.215  -2.044  1.00  0.00     0.038 A 
ATOM      5  C   UNL     1      -2.096 -11.652  -1.829  1.00  0.00     0.076 A 
ATOM      6  C   UNL     1      -1.656 -11.422  -0.500  1.00  0.00     0.127 A 
ATOM      7  C   UNL     1      -2.526 -11.656   0.569  1.00  0.00     0.050 A 
ATOM      8  C   UNL     1      -1.289 -11.269  -3.016  1.00  0.00     0.201 C 
ATOM      9  O   UNL     1      -0.481 -10.306  -2.940  1.00  0.00    -0.288 OA
ATOM     10  C   UNL     1      -1.571 -11.895  -4.334  1.00  0.00     0.076 A 
ATOM     11  C   UNL     1      -2.849 -12.460  -4.545  1.00  0.00     0.041 A 
ATOM     12  C   UNL     1      -3.811 -12.551  -3.420  1.00  0.00     0.194 C 
ATOM     13  O   UNL     1      -4.994 -12.937  -3.630  1.00  0.00    -0.289 OA
ATOM     14  C   UNL     1      -3.201 -12.938  -5.818  1.00  0.00     0.059 A 
ATOM     15  C   UNL     1      -2.291 -12.873  -6.877  1.00  0.00     0.120 A 
ATOM     16  C   UNL     1      -1.015 -12.353  -6.662  1.00  0.00     0.093 A 
ATOM     17  C   UNL     1      -0.633 -11.889  -5.399  1.00  0.00     0.131 A 
ENDROOT
BRANCH   6  18
ATOM     18  O   UNL     1      -0.361 -10.998  -0.196  1.00  0.00    -0.507 OA
ATOM     19  H   UNL     1      -0.084 -10.655   0.713  1.00  0.00     0.293 HD
ENDBRANCH   6  18
BRANCH  17  20
ATOM     20  O   UNL     1       0.689 -11.469  -5.240  1.00  0.00    -0.507 OA
ATOM     21  H   UNL     1       1.233 -11.638  -4.405  1.00  0.00     0.293 HD
ENDBRANCH  17  20
BRANCH  15  22
ATOM     22  O   UNL     1      -2.640 -13.334  -8.144  1.00  0.00    -0.508 OA
ATOM     23  H   UNL     1      -2.421 -14.276  -8.445  1.00  0.00     0.293 HD
ENDBRANCH  15  22
TORSDOF 3
ENDMDL
MODEL 3
REMARK VINA RESULT:    -5.829      5.187      6.923
REMARK INTER + INTRA:          -6.340
REMARK INTER:                  -6.340
REMARK INTRA:                   0.000
REMARK UNBOUND:                 0.000
REMARK SMILES Cc1cc(O)c2c(c1)C(=O)c1cc(O)cc(O)c1C2=O
REMARK SMILES IDX 1 1 2 2 8 3 7 4 6 5 4 6 3 7 19 8 20 9 18 10 11 11 9 12 10 13
REMARK SMILES IDX 12 14 13 15 15 16 16 17 5 18 17 20 14 22
REMARK H PARENT 5 19 17 21 14 23
REMARK Flexibility Score: inf
ROOT
ATOM      1  C   UNL     1       9.003   6.090   4.320  1.00  0.00     0.044 C 
ATOM      2  C   UNL     1       9.884   5.257   3.436  1.00  0.00    -0.047 A 
ATOM      3  C   UNL     1      10.351   4.014   3.878  1.00  0.00     0.016 A 
ATOM      4  C   UNL     1      11.198   3.239   3.070  1.00  0.00     0.038 A 
ATOM      5  C   UNL     1      11.586   3.715   1.796  1.00  0.00     0.076 A 
ATOM      6  C   UNL     1      11.177   5.012   1.390  1.00  0.00     0.127 A 
ATOM      7  C   UNL     1      10.317   5.755   2.203  1.00  0.00     0.050 A 
ATOM      8  C   UNL     1      12.359   2.806   0.912  1.00  0.00     0.201 C 
ATOM      9  O   UNL     1      12.243   2.900  -0.339  1.00  0.00    -0.288 OA
ATOM     10  C   UNL     1      13.117   1.671   1.501  1.00  0.00     0.076 A 
ATOM     11  C   UNL     1      12.729   1.199   2.775  1.00  0.00     0.041 A 
ATOM     12  C   UNL     1      11.696   1.926   3.549  1.00  0.00     0.194 C 
ATOM     13  O   UNL     1      11.256   1.441   4.628  1.00  0.00    -0.289 OA
ATOM     14  C   UNL     1      13.329   0.044   3.305  1.00  0.00     0.059 A 
ATOM     15  C   UNL     1      14.319  -0.634   2.587  1.00  0.00     0.120 A 
ATOM     16  C   UNL     1      14.732  -0.148   1.348  1.00  0.00     0.093 A 
ATOM     17  C   UNL     1      14.165   1.011   0.807  1.00  0.00     0.131 A 
ENDROOT
BRANCH   6  18
ATOM     18  O   UNL     1      11.628   5.610   0.211  1.00  0.00    -0.507 OA
ATOM     19  H   UNL     1      11.092   6.290  -0.311  1.00  0.00     0.293 HD
ENDBRANCH   6  18
BRANCH  17  20
ATOM     20  O   UNL     1      14.694   1.488  -0.394  1.00  0.00    -0.507 OA
ATOM     21  H   UNL     1      14.277   2.235  -0.931  1.00  0.00     0.293 HD
ENDBRANCH  17  20
BRANCH  15  22
ATOM     22  O   UNL     1      14.907  -1.786   3.104  1.00  0.00    -0.508 OA
ATOM     23  H   UNL     1      15.840  -1.774   3.499  1.00  0.00     0.293 HD
ENDBRANCH  15  22
TORSDOF 3
ENDMDL
MODEL 4
REMARK VINA RESULT:    -5.791      1.381      2.080
REMARK INTER + INTRA:          -6.298
REMARK INTER:                  -6.298
REMARK INTRA:                   0.000
REMARK UNBOUND:                 0.000
REMARK SMILES Cc1cc(O)c2c(c1)C(=O)c1cc(O)cc(O)c1C2=O
REMARK SMILES IDX 1 1 2 2 8 3 7 4 6 5 4 6 3 7 19 8 20 9 18 10 11 11 9 12 10 13
REMARK SMILES IDX 12 14 13 15 15 16 16 17 5 18 17 20 14 22
REMARK H PARENT 5 19 17 21 14 23
REMARK Flexibility Score: inf
ROOT
ATOM      1  C   UNL     1      11.008   1.340   4.404  1.00  0.00     0.044 C 
ATOM      2  C   UNL     1       9.634   0.835   4.737  1.00  0.00    -0.047 A 
ATOM      3  C   UNL     1       9.477  -0.324   5.504  1.00  0.00     0.016 A 
ATOM      4  C   UNL     1       8.196  -0.820   5.798  1.00  0.00     0.038 A 
ATOM      5  C   UNL     1       7.052  -0.145   5.315  1.00  0.00     0.076 A 
ATOM      6  C   UNL     1       7.220   0.981   4.468  1.00  0.00     0.127 A 
ATOM      7  C   UNL     1       8.505   1.468   4.207  1.00  0.00     0.050 A 
ATOM      8  C   UNL     1       5.717  -0.613   5.767  1.00  0.00     0.201 C 
ATOM      9  O   UNL     1       4.767   0.208   5.869  1.00  0.00    -0.288 OA
ATOM     10  C   UNL     1       5.554  -1.999   6.277  1.00  0.00     0.076 A 
ATOM     11  C   UNL     1       6.700  -2.673   6.757  1.00  0.00     0.041 A 
ATOM     12  C   UNL     1       8.038  -2.055   6.605  1.00  0.00     0.194 C 
ATOM     13  O   UNL     1       9.047  -2.591   7.141  1.00  0.00    -0.289 OA
ATOM     14  C   UNL     1       6.566  -3.929   7.371  1.00  0.00     0.059 A 
ATOM     15  C   UNL     1       5.308  -4.526   7.499  1.00  0.00     0.120 A 
ATOM     16  C   UNL     1       4.181  -3.882   6.992  1.00  0.00     0.093 A 
ATOM     17  C   UNL     1       4.290  -2.641   6.357  1.00  0.00     0.131 A 
ENDROOT
BRANCH   6  18
ATOM     18  O   UNL     1       6.149   1.619   3.839  1.00  0.00    -0.507 OA
ATOM     19  H   UNL     1       5.309   1.906   4.323  1.00  0.00     0.293 HD
ENDBRANCH   6  18
BRANCH  17  20
ATOM     20  O   UNL     1       3.132  -2.101   5.793  1.00  0.00    -0.507 OA
ATOM     21  H   UNL     1       2.232  -2.561   5.816  1.00  0.00     0.293 HD
ENDBRANCH  17  20
BRANCH  15  22
ATOM     22  O   UNL     1       5.170  -5.765   8.120  1.00  0.00    -0.508 OA
ATOM     23  H   UNL     1       4.278  -6.245   8.156  1.00  0.00     0.293 HD
ENDBRANCH  15  22
TORSDOF 3
ENDMDL
MODEL 5
REMARK VINA RESULT:    -5.624     15.704     18.304
REMARK INTER + INTRA:          -6.117
REMARK INTER:                  -6.117
REMARK INTRA:                   0.000
REMARK UNBOUND:                 0.000
REMARK SMILES Cc1cc(O)c2c(c1)C(=O)c1cc(O)cc(O)c1C2=O
REMARK SMILES IDX 1 1 2 2 8 3 7 4 6 5 4 6 3 7 19 8 20 9 18 10 11 11 9 12 10 13
REMARK SMILES IDX 12 14 13 15 15 16 16 17 5 18 17 20 14 22
REMARK H PARENT 5 19 17 21 14 23
REMARK Flexibility Score: inf
ROOT
ATOM      1  C   UNL     1      -5.125 -12.349  -7.777  1.00  0.00     0.044 C 
ATOM      2  C   UNL     1      -4.115 -12.096  -6.697  1.00  0.00    -0.047 A 
ATOM      3  C   UNL     1      -4.416 -12.401  -5.365  1.00  0.00     0.016 A 
ATOM      4  C   UNL     1      -3.488 -12.141  -4.343  1.00  0.00     0.038 A 
ATOM      5  C   UNL     1      -2.236 -11.566  -4.659  1.00  0.00     0.076 A 
ATOM      6  C   UNL     1      -1.970 -11.182  -5.999  1.00  0.00     0.127 A 
ATOM      7  C   UNL     1      -2.901 -11.469  -7.001  1.00  0.00     0.050 A 
ATOM      8  C   UNL     1      -1.227 -11.443  -3.577  1.00  0.00     0.201 C 
ATOM      9  O   UNL     1       0.001 -11.499  -3.855  1.00  0.00    -0.288 OA
ATOM     10  C   UNL     1      -1.663 -11.445  -2.156  1.00  0.00     0.076 A 
ATOM     11  C   UNL     1      -2.917 -12.018  -1.843  1.00  0.00     0.041 A 
ATOM     12  C   UNL     1      -3.819 -12.459  -2.933  1.00  0.00     0.194 C 
ATOM     13  O   UNL     1      -4.881 -13.085  -2.660  1.00  0.00    -0.289 OA
ATOM     14  C   UNL     1      -3.304 -12.163  -0.501  1.00  0.00     0.059 A 
ATOM     15  C   UNL     1      -2.465 -11.730   0.530  1.00  0.00     0.120 A 
ATOM     16  C   UNL     1      -1.246 -11.128   0.224  1.00  0.00     0.093 A 
ATOM     17  C   UNL     1      -0.846 -10.953  -1.104  1.00  0.00     0.131 A 
ENDROOT
BRANCH   6  18
ATOM     18  O   UNL     1      -0.819 -10.485  -6.369  1.00  0.00    -0.507 OA
ATOM     19  H   UNL     1      -0.223 -10.000  -5.712  1.00  0.00     0.293 HD
ENDBRANCH   6  18
BRANCH  17  20
ATOM     20  O   UNL     1       0.344 -10.260  -1.334  1.00  0.00    -0.507 OA
ATOM     21  H   UNL     1       1.100 -10.618  -1.901  1.00  0.00     0.293 HD
ENDBRANCH  17  20
BRANCH  15  22
ATOM     22  O   UNL     1      -2.840 -11.883   1.863  1.00  0.00    -0.508 OA
ATOM     23  H   UNL     1      -2.383 -12.554   2.469  1.00  0.00     0.293 HD
ENDBRANCH  15  22
TORSDOF 3
ENDMDL
MODEL 6
REMARK VINA RESULT:    -5.482      1.537      2.609
REMARK INTER + INTRA:          -5.963
REMARK INTER:                  -5.963
REMARK INTRA:                   0.000
REMARK UNBOUND:                 0.000
REMARK SMILES Cc1cc(O)c2c(c1)C(=O)c1cc(O)cc(O)c1C2=O
REMARK SMILES IDX 1 1 2 2 8 3 7 4 6 5 4 6 3 7 19 8 20 9 18 10 11 11 9 12 10 13
REMARK SMILES IDX 12 14 13 15 15 16 16 17 5 18 17 20 14 22
REMARK H PARENT 5 19 17 21 14 23
REMARK Flexibility Score: inf
ROOT
ATOM      1  C   UNL     1      15.100   1.845   4.017  1.00  0.00     0.044 C 
ATOM      2  C   UNL     1      13.606   1.785   3.893  1.00  0.00    -0.047 A 
ATOM      3  C   UNL     1      12.854   1.026   4.797  1.00  0.00     0.016 A 
ATOM      4  C   UNL     1      11.458   0.940   4.673  1.00  0.00     0.038 A 
ATOM      5  C   UNL     1      10.801   1.625   3.625  1.00  0.00     0.076 A 
ATOM      6  C   UNL     1      11.576   2.324   2.663  1.00  0.00     0.127 A 
ATOM      7  C   UNL     1      12.963   2.412   2.820  1.00  0.00     0.050 A 
ATOM      8  C   UNL     1       9.316   1.633   3.613  1.00  0.00     0.201 C 
ATOM      9  O   UNL     1       8.698   2.615   3.122  1.00  0.00    -0.288 OA
ATOM     10  C   UNL     1       8.566   0.577   4.343  1.00  0.00     0.076 A 
ATOM     11  C   UNL     1       9.226  -0.109   5.388  1.00  0.00     0.041 A 
ATOM     12  C   UNL     1      10.670   0.127   5.629  1.00  0.00     0.194 C 
ATOM     13  O   UNL     1      11.233  -0.385   6.636  1.00  0.00    -0.289 OA
ATOM     14  C   UNL     1       8.512  -1.014   6.190  1.00  0.00     0.059 A 
ATOM     15  C   UNL     1       7.155  -1.254   5.953  1.00  0.00     0.120 A 
ATOM     16  C   UNL     1       6.512  -0.610   4.898  1.00  0.00     0.093 A 
ATOM     17  C   UNL     1       7.205   0.281   4.072  1.00  0.00     0.131 A 
ENDROOT
BRANCH   6  18
ATOM     18  O   UNL     1      11.018   2.909   1.525  1.00  0.00    -0.507 OA
ATOM     19  H   UNL     1      10.694   3.867   1.491  1.00  0.00     0.293 HD
ENDBRANCH   6  18
BRANCH  17  20
ATOM     20  O   UNL     1       6.517   0.817   2.981  1.00  0.00    -0.507 OA
ATOM     21  H   UNL     1       6.943   0.988   2.081  1.00  0.00     0.293 HD
ENDBRANCH  17  20
BRANCH  15  22
ATOM     22  O   UNL     1       6.441  -2.142   6.755  1.00  0.00    -0.508 OA
ATOM     23  H   UNL     1       6.048  -1.856   7.643  1.00  0.00     0.293 HD
ENDBRANCH  15  22
TORSDOF 3
ENDMDL
MODEL 7
REMARK VINA RESULT:    -5.426      3.650      6.047
REMARK INTER + INTRA:          -5.902
REMARK INTER:                  -5.902
REMARK INTRA:                   0.000
REMARK UNBOUND:                 0.000
REMARK SMILES Cc1cc(O)c2c(c1)C(=O)c1cc(O)cc(O)c1C2=O
REMARK SMILES IDX 1 1 2 2 8 3 7 4 6 5 4 6 3 7 19 8 20 9 18 10 11 11 9 12 10 13
REMARK SMILES IDX 12 14 13 15 15 16 16 17 5 18 17 20 14 22
REMARK H PARENT 5 19 17 21 14 23
REMARK Flexibility Score: inf
ROOT
ATOM      1  C   UNL     1       7.267   0.048   6.429  1.00  0.00     0.044 C 
ATOM      2  C   UNL     1       6.456  -1.199   6.635  1.00  0.00    -0.047 A 
ATOM      3  C   UNL     1       7.093  -2.433   6.799  1.00  0.00     0.016 A 
ATOM      4  C   UNL     1       6.343  -3.610   6.965  1.00  0.00     0.038 A 
ATOM      5  C   UNL     1       4.931  -3.550   6.964  1.00  0.00     0.076 A 
ATOM      6  C   UNL     1       4.292  -2.308   6.712  1.00  0.00     0.127 A 
ATOM      7  C   UNL     1       5.060  -1.148   6.571  1.00  0.00     0.050 A 
ATOM      8  C   UNL     1       4.175  -4.787   7.288  1.00  0.00     0.201 C 
ATOM      9  O   UNL     1       3.051  -4.705   7.851  1.00  0.00    -0.288 OA
ATOM     10  C   UNL     1       4.825  -6.113   7.123  1.00  0.00     0.076 A 
ATOM     11  C   UNL     1       6.236  -6.170   7.121  1.00  0.00     0.041 A 
ATOM     12  C   UNL     1       7.026  -4.915   7.130  1.00  0.00     0.194 C 
ATOM     13  O   UNL     1       8.281  -4.960   7.255  1.00  0.00    -0.289 OA
ATOM     14  C   UNL     1       6.886  -7.416   7.104  1.00  0.00     0.059 A 
ATOM     15  C   UNL     1       6.146  -8.601   7.075  1.00  0.00     0.120 A 
ATOM     16  C   UNL     1       4.754  -8.548   7.037  1.00  0.00     0.093 A 
ATOM     17  C   UNL     1       4.083  -7.321   7.031  1.00  0.00     0.131 A 
ENDROOT
BRANCH   6  18
ATOM     18  O   UNL     1       2.909  -2.189   6.559  1.00  0.00    -0.507 OA
ATOM     19  H   UNL     1       2.454  -2.079   5.663  1.00  0.00     0.293 HD
ENDBRANCH   6  18
BRANCH  17  20
ATOM     20  O   UNL     1       2.693  -7.346   6.899  1.00  0.00    -0.507 OA
ATOM     21  H   UNL     1       2.215  -7.733   6.097  1.00  0.00     0.293 HD
ENDBRANCH  17  20
BRANCH  15  22
ATOM     22  O   UNL     1       6.787  -9.838   7.072  1.00  0.00    -0.508 OA
ATOM     23  H   UNL     1       7.702  -9.960   6.655  1.00  0.00     0.293 HD
ENDBRANCH  15  22
TORSDOF 3
ENDMDL
MODEL 8
REMARK VINA RESULT:    -5.417      2.161      2.527
REMARK INTER + INTRA:          -5.892
REMARK INTER:                  -5.892
REMARK INTRA:                   0.000
REMARK UNBOUND:                 0.000
REMARK SMILES Cc1cc(O)c2c(c1)C(=O)c1cc(O)cc(O)c1C2=O
REMARK SMILES IDX 1 1 2 2 8 3 7 4 6 5 4 6 3 7 19 8 20 9 18 10 11 11 9 12 10 13
REMARK SMILES IDX 12 14 13 15 15 16 16 17 5 18 17 20 14 22
REMARK H PARENT 5 19 17 21 14 23
REMARK Flexibility Score: inf
ROOT
ATOM      1  C   UNL     1       8.857   5.255   4.297  1.00  0.00     0.044 C 
ATOM      2  C   UNL     1       7.965   4.109   4.672  1.00  0.00    -0.047 A 
ATOM      3  C   UNL     1       8.509   2.944   5.224  1.00  0.00     0.016 A 
ATOM      4  C   UNL     1       7.685   1.855   5.552  1.00  0.00     0.038 A 
ATOM      5  C   UNL     1       6.292   1.932   5.324  1.00  0.00     0.076 A 
ATOM      6  C   UNL     1       5.758   3.082   4.686  1.00  0.00     0.127 A 
ATOM      7  C   UNL     1       6.595   4.161   4.388  1.00  0.00     0.050 A 
ATOM      8  C   UNL     1       5.437   0.823   5.819  1.00  0.00     0.201 C 
ATOM      9  O   UNL     1       4.249   1.055   6.168  1.00  0.00    -0.288 OA
ATOM     10  C   UNL     1       6.036  -0.513   6.078  1.00  0.00     0.076 A 
ATOM     11  C   UNL     1       7.429  -0.587   6.303  1.00  0.00     0.041 A 
ATOM     12  C   UNL     1       8.271   0.621   6.129  1.00  0.00     0.194 C 
ATOM     13  O   UNL     1       9.491   0.592   6.449  1.00  0.00    -0.289 OA
ATOM     14  C   UNL     1       8.011  -1.807   6.686  1.00  0.00     0.059 A 
ATOM     15  C   UNL     1       7.225  -2.953   6.832  1.00  0.00     0.120 A 
ATOM     16  C   UNL     1       5.857  -2.892   6.571  1.00  0.00     0.093 A 
ATOM     17  C   UNL     1       5.256  -1.695   6.169  1.00  0.00     0.131 A 
ENDROOT
BRANCH   6  18
ATOM     18  O   UNL     1       4.420   3.178   4.302  1.00  0.00    -0.507 OA
ATOM     19  H   UNL     1       3.661   2.733   4.801  1.00  0.00     0.293 HD
ENDBRANCH   6  18
BRANCH  17  20
ATOM     20  O   UNL     1       3.900  -1.734   5.838  1.00  0.00    -0.507 OA
ATOM     21  H   UNL     1       3.557  -1.896   4.901  1.00  0.00     0.293 HD
ENDBRANCH  17  20
BRANCH  15  22
ATOM     22  O   UNL     1       7.796  -4.161   7.223  1.00  0.00    -0.508 OA
ATOM     23  H   UNL     1       7.260  -5.021   7.242  1.00  0.00     0.293 HD
ENDBRANCH  15  22
TORSDOF 3
ENDMDL
MODEL 9
REMARK VINA RESULT:    -5.339      3.310      7.107
REMARK INTER + INTRA:          -5.807
REMARK INTER:                  -5.807
REMARK INTRA:                   0.000
REMARK UNBOUND:                 0.000
REMARK SMILES Cc1cc(O)c2c(c1)C(=O)c1cc(O)cc(O)c1C2=O
REMARK SMILES IDX 1 1 2 2 8 3 7 4 6 5 4 6 3 7 19 8 20 9 18 10 11 11 9 12 10 13
REMARK SMILES IDX 12 14 13 15 15 16 16 17 5 18 17 20 14 22
REMARK H PARENT 5 19 17 21 14 23
REMARK Flexibility Score: inf
ROOT
ATOM      1  C   UNL     1       6.919   3.133   4.844  1.00  0.00     0.044 C 
ATOM      2  C   UNL     1       8.263   2.487   4.676  1.00  0.00    -0.047 A 
ATOM      3  C   UNL     1       9.108   2.880   3.632  1.00  0.00     0.016 A 
ATOM      4  C   UNL     1      10.356   2.262   3.450  1.00  0.00     0.038 A 
ATOM      5  C   UNL     1      10.767   1.233   4.328  1.00  0.00     0.076 A 
ATOM      6  C   UNL     1       9.871   0.783   5.332  1.00  0.00     0.127 A 
ATOM      7  C   UNL     1       8.643   1.427   5.506  1.00  0.00     0.050 A 
ATOM      8  C   UNL     1      12.150   0.707   4.196  1.00  0.00     0.201 C 
ATOM      9  O   UNL     1      12.752   0.266   5.210  1.00  0.00    -0.288 OA
ATOM     10  C   UNL     1      12.885   0.876   2.915  1.00  0.00     0.076 A 
ATOM     11  C   UNL     1      12.470   1.904   2.038  1.00  0.00     0.041 A 
ATOM     12  C   UNL     1      11.242   2.678   2.336  1.00  0.00     0.194 C 
ATOM     13  O   UNL     1      10.936   3.676   1.626  1.00  0.00    -0.289 OA
ATOM     14  C   UNL     1      13.222   2.184   0.884  1.00  0.00     0.059 A 
ATOM     15  C   UNL     1      14.370   1.443   0.589  1.00  0.00     0.120 A 
ATOM     16  C   UNL     1      14.759   0.403   1.431  1.00  0.00     0.093 A 
ATOM     17  C   UNL     1      14.017   0.091   2.574  1.00  0.00     0.131 A 
ENDROOT
BRANCH   6  18
ATOM     18  O   UNL     1      10.144  -0.317   6.148  1.00  0.00    -0.507 OA
ATOM     19  H   UNL     1       9.672  -1.207   6.063  1.00  0.00     0.293 HD
ENDBRANCH   6  18
BRANCH  17  20
ATOM     20  O   UNL     1      14.416  -1.022   3.318  1.00  0.00    -0.507 OA
ATOM     21  H   UNL     1      14.513  -1.017   4.324  1.00  0.00     0.293 HD
ENDBRANCH  17  20
BRANCH  15  22
ATOM     22  O   UNL     1      15.124   1.726  -0.547  1.00  0.00    -0.508 OA
ATOM     23  H   UNL     1      15.761   1.046  -0.945  1.00  0.00     0.293 HD
ENDBRANCH  15  22
TORSDOF 3
ENDMDL
