MODEL 1
REMARK VINA RESULT:    -2.553      0.000      0.000
REMARK INTER + INTRA:          -5.454
REMARK INTER:                  -4.046
REMARK INTRA:                  -1.408
REMARK UNBOUND:                -1.408
REMARK SMILES CCCCCCCCCCCC=O
REMARK SMILES IDX 7 1 6 2 5 3 4 4 3 5 2 6 1 7 8 8 9 9 10 10 11 11 12 12 13 13
REMARK H PARENT
REMARK Flexibility Score: inf
ROOT
ATOM      1  C   UNL     1     138.477 132.759 140.986  1.00  0.00     0.000 C 
ENDROOT
BRANCH   1   2
ATOM      2  C   UNL     1     138.213 133.211 139.541  1.00  0.00     0.000 C 
BRANCH   2   3
ATOM      3  C   UNL     1     139.097 132.434 138.554  1.00  0.00    -0.000 C 
BRANCH   3   4
ATOM      4  C   UNL     1     140.569 132.356 138.998  1.00  0.00    -0.000 C 
BRANCH   4   5
ATOM      5  C   UNL     1     141.411 133.605 138.680  1.00  0.00    -0.000 C 
BRANCH   5   6
ATOM      6  C   UNL     1     141.904 134.332 139.941  1.00  0.00    -0.003 C 
ATOM      7  C   UNL     1     142.021 133.370 141.119  1.00  0.00     0.004 C 
ENDBRANCH   5   6
ENDBRANCH   4   5
ENDBRANCH   3   4
ENDBRANCH   2   3
ENDBRANCH   1   2
BRANCH   1   8
ATOM      8  C   UNL     1     138.457 133.928 141.984  1.00  0.00     0.000 C 
BRANCH   8   9
ATOM      9  C   UNL     1     138.688 135.290 141.305  1.00  0.00     0.000 C 
BRANCH   9  10
ATOM     10  C   UNL     1     139.693 136.167 142.068  1.00  0.00     0.008 C 
BRANCH  10  11
ATOM     11  C   UNL     1     139.921 135.687 143.508  1.00  0.00     0.072 C 
BRANCH  11  12
ATOM     12  C   UNL     1     139.145 136.519 144.486  1.00  0.00     0.224 C 
ATOM     13  O   UNL     1     138.970 137.707 144.270  1.00  0.00    -0.303 OA
ENDBRANCH  11  12
ENDBRANCH  10  11
ENDBRANCH   9  10
ENDBRANCH   8   9
ENDBRANCH   1   8
TORSDOF 10
ENDMDL
MODEL 2
REMARK VINA RESULT:    -2.447      7.581      9.722
REMARK INTER + INTRA:          -5.285
REMARK INTER:                  -4.193
REMARK INTRA:                  -1.091
REMARK UNBOUND:                -1.408
REMARK SMILES CCCCCCCCCCCC=O
REMARK SMILES IDX 7 1 6 2 5 3 4 4 3 5 2 6 1 7 8 8 9 9 10 10 11 11 12 12 13 13
REMARK H PARENT
REMARK Flexibility Score: inf
ROOT
ATOM      1  C   UNL     1     146.615 139.266 142.771  1.00  0.00     0.000 C 
ENDROOT
BRANCH   1   2
ATOM      2  C   UNL     1     145.767 140.000 143.821  1.00  0.00     0.000 C 
BRANCH   2   3
ATOM      3  C   UNL     1     145.177 139.012 144.838  1.00  0.00    -0.000 C 
BRANCH   3   4
ATOM      4  C   UNL     1     143.638 138.970 144.810  1.00  0.00    -0.000 C 
BRANCH   4   5
ATOM      5  C   UNL     1     142.991 139.645 143.588  1.00  0.00    -0.000 C 
BRANCH   5   6
ATOM      6  C   UNL     1     142.347 138.642 142.620  1.00  0.00    -0.003 C 
ATOM      7  C   UNL     1     142.587 139.046 141.168  1.00  0.00     0.004 C 
ENDBRANCH   5   6
ENDBRANCH   4   5
ENDBRANCH   3   4
ENDBRANCH   2   3
ENDBRANCH   1   2
BRANCH   1   8
ATOM      8  C   UNL     1     146.189 139.595 141.332  1.00  0.00     0.000 C 
BRANCH   8   9
ATOM      9  C   UNL     1     146.340 141.089 140.996  1.00  0.00     0.000 C 
BRANCH   9  10
ATOM     10  C   UNL     1     147.803 141.556 141.024  1.00  0.00     0.008 C 
BRANCH  10  11
ATOM     11  C   UNL     1     148.673 140.833 139.986  1.00  0.00     0.072 C 
BRANCH  11  12
ATOM     12  C   UNL     1     149.831 140.137 140.639  1.00  0.00     0.224 C 
ATOM     13  O   UNL     1     149.753 138.949 140.907  1.00  0.00    -0.303 OA
ENDBRANCH  11  12
ENDBRANCH  10  11
ENDBRANCH   9  10
ENDBRANCH   8   9
ENDBRANCH   1   8
TORSDOF 10
ENDMDL
MODEL 3
REMARK VINA RESULT:    -2.426      1.062      2.976
REMARK INTER + INTRA:          -5.253
REMARK INTER:                  -3.753
REMARK INTRA:                  -1.500
REMARK UNBOUND:                -1.408
REMARK SMILES CCCCCCCCCCCC=O
REMARK SMILES IDX 7 1 6 2 5 3 4 4 3 5 2 6 1 7 8 8 9 9 10 10 11 11 12 12 13 13
REMARK H PARENT
REMARK Flexibility Score: inf
ROOT
ATOM      1  C   UNL     1     141.434 134.757 139.647  1.00  0.00     0.000 C 
ENDROOT
BRANCH   1   2
ATOM      2  C   UNL     1     141.894 133.986 140.894  1.00  0.00     0.000 C 
BRANCH   2   3
ATOM      3  C   UNL     1     141.127 132.663 141.035  1.00  0.00    -0.000 C 
BRANCH   3   4
ATOM      4  C   UNL     1     140.137 132.417 139.882  1.00  0.00    -0.000 C 
BRANCH   4   5
ATOM      5  C   UNL     1     138.668 132.243 140.312  1.00  0.00    -0.000 C 
BRANCH   5   6
ATOM      6  C   UNL     1     138.037 133.545 140.826  1.00  0.00    -0.003 C 
ATOM      7  C   UNL     1     137.653 134.464 139.670  1.00  0.00     0.004 C 
ENDBRANCH   5   6
ENDBRANCH   4   5
ENDBRANCH   3   4
ENDBRANCH   2   3
ENDBRANCH   1   2
BRANCH   1   8
ATOM      8  C   UNL     1     140.953 136.179 139.976  1.00  0.00     0.000 C 
BRANCH   8   9
ATOM      9  C   UNL     1     141.023 136.495 141.481  1.00  0.00     0.000 C 
BRANCH   9  10
ATOM     10  C   UNL     1     139.635 136.543 142.138  1.00  0.00     0.008 C 
BRANCH  10  11
ATOM     11  C   UNL     1     139.568 135.723 143.434  1.00  0.00     0.072 C 
BRANCH  11  12
ATOM     12  C   UNL     1     139.120 136.569 144.589  1.00  0.00     0.224 C 
ATOM     13  O   UNL     1     138.952 137.768 144.436  1.00  0.00    -0.303 OA
ENDBRANCH  11  12
ENDBRANCH  10  11
ENDBRANCH   9  10
ENDBRANCH   8   9
ENDBRANCH   1   8
TORSDOF 10
ENDMDL
MODEL 4
REMARK VINA RESULT:    -2.426      7.468      9.093
REMARK INTER + INTRA:          -5.252
REMARK INTER:                  -4.123
REMARK INTRA:                  -1.129
REMARK UNBOUND:                -1.408
REMARK SMILES CCCCCCCCCCCC=O
REMARK SMILES IDX 7 1 6 2 5 3 4 4 3 5 2 6 1 7 8 8 9 9 10 10 11 11 12 12 13 13
REMARK H PARENT
REMARK Flexibility Score: inf
ROOT
ATOM      1  C   UNL     1     146.133 138.794 141.021  1.00  0.00     0.000 C 
ENDROOT
BRANCH   1   2
ATOM      2  C   UNL     1     147.617 138.566 141.345  1.00  0.00     0.000 C 
BRANCH   2   3
ATOM      3  C   UNL     1     148.517 139.276 140.323  1.00  0.00    -0.000 C 
BRANCH   3   4
ATOM      4  C   UNL     1     148.986 140.663 140.796  1.00  0.00    -0.000 C 
BRANCH   4   5
ATOM      5  C   UNL     1     148.002 141.813 140.513  1.00  0.00    -0.000 C 
BRANCH   5   6
ATOM      6  C   UNL     1     147.424 141.770 139.091  1.00  0.00    -0.003 C 
ATOM      7  C   UNL     1     145.904 141.901 139.110  1.00  0.00     0.004 C 
ENDBRANCH   5   6
ENDBRANCH   4   5
ENDBRANCH   3   4
ENDBRANCH   2   3
ENDBRANCH   1   2
BRANCH   1   8
ATOM      8  C   UNL     1     145.440 139.714 142.038  1.00  0.00     0.000 C 
BRANCH   8   9
ATOM      9  C   UNL     1     146.161 139.743 143.397  1.00  0.00     0.000 C 
BRANCH   9  10
ATOM     10  C   UNL     1     145.210 140.044 144.565  1.00  0.00     0.008 C 
BRANCH  10  11
ATOM     11  C   UNL     1     144.544 138.779 145.125  1.00  0.00     0.072 C 
BRANCH  11  12
ATOM     12  C   UNL     1     143.057 138.816 144.930  1.00  0.00     0.224 C 
ATOM     13  O   UNL     1     142.560 139.665 144.207  1.00  0.00    -0.303 OA
ENDBRANCH  11  12
ENDBRANCH  10  11
ENDBRANCH   9  10
ENDBRANCH   8   9
ENDBRANCH   1   8
TORSDOF 10
ENDMDL
MODEL 5
REMARK VINA RESULT:    -2.407      2.840      5.757
REMARK INTER + INTRA:          -5.222
REMARK INTER:                  -3.761
REMARK INTRA:                  -1.461
REMARK UNBOUND:                -1.408
REMARK SMILES CCCCCCCCCCCC=O
REMARK SMILES IDX 7 1 6 2 5 3 4 4 3 5 2 6 1 7 8 8 9 9 10 10 11 11 12 12 13 13
REMARK H PARENT
REMARK Flexibility Score: inf
ROOT
ATOM      1  C   UNL     1     138.761 136.917 145.091  1.00  0.00     0.000 C 
ENDROOT
BRANCH   1   2
ATOM      2  C   UNL     1     139.006 138.434 145.125  1.00  0.00     0.000 C 
BRANCH   2   3
ATOM      3  C   UNL     1     138.769 139.058 143.742  1.00  0.00    -0.000 C 
BRANCH   3   4
ATOM      4  C   UNL     1     140.075 139.452 143.029  1.00  0.00    -0.000 C 
BRANCH   4   5
ATOM      5  C   UNL     1     141.315 139.524 143.938  1.00  0.00    -0.000 C 
BRANCH   5   6
ATOM      6  C   UNL     1     142.526 138.776 143.360  1.00  0.00    -0.003 C 
ATOM      7  C   UNL     1     142.509 138.799 141.834  1.00  0.00     0.004 C 
ENDBRANCH   5   6
ENDBRANCH   4   5
ENDBRANCH   3   4
ENDBRANCH   2   3
ENDBRANCH   1   2
BRANCH   1   8
ATOM      8  C   UNL     1     140.002 136.128 144.642  1.00  0.00     0.000 C 
BRANCH   8   9
ATOM      9  C   UNL     1     139.748 135.301 143.369  1.00  0.00     0.000 C 
BRANCH   9  10
ATOM     10  C   UNL     1     140.367 135.938 142.117  1.00  0.00     0.008 C 
BRANCH  10  11
ATOM     11  C   UNL     1     139.316 136.299 141.057  1.00  0.00     0.072 C 
BRANCH  11  12
ATOM     12  C   UNL     1     138.591 135.078 140.574  1.00  0.00     0.224 C 
ATOM     13  O   UNL     1     139.210 134.178 140.032  1.00  0.00    -0.303 OA
ENDBRANCH  11  12
ENDBRANCH  10  11
ENDBRANCH   9  10
ENDBRANCH   8   9
ENDBRANCH   1   8
TORSDOF 10
ENDMDL
MODEL 6
REMARK VINA RESULT:    -2.399      6.895      9.272
REMARK INTER + INTRA:          -5.209
REMARK INTER:                  -4.064
REMARK INTRA:                  -1.145
REMARK UNBOUND:                -1.408
REMARK SMILES CCCCCCCCCCCC=O
REMARK SMILES IDX 7 1 6 2 5 3 4 4 3 5 2 6 1 7 8 8 9 9 10 10 11 11 12 12 13 13
REMARK H PARENT
REMARK Flexibility Score: inf
ROOT
ATOM      1  C   UNL     1     136.009 141.954 141.645  1.00  0.00     0.000 C 
ENDROOT
BRANCH   1   2
ATOM      2  C   UNL     1     135.264 142.079 142.983  1.00  0.00     0.000 C 
BRANCH   2   3
ATOM      3  C   UNL     1     136.253 142.206 144.151  1.00  0.00    -0.000 C 
BRANCH   3   4
ATOM      4  C   UNL     1     137.720 142.284 143.692  1.00  0.00    -0.000 C 
BRANCH   4   5
ATOM      5  C   UNL     1     138.691 141.372 144.462  1.00  0.00    -0.000 C 
BRANCH   5   6
ATOM      6  C   UNL     1     138.420 139.878 144.233  1.00  0.00    -0.003 C 
ATOM      7  C   UNL     1     138.644 139.496 142.772  1.00  0.00     0.004 C 
ENDBRANCH   5   6
ENDBRANCH   4   5
ENDBRANCH   3   4
ENDBRANCH   2   3
ENDBRANCH   1   2
BRANCH   1   8
ATOM      8  C   UNL     1     135.627 140.682 140.872  1.00  0.00     0.000 C 
BRANCH   8   9
ATOM      9  C   UNL     1     134.172 140.250 141.125  1.00  0.00     0.000 C 
BRANCH   9  10
ATOM     10  C   UNL     1     133.295 140.363 139.869  1.00  0.00     0.008 C 
BRANCH  10  11
ATOM     11  C   UNL     1     132.948 141.818 139.521  1.00  0.00     0.072 C 
BRANCH  11  12
ATOM     12  C   UNL     1     132.029 142.416 140.544  1.00  0.00     0.224 C 
ATOM     13  O   UNL     1     132.425 143.317 141.265  1.00  0.00    -0.303 OA
ENDBRANCH  11  12
ENDBRANCH  10  11
ENDBRANCH   9  10
ENDBRANCH   8   9
ENDBRANCH   1   8
TORSDOF 10
ENDMDL
MODEL 7
REMARK VINA RESULT:    -2.379      7.802     10.084
REMARK INTER + INTRA:          -5.177
REMARK INTER:                  -4.220
REMARK INTRA:                  -0.957
REMARK UNBOUND:                -1.408
REMARK SMILES CCCCCCCCCCCC=O
REMARK SMILES IDX 7 1 6 2 5 3 4 4 3 5 2 6 1 7 8 8 9 9 10 10 11 11 12 12 13 13
REMARK H PARENT
REMARK Flexibility Score: inf
ROOT
ATOM      1  C   UNL     1     145.213 140.800 141.161  1.00  0.00     0.000 C 
ENDROOT
BRANCH   1   2
ATOM      2  C   UNL     1     145.409 139.482 141.926  1.00  0.00     0.000 C 
BRANCH   2   3
ATOM      3  C   UNL     1     146.230 139.708 143.205  1.00  0.00    -0.000 C 
BRANCH   3   4
ATOM      4  C   UNL     1     145.362 140.094 144.415  1.00  0.00    -0.000 C 
BRANCH   4   5
ATOM      5  C   UNL     1     144.674 138.914 145.125  1.00  0.00    -0.000 C 
BRANCH   5   6
ATOM      6  C   UNL     1     143.163 138.853 144.856  1.00  0.00    -0.003 C 
ATOM      7  C   UNL     1     142.581 140.250 144.664  1.00  0.00     0.004 C 
ENDBRANCH   5   6
ENDBRANCH   4   5
ENDBRANCH   3   4
ENDBRANCH   2   3
ENDBRANCH   1   2
BRANCH   1   8
ATOM      8  C   UNL     1     146.256 140.999 140.050  1.00  0.00     0.000 C 
BRANCH   8   9
ATOM      9  C   UNL     1     147.450 141.857 140.507  1.00  0.00     0.000 C 
BRANCH   9  10
ATOM     10  C   UNL     1     148.699 141.016 140.812  1.00  0.00     0.008 C 
BRANCH  10  11
ATOM     11  C   UNL     1     149.057 140.055 139.669  1.00  0.00     0.072 C 
BRANCH  11  12
ATOM     12  C   UNL     1     149.138 138.638 140.156  1.00  0.00     0.224 C 
ATOM     13  O   UNL     1     148.969 138.391 141.339  1.00  0.00    -0.303 OA
ENDBRANCH  11  12
ENDBRANCH  10  11
ENDBRANCH   9  10
ENDBRANCH   8   9
ENDBRANCH   1   8
TORSDOF 10
ENDMDL
MODEL 8
REMARK VINA RESULT:    -2.348      2.403      5.653
REMARK INTER + INTRA:          -5.129
REMARK INTER:                  -4.013
REMARK INTRA:                  -1.116
REMARK UNBOUND:                -1.408
REMARK SMILES CCCCCCCCCCCC=O
REMARK SMILES IDX 7 1 6 2 5 3 4 4 3 5 2 6 1 7 8 8 9 9 10 10 11 11 12 12 13 13
REMARK H PARENT
REMARK Flexibility Score: inf
ROOT
ATOM      1  C   UNL     1     139.527 135.980 141.858  1.00  0.00     0.000 C 
ENDROOT
BRANCH   1   2
ATOM      2  C   UNL     1     139.714 135.318 143.232  1.00  0.00     0.000 C 
BRANCH   2   3
ATOM      3  C   UNL     1     139.363 136.295 144.364  1.00  0.00    -0.000 C 
BRANCH   3   4
ATOM      4  C   UNL     1     140.527 137.234 144.729  1.00  0.00    -0.000 C 
BRANCH   4   5
ATOM      5  C   UNL     1     140.328 138.705 144.320  1.00  0.00    -0.000 C 
BRANCH   5   6
ATOM      6  C   UNL     1     138.855 139.067 144.082  1.00  0.00    -0.003 C 
ATOM      7  C   UNL     1     138.629 139.537 142.648  1.00  0.00     0.004 C 
ENDBRANCH   5   6
ENDBRANCH   4   5
ENDBRANCH   3   4
ENDBRANCH   2   3
ENDBRANCH   1   2
BRANCH   1   8
ATOM      8  C   UNL     1     140.755 135.812 140.949  1.00  0.00     0.000 C 
BRANCH   8   9
ATOM      9  C   UNL     1     141.350 134.395 141.012  1.00  0.00     0.000 C 
BRANCH   9  10
ATOM     10  C   UNL     1     140.733 133.448 139.972  1.00  0.00     0.008 C 
BRANCH  10  11
ATOM     11  C   UNL     1     140.100 132.203 140.610  1.00  0.00     0.072 C 
BRANCH  11  12
ATOM     12  C   UNL     1     138.665 132.448 140.971  1.00  0.00     0.224 C 
ATOM     13  O   UNL     1     137.982 133.187 140.281  1.00  0.00    -0.303 OA
ENDBRANCH  11  12
ENDBRANCH  10  11
ENDBRANCH   9  10
ENDBRANCH   8   9
ENDBRANCH   1   8
TORSDOF 10
ENDMDL
