MODEL 1
REMARK VINA RESULT:    -5.099      0.000      0.000
REMARK INTER + INTRA:         -10.402
REMARK INTER:                  -9.571
REMARK INTRA:                  -0.831
REMARK UNBOUND:                -0.831
REMARK SMILES O=C([O-])CCCCCCCCCCCCCCC(=O)[O-]
REMARK SMILES IDX 10 1 9 2 8 3 7 4 6 5 5 6 4 7 2 8 1 9 3 10 11 11 12 12 13 13
REMARK SMILES IDX 14 14 15 15 16 16 17 17 18 18 19 19 20 20
REMARK H PARENT
REMARK Flexibility Score: inf
ROOT
ATOM      1  C   UNL     1      20.634  10.302  49.023  1.00  0.00     0.000 C 
ENDROOT
BRANCH   1   2
ATOM      2  C   UNL     1      20.044   9.282  50.005  1.00  0.00     0.000 C 
BRANCH   2   3
ATOM      3  C   UNL     1      18.921   9.907  50.845  1.00  0.00     0.000 C 
BRANCH   3   4
ATOM      4  C   UNL     1      17.525   9.401  50.422  1.00  0.00     0.000 C 
BRANCH   4   5
ATOM      5  C   UNL     1      17.522   7.941  49.938  1.00  0.00     0.000 C 
BRANCH   5   6
ATOM      6  C   UNL     1      16.116   7.320  49.923  1.00  0.00     0.006 C 
BRANCH   6   7
ATOM      7  C   UNL     1      15.800   6.633  48.588  1.00  0.00     0.053 C 
BRANCH   7   8
ATOM      8  C   UNL     1      16.051   7.540  47.423  1.00  0.00     0.041 C 
ATOM      9  O   UNL     1      16.998   7.304  46.629  1.00  0.00    -0.550 OA
ATOM     10  O   UNL     1      15.215   8.626  47.194  1.00  0.00    -0.550 OA
ENDBRANCH   7   8
ENDBRANCH   6   7
ENDBRANCH   5   6
ENDBRANCH   4   5
ENDBRANCH   3   4
ENDBRANCH   2   3
ENDBRANCH   1   2
BRANCH   1  11
ATOM     11  C   UNL     1      21.356  11.432  49.770  1.00  0.00     0.000 C 
BRANCH  11  12
ATOM     12  C   UNL     1      22.237  12.284  48.842  1.00  0.00     0.000 C 
BRANCH  12  13
ATOM     13  C   UNL     1      23.729  12.207  49.209  1.00  0.00     0.000 C 
BRANCH  13  14
ATOM     14  C   UNL     1      24.370  13.596  49.359  1.00  0.00     0.000 C 
BRANCH  14  15
ATOM     15  C   UNL     1      23.812  14.376  50.562  1.00  0.00     0.000 C 
BRANCH  15  16
ATOM     16  C   UNL     1      23.988  13.631  51.898  1.00  0.00     0.006 C 
BRANCH  16  17
ATOM     17  C   UNL     1      25.262  14.022  52.667  1.00  0.00     0.053 C 
BRANCH  17  18
ATOM     18  C   UNL     1      25.257  13.533  54.084  1.00  0.00     0.041 C 
ATOM     19  O   UNL     1      24.707  14.213  54.990  1.00  0.00    -0.550 OA
ATOM     20  O   UNL     1      25.887  12.339  54.409  1.00  0.00    -0.550 OA
ENDBRANCH  17  18
ENDBRANCH  16  17
ENDBRANCH  15  16
ENDBRANCH  14  15
ENDBRANCH  13  14
ENDBRANCH  12  13
ENDBRANCH  11  12
ENDBRANCH   1  11
TORSDOF 15
ENDMDL
MODEL 2
REMARK VINA RESULT:    -5.039      1.136     10.277
REMARK INTER + INTRA:         -10.289
REMARK INTER:                  -9.650
REMARK INTRA:                  -0.639
REMARK UNBOUND:                -0.831
REMARK SMILES O=C([O-])CCCCCCCCCCCCCCC(=O)[O-]
REMARK SMILES IDX 10 1 9 2 8 3 7 4 6 5 5 6 4 7 2 8 1 9 3 10 11 11 12 12 13 13
REMARK SMILES IDX 14 14 15 15 16 16 17 17 18 18 19 19 20 20
REMARK H PARENT
REMARK Flexibility Score: inf
ROOT
ATOM      1  C   UNL     1      21.725  11.612  49.708  1.00  0.00     0.000 C 
ENDROOT
BRANCH   1   2
ATOM      2  C   UNL     1      22.446  12.320  48.555  1.00  0.00     0.000 C 
BRANCH   2   3
ATOM      3  C   UNL     1      22.803  13.766  48.930  1.00  0.00     0.000 C 
BRANCH   3   4
ATOM      4  C   UNL     1      22.810  13.988  50.458  1.00  0.00     0.000 C 
BRANCH   4   5
ATOM      5  C   UNL     1      24.221  14.146  51.050  1.00  0.00     0.000 C 
BRANCH   5   6
ATOM      6  C   UNL     1      24.357  13.522  52.447  1.00  0.00     0.006 C 
BRANCH   6   7
ATOM      7  C   UNL     1      25.683  13.894  53.123  1.00  0.00     0.053 C 
BRANCH   7   8
ATOM      8  C   UNL     1      25.466  14.532  54.460  1.00  0.00     0.041 C 
ATOM      9  O   UNL     1      26.356  15.267  54.963  1.00  0.00    -0.550 OA
ATOM     10  O   UNL     1      24.266  14.344  55.134  1.00  0.00    -0.550 OA
ENDBRANCH   7   8
ENDBRANCH   6   7
ENDBRANCH   5   6
ENDBRANCH   4   5
ENDBRANCH   3   4
ENDBRANCH   2   3
ENDBRANCH   1   2
BRANCH   1  11
ATOM     11  C   UNL     1      20.580  10.733  49.185  1.00  0.00     0.000 C 
BRANCH  11  12
ATOM     12  C   UNL     1      19.603  10.313  50.294  1.00  0.00     0.000 C 
BRANCH  12  13
ATOM     13  C   UNL     1      19.001   8.918  50.054  1.00  0.00     0.000 C 
BRANCH  13  14
ATOM     14  C   UNL     1      17.583   8.983  49.465  1.00  0.00     0.000 C 
BRANCH  14  15
ATOM     15  C   UNL     1      16.631   7.957  50.103  1.00  0.00     0.000 C 
BRANCH  15  16
ATOM     16  C   UNL     1      16.166   6.871  49.116  1.00  0.00     0.006 C 
BRANCH  16  17
ATOM     17  C   UNL     1      16.643   7.097  47.670  1.00  0.00     0.053 C 
BRANCH  17  18
ATOM     18  C   UNL     1      15.597   7.742  46.811  1.00  0.00     0.041 C 
ATOM     19  O   UNL     1      15.926   8.350  45.758  1.00  0.00    -0.550 OA
ATOM     20  O   UNL     1      14.262   7.698  47.190  1.00  0.00    -0.550 OA
ENDBRANCH  17  18
ENDBRANCH  16  17
ENDBRANCH  15  16
ENDBRANCH  14  15
ENDBRANCH  13  14
ENDBRANCH  12  13
ENDBRANCH  11  12
ENDBRANCH   1  11
TORSDOF 15
ENDMDL
MODEL 3
REMARK VINA RESULT:    -5.034      3.677      4.460
REMARK INTER + INTRA:         -10.279
REMARK INTER:                  -9.632
REMARK INTRA:                  -0.647
REMARK UNBOUND:                -0.831
REMARK SMILES O=C([O-])CCCCCCCCCCCCCCC(=O)[O-]
REMARK SMILES IDX 10 1 9 2 8 3 7 4 6 5 5 6 4 7 2 8 1 9 3 10 11 11 12 12 13 13
REMARK SMILES IDX 14 14 15 15 16 16 17 17 18 18 19 19 20 20
REMARK H PARENT
REMARK Flexibility Score: inf
ROOT
ATOM      1  C   UNL     1      19.230  10.199  49.609  1.00  0.00     0.000 C 
ENDROOT
BRANCH   1   2
ATOM      2  C   UNL     1      18.513  10.138  50.963  1.00  0.00     0.000 C 
BRANCH   2   3
ATOM      3  C   UNL     1      17.892   8.754  51.199  1.00  0.00     0.000 C 
BRANCH   3   4
ATOM      4  C   UNL     1      16.954   8.331  50.047  1.00  0.00     0.000 C 
BRANCH   4   5
ATOM      5  C   UNL     1      16.330   6.939  50.243  1.00  0.00     0.000 C 
BRANCH   5   6
ATOM      6  C   UNL     1      15.765   6.349  48.942  1.00  0.00     0.006 C 
BRANCH   6   7
ATOM      7  C   UNL     1      14.551   7.135  48.427  1.00  0.00     0.053 C 
BRANCH   7   8
ATOM      8  C   UNL     1      14.824   7.772  47.099  1.00  0.00     0.041 C 
ATOM      9  O   UNL     1      13.876   8.235  46.413  1.00  0.00    -0.550 OA
ATOM     10  O   UNL     1      16.129   7.887  46.638  1.00  0.00    -0.550 OA
ENDBRANCH   7   8
ENDBRANCH   6   7
ENDBRANCH   5   6
ENDBRANCH   4   5
ENDBRANCH   3   4
ENDBRANCH   2   3
ENDBRANCH   1   2
BRANCH   1  11
ATOM     11  C   UNL     1      20.748  10.325  49.794  1.00  0.00     0.000 C 
BRANCH  11  12
ATOM     12  C   UNL     1      21.351  11.476  48.972  1.00  0.00     0.000 C 
BRANCH  12  13
ATOM     13  C   UNL     1      22.243  12.401  49.817  1.00  0.00     0.000 C 
BRANCH  13  14
ATOM     14  C   UNL     1      23.662  12.536  49.239  1.00  0.00     0.000 C 
BRANCH  14  15
ATOM     15  C   UNL     1      23.774  13.677  48.213  1.00  0.00     0.000 C 
BRANCH  15  16
ATOM     16  C   UNL     1      24.940  13.487  47.226  1.00  0.00     0.006 C 
BRANCH  16  17
ATOM     17  C   UNL     1      25.032  12.068  46.635  1.00  0.00     0.053 C 
BRANCH  17  18
ATOM     18  C   UNL     1      25.556  12.059  45.231  1.00  0.00     0.041 C 
ATOM     19  O   UNL     1      26.191  13.050  44.783  1.00  0.00    -0.550 OA
ATOM     20  O   UNL     1      25.316  10.968  44.407  1.00  0.00    -0.550 OA
ENDBRANCH  17  18
ENDBRANCH  16  17
ENDBRANCH  15  16
ENDBRANCH  14  15
ENDBRANCH  13  14
ENDBRANCH  12  13
ENDBRANCH  11  12
ENDBRANCH   1  11
TORSDOF 15
ENDMDL
MODEL 4
REMARK VINA RESULT:    -4.922      3.315      4.316
REMARK INTER + INTRA:         -10.069
REMARK INTER:                  -9.280
REMARK INTRA:                  -0.789
REMARK UNBOUND:                -0.831
REMARK SMILES O=C([O-])CCCCCCCCCCCCCCC(=O)[O-]
REMARK SMILES IDX 10 1 9 2 8 3 7 4 6 5 5 6 4 7 2 8 1 9 3 10 11 11 12 12 13 13
REMARK SMILES IDX 14 14 15 15 16 16 17 17 18 18 19 19 20 20
REMARK H PARENT
REMARK Flexibility Score: inf
ROOT
ATOM      1  C   UNL     1      17.847   9.845  50.883  1.00  0.00     0.000 C 
ENDROOT
BRANCH   1   2
ATOM      2  C   UNL     1      17.156   8.905  49.887  1.00  0.00     0.000 C 
BRANCH   2   3
ATOM      3  C   UNL     1      17.213   7.449  50.370  1.00  0.00     0.000 C 
BRANCH   3   4
ATOM      4  C   UNL     1      16.271   6.529  49.564  1.00  0.00     0.000 C 
BRANCH   4   5
ATOM      5  C   UNL     1      14.849   7.095  49.403  1.00  0.00     0.000 C 
BRANCH   5   6
ATOM      6  C   UNL     1      14.378   7.119  47.940  1.00  0.00     0.006 C 
BRANCH   6   7
ATOM      7  C   UNL     1      14.868   8.367  47.193  1.00  0.00     0.053 C 
BRANCH   7   8
ATOM      8  C   UNL     1      15.843   8.019  46.111  1.00  0.00     0.041 C 
ATOM      9  O   UNL     1      16.934   7.462  46.397  1.00  0.00    -0.550 OA
ATOM     10  O   UNL     1      15.529   8.278  44.783  1.00  0.00    -0.550 OA
ENDBRANCH   7   8
ENDBRANCH   6   7
ENDBRANCH   5   6
ENDBRANCH   4   5
ENDBRANCH   3   4
ENDBRANCH   2   3
ENDBRANCH   1   2
BRANCH   1  11
ATOM     11  C   UNL     1      19.370   9.828  50.691  1.00  0.00     0.000 C 
BRANCH  11  12
ATOM     12  C   UNL     1      19.814  10.575  49.424  1.00  0.00     0.000 C 
BRANCH  12  13
ATOM     13  C   UNL     1      21.338  10.768  49.355  1.00  0.00     0.000 C 
BRANCH  13  14
ATOM     14  C   UNL     1      21.771  12.180  49.783  1.00  0.00     0.000 C 
BRANCH  14  15
ATOM     15  C   UNL     1      22.490  12.943  48.658  1.00  0.00     0.000 C 
BRANCH  15  16
ATOM     16  C   UNL     1      23.962  12.526  48.490  1.00  0.00     0.006 C 
BRANCH  16  17
ATOM     17  C   UNL     1      24.611  13.037  47.191  1.00  0.00     0.053 C 
BRANCH  17  18
ATOM     18  C   UNL     1      25.295  11.949  46.419  1.00  0.00     0.041 C 
ATOM     19  O   UNL     1      25.359  12.004  45.163  1.00  0.00    -0.550 OA
ATOM     20  O   UNL     1      25.834  10.857  47.087  1.00  0.00    -0.550 OA
ENDBRANCH  17  18
ENDBRANCH  16  17
ENDBRANCH  15  16
ENDBRANCH  14  15
ENDBRANCH  13  14
ENDBRANCH  12  13
ENDBRANCH  11  12
ENDBRANCH   1  11
TORSDOF 15
ENDMDL
MODEL 5
REMARK VINA RESULT:    -4.866     11.027     15.035
REMARK INTER + INTRA:          -9.964
REMARK INTER:                  -9.258
REMARK INTRA:                  -0.706
REMARK UNBOUND:                -0.831
REMARK SMILES O=C([O-])CCCCCCCCCCCCCCC(=O)[O-]
REMARK SMILES IDX 10 1 9 2 8 3 7 4 6 5 5 6 4 7 2 8 1 9 3 10 11 11 12 12 13 13
REMARK SMILES IDX 14 14 15 15 16 16 17 17 18 18 19 19 20 20
REMARK H PARENT
REMARK Flexibility Score: inf
ROOT
ATOM      1  C   UNL     1      17.729   0.085  47.296  1.00  0.00     0.000 C 
ENDROOT
BRANCH   1   2
ATOM      2  C   UNL     1      19.155  -0.427  47.537  1.00  0.00     0.000 C 
BRANCH   2   3
ATOM      3  C   UNL     1      20.005   0.627  48.262  1.00  0.00     0.000 C 
BRANCH   3   4
ATOM      4  C   UNL     1      21.315   0.940  47.506  1.00  0.00     0.000 C 
BRANCH   4   5
ATOM      5  C   UNL     1      22.529   0.154  48.030  1.00  0.00     0.000 C 
BRANCH   5   6
ATOM      6  C   UNL     1      23.743   1.052  48.318  1.00  0.00     0.006 C 
BRANCH   6   7
ATOM      7  C   UNL     1      24.715   0.410  49.318  1.00  0.00     0.053 C 
BRANCH   7   8
ATOM      8  C   UNL     1      25.178  -0.937  48.856  1.00  0.00     0.041 C 
ATOM      9  O   UNL     1      25.848  -1.047  47.796  1.00  0.00    -0.550 OA
ATOM     10  O   UNL     1      24.901  -2.067  49.616  1.00  0.00    -0.550 OA
ENDBRANCH   7   8
ENDBRANCH   6   7
ENDBRANCH   5   6
ENDBRANCH   4   5
ENDBRANCH   3   4
ENDBRANCH   2   3
ENDBRANCH   1   2
BRANCH   1  11
ATOM     11  C   UNL     1      16.692  -0.999  47.623  1.00  0.00     0.000 C 
BRANCH  11  12
ATOM     12  C   UNL     1      15.301  -0.416  47.917  1.00  0.00     0.000 C 
BRANCH  12  13
ATOM     13  C   UNL     1      15.359   1.052  48.373  1.00  0.00     0.000 C 
BRANCH  13  14
ATOM     14  C   UNL     1      14.109   1.846  47.962  1.00  0.00     0.000 C 
BRANCH  14  15
ATOM     15  C   UNL     1      13.151   1.023  47.083  1.00  0.00     0.000 C 
BRANCH  15  16
ATOM     16  C   UNL     1      13.115   1.500  45.620  1.00  0.00     0.006 C 
BRANCH  16  17
ATOM     17  C   UNL     1      11.694   1.647  45.047  1.00  0.00     0.053 C 
BRANCH  17  18
ATOM     18  C   UNL     1      11.441   0.733  43.886  1.00  0.00     0.041 C 
ATOM     19  O   UNL     1      12.306   0.598  42.981  1.00  0.00    -0.550 OA
ATOM     20  O   UNL     1      10.233   0.054  43.788  1.00  0.00    -0.550 OA
ENDBRANCH  17  18
ENDBRANCH  16  17
ENDBRANCH  15  16
ENDBRANCH  14  15
ENDBRANCH  13  14
ENDBRANCH  12  13
ENDBRANCH  11  12
ENDBRANCH   1  11
TORSDOF 15
ENDMDL
MODEL 6
REMARK VINA RESULT:    -4.859     10.292     12.000
REMARK INTER + INTRA:          -9.950
REMARK INTER:                  -8.842
REMARK INTRA:                  -1.108
REMARK UNBOUND:                -0.831
REMARK SMILES O=C([O-])CCCCCCCCCCCCCCC(=O)[O-]
REMARK SMILES IDX 10 1 9 2 8 3 7 4 6 5 5 6 4 7 2 8 1 9 3 10 11 11 12 12 13 13
REMARK SMILES IDX 14 14 15 15 16 16 17 17 18 18 19 19 20 20
REMARK H PARENT
REMARK Flexibility Score: inf
ROOT
ATOM      1  C   UNL     1      16.285   0.570  47.269  1.00  0.00     0.000 C 
ENDROOT
BRANCH   1   2
ATOM      2  C   UNL     1      15.472   1.403  48.269  1.00  0.00     0.000 C 
BRANCH   2   3
ATOM      3  C   UNL     1      13.976   1.067  48.182  1.00  0.00     0.000 C 
BRANCH   3   4
ATOM      4  C   UNL     1      13.381   1.408  46.799  1.00  0.00     0.000 C 
BRANCH   4   5
ATOM      5  C   UNL     1      12.706   0.210  46.108  1.00  0.00     0.000 C 
BRANCH   5   6
ATOM      6  C   UNL     1      12.676   0.343  44.577  1.00  0.00     0.006 C 
BRANCH   6   7
ATOM      7  C   UNL     1      11.260   0.601  44.045  1.00  0.00     0.053 C 
BRANCH   7   8
ATOM      8  C   UNL     1      10.899   2.054  44.107  1.00  0.00     0.041 C 
ATOM      9  O   UNL     1       9.934   2.437  44.817  1.00  0.00    -0.550 OA
ATOM     10  O   UNL     1      11.653   2.988  43.408  1.00  0.00    -0.550 OA
ENDBRANCH   7   8
ENDBRANCH   6   7
ENDBRANCH   5   6
ENDBRANCH   4   5
ENDBRANCH   3   4
ENDBRANCH   2   3
ENDBRANCH   1   2
BRANCH   1  11
ATOM     11  C   UNL     1      16.397  -0.890  47.732  1.00  0.00     0.000 C 
BRANCH  11  12
ATOM     12  C   UNL     1      17.847  -1.401  47.728  1.00  0.00     0.000 C 
BRANCH  12  13
ATOM     13  C   UNL     1      18.578  -1.096  46.410  1.00  0.00     0.000 C 
BRANCH  13  14
ATOM     14  C   UNL     1      19.816  -0.208  46.616  1.00  0.00     0.000 C 
BRANCH  14  15
ATOM     15  C   UNL     1      19.957   0.280  48.068  1.00  0.00     0.000 C 
BRANCH  15  16
ATOM     16  C   UNL     1      21.283   1.016  48.331  1.00  0.00     0.006 C 
BRANCH  16  17
ATOM     17  C   UNL     1      22.381   0.710  47.297  1.00  0.00     0.053 C 
BRANCH  17  18
ATOM     18  C   UNL     1      23.038   1.948  46.766  1.00  0.00     0.041 C 
ATOM     19  O   UNL     1      24.144   2.332  47.231  1.00  0.00    -0.550 OA
ATOM     20  O   UNL     1      22.411   2.698  45.779  1.00  0.00    -0.550 OA
ENDBRANCH  17  18
ENDBRANCH  16  17
ENDBRANCH  15  16
ENDBRANCH  14  15
ENDBRANCH  13  14
ENDBRANCH  12  13
ENDBRANCH  11  12
ENDBRANCH   1  11
TORSDOF 15
ENDMDL
MODEL 7
REMARK VINA RESULT:    -4.836      9.959     13.446
REMARK INTER + INTRA:          -9.907
REMARK INTER:                  -8.202
REMARK INTRA:                  -1.705
REMARK UNBOUND:                -0.831
REMARK SMILES O=C([O-])CCCCCCCCCCCCCCC(=O)[O-]
REMARK SMILES IDX 10 1 9 2 8 3 7 4 6 5 5 6 4 7 2 8 1 9 3 10 11 11 12 12 13 13
REMARK SMILES IDX 14 14 15 15 16 16 17 17 18 18 19 19 20 20
REMARK H PARENT
REMARK Flexibility Score: inf
ROOT
ATOM      1  C   UNL     1      26.343  -2.289  48.913  1.00  0.00     0.000 C 
ENDROOT
BRANCH   1   2
ATOM      2  C   UNL     1      27.662  -1.512  49.004  1.00  0.00     0.000 C 
BRANCH   2   3
ATOM      3  C   UNL     1      27.902  -0.678  47.737  1.00  0.00     0.000 C 
BRANCH   3   4
ATOM      4  C   UNL     1      27.738   0.836  47.995  1.00  0.00     0.000 C 
BRANCH   4   5
ATOM      5  C   UNL     1      26.689   1.503  47.090  1.00  0.00     0.000 C 
BRANCH   5   6
ATOM      6  C   UNL     1      26.298   2.911  47.565  1.00  0.00     0.006 C 
BRANCH   6   7
ATOM      7  C   UNL     1      24.778   3.125  47.558  1.00  0.00     0.053 C 
BRANCH   7   8
ATOM      8  C   UNL     1      24.352   4.054  46.464  1.00  0.00     0.041 C 
ATOM      9  O   UNL     1      23.515   3.677  45.603  1.00  0.00    -0.550 OA
ATOM     10  O   UNL     1      24.852   5.349  46.417  1.00  0.00    -0.550 OA
ENDBRANCH   7   8
ENDBRANCH   6   7
ENDBRANCH   5   6
ENDBRANCH   4   5
ENDBRANCH   3   4
ENDBRANCH   2   3
ENDBRANCH   1   2
BRANCH   1  11
ATOM     11  C   UNL     1      25.275  -1.671  49.827  1.00  0.00     0.000 C 
BRANCH  11  12
ATOM     12  C   UNL     1      24.443  -0.591  49.118  1.00  0.00     0.000 C 
BRANCH  12  13
ATOM     13  C   UNL     1      24.059  -0.987  47.683  1.00  0.00     0.000 C 
BRANCH  13  14
ATOM     14  C   UNL     1      22.765  -0.305  47.210  1.00  0.00     0.000 C 
BRANCH  14  15
ATOM     15  C   UNL     1      22.210   0.688  48.247  1.00  0.00     0.000 C 
BRANCH  15  16
ATOM     16  C   UNL     1      20.673   0.768  48.241  1.00  0.00     0.006 C 
BRANCH  16  17
ATOM     17  C   UNL     1      19.999  -0.233  47.285  1.00  0.00     0.053 C 
BRANCH  17  18
ATOM     18  C   UNL     1      18.598  -0.571  47.694  1.00  0.00     0.041 C 
ATOM     19  O   UNL     1      18.304  -1.742  48.052  1.00  0.00    -0.550 OA
ATOM     20  O   UNL     1      17.607   0.402  47.650  1.00  0.00    -0.550 OA
ENDBRANCH  17  18
ENDBRANCH  16  17
ENDBRANCH  15  16
ENDBRANCH  14  15
ENDBRANCH  13  14
ENDBRANCH  12  13
ENDBRANCH  11  12
ENDBRANCH   1  11
TORSDOF 15
ENDMDL
MODEL 8
REMARK VINA RESULT:    -4.817     10.159     11.148
REMARK INTER + INTRA:          -9.872
REMARK INTER:                  -8.474
REMARK INTRA:                  -1.398
REMARK UNBOUND:                -0.831
REMARK SMILES O=C([O-])CCCCCCCCCCCCCCC(=O)[O-]
REMARK SMILES IDX 10 1 9 2 8 3 7 4 6 5 5 6 4 7 2 8 1 9 3 10 11 11 12 12 13 13
REMARK SMILES IDX 14 14 15 15 16 16 17 17 18 18 19 19 20 20
REMARK H PARENT
REMARK Flexibility Score: inf
ROOT
ATOM      1  C   UNL     1      21.797   0.162  46.632  1.00  0.00     0.000 C 
ENDROOT
BRANCH   1   2
ATOM      2  C   UNL     1      21.375   0.805  47.959  1.00  0.00     0.000 C 
BRANCH   2   3
ATOM      3  C   UNL     1      19.900   0.512  48.270  1.00  0.00     0.000 C 
BRANCH   3   4
ATOM      4  C   UNL     1      19.301  -0.545  47.318  1.00  0.00     0.000 C 
BRANCH   4   5
ATOM      5  C   UNL     1      17.930  -1.075  47.773  1.00  0.00     0.000 C 
BRANCH   5   6
ATOM      6  C   UNL     1      16.755  -0.276  47.187  1.00  0.00     0.006 C 
BRANCH   6   7
ATOM      7  C   UNL     1      15.438  -0.559  47.922  1.00  0.00     0.053 C 
BRANCH   7   8
ATOM      8  C   UNL     1      14.494   0.601  47.836  1.00  0.00     0.041 C 
ATOM      9  O   UNL     1      13.903   1.014  48.867  1.00  0.00    -0.550 OA
ATOM     10  O   UNL     1      14.294   1.247  46.623  1.00  0.00    -0.550 OA
ENDBRANCH   7   8
ENDBRANCH   6   7
ENDBRANCH   5   6
ENDBRANCH   4   5
ENDBRANCH   3   4
ENDBRANCH   2   3
ENDBRANCH   1   2
BRANCH   1  11
ATOM     11  C   UNL     1      22.136   1.232  45.585  1.00  0.00     0.000 C 
BRANCH  11  12
ATOM     12  C   UNL     1      22.546   2.571  46.219  1.00  0.00     0.000 C 
BRANCH  12  13
ATOM     13  C   UNL     1      23.959   3.013  45.804  1.00  0.00     0.000 C 
BRANCH  13  14
ATOM     14  C   UNL     1      24.843   3.364  47.012  1.00  0.00     0.000 C 
BRANCH  14  15
ATOM     15  C   UNL     1      24.507   2.520  48.253  1.00  0.00     0.000 C 
BRANCH  15  16
ATOM     16  C   UNL     1      25.293   1.197  48.314  1.00  0.00     0.006 C 
BRANCH  16  17
ATOM     17  C   UNL     1      24.696   0.161  49.284  1.00  0.00     0.053 C 
BRANCH  17  18
ATOM     18  C   UNL     1      25.094  -1.244  48.946  1.00  0.00     0.041 C 
ATOM     19  O   UNL     1      24.352  -1.959  48.224  1.00  0.00    -0.550 OA
ATOM     20  O   UNL     1      26.272  -1.774  49.457  1.00  0.00    -0.550 OA
ENDBRANCH  17  18
ENDBRANCH  16  17
ENDBRANCH  15  16
ENDBRANCH  14  15
ENDBRANCH  13  14
ENDBRANCH  12  13
ENDBRANCH  11  12
ENDBRANCH   1  11
TORSDOF 15
ENDMDL
MODEL 9
REMARK VINA RESULT:    -4.763      2.946      9.869
REMARK INTER + INTRA:          -9.771
REMARK INTER:                  -8.986
REMARK INTRA:                  -0.785
REMARK UNBOUND:                -0.831
REMARK SMILES O=C([O-])CCCCCCCCCCCCCCC(=O)[O-]
REMARK SMILES IDX 10 1 9 2 8 3 7 4 6 5 5 6 4 7 2 8 1 9 3 10 11 11 12 12 13 13
REMARK SMILES IDX 14 14 15 15 16 16 17 17 18 18 19 19 20 20
REMARK H PARENT
REMARK Flexibility Score: inf
ROOT
ATOM      1  C   UNL     1      20.703  10.984  49.790  1.00  0.00     0.000 C 
ENDROOT
BRANCH   1   2
ATOM      2  C   UNL     1      21.748  11.663  48.895  1.00  0.00     0.000 C 
BRANCH   2   3
ATOM      3  C   UNL     1      22.792  12.413  49.736  1.00  0.00     0.000 C 
BRANCH   3   4
ATOM      4  C   UNL     1      24.149  12.533  49.010  1.00  0.00     0.000 C 
BRANCH   4   5
ATOM      5  C   UNL     1      24.086  13.373  47.723  1.00  0.00     0.000 C 
BRANCH   5   6
ATOM      6  C   UNL     1      25.476  13.691  47.149  1.00  0.00     0.006 C 
BRANCH   6   7
ATOM      7  C   UNL     1      26.607  13.249  48.087  1.00  0.00     0.053 C 
BRANCH   7   8
ATOM      8  C   UNL     1      27.443  12.167  47.477  1.00  0.00     0.041 C 
ATOM      9  O   UNL     1      27.505  11.033  48.021  1.00  0.00    -0.550 OA
ATOM     10  O   UNL     1      28.124  12.399  46.290  1.00  0.00    -0.550 OA
ENDBRANCH   7   8
ENDBRANCH   6   7
ENDBRANCH   5   6
ENDBRANCH   4   5
ENDBRANCH   3   4
ENDBRANCH   2   3
ENDBRANCH   1   2
BRANCH   1  11
ATOM     11  C   UNL     1      20.386   9.568  49.289  1.00  0.00     0.000 C 
BRANCH  11  12
ATOM     12  C   UNL     1      19.802   8.669  50.390  1.00  0.00     0.000 C 
BRANCH  12  13
ATOM     13  C   UNL     1      18.736   9.386  51.236  1.00  0.00     0.000 C 
BRANCH  13  14
ATOM     14  C   UNL     1      17.312   9.160  50.702  1.00  0.00     0.000 C 
BRANCH  14  15
ATOM     15  C   UNL     1      17.160   7.811  49.979  1.00  0.00     0.000 C 
BRANCH  15  16
ATOM     16  C   UNL     1      15.698   7.340  49.882  1.00  0.00     0.006 C 
BRANCH  16  17
ATOM     17  C   UNL     1      15.309   6.794  48.497  1.00  0.00     0.053 C 
BRANCH  17  18
ATOM     18  C   UNL     1      15.730   7.699  47.379  1.00  0.00     0.041 C 
ATOM     19  O   UNL     1      15.188   8.827  47.236  1.00  0.00    -0.550 OA
ATOM     20  O   UNL     1      16.700   7.284  46.475  1.00  0.00    -0.550 OA
ENDBRANCH  17  18
ENDBRANCH  16  17
ENDBRANCH  15  16
ENDBRANCH  14  15
ENDBRANCH  13  14
ENDBRANCH  12  13
ENDBRANCH  11  12
ENDBRANCH   1  11
TORSDOF 15
ENDMDL
