MODEL 1
REMARK VINA RESULT:    -5.556      0.000      0.000
REMARK INTER + INTRA:         -18.966
REMARK INTER:                 -14.649
REMARK INTRA:                  -4.317
REMARK UNBOUND:                -4.317
REMARK SMILES CCCCCCCCCCCCCCCCCCCCCCCCCCCCCC(=O)[O-]
REMARK SMILES IDX 16 1 17 2 18 3 19 4 20 5 21 6 22 7 23 8 24 9 25 10 26 11
REMARK SMILES IDX 27 12 28 13 29 14 30 15 31 16 32 17 15 18 14 19 13 20 12 21
REMARK SMILES IDX 11 22 10 23 9 24 8 25 7 26 6 27 5 28 4 29 3 30 2 31 1 32
REMARK H PARENT
REMARK Flexibility Score: inf
ROOT
ATOM      1  C   UNL     1     -16.620  -6.495  41.689  1.00  0.00     0.000 C 
ENDROOT
BRANCH   1   2
ATOM      2  C   UNL     1     -17.191  -6.825  43.079  1.00  0.00     0.000 C 
BRANCH   2   3
ATOM      3  C   UNL     1     -17.706  -8.269  43.185  1.00  0.00     0.000 C 
BRANCH   3   4
ATOM      4  C   UNL     1     -18.017  -8.702  44.631  1.00  0.00     0.000 C 
BRANCH   4   5
ATOM      5  C   UNL     1     -17.636  -7.687  45.727  1.00  0.00     0.000 C 
BRANCH   5   6
ATOM      6  C   UNL     1     -17.347  -8.343  47.089  1.00  0.00     0.000 C 
BRANCH   6   7
ATOM      7  C   UNL     1     -17.268  -9.876  47.000  1.00  0.00     0.000 C 
BRANCH   7   8
ATOM      8  C   UNL     1     -16.106 -10.459  47.817  1.00  0.00     0.000 C 
BRANCH   8   9
ATOM      9  C   UNL     1     -15.142 -11.238  46.915  1.00  0.00     0.000 C 
BRANCH   9  10
ATOM     10  C   UNL     1     -15.111 -10.648  45.497  1.00  0.00     0.000 C 
BRANCH  10  11
ATOM     11  C   UNL     1     -13.832  -9.840  45.221  1.00  0.00     0.000 C 
BRANCH  11  12
ATOM     12  C   UNL     1     -14.126  -8.373  44.862  1.00  0.00     0.000 C 
BRANCH  12  13
ATOM     13  C   UNL     1     -13.872  -7.403  46.032  1.00  0.00     0.006 C 
BRANCH  13  14
ATOM     14  C   UNL     1     -13.208  -8.061  47.254  1.00  0.00     0.053 C 
BRANCH  14  15
ATOM     15  C   UNL     1     -12.354  -7.107  48.031  1.00  0.00     0.041 C 
ATOM     16  O   UNL     1     -11.116  -7.043  47.812  1.00  0.00    -0.550 OA
ATOM     17  O   UNL     1     -12.928  -6.275  48.983  1.00  0.00    -0.550 OA
ENDBRANCH  14  15
ENDBRANCH  13  14
ENDBRANCH  12  13
ENDBRANCH  11  12
ENDBRANCH  10  11
ENDBRANCH   9  10
ENDBRANCH   8   9
ENDBRANCH   7   8
ENDBRANCH   6   7
ENDBRANCH   5   6
ENDBRANCH   4   5
ENDBRANCH   3   4
ENDBRANCH   2   3
ENDBRANCH   1   2
BRANCH   1  18
ATOM     18  C   UNL     1     -17.652  -6.585  40.546  1.00  0.00     0.000 C 
BRANCH  18  19
ATOM     19  C   UNL     1     -17.071  -6.135  39.191  1.00  0.00     0.000 C 
BRANCH  19  20
ATOM     20  C   UNL     1     -15.894  -5.149  39.340  1.00  0.00     0.000 C 
BRANCH  20  21
ATOM     21  C   UNL     1     -14.621  -5.562  38.576  1.00  0.00     0.000 C 
BRANCH  21  22
ATOM     22  C   UNL     1     -14.857  -6.206  37.200  1.00  0.00     0.000 C 
BRANCH  22  23
ATOM     23  C   UNL     1     -13.603  -6.898  36.639  1.00  0.00     0.000 C 
BRANCH  23  24
ATOM     24  C   UNL     1     -12.723  -7.454  37.769  1.00  0.00    -0.000 C 
BRANCH  24  25
ATOM     25  C   UNL     1     -11.785  -8.578  37.296  1.00  0.00    -0.000 C 
BRANCH  25  26
ATOM     26  C   UNL     1     -10.829  -9.122  38.374  1.00  0.00    -0.000 C 
BRANCH  26  27
ATOM     27  C   UNL     1     -11.225  -8.735  39.815  1.00  0.00    -0.000 C 
BRANCH  27  28
ATOM     28  C   UNL     1     -10.105  -9.019  40.833  1.00  0.00    -0.000 C 
BRANCH  28  29
ATOM     29  C   UNL     1     -10.616  -8.980  42.288  1.00  0.00    -0.000 C 
BRANCH  29  30
ATOM     30  C   UNL     1     -10.798  -7.555  42.841  1.00  0.00    -0.000 C 
BRANCH  30  31
ATOM     31  C   UNL     1     -10.557  -7.464  44.354  1.00  0.00    -0.003 C 
ATOM     32  C   UNL     1     -10.161  -8.820  44.931  1.00  0.00     0.004 C 
ENDBRANCH  30  31
ENDBRANCH  29  30
ENDBRANCH  28  29
ENDBRANCH  27  28
ENDBRANCH  26  27
ENDBRANCH  25  26
ENDBRANCH  24  25
ENDBRANCH  23  24
ENDBRANCH  22  23
ENDBRANCH  21  22
ENDBRANCH  20  21
ENDBRANCH  19  20
ENDBRANCH  18  19
ENDBRANCH   1  18
TORSDOF 28
ENDMDL
MODEL 2
REMARK VINA RESULT:    -5.544      1.840      2.678
REMARK INTER + INTRA:         -18.936
REMARK INTER:                 -14.993
REMARK INTRA:                  -3.943
REMARK UNBOUND:                -4.317
REMARK SMILES CCCCCCCCCCCCCCCCCCCCCCCCCCCCCC(=O)[O-]
REMARK SMILES IDX 16 1 17 2 18 3 19 4 20 5 21 6 22 7 23 8 24 9 25 10 26 11
REMARK SMILES IDX 27 12 28 13 29 14 30 15 31 16 32 17 15 18 14 19 13 20 12 21
REMARK SMILES IDX 11 22 10 23 9 24 8 25 7 26 6 27 5 28 4 29 3 30 2 31 1 32
REMARK H PARENT
REMARK Flexibility Score: inf
ROOT
ATOM      1  C   UNL     1     -17.145  -6.581  42.369  1.00  0.00     0.000 C 
ENDROOT
BRANCH   1   2
ATOM      2  C   UNL     1     -16.626  -7.160  43.696  1.00  0.00     0.000 C 
BRANCH   2   3
ATOM      3  C   UNL     1     -17.757  -7.656  44.612  1.00  0.00     0.000 C 
BRANCH   3   4
ATOM      4  C   UNL     1     -17.515  -9.074  45.166  1.00  0.00     0.000 C 
BRANCH   4   5
ATOM      5  C   UNL     1     -16.976 -10.103  44.152  1.00  0.00     0.000 C 
BRANCH   5   6
ATOM      6  C   UNL     1     -15.874 -11.008  44.732  1.00  0.00     0.000 C 
BRANCH   6   7
ATOM      7  C   UNL     1     -15.306 -10.470  46.055  1.00  0.00     0.000 C 
BRANCH   7   8
ATOM      8  C   UNL     1     -15.103 -11.573  47.106  1.00  0.00     0.000 C 
BRANCH   8   9
ATOM      9  C   UNL     1     -15.017 -10.975  48.515  1.00  0.00     0.000 C 
BRANCH   9  10
ATOM     10  C   UNL     1     -16.022  -9.826  48.690  1.00  0.00     0.000 C 
BRANCH  10  11
ATOM     11  C   UNL     1     -15.620  -8.855  49.812  1.00  0.00     0.000 C 
BRANCH  11  12
ATOM     12  C   UNL     1     -15.434  -7.413  49.307  1.00  0.00     0.000 C 
BRANCH  12  13
ATOM     13  C   UNL     1     -15.980  -7.198  47.883  1.00  0.00     0.006 C 
BRANCH  13  14
ATOM     14  C   UNL     1     -15.552  -5.865  47.246  1.00  0.00     0.053 C 
BRANCH  14  15
ATOM     15  C   UNL     1     -14.378  -6.015  46.328  1.00  0.00     0.041 C 
ATOM     16  O   UNL     1     -13.908  -5.010  45.733  1.00  0.00    -0.550 OA
ATOM     17  O   UNL     1     -13.791  -7.259  46.146  1.00  0.00    -0.550 OA
ENDBRANCH  14  15
ENDBRANCH  13  14
ENDBRANCH  12  13
ENDBRANCH  11  12
ENDBRANCH  10  11
ENDBRANCH   9  10
ENDBRANCH   8   9
ENDBRANCH   7   8
ENDBRANCH   6   7
ENDBRANCH   5   6
ENDBRANCH   4   5
ENDBRANCH   3   4
ENDBRANCH   2   3
ENDBRANCH   1   2
BRANCH   1  18
ATOM     18  C   UNL     1     -18.037  -7.549  41.564  1.00  0.00     0.000 C 
BRANCH  18  19
ATOM     19  C   UNL     1     -17.860  -7.386  40.042  1.00  0.00     0.000 C 
BRANCH  19  20
ATOM     20  C   UNL     1     -17.073  -6.114  39.662  1.00  0.00     0.000 C 
BRANCH  20  21
ATOM     21  C   UNL     1     -16.513  -6.121  38.226  1.00  0.00     0.000 C 
BRANCH  21  22
ATOM     22  C   UNL     1     -15.047  -5.679  38.086  1.00  0.00     0.000 C 
BRANCH  22  23
ATOM     23  C   UNL     1     -14.264  -6.514  37.060  1.00  0.00     0.000 C 
BRANCH  23  24
ATOM     24  C   UNL     1     -12.977  -7.086  37.674  1.00  0.00    -0.000 C 
BRANCH  24  25
ATOM     25  C   UNL     1     -12.515  -8.384  36.989  1.00  0.00    -0.000 C 
BRANCH  25  26
ATOM     26  C   UNL     1     -11.231  -9.003  37.572  1.00  0.00    -0.000 C 
BRANCH  26  27
ATOM     27  C   UNL     1     -10.551  -8.134  38.651  1.00  0.00    -0.000 C 
BRANCH  27  28
ATOM     28  C   UNL     1     -10.690  -8.731  40.064  1.00  0.00    -0.000 C 
BRANCH  28  29
ATOM     29  C   UNL     1     -11.471  -7.800  41.016  1.00  0.00    -0.000 C 
BRANCH  29  30
ATOM     30  C   UNL     1     -11.097  -6.314  40.871  1.00  0.00    -0.000 C 
BRANCH  30  31
ATOM     31  C   UNL     1     -12.317  -5.384  40.892  1.00  0.00    -0.003 C 
ATOM     32  C   UNL     1     -13.580  -6.141  41.292  1.00  0.00     0.004 C 
ENDBRANCH  30  31
ENDBRANCH  29  30
ENDBRANCH  28  29
ENDBRANCH  27  28
ENDBRANCH  26  27
ENDBRANCH  25  26
ENDBRANCH  24  25
ENDBRANCH  23  24
ENDBRANCH  22  23
ENDBRANCH  21  22
ENDBRANCH  20  21
ENDBRANCH  19  20
ENDBRANCH  18  19
ENDBRANCH   1  18
TORSDOF 28
ENDMDL
MODEL 3
REMARK VINA RESULT:    -5.490      1.651      2.631
REMARK INTER + INTRA:         -18.792
REMARK INTER:                 -15.321
REMARK INTRA:                  -3.471
REMARK UNBOUND:                -4.317
REMARK SMILES CCCCCCCCCCCCCCCCCCCCCCCCCCCCCC(=O)[O-]
REMARK SMILES IDX 16 1 17 2 18 3 19 4 20 5 21 6 22 7 23 8 24 9 25 10 26 11
REMARK SMILES IDX 27 12 28 13 29 14 30 15 31 16 32 17 15 18 14 19 13 20 12 21
REMARK SMILES IDX 11 22 10 23 9 24 8 25 7 26 6 27 5 28 4 29 3 30 2 31 1 32
REMARK H PARENT
REMARK Flexibility Score: inf
ROOT
ATOM      1  C   UNL     1     -15.806  -6.494  43.093  1.00  0.00     0.000 C 
ENDROOT
BRANCH   1   2
ATOM      2  C   UNL     1     -17.098  -7.322  43.196  1.00  0.00     0.000 C 
BRANCH   2   3
ATOM      3  C   UNL     1     -17.622  -7.431  44.637  1.00  0.00     0.000 C 
BRANCH   3   4
ATOM      4  C   UNL     1     -17.629  -8.875  45.176  1.00  0.00     0.000 C 
BRANCH   4   5
ATOM      5  C   UNL     1     -17.024  -9.940  44.238  1.00  0.00     0.000 C 
BRANCH   5   6
ATOM      6  C   UNL     1     -15.811 -10.667  44.846  1.00  0.00     0.000 C 
BRANCH   6   7
ATOM      7  C   UNL     1     -14.657  -9.708  45.181  1.00  0.00     0.000 C 
BRANCH   7   8
ATOM      8  C   UNL     1     -13.922 -10.094  46.474  1.00  0.00     0.000 C 
BRANCH   8   9
ATOM      9  C   UNL     1     -14.550 -11.341  47.107  1.00  0.00     0.000 C 
BRANCH   9  10
ATOM     10  C   UNL     1     -14.930 -11.086  48.573  1.00  0.00     0.000 C 
BRANCH  10  11
ATOM     11  C   UNL     1     -15.942  -9.939  48.732  1.00  0.00     0.000 C 
BRANCH  11  12
ATOM     12  C   UNL     1     -15.566  -8.972  49.868  1.00  0.00     0.000 C 
BRANCH  12  13
ATOM     13  C   UNL     1     -15.390  -7.519  49.388  1.00  0.00     0.006 C 
BRANCH  13  14
ATOM     14  C   UNL     1     -15.972  -7.248  47.990  1.00  0.00     0.053 C 
BRANCH  14  15
ATOM     15  C   UNL     1     -15.142  -6.286  47.196  1.00  0.00     0.041 C 
ATOM     16  O   UNL     1     -15.672  -5.264  46.686  1.00  0.00    -0.550 OA
ATOM     17  O   UNL     1     -13.781  -6.507  47.036  1.00  0.00    -0.550 OA
ENDBRANCH  14  15
ENDBRANCH  13  14
ENDBRANCH  12  13
ENDBRANCH  11  12
ENDBRANCH  10  11
ENDBRANCH   9  10
ENDBRANCH   8   9
ENDBRANCH   7   8
ENDBRANCH   6   7
ENDBRANCH   5   6
ENDBRANCH   4   5
ENDBRANCH   3   4
ENDBRANCH   2   3
ENDBRANCH   1   2
BRANCH   1  18
ATOM     18  C   UNL     1     -15.430  -6.087  41.653  1.00  0.00     0.000 C 
BRANCH  18  19
ATOM     19  C   UNL     1     -16.569  -6.352  40.649  1.00  0.00     0.000 C 
BRANCH  19  20
ATOM     20  C   UNL     1     -16.516  -5.419  39.421  1.00  0.00     0.000 C 
BRANCH  20  21
ATOM     21  C   UNL     1     -16.040  -6.104  38.125  1.00  0.00     0.000 C 
BRANCH  21  22
ATOM     22  C   UNL     1     -14.658  -5.664  37.614  1.00  0.00     0.000 C 
BRANCH  22  23
ATOM     23  C   UNL     1     -14.189  -6.467  36.389  1.00  0.00     0.000 C 
BRANCH  23  24
ATOM     24  C   UNL     1     -13.557  -7.803  36.809  1.00  0.00    -0.000 C 
BRANCH  24  25
ATOM     25  C   UNL     1     -12.049  -7.687  37.090  1.00  0.00    -0.000 C 
BRANCH  25  26
ATOM     26  C   UNL     1     -11.600  -8.239  38.456  1.00  0.00    -0.000 C 
BRANCH  26  27
ATOM     27  C   UNL     1     -12.177  -7.468  39.663  1.00  0.00    -0.000 C 
BRANCH  27  28
ATOM     28  C   UNL     1     -11.357  -7.682  40.949  1.00  0.00    -0.000 C 
BRANCH  28  29
ATOM     29  C   UNL     1     -10.509  -8.970  40.891  1.00  0.00    -0.000 C 
BRANCH  29  30
ATOM     30  C   UNL     1     -10.082  -9.491  42.276  1.00  0.00    -0.000 C 
BRANCH  30  31
ATOM     31  C   UNL     1      -9.906 -11.016  42.314  1.00  0.00    -0.003 C 
ATOM     32  C   UNL     1      -8.435 -11.397  42.454  1.00  0.00     0.004 C 
ENDBRANCH  30  31
ENDBRANCH  29  30
ENDBRANCH  28  29
ENDBRANCH  27  28
ENDBRANCH  26  27
ENDBRANCH  25  26
ENDBRANCH  24  25
ENDBRANCH  23  24
ENDBRANCH  22  23
ENDBRANCH  21  22
ENDBRANCH  20  21
ENDBRANCH  19  20
ENDBRANCH  18  19
ENDBRANCH   1  18
TORSDOF 28
ENDMDL
MODEL 4
REMARK VINA RESULT:    -5.482      3.292      7.975
REMARK INTER + INTRA:         -18.773
REMARK INTER:                 -13.708
REMARK INTRA:                  -5.064
REMARK UNBOUND:                -4.317
REMARK SMILES CCCCCCCCCCCCCCCCCCCCCCCCCCCCCC(=O)[O-]
REMARK SMILES IDX 16 1 17 2 18 3 19 4 20 5 21 6 22 7 23 8 24 9 25 10 26 11
REMARK SMILES IDX 27 12 28 13 29 14 30 15 31 16 32 17 15 18 14 19 13 20 12 21
REMARK SMILES IDX 11 22 10 23 9 24 8 25 7 26 6 27 5 28 4 29 3 30 2 31 1 32
REMARK H PARENT
REMARK Flexibility Score: inf
ROOT
ATOM      1  C   UNL     1     -17.023  -6.870  41.943  1.00  0.00     0.000 C 
ENDROOT
BRANCH   1   2
ATOM      2  C   UNL     1     -18.068  -6.494  40.878  1.00  0.00     0.000 C 
BRANCH   2   3
ATOM      3  C   UNL     1     -17.635  -6.884  39.456  1.00  0.00     0.000 C 
BRANCH   3   4
ATOM      4  C   UNL     1     -16.674  -5.867  38.810  1.00  0.00     0.000 C 
BRANCH   4   5
ATOM      5  C   UNL     1     -15.424  -6.465  38.135  1.00  0.00     0.000 C 
BRANCH   5   6
ATOM      6  C   UNL     1     -14.107  -6.047  38.814  1.00  0.00     0.000 C 
BRANCH   6   7
ATOM      7  C   UNL     1     -14.230  -4.712  39.564  1.00  0.00     0.000 C 
BRANCH   7   8
ATOM      8  C   UNL     1     -14.177  -4.882  41.090  1.00  0.00     0.000 C 
BRANCH   8   9
ATOM      9  C   UNL     1     -13.471  -6.189  41.469  1.00  0.00     0.000 C 
BRANCH   9  10
ATOM     10  C   UNL     1     -12.133  -5.913  42.171  1.00  0.00     0.000 C 
BRANCH  10  11
ATOM     11  C   UNL     1     -10.942  -6.565  41.450  1.00  0.00     0.000 C 
BRANCH  11  12
ATOM     12  C   UNL     1     -11.202  -8.038  41.091  1.00  0.00     0.000 C 
BRANCH  12  13
ATOM     13  C   UNL     1     -10.491  -8.478  39.797  1.00  0.00     0.006 C 
BRANCH  13  14
ATOM     14  C   UNL     1     -11.421  -8.573  38.576  1.00  0.00     0.053 C 
BRANCH  14  15
ATOM     15  C   UNL     1     -10.681  -8.866  37.307  1.00  0.00     0.041 C 
ATOM     16  O   UNL     1     -10.309  -7.924  36.560  1.00  0.00    -0.550 OA
ATOM     17  O   UNL     1     -10.385 -10.177  36.960  1.00  0.00    -0.550 OA
ENDBRANCH  14  15
ENDBRANCH  13  14
ENDBRANCH  12  13
ENDBRANCH  11  12
ENDBRANCH  10  11
ENDBRANCH   9  10
ENDBRANCH   8   9
ENDBRANCH   7   8
ENDBRANCH   6   7
ENDBRANCH   5   6
ENDBRANCH   4   5
ENDBRANCH   3   4
ENDBRANCH   2   3
ENDBRANCH   1   2
BRANCH   1  18
ATOM     18  C   UNL     1     -17.480  -6.612  43.394  1.00  0.00     0.000 C 
BRANCH  18  19
ATOM     19  C   UNL     1     -18.105  -7.861  44.046  1.00  0.00     0.000 C 
BRANCH  19  20
ATOM     20  C   UNL     1     -17.387  -9.169  43.649  1.00  0.00     0.000 C 
BRANCH  20  21
ATOM     21  C   UNL     1     -17.117 -10.126  44.826  1.00  0.00     0.000 C 
BRANCH  21  22
ATOM     22  C   UNL     1     -15.695 -10.707  44.892  1.00  0.00     0.000 C 
BRANCH  22  23
ATOM     23  C   UNL     1     -15.252 -11.047  46.325  1.00  0.00     0.000 C 
BRANCH  23  24
ATOM     24  C   UNL     1     -16.252 -10.505  47.359  1.00  0.00    -0.000 C 
BRANCH  24  25
ATOM     25  C   UNL     1     -15.564  -9.813  48.547  1.00  0.00    -0.000 C 
BRANCH  25  26
ATOM     26  C   UNL     1     -15.702  -8.279  48.573  1.00  0.00    -0.000 C 
BRANCH  26  27
ATOM     27  C   UNL     1     -16.585  -7.711  47.441  1.00  0.00    -0.000 C 
BRANCH  27  28
ATOM     28  C   UNL     1     -15.945  -6.495  46.746  1.00  0.00    -0.000 C 
BRANCH  28  29
ATOM     29  C   UNL     1     -14.417  -6.648  46.594  1.00  0.00    -0.000 C 
BRANCH  29  30
ATOM     30  C   UNL     1     -13.999  -7.550  45.419  1.00  0.00    -0.000 C 
BRANCH  30  31
ATOM     31  C   UNL     1     -12.807  -8.456  45.754  1.00  0.00    -0.003 C 
ATOM     32  C   UNL     1     -12.088  -8.911  44.487  1.00  0.00     0.004 C 
ENDBRANCH  30  31
ENDBRANCH  29  30
ENDBRANCH  28  29
ENDBRANCH  27  28
ENDBRANCH  26  27
ENDBRANCH  25  26
ENDBRANCH  24  25
ENDBRANCH  23  24
ENDBRANCH  22  23
ENDBRANCH  21  22
ENDBRANCH  20  21
ENDBRANCH  19  20
ENDBRANCH  18  19
ENDBRANCH   1  18
TORSDOF 28
ENDMDL
MODEL 5
REMARK VINA RESULT:    -5.463      1.797      3.437
REMARK INTER + INTRA:         -18.722
REMARK INTER:                 -14.723
REMARK INTRA:                  -3.999
REMARK UNBOUND:                -4.317
REMARK SMILES CCCCCCCCCCCCCCCCCCCCCCCCCCCCCC(=O)[O-]
REMARK SMILES IDX 16 1 17 2 18 3 19 4 20 5 21 6 22 7 23 8 24 9 25 10 26 11
REMARK SMILES IDX 27 12 28 13 29 14 30 15 31 16 32 17 15 18 14 19 13 20 12 21
REMARK SMILES IDX 11 22 10 23 9 24 8 25 7 26 6 27 5 28 4 29 3 30 2 31 1 32
REMARK H PARENT
REMARK Flexibility Score: inf
ROOT
ATOM      1  C   UNL     1     -16.354  -6.498  41.846  1.00  0.00     0.000 C 
ENDROOT
BRANCH   1   2
ATOM      2  C   UNL     1     -16.030  -6.930  43.287  1.00  0.00     0.000 C 
BRANCH   2   3
ATOM      3  C   UNL     1     -17.131  -6.543  44.287  1.00  0.00     0.000 C 
BRANCH   3   4
ATOM      4  C   UNL     1     -17.870  -7.757  44.882  1.00  0.00     0.000 C 
BRANCH   4   5
ATOM      5  C   UNL     1     -17.500  -9.126  44.276  1.00  0.00     0.000 C 
BRANCH   5   6
ATOM      6  C   UNL     1     -16.947 -10.120  45.313  1.00  0.00     0.000 C 
BRANCH   6   7
ATOM      7  C   UNL     1     -15.554 -10.651  44.936  1.00  0.00     0.000 C 
BRANCH   7   8
ATOM      8  C   UNL     1     -14.427  -9.676  45.310  1.00  0.00     0.000 C 
BRANCH   8   9
ATOM      9  C   UNL     1     -13.542 -10.264  46.415  1.00  0.00     0.000 C 
BRANCH   9  10
ATOM     10  C   UNL     1     -14.342 -11.217  47.317  1.00  0.00     0.000 C 
BRANCH  10  11
ATOM     11  C   UNL     1     -14.559 -10.650  48.729  1.00  0.00     0.000 C 
BRANCH  11  12
ATOM     12  C   UNL     1     -15.859  -9.835  48.845  1.00  0.00     0.000 C 
BRANCH  12  13
ATOM     13  C   UNL     1     -15.610  -8.325  49.022  1.00  0.00     0.006 C 
BRANCH  13  14
ATOM     14  C   UNL     1     -16.064  -7.474  47.823  1.00  0.00     0.053 C 
BRANCH  14  15
ATOM     15  C   UNL     1     -15.129  -6.339  47.534  1.00  0.00     0.041 C 
ATOM     16  O   UNL     1     -15.459  -5.159  47.823  1.00  0.00    -0.550 OA
ATOM     17  O   UNL     1     -13.888  -6.587  46.964  1.00  0.00    -0.550 OA
ENDBRANCH  14  15
ENDBRANCH  13  14
ENDBRANCH  12  13
ENDBRANCH  11  12
ENDBRANCH  10  11
ENDBRANCH   9  10
ENDBRANCH   8   9
ENDBRANCH   7   8
ENDBRANCH   6   7
ENDBRANCH   5   6
ENDBRANCH   4   5
ENDBRANCH   3   4
ENDBRANCH   2   3
ENDBRANCH   1   2
BRANCH   1  18
ATOM     18  C   UNL     1     -17.678  -7.068  41.299  1.00  0.00     0.000 C 
BRANCH  18  19
ATOM     19  C   UNL     1     -17.832  -6.850  39.781  1.00  0.00     0.000 C 
BRANCH  19  20
ATOM     20  C   UNL     1     -16.892  -5.755  39.234  1.00  0.00     0.000 C 
BRANCH  20  21
ATOM     21  C   UNL     1     -16.165  -6.138  37.930  1.00  0.00     0.000 C 
BRANCH  21  22
ATOM     22  C   UNL     1     -14.669  -5.785  37.880  1.00  0.00     0.000 C 
BRANCH  22  23
ATOM     23  C   UNL     1     -13.817  -6.648  38.825  1.00  0.00     0.000 C 
BRANCH  23  24
ATOM     24  C   UNL     1     -13.288  -5.822  40.008  1.00  0.00    -0.000 C 
BRANCH  24  25
ATOM     25  C   UNL     1     -12.376  -6.635  40.942  1.00  0.00    -0.000 C 
BRANCH  25  26
ATOM     26  C   UNL     1     -10.867  -6.394  40.747  1.00  0.00    -0.000 C 
BRANCH  26  27
ATOM     27  C   UNL     1     -10.169  -7.464  39.879  1.00  0.00    -0.000 C 
BRANCH  27  28
ATOM     28  C   UNL     1     -10.937  -8.798  39.854  1.00  0.00    -0.000 C 
BRANCH  28  29
ATOM     29  C   UNL     1     -10.741  -9.558  38.526  1.00  0.00    -0.000 C 
BRANCH  29  30
ATOM     30  C   UNL     1     -11.247  -8.788  37.293  1.00  0.00    -0.000 C 
BRANCH  30  31
ATOM     31  C   UNL     1     -10.217  -8.733  36.157  1.00  0.00    -0.003 C 
ATOM     32  C   UNL     1      -8.888  -9.346  36.588  1.00  0.00     0.004 C 
ENDBRANCH  30  31
ENDBRANCH  29  30
ENDBRANCH  28  29
ENDBRANCH  27  28
ENDBRANCH  26  27
ENDBRANCH  25  26
ENDBRANCH  24  25
ENDBRANCH  23  24
ENDBRANCH  22  23
ENDBRANCH  21  22
ENDBRANCH  20  21
ENDBRANCH  19  20
ENDBRANCH  18  19
ENDBRANCH   1  18
TORSDOF 28
ENDMDL
MODEL 6
REMARK VINA RESULT:    -5.426      1.877      4.036
REMARK INTER + INTRA:         -18.625
REMARK INTER:                 -15.812
REMARK INTRA:                  -2.813
REMARK UNBOUND:                -4.317
REMARK SMILES CCCCCCCCCCCCCCCCCCCCCCCCCCCCCC(=O)[O-]
REMARK SMILES IDX 16 1 17 2 18 3 19 4 20 5 21 6 22 7 23 8 24 9 25 10 26 11
REMARK SMILES IDX 27 12 28 13 29 14 30 15 31 16 32 17 15 18 14 19 13 20 12 21
REMARK SMILES IDX 11 22 10 23 9 24 8 25 7 26 6 27 5 28 4 29 3 30 2 31 1 32
REMARK H PARENT
REMARK Flexibility Score: inf
ROOT
ATOM      1  C   UNL     1     -14.886  -5.614  38.580  1.00  0.00     0.000 C 
ENDROOT
BRANCH   1   2
ATOM      2  C   UNL     1     -16.268  -5.502  39.246  1.00  0.00     0.000 C 
BRANCH   2   3
ATOM      3  C   UNL     1     -17.208  -6.658  38.866  1.00  0.00     0.000 C 
BRANCH   3   4
ATOM      4  C   UNL     1     -17.896  -7.309  40.082  1.00  0.00     0.000 C 
BRANCH   4   5
ATOM      5  C   UNL     1     -17.744  -6.554  41.417  1.00  0.00     0.000 C 
BRANCH   5   6
ATOM      6  C   UNL     1     -17.404  -7.477  42.602  1.00  0.00     0.000 C 
BRANCH   6   7
ATOM      7  C   UNL     1     -16.280  -6.912  43.485  1.00  0.00     0.000 C 
BRANCH   7   8
ATOM      8  C   UNL     1     -16.739  -6.634  44.924  1.00  0.00     0.000 C 
BRANCH   8   9
ATOM      9  C   UNL     1     -17.823  -7.630  45.353  1.00  0.00     0.000 C 
BRANCH   9  10
ATOM     10  C   UNL     1     -17.361  -8.466  46.556  1.00  0.00     0.000 C 
BRANCH  10  11
ATOM     11  C   UNL     1     -17.382  -9.977  46.269  1.00  0.00     0.000 C 
BRANCH  11  12
ATOM     12  C   UNL     1     -16.634 -10.344  44.976  1.00  0.00     0.000 C 
BRANCH  12  13
ATOM     13  C   UNL     1     -15.108 -10.165  45.090  1.00  0.00     0.006 C 
BRANCH  13  14
ATOM     14  C   UNL     1     -14.518 -10.678  46.415  1.00  0.00     0.053 C 
BRANCH  14  15
ATOM     15  C   UNL     1     -13.723  -9.633  47.135  1.00  0.00     0.041 C 
ATOM     16  O   UNL     1     -13.002  -9.951  48.117  1.00  0.00    -0.550 OA
ATOM     17  O   UNL     1     -13.764  -8.311  46.712  1.00  0.00    -0.550 OA
ENDBRANCH  14  15
ENDBRANCH  13  14
ENDBRANCH  12  13
ENDBRANCH  11  12
ENDBRANCH  10  11
ENDBRANCH   9  10
ENDBRANCH   8   9
ENDBRANCH   7   8
ENDBRANCH   6   7
ENDBRANCH   5   6
ENDBRANCH   4   5
ENDBRANCH   3   4
ENDBRANCH   2   3
ENDBRANCH   1   2
BRANCH   1  18
ATOM     18  C   UNL     1     -14.935  -5.783  37.047  1.00  0.00     0.000 C 
BRANCH  18  19
ATOM     19  C   UNL     1     -13.956  -6.860  36.541  1.00  0.00     0.000 C 
BRANCH  19  20
ATOM     20  C   UNL     1     -12.944  -7.305  37.618  1.00  0.00     0.000 C 
BRANCH  20  21
ATOM     21  C   UNL     1     -11.896  -8.321  37.121  1.00  0.00     0.000 C 
BRANCH  21  22
ATOM     22  C   UNL     1     -11.072  -9.010  38.221  1.00  0.00     0.000 C 
BRANCH  22  23
ATOM     23  C   UNL     1     -11.403  -8.492  39.631  1.00  0.00     0.000 C 
BRANCH  23  24
ATOM     24  C   UNL     1     -10.203  -8.655  40.578  1.00  0.00    -0.000 C 
BRANCH  24  25
ATOM     25  C   UNL     1      -9.838 -10.128  40.830  1.00  0.00    -0.000 C 
BRANCH  25  26
ATOM     26  C   UNL     1      -8.485 -10.571  40.242  1.00  0.00    -0.000 C 
BRANCH  26  27
ATOM     27  C   UNL     1      -7.813 -11.725  41.018  1.00  0.00    -0.000 C 
BRANCH  27  28
ATOM     28  C   UNL     1      -8.282 -11.804  42.482  1.00  0.00    -0.000 C 
BRANCH  28  29
ATOM     29  C   UNL     1      -7.123 -11.585  43.477  1.00  0.00    -0.000 C 
BRANCH  29  30
ATOM     30  C   UNL     1      -7.399 -10.483  44.516  1.00  0.00    -0.000 C 
BRANCH  30  31
ATOM     31  C   UNL     1      -7.939  -9.190  43.888  1.00  0.00    -0.003 C 
ATOM     32  C   UNL     1      -7.654  -7.985  44.779  1.00  0.00     0.004 C 
ENDBRANCH  30  31
ENDBRANCH  29  30
ENDBRANCH  28  29
ENDBRANCH  27  28
ENDBRANCH  26  27
ENDBRANCH  25  26
ENDBRANCH  24  25
ENDBRANCH  23  24
ENDBRANCH  22  23
ENDBRANCH  21  22
ENDBRANCH  20  21
ENDBRANCH  19  20
ENDBRANCH  18  19
ENDBRANCH   1  18
TORSDOF 28
ENDMDL
MODEL 7
REMARK VINA RESULT:    -5.408      2.664      5.567
REMARK INTER + INTRA:         -18.577
REMARK INTER:                 -13.868
REMARK INTRA:                  -4.709
REMARK UNBOUND:                -4.317
REMARK SMILES CCCCCCCCCCCCCCCCCCCCCCCCCCCCCC(=O)[O-]
REMARK SMILES IDX 16 1 17 2 18 3 19 4 20 5 21 6 22 7 23 8 24 9 25 10 26 11
REMARK SMILES IDX 27 12 28 13 29 14 30 15 31 16 32 17 15 18 14 19 13 20 12 21
REMARK SMILES IDX 11 22 10 23 9 24 8 25 7 26 6 27 5 28 4 29 3 30 2 31 1 32
REMARK H PARENT
REMARK Flexibility Score: inf
ROOT
ATOM      1  C   UNL     1     -14.711 -10.250  45.227  1.00  0.00     0.000 C 
ENDROOT
BRANCH   1   2
ATOM      2  C   UNL     1     -14.185 -10.620  46.623  1.00  0.00     0.000 C 
BRANCH   2   3
ATOM      3  C   UNL     1     -15.226 -11.364  47.475  1.00  0.00     0.000 C 
BRANCH   3   4
ATOM      4  C   UNL     1     -15.771 -10.522  48.645  1.00  0.00     0.000 C 
BRANCH   4   5
ATOM      5  C   UNL     1     -16.548  -9.251  48.247  1.00  0.00     0.000 C 
BRANCH   5   6
ATOM      6  C   UNL     1     -15.861  -7.951  48.704  1.00  0.00     0.000 C 
BRANCH   6   7
ATOM      7  C   UNL     1     -15.268  -7.154  47.531  1.00  0.00     0.000 C 
BRANCH   7   8
ATOM      8  C   UNL     1     -13.742  -7.009  47.624  1.00  0.00     0.000 C 
BRANCH   8   9
ATOM      9  C   UNL     1     -13.098  -7.117  46.237  1.00  0.00     0.000 C 
BRANCH   9  10
ATOM     10  C   UNL     1     -13.961  -6.424  45.171  1.00  0.00     0.000 C 
BRANCH  10  11
ATOM     11  C   UNL     1     -13.770  -7.029  43.770  1.00  0.00     0.000 C 
BRANCH  11  12
ATOM     12  C   UNL     1     -12.587  -6.401  43.012  1.00  0.00     0.000 C 
BRANCH  12  13
ATOM     13  C   UNL     1     -12.709  -4.872  42.865  1.00  0.00     0.006 C 
BRANCH  13  14
ATOM     14  C   UNL     1     -13.752  -4.427  41.825  1.00  0.00     0.053 C 
BRANCH  14  15
ATOM     15  C   UNL     1     -13.177  -3.510  40.789  1.00  0.00     0.041 C 
ATOM     16  O   UNL     1     -11.931  -3.356  40.700  1.00  0.00    -0.550 OA
ATOM     17  O   UNL     1     -14.017  -2.840  39.909  1.00  0.00    -0.550 OA
ENDBRANCH  14  15
ENDBRANCH  13  14
ENDBRANCH  12  13
ENDBRANCH  11  12
ENDBRANCH  10  11
ENDBRANCH   9  10
ENDBRANCH   8   9
ENDBRANCH   7   8
ENDBRANCH   6   7
ENDBRANCH   5   6
ENDBRANCH   4   5
ENDBRANCH   3   4
ENDBRANCH   2   3
ENDBRANCH   1   2
BRANCH   1  18
ATOM     18  C   UNL     1     -16.038 -10.940  44.849  1.00  0.00     0.000 C 
BRANCH  18  19
ATOM     19  C   UNL     1     -16.987 -10.008  44.071  1.00  0.00     0.000 C 
BRANCH  19  20
ATOM     20  C   UNL     1     -17.377  -8.745  44.870  1.00  0.00     0.000 C 
BRANCH  20  21
ATOM     21  C   UNL     1     -17.322  -7.438  44.055  1.00  0.00     0.000 C 
BRANCH  21  22
ATOM     22  C   UNL     1     -17.873  -7.530  42.622  1.00  0.00     0.000 C 
BRANCH  22  23
ATOM     23  C   UNL     1     -17.110  -6.638  41.629  1.00  0.00     0.000 C 
BRANCH  23  24
ATOM     24  C   UNL     1     -17.692  -6.762  40.211  1.00  0.00    -0.000 C 
BRANCH  24  25
ATOM     25  C   UNL     1     -17.056  -5.774  39.218  1.00  0.00    -0.000 C 
BRANCH  25  26
ATOM     26  C   UNL     1     -15.525  -5.878  39.091  1.00  0.00    -0.000 C 
BRANCH  26  27
ATOM     27  C   UNL     1     -15.026  -6.013  37.636  1.00  0.00    -0.000 C 
BRANCH  27  28
ATOM     28  C   UNL     1     -13.696  -6.784  37.536  1.00  0.00    -0.000 C 
BRANCH  28  29
ATOM     29  C   UNL     1     -12.959  -6.851  38.889  1.00  0.00    -0.000 C 
BRANCH  29  30
ATOM     30  C   UNL     1     -11.889  -7.956  38.955  1.00  0.00    -0.000 C 
BRANCH  30  31
ATOM     31  C   UNL     1     -10.771  -7.648  39.961  1.00  0.00    -0.003 C 
ATOM     32  C   UNL     1     -10.628  -8.770  40.986  1.00  0.00     0.004 C 
ENDBRANCH  30  31
ENDBRANCH  29  30
ENDBRANCH  28  29
ENDBRANCH  27  28
ENDBRANCH  26  27
ENDBRANCH  25  26
ENDBRANCH  24  25
ENDBRANCH  23  24
ENDBRANCH  22  23
ENDBRANCH  21  22
ENDBRANCH  20  21
ENDBRANCH  19  20
ENDBRANCH  18  19
ENDBRANCH   1  18
TORSDOF 28
ENDMDL
MODEL 8
REMARK VINA RESULT:    -5.395      3.320      8.232
REMARK INTER + INTRA:         -18.543
REMARK INTER:                 -14.525
REMARK INTRA:                  -4.017
REMARK UNBOUND:                -4.317
REMARK SMILES CCCCCCCCCCCCCCCCCCCCCCCCCCCCCC(=O)[O-]
REMARK SMILES IDX 16 1 17 2 18 3 19 4 20 5 21 6 22 7 23 8 24 9 25 10 26 11
REMARK SMILES IDX 27 12 28 13 29 14 30 15 31 16 32 17 15 18 14 19 13 20 12 21
REMARK SMILES IDX 11 22 10 23 9 24 8 25 7 26 6 27 5 28 4 29 3 30 2 31 1 32
REMARK H PARENT
REMARK Flexibility Score: inf
ROOT
ATOM      1  C   UNL     1     -16.449  -7.194  44.029  1.00  0.00     0.000 C 
ENDROOT
BRANCH   1   2
ATOM      2  C   UNL     1     -16.603  -6.564  42.634  1.00  0.00     0.000 C 
BRANCH   2   3
ATOM      3  C   UNL     1     -17.695  -7.242  41.791  1.00  0.00     0.000 C 
BRANCH   3   4
ATOM      4  C   UNL     1     -18.037  -6.470  40.501  1.00  0.00     0.000 C 
BRANCH   4   5
ATOM      5  C   UNL     1     -17.740  -7.212  39.182  1.00  0.00     0.000 C 
BRANCH   5   6
ATOM      6  C   UNL     1     -16.599  -6.573  38.369  1.00  0.00     0.000 C 
BRANCH   6   7
ATOM      7  C   UNL     1     -15.961  -5.375  39.091  1.00  0.00     0.000 C 
BRANCH   7   8
ATOM      8  C   UNL     1     -14.426  -5.431  39.087  1.00  0.00     0.000 C 
BRANCH   8   9
ATOM      9  C   UNL     1     -13.870  -5.258  40.506  1.00  0.00     0.000 C 
BRANCH   9  10
ATOM     10  C   UNL     1     -13.082  -6.500  40.947  1.00  0.00     0.000 C 
BRANCH  10  11
ATOM     11  C   UNL     1     -11.686  -6.574  40.306  1.00  0.00     0.000 C 
BRANCH  11  12
ATOM     12  C   UNL     1     -11.369  -7.969  39.741  1.00  0.00     0.000 C 
BRANCH  12  13
ATOM     13  C   UNL     1     -11.773  -8.126  38.263  1.00  0.00     0.006 C 
BRANCH  13  14
ATOM     14  C   UNL     1     -11.377  -9.481  37.649  1.00  0.00     0.053 C 
BRANCH  14  15
ATOM     15  C   UNL     1      -9.998  -9.468  37.064  1.00  0.00     0.041 C 
ATOM     16  O   UNL     1      -9.817  -9.085  35.878  1.00  0.00    -0.550 OA
ATOM     17  O   UNL     1      -8.912  -9.863  37.832  1.00  0.00    -0.550 OA
ENDBRANCH  14  15
ENDBRANCH  13  14
ENDBRANCH  12  13
ENDBRANCH  11  12
ENDBRANCH  10  11
ENDBRANCH   9  10
ENDBRANCH   8   9
ENDBRANCH   7   8
ENDBRANCH   6   7
ENDBRANCH   5   6
ENDBRANCH   4   5
ENDBRANCH   3   4
ENDBRANCH   2   3
ENDBRANCH   1   2
BRANCH   1  18
ATOM     18  C   UNL     1     -17.779  -7.646  44.667  1.00  0.00     0.000 C 
BRANCH  18  19
ATOM     19  C   UNL     1     -17.726  -9.100  45.175  1.00  0.00     0.000 C 
BRANCH  19  20
ATOM     20  C   UNL     1     -17.002 -10.051  44.198  1.00  0.00     0.000 C 
BRANCH  20  21
ATOM     21  C   UNL     1     -15.878 -10.885  44.843  1.00  0.00     0.000 C 
BRANCH  21  22
ATOM     22  C   UNL     1     -14.796 -10.078  45.578  1.00  0.00     0.000 C 
BRANCH  22  23
ATOM     23  C   UNL     1     -14.277 -10.784  46.842  1.00  0.00     0.000 C 
BRANCH  23  24
ATOM     24  C   UNL     1     -12.879 -10.274  47.228  1.00  0.00    -0.000 C 
BRANCH  24  25
ATOM     25  C   UNL     1     -12.398  -9.119  46.334  1.00  0.00    -0.000 C 
BRANCH  25  26
ATOM     26  C   UNL     1     -11.925  -7.865  47.093  1.00  0.00    -0.000 C 
BRANCH  26  27
ATOM     27  C   UNL     1     -11.993  -8.000  48.629  1.00  0.00    -0.000 C 
BRANCH  27  28
ATOM     28  C   UNL     1     -12.425  -6.693  49.320  1.00  0.00    -0.000 C 
BRANCH  28  29
ATOM     29  C   UNL     1     -13.873  -6.763  49.846  1.00  0.00    -0.000 C 
BRANCH  29  30
ATOM     30  C   UNL     1     -14.489  -8.172  49.778  1.00  0.00    -0.000 C 
BRANCH  30  31
ATOM     31  C   UNL     1     -15.869  -8.192  49.106  1.00  0.00    -0.003 C 
ATOM     32  C   UNL     1     -15.871  -7.360  47.827  1.00  0.00     0.004 C 
ENDBRANCH  30  31
ENDBRANCH  29  30
ENDBRANCH  28  29
ENDBRANCH  27  28
ENDBRANCH  26  27
ENDBRANCH  25  26
ENDBRANCH  24  25
ENDBRANCH  23  24
ENDBRANCH  22  23
ENDBRANCH  21  22
ENDBRANCH  20  21
ENDBRANCH  19  20
ENDBRANCH  18  19
ENDBRANCH   1  18
TORSDOF 28
ENDMDL
MODEL 9
REMARK VINA RESULT:    -5.388      1.902      2.832
REMARK INTER + INTRA:         -18.525
REMARK INTER:                 -13.654
REMARK INTRA:                  -4.871
REMARK UNBOUND:                -4.317
REMARK SMILES CCCCCCCCCCCCCCCCCCCCCCCCCCCCCC(=O)[O-]
REMARK SMILES IDX 16 1 17 2 18 3 19 4 20 5 21 6 22 7 23 8 24 9 25 10 26 11
REMARK SMILES IDX 27 12 28 13 29 14 30 15 31 16 32 17 15 18 14 19 13 20 12 21
REMARK SMILES IDX 11 22 10 23 9 24 8 25 7 26 6 27 5 28 4 29 3 30 2 31 1 32
REMARK H PARENT
REMARK Flexibility Score: inf
ROOT
ATOM      1  C   UNL     1     -16.480  -6.158  40.984  1.00  0.00     0.000 C 
ENDROOT
BRANCH   1   2
ATOM      2  C   UNL     1     -16.841  -6.600  42.413  1.00  0.00     0.000 C 
BRANCH   2   3
ATOM      3  C   UNL     1     -17.918  -7.696  42.444  1.00  0.00     0.000 C 
BRANCH   3   4
ATOM      4  C   UNL     1     -17.855  -8.578  43.706  1.00  0.00     0.000 C 
BRANCH   4   5
ATOM      5  C   UNL     1     -17.099  -9.912  43.550  1.00  0.00     0.000 C 
BRANCH   5   6
ATOM      6  C   UNL     1     -16.438 -10.393  44.855  1.00  0.00     0.000 C 
BRANCH   6   7
ATOM      7  C   UNL     1     -17.311 -10.125  46.091  1.00  0.00     0.000 C 
BRANCH   7   8
ATOM      8  C   UNL     1     -16.525  -9.480  47.243  1.00  0.00     0.000 C 
BRANCH   8   9
ATOM      9  C   UNL     1     -17.017  -8.052  47.507  1.00  0.00     0.000 C 
BRANCH   9  10
ATOM     10  C   UNL     1     -15.883  -7.033  47.320  1.00  0.00     0.000 C 
BRANCH  10  11
ATOM     11  C   UNL     1     -15.884  -6.397  45.920  1.00  0.00     0.000 C 
BRANCH  11  12
ATOM     12  C   UNL     1     -14.465  -6.195  45.362  1.00  0.00     0.000 C 
BRANCH  12  13
ATOM     13  C   UNL     1     -14.070  -7.259  44.320  1.00  0.00     0.006 C 
BRANCH  13  14
ATOM     14  C   UNL     1     -13.456  -8.531  44.929  1.00  0.00     0.053 C 
BRANCH  14  15
ATOM     15  C   UNL     1     -11.986  -8.645  44.665  1.00  0.00     0.041 C 
ATOM     16  O   UNL     1     -11.262  -7.615  44.661  1.00  0.00    -0.550 OA
ATOM     17  O   UNL     1     -11.413  -9.890  44.444  1.00  0.00    -0.550 OA
ENDBRANCH  14  15
ENDBRANCH  13  14
ENDBRANCH  12  13
ENDBRANCH  11  12
ENDBRANCH  10  11
ENDBRANCH   9  10
ENDBRANCH   8   9
ENDBRANCH   7   8
ENDBRANCH   6   7
ENDBRANCH   5   6
ENDBRANCH   4   5
ENDBRANCH   3   4
ENDBRANCH   2   3
ENDBRANCH   1   2
BRANCH   1  18
ATOM     18  C   UNL     1     -17.549  -6.505  39.928  1.00  0.00     0.000 C 
BRANCH  18  19
ATOM     19  C   UNL     1     -17.016  -6.384  38.487  1.00  0.00     0.000 C 
BRANCH  19  20
ATOM     20  C   UNL     1     -15.625  -5.719  38.416  1.00  0.00     0.000 C 
BRANCH  20  21
ATOM     21  C   UNL     1     -14.659  -6.377  37.412  1.00  0.00     0.000 C 
BRANCH  21  22
ATOM     22  C   UNL     1     -13.398  -7.008  38.026  1.00  0.00     0.000 C 
BRANCH  22  23
ATOM     23  C   UNL     1     -12.507  -7.702  36.983  1.00  0.00     0.000 C 
BRANCH  23  24
ATOM     24  C   UNL     1     -11.713  -8.858  37.612  1.00  0.00    -0.000 C 
BRANCH  24  25
ATOM     25  C   UNL     1     -10.626  -8.374  38.587  1.00  0.00    -0.000 C 
BRANCH  25  26
ATOM     26  C   UNL     1     -10.609  -9.094  39.948  1.00  0.00    -0.000 C 
BRANCH  26  27
ATOM     27  C   UNL     1     -10.680  -8.141  41.161  1.00  0.00    -0.000 C 
BRANCH  27  28
ATOM     28  C   UNL     1     -11.990  -7.333  41.201  1.00  0.00    -0.000 C 
BRANCH  28  29
ATOM     29  C   UNL     1     -11.748  -5.821  41.007  1.00  0.00    -0.000 C 
BRANCH  29  30
ATOM     30  C   UNL     1     -13.030  -4.974  41.096  1.00  0.00    -0.000 C 
BRANCH  30  31
ATOM     31  C   UNL     1     -12.857  -3.714  41.955  1.00  0.00    -0.003 C 
ATOM     32  C   UNL     1     -12.331  -4.062  43.344  1.00  0.00     0.004 C 
ENDBRANCH  30  31
ENDBRANCH  29  30
ENDBRANCH  28  29
ENDBRANCH  27  28
ENDBRANCH  26  27
ENDBRANCH  25  26
ENDBRANCH  24  25
ENDBRANCH  23  24
ENDBRANCH  22  23
ENDBRANCH  21  22
ENDBRANCH  20  21
ENDBRANCH  19  20
ENDBRANCH  18  19
ENDBRANCH   1  18
TORSDOF 28
ENDMDL
