MODEL 1
REMARK VINA RESULT:    -4.215      0.000      0.000
REMARK INTER + INTRA:         -16.848
REMARK INTER:                 -11.115
REMARK INTRA:                  -5.734
REMARK UNBOUND:                -5.734
REMARK SMILES CCCCCCCCCCCCCCCCCCCCCCCCCCCCCC(=O)[O-]
REMARK SMILES IDX 16 1 17 2 18 3 19 4 20 5 21 6 22 7 23 8 24 9 25 10 26 11
REMARK SMILES IDX 27 12 28 13 29 14 30 15 31 16 32 17 15 18 14 19 13 20 12 21
REMARK SMILES IDX 11 22 10 23 9 24 8 25 7 26 6 27 5 28 4 29 3 30 2 31 1 32
REMARK H PARENT
REMARK Flexibility Score: inf
ROOT
ATOM      1  C   UNL     1      23.766   7.125   9.153  1.00  0.00     0.000 C 
ENDROOT
BRANCH   1   2
ATOM      2  C   UNL     1      23.025   7.285  10.495  1.00  0.00     0.000 C 
BRANCH   2   3
ATOM      3  C   UNL     1      23.842   6.936  11.750  1.00  0.00     0.000 C 
BRANCH   3   4
ATOM      4  C   UNL     1      23.172   5.859  12.620  1.00  0.00     0.000 C 
BRANCH   4   5
ATOM      5  C   UNL     1      21.752   6.246  13.066  1.00  0.00     0.000 C 
BRANCH   5   6
ATOM      6  C   UNL     1      21.124   5.321  14.124  1.00  0.00     0.000 C 
BRANCH   6   7
ATOM      7  C   UNL     1      21.611   3.864  14.021  1.00  0.00     0.000 C 
BRANCH   7   8
ATOM      8  C   UNL     1      22.583   3.471  15.149  1.00  0.00     0.000 C 
BRANCH   8   9
ATOM      9  C   UNL     1      22.073   3.742  16.577  1.00  0.00     0.000 C 
BRANCH   9  10
ATOM     10  C   UNL     1      22.853   4.861  17.292  1.00  0.00     0.000 C 
BRANCH  10  11
ATOM     11  C   UNL     1      24.059   5.349  16.472  1.00  0.00     0.000 C 
BRANCH  11  12
ATOM     12  C   UNL     1      23.960   6.834  16.088  1.00  0.00     0.000 C 
BRANCH  12  13
ATOM     13  C   UNL     1      25.243   7.302  15.386  1.00  0.00     0.006 C 
BRANCH  13  14
ATOM     14  C   UNL     1      26.213   6.145  15.109  1.00  0.00     0.053 C 
BRANCH  14  15
ATOM     15  C   UNL     1      26.779   6.206  13.722  1.00  0.00     0.041 C 
ATOM     16  O   UNL     1      27.262   7.282  13.279  1.00  0.00    -0.550 OA
ATOM     17  O   UNL     1      26.768   5.074  12.916  1.00  0.00    -0.550 OA
ENDBRANCH  14  15
ENDBRANCH  13  14
ENDBRANCH  12  13
ENDBRANCH  11  12
ENDBRANCH  10  11
ENDBRANCH   9  10
ENDBRANCH   8   9
ENDBRANCH   7   8
ENDBRANCH   6   7
ENDBRANCH   5   6
ENDBRANCH   4   5
ENDBRANCH   3   4
ENDBRANCH   2   3
ENDBRANCH   1   2
BRANCH   1  18
ATOM     18  C   UNL     1      24.225   5.683   8.849  1.00  0.00     0.000 C 
BRANCH  18  19
ATOM     19  C   UNL     1      23.050   4.702   8.666  1.00  0.00     0.000 C 
BRANCH  19  20
ATOM     20  C   UNL     1      23.018   3.614   9.751  1.00  0.00     0.000 C 
BRANCH  20  21
ATOM     21  C   UNL     1      21.610   3.395  10.333  1.00  0.00     0.000 C 
BRANCH  21  22
ATOM     22  C   UNL     1      20.608   4.480   9.897  1.00  0.00     0.000 C 
BRANCH  22  23
ATOM     23  C   UNL     1      19.361   4.612  10.793  1.00  0.00     0.000 C 
BRANCH  23  24
ATOM     24  C   UNL     1      18.845   6.051  10.991  1.00  0.00    -0.000 C 
BRANCH  24  25
ATOM     25  C   UNL     1      19.448   7.100  10.034  1.00  0.00    -0.000 C 
BRANCH  25  26
ATOM     26  C   UNL     1      18.495   8.240   9.633  1.00  0.00    -0.000 C 
BRANCH  26  27
ATOM     27  C   UNL     1      17.015   7.888   9.844  1.00  0.00    -0.000 C 
BRANCH  27  28
ATOM     28  C   UNL     1      16.226   8.027   8.533  1.00  0.00    -0.000 C 
BRANCH  28  29
ATOM     29  C   UNL     1      16.945   7.363   7.341  1.00  0.00    -0.000 C 
BRANCH  29  30
ATOM     30  C   UNL     1      16.668   5.856   7.212  1.00  0.00    -0.000 C 
BRANCH  30  31
ATOM     31  C   UNL     1      17.907   4.994   7.482  1.00  0.00    -0.003 C 
ATOM     32  C   UNL     1      17.619   3.516   7.224  1.00  0.00     0.004 C 
ENDBRANCH  30  31
ENDBRANCH  29  30
ENDBRANCH  28  29
ENDBRANCH  27  28
ENDBRANCH  26  27
ENDBRANCH  25  26
ENDBRANCH  24  25
ENDBRANCH  23  24
ENDBRANCH  22  23
ENDBRANCH  21  22
ENDBRANCH  20  21
ENDBRANCH  19  20
ENDBRANCH  18  19
ENDBRANCH   1  18
TORSDOF 28
ENDMDL
MODEL 2
REMARK VINA RESULT:    -4.144      3.168      8.577
REMARK INTER + INTRA:         -16.661
REMARK INTER:                 -10.980
REMARK INTRA:                  -5.681
REMARK UNBOUND:                -5.734
REMARK SMILES CCCCCCCCCCCCCCCCCCCCCCCCCCCCCC(=O)[O-]
REMARK SMILES IDX 16 1 17 2 18 3 19 4 20 5 21 6 22 7 23 8 24 9 25 10 26 11
REMARK SMILES IDX 27 12 28 13 29 14 30 15 31 16 32 17 15 18 14 19 13 20 12 21
REMARK SMILES IDX 11 22 10 23 9 24 8 25 7 26 6 27 5 28 4 29 3 30 2 31 1 32
REMARK H PARENT
REMARK Flexibility Score: inf
ROOT
ATOM      1  C   UNL     1      25.978   3.822  17.174  1.00  0.00     0.000 C 
ENDROOT
BRANCH   1   2
ATOM      2  C   UNL     1      25.122   2.814  16.382  1.00  0.00     0.000 C 
BRANCH   2   3
ATOM      3  C   UNL     1      25.005   3.087  14.873  1.00  0.00     0.000 C 
BRANCH   3   4
ATOM      4  C   UNL     1      23.917   2.236  14.195  1.00  0.00     0.000 C 
BRANCH   4   5
ATOM      5  C   UNL     1      22.655   3.044  13.847  1.00  0.00     0.000 C 
BRANCH   5   6
ATOM      6  C   UNL     1      22.822   4.058  12.701  1.00  0.00     0.000 C 
BRANCH   6   7
ATOM      7  C   UNL     1      22.720   3.417  11.305  1.00  0.00     0.000 C 
BRANCH   7   8
ATOM      8  C   UNL     1      23.404   4.250  10.205  1.00  0.00     0.000 C 
BRANCH   8   9
ATOM      9  C   UNL     1      24.550   5.159  10.689  1.00  0.00     0.000 C 
BRANCH   9  10
ATOM     10  C   UNL     1      24.528   6.553  10.034  1.00  0.00     0.000 C 
BRANCH  10  11
ATOM     11  C   UNL     1      23.141   7.212  10.108  1.00  0.00     0.000 C 
BRANCH  11  12
ATOM     12  C   UNL     1      22.712   7.545  11.545  1.00  0.00     0.000 C 
BRANCH  12  13
ATOM     13  C   UNL     1      21.182   7.521  11.677  1.00  0.00     0.006 C 
BRANCH  13  14
ATOM     14  C   UNL     1      20.494   7.014  10.401  1.00  0.00     0.053 C 
BRANCH  14  15
ATOM     15  C   UNL     1      19.437   5.994  10.699  1.00  0.00     0.041 C 
ATOM     16  O   UNL     1      18.368   5.972  10.031  1.00  0.00    -0.550 OA
ATOM     17  O   UNL     1      19.629   5.071  11.720  1.00  0.00    -0.550 OA
ENDBRANCH  14  15
ENDBRANCH  13  14
ENDBRANCH  12  13
ENDBRANCH  11  12
ENDBRANCH  10  11
ENDBRANCH   9  10
ENDBRANCH   8   9
ENDBRANCH   7   8
ENDBRANCH   6   7
ENDBRANCH   5   6
ENDBRANCH   4   5
ENDBRANCH   3   4
ENDBRANCH   2   3
ENDBRANCH   1   2
BRANCH   1  18
ATOM     18  C   UNL     1      26.494   3.291  18.530  1.00  0.00     0.000 C 
BRANCH  18  19
ATOM     19  C   UNL     1      26.771   1.775  18.516  1.00  0.00     0.000 C 
BRANCH  19  20
ATOM     20  C   UNL     1      26.045   1.034  19.651  1.00  0.00     0.000 C 
BRANCH  20  21
ATOM     21  C   UNL     1      24.514   1.172  19.569  1.00  0.00     0.000 C 
BRANCH  21  22
ATOM     22  C   UNL     1      23.915   1.911  20.779  1.00  0.00     0.000 C 
BRANCH  22  23
ATOM     23  C   UNL     1      22.672   2.769  20.467  1.00  0.00     0.000 C 
BRANCH  23  24
ATOM     24  C   UNL     1      22.782   3.647  19.205  1.00  0.00    -0.000 C 
BRANCH  24  25
ATOM     25  C   UNL     1      23.199   5.111  19.459  1.00  0.00    -0.000 C 
BRANCH  25  26
ATOM     26  C   UNL     1      23.047   6.052  18.251  1.00  0.00    -0.000 C 
BRANCH  26  27
ATOM     27  C   UNL     1      22.605   5.322  16.974  1.00  0.00    -0.000 C 
BRANCH  27  28
ATOM     28  C   UNL     1      22.891   6.173  15.727  1.00  0.00    -0.000 C 
BRANCH  28  29
ATOM     29  C   UNL     1      23.907   7.299  16.006  1.00  0.00    -0.000 C 
BRANCH  29  30
ATOM     30  C   UNL     1      25.317   7.009  15.464  1.00  0.00    -0.000 C 
BRANCH  30  31
ATOM     31  C   UNL     1      25.340   6.788  13.947  1.00  0.00    -0.003 C 
ATOM     32  C   UNL     1      26.594   6.027  13.520  1.00  0.00     0.004 C 
ENDBRANCH  30  31
ENDBRANCH  29  30
ENDBRANCH  28  29
ENDBRANCH  27  28
ENDBRANCH  26  27
ENDBRANCH  25  26
ENDBRANCH  24  25
ENDBRANCH  23  24
ENDBRANCH  22  23
ENDBRANCH  21  22
ENDBRANCH  20  21
ENDBRANCH  19  20
ENDBRANCH  18  19
ENDBRANCH   1  18
TORSDOF 28
ENDMDL
MODEL 3
REMARK VINA RESULT:    -4.109      5.755     10.373
REMARK INTER + INTRA:         -16.570
REMARK INTER:                 -11.049
REMARK INTRA:                  -5.520
REMARK UNBOUND:                -5.734
REMARK SMILES CCCCCCCCCCCCCCCCCCCCCCCCCCCCCC(=O)[O-]
REMARK SMILES IDX 16 1 17 2 18 3 19 4 20 5 21 6 22 7 23 8 24 9 25 10 26 11
REMARK SMILES IDX 27 12 28 13 29 14 30 15 31 16 32 17 15 18 14 19 13 20 12 21
REMARK SMILES IDX 11 22 10 23 9 24 8 25 7 26 6 27 5 28 4 29 3 30 2 31 1 32
REMARK H PARENT
REMARK Flexibility Score: inf
ROOT
ATOM      1  C   UNL     1      25.986   1.187  19.054  1.00  0.00     0.000 C 
ENDROOT
BRANCH   1   2
ATOM      2  C   UNL     1      25.058   1.133  20.283  1.00  0.00     0.000 C 
BRANCH   2   3
ATOM      3  C   UNL     1      23.644   1.700  20.072  1.00  0.00     0.000 C 
BRANCH   3   4
ATOM      4  C   UNL     1      23.158   2.553  21.257  1.00  0.00     0.000 C 
BRANCH   4   5
ATOM      5  C   UNL     1      22.655   3.943  20.829  1.00  0.00     0.000 C 
BRANCH   5   6
ATOM      6  C   UNL     1      22.769   4.245  19.324  1.00  0.00     0.000 C 
BRANCH   6   7
ATOM      7  C   UNL     1      23.116   5.714  19.025  1.00  0.00     0.000 C 
BRANCH   7   8
ATOM      8  C   UNL     1      23.438   5.969  17.542  1.00  0.00     0.000 C 
BRANCH   8   9
ATOM      9  C   UNL     1      22.591   5.164  16.539  1.00  0.00     0.000 C 
BRANCH   9  10
ATOM     10  C   UNL     1      23.341   4.856  15.229  1.00  0.00     0.000 C 
BRANCH  10  11
ATOM     11  C   UNL     1      23.970   3.453  15.231  1.00  0.00     0.000 C 
BRANCH  11  12
ATOM     12  C   UNL     1      25.349   3.414  14.554  1.00  0.00     0.000 C 
BRANCH  12  13
ATOM     13  C   UNL     1      26.255   4.528  15.099  1.00  0.00     0.006 C 
BRANCH  13  14
ATOM     14  C   UNL     1      27.195   5.095  14.025  1.00  0.00     0.053 C 
BRANCH  14  15
ATOM     15  C   UNL     1      26.752   6.444  13.546  1.00  0.00     0.041 C 
ATOM     16  O   UNL     1      27.175   6.900  12.450  1.00  0.00    -0.550 OA
ATOM     17  O   UNL     1      25.877   7.202  14.315  1.00  0.00    -0.550 OA
ENDBRANCH  14  15
ENDBRANCH  13  14
ENDBRANCH  12  13
ENDBRANCH  11  12
ENDBRANCH  10  11
ENDBRANCH   9  10
ENDBRANCH   8   9
ENDBRANCH   7   8
ENDBRANCH   6   7
ENDBRANCH   5   6
ENDBRANCH   4   5
ENDBRANCH   3   4
ENDBRANCH   2   3
ENDBRANCH   1   2
BRANCH   1  18
ATOM     18  C   UNL     1      25.827   2.459  18.194  1.00  0.00     0.000 C 
BRANCH  18  19
ATOM     19  C   UNL     1      26.784   3.592  18.611  1.00  0.00     0.000 C 
BRANCH  19  20
ATOM     20  C   UNL     1      28.191   3.077  18.957  1.00  0.00     0.000 C 
BRANCH  20  21
ATOM     21  C   UNL     1      29.130   3.045  17.738  1.00  0.00     0.000 C 
BRANCH  21  22
ATOM     22  C   UNL     1      29.737   1.653  17.487  1.00  0.00     0.000 C 
BRANCH  22  23
ATOM     23  C   UNL     1      28.820   0.669  16.733  1.00  0.00     0.000 C 
BRANCH  23  24
ATOM     24  C   UNL     1      28.305   1.167  15.368  1.00  0.00    -0.000 C 
BRANCH  24  25
ATOM     25  C   UNL     1      27.207   0.294  14.724  1.00  0.00    -0.000 C 
BRANCH  25  26
ATOM     26  C   UNL     1      26.195  -0.313  15.712  1.00  0.00    -0.000 C 
BRANCH  26  27
ATOM     27  C   UNL     1      25.895  -1.792  15.430  1.00  0.00    -0.000 C 
BRANCH  27  28
ATOM     28  C   UNL     1      26.842  -2.705  16.224  1.00  0.00    -0.000 C 
BRANCH  28  29
ATOM     29  C   UNL     1      27.935  -3.332  15.336  1.00  0.00    -0.000 C 
BRANCH  29  30
ATOM     30  C   UNL     1      29.367  -2.995  15.786  1.00  0.00    -0.000 C 
BRANCH  30  31
ATOM     31  C   UNL     1      30.177  -2.268  14.706  1.00  0.00    -0.003 C 
ATOM     32  C   UNL     1      31.382  -1.550  15.311  1.00  0.00     0.004 C 
ENDBRANCH  30  31
ENDBRANCH  29  30
ENDBRANCH  28  29
ENDBRANCH  27  28
ENDBRANCH  26  27
ENDBRANCH  25  26
ENDBRANCH  24  25
ENDBRANCH  23  24
ENDBRANCH  22  23
ENDBRANCH  21  22
ENDBRANCH  20  21
ENDBRANCH  19  20
ENDBRANCH  18  19
ENDBRANCH   1  18
TORSDOF 28
ENDMDL
MODEL 4
REMARK VINA RESULT:    -4.048      4.973     10.579
REMARK INTER + INTRA:         -16.409
REMARK INTER:                 -10.513
REMARK INTRA:                  -5.896
REMARK UNBOUND:                -5.734
REMARK SMILES CCCCCCCCCCCCCCCCCCCCCCCCCCCCCC(=O)[O-]
REMARK SMILES IDX 16 1 17 2 18 3 19 4 20 5 21 6 22 7 23 8 24 9 25 10 26 11
REMARK SMILES IDX 27 12 28 13 29 14 30 15 31 16 32 17 15 18 14 19 13 20 12 21
REMARK SMILES IDX 11 22 10 23 9 24 8 25 7 26 6 27 5 28 4 29 3 30 2 31 1 32
REMARK H PARENT
REMARK Flexibility Score: inf
ROOT
ATOM      1  C   UNL     1      27.862   2.964  18.625  1.00  0.00     0.000 C 
ENDROOT
BRANCH   1   2
ATOM      2  C   UNL     1      26.590   3.825  18.493  1.00  0.00     0.000 C 
BRANCH   2   3
ATOM      3  C   UNL     1      25.271   3.118  18.849  1.00  0.00     0.000 C 
BRANCH   3   4
ATOM      4  C   UNL     1      24.298   3.035  17.660  1.00  0.00     0.000 C 
BRANCH   4   5
ATOM      5  C   UNL     1      22.949   3.720  17.941  1.00  0.00     0.000 C 
BRANCH   5   6
ATOM      6  C   UNL     1      23.024   4.971  18.835  1.00  0.00     0.000 C 
BRANCH   6   7
ATOM      7  C   UNL     1      23.267   6.268  18.041  1.00  0.00     0.000 C 
BRANCH   7   8
ATOM      8  C   UNL     1      22.461   6.336  16.731  1.00  0.00     0.000 C 
BRANCH   8   9
ATOM      9  C   UNL     1      23.300   6.539  15.456  1.00  0.00     0.000 C 
BRANCH   9  10
ATOM     10  C   UNL     1      24.635   7.259  15.723  1.00  0.00     0.000 C 
BRANCH  10  11
ATOM     11  C   UNL     1      25.847   6.436  15.258  1.00  0.00     0.000 C 
BRANCH  11  12
ATOM     12  C   UNL     1      25.466   5.026  14.779  1.00  0.00     0.000 C 
BRANCH  12  13
ATOM     13  C   UNL     1      26.023   4.758  13.374  1.00  0.00     0.006 C 
BRANCH  13  14
ATOM     14  C   UNL     1      26.075   6.029  12.513  1.00  0.00     0.053 C 
BRANCH  14  15
ATOM     15  C   UNL     1      24.827   6.210  11.702  1.00  0.00     0.041 C 
ATOM     16  O   UNL     1      24.577   5.435  10.740  1.00  0.00    -0.550 OA
ATOM     17  O   UNL     1      23.944   7.239  12.004  1.00  0.00    -0.550 OA
ENDBRANCH  14  15
ENDBRANCH  13  14
ENDBRANCH  12  13
ENDBRANCH  11  12
ENDBRANCH  10  11
ENDBRANCH   9  10
ENDBRANCH   8   9
ENDBRANCH   7   8
ENDBRANCH   6   7
ENDBRANCH   5   6
ENDBRANCH   4   5
ENDBRANCH   3   4
ENDBRANCH   2   3
ENDBRANCH   1   2
BRANCH   1  18
ATOM     18  C   UNL     1      27.616   1.444  18.506  1.00  0.00     0.000 C 
BRANCH  18  19
ATOM     19  C   UNL     1      28.190   0.841  17.209  1.00  0.00     0.000 C 
BRANCH  19  20
ATOM     20  C   UNL     1      27.286   1.093  15.992  1.00  0.00     0.000 C 
BRANCH  20  21
ATOM     21  C   UNL     1      27.872   2.131  15.019  1.00  0.00     0.000 C 
BRANCH  21  22
ATOM     22  C   UNL     1      29.410   2.179  15.052  1.00  0.00     0.000 C 
BRANCH  22  23
ATOM     23  C   UNL     1      30.011   3.560  15.382  1.00  0.00     0.000 C 
BRANCH  23  24
ATOM     24  C   UNL     1      28.985   4.651  15.748  1.00  0.00    -0.000 C 
BRANCH  24  25
ATOM     25  C   UNL     1      29.584   6.043  16.038  1.00  0.00    -0.000 C 
BRANCH  25  26
ATOM     26  C   UNL     1      30.703   6.063  17.095  1.00  0.00    -0.000 C 
BRANCH  26  27
ATOM     27  C   UNL     1      30.170   6.001  18.534  1.00  0.00    -0.000 C 
BRANCH  27  28
ATOM     28  C   UNL     1      30.881   4.900  19.335  1.00  0.00    -0.000 C 
BRANCH  28  29
ATOM     29  C   UNL     1      31.820   4.047  18.457  1.00  0.00    -0.000 C 
BRANCH  29  30
ATOM     30  C   UNL     1      32.139   2.666  19.053  1.00  0.00    -0.000 C 
BRANCH  30  31
ATOM     31  C   UNL     1      32.802   1.718  18.046  1.00  0.00    -0.003 C 
ATOM     32  C   UNL     1      31.802   0.694  17.511  1.00  0.00     0.004 C 
ENDBRANCH  30  31
ENDBRANCH  29  30
ENDBRANCH  28  29
ENDBRANCH  27  28
ENDBRANCH  26  27
ENDBRANCH  25  26
ENDBRANCH  24  25
ENDBRANCH  23  24
ENDBRANCH  22  23
ENDBRANCH  21  22
ENDBRANCH  20  21
ENDBRANCH  19  20
ENDBRANCH  18  19
ENDBRANCH   1  18
TORSDOF 28
ENDMDL
MODEL 5
REMARK VINA RESULT:    -3.969      6.151     10.726
REMARK INTER + INTRA:         -16.200
REMARK INTER:                 -11.011
REMARK INTRA:                  -5.189
REMARK UNBOUND:                -5.734
REMARK SMILES CCCCCCCCCCCCCCCCCCCCCCCCCCCCCC(=O)[O-]
REMARK SMILES IDX 16 1 17 2 18 3 19 4 20 5 21 6 22 7 23 8 24 9 25 10 26 11
REMARK SMILES IDX 27 12 28 13 29 14 30 15 31 16 32 17 15 18 14 19 13 20 12 21
REMARK SMILES IDX 11 22 10 23 9 24 8 25 7 26 6 27 5 28 4 29 3 30 2 31 1 32
REMARK H PARENT
REMARK Flexibility Score: inf
ROOT
ATOM      1  C   UNL     1      25.810   2.517  17.651  1.00  0.00     0.000 C 
ENDROOT
BRANCH   1   2
ATOM      2  C   UNL     1      25.053   1.334  18.286  1.00  0.00     0.000 C 
BRANCH   2   3
ATOM      3  C   UNL     1      25.411   1.027  19.750  1.00  0.00     0.000 C 
BRANCH   3   4
ATOM      4  C   UNL     1      24.239   1.269  20.716  1.00  0.00     0.000 C 
BRANCH   4   5
ATOM      5  C   UNL     1      23.094   2.076  20.079  1.00  0.00     0.000 C 
BRANCH   5   6
ATOM      6  C   UNL     1      22.996   3.543  20.534  1.00  0.00     0.000 C 
BRANCH   6   7
ATOM      7  C   UNL     1      22.985   4.542  19.362  1.00  0.00     0.000 C 
BRANCH   7   8
ATOM      8  C   UNL     1      22.413   3.943  18.063  1.00  0.00     0.000 C 
BRANCH   8   9
ATOM      9  C   UNL     1      22.838   4.661  16.768  1.00  0.00     0.000 C 
BRANCH   9  10
ATOM     10  C   UNL     1      22.969   6.186  16.942  1.00  0.00     0.000 C 
BRANCH  10  11
ATOM     11  C   UNL     1      24.071   6.784  16.051  1.00  0.00     0.000 C 
BRANCH  11  12
ATOM     12  C   UNL     1      25.153   5.761  15.669  1.00  0.00     0.000 C 
BRANCH  12  13
ATOM     13  C   UNL     1      26.464   6.469  15.297  1.00  0.00     0.006 C 
BRANCH  13  14
ATOM     14  C   UNL     1      27.076   5.920  14.000  1.00  0.00     0.053 C 
BRANCH  14  15
ATOM     15  C   UNL     1      26.598   6.668  12.793  1.00  0.00     0.041 C 
ATOM     16  O   UNL     1      27.422   7.086  11.936  1.00  0.00    -0.550 OA
ATOM     17  O   UNL     1      25.240   6.909  12.617  1.00  0.00    -0.550 OA
ENDBRANCH  14  15
ENDBRANCH  13  14
ENDBRANCH  12  13
ENDBRANCH  11  12
ENDBRANCH  10  11
ENDBRANCH   9  10
ENDBRANCH   8   9
ENDBRANCH   7   8
ENDBRANCH   6   7
ENDBRANCH   5   6
ENDBRANCH   4   5
ENDBRANCH   3   4
ENDBRANCH   2   3
ENDBRANCH   1   2
BRANCH   1  18
ATOM     18  C   UNL     1      26.554   3.413  18.665  1.00  0.00     0.000 C 
BRANCH  18  19
ATOM     19  C   UNL     1      28.079   3.195  18.656  1.00  0.00     0.000 C 
BRANCH  19  20
ATOM     20  C   UNL     1      28.861   4.510  18.498  1.00  0.00     0.000 C 
BRANCH  20  21
ATOM     21  C   UNL     1      29.161   4.851  17.028  1.00  0.00     0.000 C 
BRANCH  21  22
ATOM     22  C   UNL     1      30.478   5.628  16.852  1.00  0.00     0.000 C 
BRANCH  22  23
ATOM     23  C   UNL     1      31.431   5.576  18.063  1.00  0.00     0.000 C 
BRANCH  23  24
ATOM     24  C   UNL     1      32.492   4.459  18.014  1.00  0.00    -0.000 C 
BRANCH  24  25
ATOM     25  C   UNL     1      32.055   3.113  18.628  1.00  0.00    -0.000 C 
BRANCH  25  26
ATOM     26  C   UNL     1      32.095   1.913  17.665  1.00  0.00    -0.000 C 
BRANCH  26  27
ATOM     27  C   UNL     1      31.911   2.316  16.195  1.00  0.00    -0.000 C 
BRANCH  27  28
ATOM     28  C   UNL     1      30.954   1.353  15.477  1.00  0.00    -0.000 C 
BRANCH  28  29
ATOM     29  C   UNL     1      29.508   1.886  15.432  1.00  0.00    -0.000 C 
BRANCH  29  30
ATOM     30  C   UNL     1      28.440   0.798  15.638  1.00  0.00    -0.000 C 
BRANCH  30  31
ATOM     31  C   UNL     1      28.876  -0.287  16.629  1.00  0.00    -0.003 C 
ATOM     32  C   UNL     1      27.668  -1.024  17.207  1.00  0.00     0.004 C 
ENDBRANCH  30  31
ENDBRANCH  29  30
ENDBRANCH  28  29
ENDBRANCH  27  28
ENDBRANCH  26  27
ENDBRANCH  25  26
ENDBRANCH  24  25
ENDBRANCH  23  24
ENDBRANCH  22  23
ENDBRANCH  21  22
ENDBRANCH  20  21
ENDBRANCH  19  20
ENDBRANCH  18  19
ENDBRANCH   1  18
TORSDOF 28
ENDMDL
MODEL 6
REMARK VINA RESULT:    -3.967      5.329      8.832
REMARK INTER + INTRA:         -16.194
REMARK INTER:                 -10.089
REMARK INTRA:                  -6.105
REMARK UNBOUND:                -5.734
REMARK SMILES CCCCCCCCCCCCCCCCCCCCCCCCCCCCCC(=O)[O-]
REMARK SMILES IDX 16 1 17 2 18 3 19 4 20 5 21 6 22 7 23 8 24 9 25 10 26 11
REMARK SMILES IDX 27 12 28 13 29 14 30 15 31 16 32 17 15 18 14 19 13 20 12 21
REMARK SMILES IDX 11 22 10 23 9 24 8 25 7 26 6 27 5 28 4 29 3 30 2 31 1 32
REMARK H PARENT
REMARK Flexibility Score: inf
ROOT
ATOM      1  C   UNL     1      25.949   3.798  17.036  1.00  0.00     0.000 C 
ENDROOT
BRANCH   1   2
ATOM      2  C   UNL     1      25.105   2.758  16.273  1.00  0.00     0.000 C 
BRANCH   2   3
ATOM      3  C   UNL     1      24.959   3.002  14.762  1.00  0.00     0.000 C 
BRANCH   3   4
ATOM      4  C   UNL     1      23.522   2.784  14.257  1.00  0.00     0.000 C 
BRANCH   4   5
ATOM      5  C   UNL     1      23.242   3.494  12.921  1.00  0.00     0.000 C 
BRANCH   5   6
ATOM      6  C   UNL     1      24.130   3.049  11.745  1.00  0.00     0.000 C 
BRANCH   6   7
ATOM      7  C   UNL     1      23.912   1.579  11.342  1.00  0.00     0.000 C 
BRANCH   7   8
ATOM      8  C   UNL     1      25.191   0.728  11.445  1.00  0.00     0.000 C 
BRANCH   8   9
ATOM      9  C   UNL     1      25.035  -0.600  12.209  1.00  0.00     0.000 C 
BRANCH   9  10
ATOM     10  C   UNL     1      25.507  -0.510  13.672  1.00  0.00     0.000 C 
BRANCH  10  11
ATOM     11  C   UNL     1      26.959  -0.018  13.790  1.00  0.00     0.000 C 
BRANCH  11  12
ATOM     12  C   UNL     1      27.435   0.100  15.246  1.00  0.00     0.000 C 
BRANCH  12  13
ATOM     13  C   UNL     1      26.721  -0.927  16.138  1.00  0.00     0.006 C 
BRANCH  13  14
ATOM     14  C   UNL     1      27.706  -1.851  16.869  1.00  0.00     0.053 C 
BRANCH  14  15
ATOM     15  C   UNL     1      28.448  -2.745  15.921  1.00  0.00     0.041 C 
ATOM     16  O   UNL     1      27.840  -3.662  15.306  1.00  0.00    -0.550 OA
ATOM     17  O   UNL     1      29.812  -2.568  15.722  1.00  0.00    -0.550 OA
ENDBRANCH  14  15
ENDBRANCH  13  14
ENDBRANCH  12  13
ENDBRANCH  11  12
ENDBRANCH  10  11
ENDBRANCH   9  10
ENDBRANCH   8   9
ENDBRANCH   7   8
ENDBRANCH   6   7
ENDBRANCH   5   6
ENDBRANCH   4   5
ENDBRANCH   3   4
ENDBRANCH   2   3
ENDBRANCH   1   2
BRANCH   1  18
ATOM     18  C   UNL     1      26.386   3.350  18.447  1.00  0.00     0.000 C 
BRANCH  18  19
ATOM     19  C   UNL     1      26.827   1.874  18.501  1.00  0.00     0.000 C 
BRANCH  19  20
ATOM     20  C   UNL     1      26.124   1.090  19.621  1.00  0.00     0.000 C 
BRANCH  20  21
ATOM     21  C   UNL     1      24.590   1.121  19.496  1.00  0.00     0.000 C 
BRANCH  21  22
ATOM     22  C   UNL     1      23.913   1.890  20.646  1.00  0.00     0.000 C 
BRANCH  22  23
ATOM     23  C   UNL     1      22.604   2.610  20.264  1.00  0.00     0.000 C 
BRANCH  23  24
ATOM     24  C   UNL     1      22.708   3.563  19.057  1.00  0.00    -0.000 C 
BRANCH  24  25
ATOM     25  C   UNL     1      23.156   5.000  19.394  1.00  0.00    -0.000 C 
BRANCH  25  26
ATOM     26  C   UNL     1      23.071   6.000  18.226  1.00  0.00    -0.000 C 
BRANCH  26  27
ATOM     27  C   UNL     1      22.526   5.371  16.936  1.00  0.00    -0.000 C 
BRANCH  27  28
ATOM     28  C   UNL     1      22.946   6.189  15.706  1.00  0.00    -0.000 C 
BRANCH  28  29
ATOM     29  C   UNL     1      24.109   7.155  16.012  1.00  0.00    -0.000 C 
BRANCH  29  30
ATOM     30  C   UNL     1      25.370   6.892  15.171  1.00  0.00    -0.000 C 
BRANCH  30  31
ATOM     31  C   UNL     1      25.057   6.604  13.698  1.00  0.00    -0.003 C 
ATOM     32  C   UNL     1      26.218   5.880  13.019  1.00  0.00     0.004 C 
ENDBRANCH  30  31
ENDBRANCH  29  30
ENDBRANCH  28  29
ENDBRANCH  27  28
ENDBRANCH  26  27
ENDBRANCH  25  26
ENDBRANCH  24  25
ENDBRANCH  23  24
ENDBRANCH  22  23
ENDBRANCH  21  22
ENDBRANCH  20  21
ENDBRANCH  19  20
ENDBRANCH  18  19
ENDBRANCH   1  18
TORSDOF 28
ENDMDL
MODEL 7
REMARK VINA RESULT:    -3.921      3.065      6.022
REMARK INTER + INTRA:         -16.073
REMARK INTER:                 -10.973
REMARK INTRA:                  -5.100
REMARK UNBOUND:                -5.734
REMARK SMILES CCCCCCCCCCCCCCCCCCCCCCCCCCCCCC(=O)[O-]
REMARK SMILES IDX 16 1 17 2 18 3 19 4 20 5 21 6 22 7 23 8 24 9 25 10 26 11
REMARK SMILES IDX 27 12 28 13 29 14 30 15 31 16 32 17 15 18 14 19 13 20 12 21
REMARK SMILES IDX 11 22 10 23 9 24 8 25 7 26 6 27 5 28 4 29 3 30 2 31 1 32
REMARK H PARENT
REMARK Flexibility Score: inf
ROOT
ATOM      1  C   UNL     1      26.324   2.937  17.753  1.00  0.00     0.000 C 
ENDROOT
BRANCH   1   2
ATOM      2  C   UNL     1      26.912   1.649  18.364  1.00  0.00     0.000 C 
BRANCH   2   3
ATOM      3  C   UNL     1      26.013   0.928  19.382  1.00  0.00     0.000 C 
BRANCH   3   4
ATOM      4  C   UNL     1      24.526   1.289  19.228  1.00  0.00     0.000 C 
BRANCH   4   5
ATOM      5  C   UNL     1      23.840   1.594  20.571  1.00  0.00     0.000 C 
BRANCH   5   6
ATOM      6  C   UNL     1      23.366   3.047  20.748  1.00  0.00     0.000 C 
BRANCH   6   7
ATOM      7  C   UNL     1      22.851   3.680  19.442  1.00  0.00     0.000 C 
BRANCH   7   8
ATOM      8  C   UNL     1      23.748   4.821  18.929  1.00  0.00     0.000 C 
BRANCH   8   9
ATOM      9  C   UNL     1      23.000   6.088  18.473  1.00  0.00     0.000 C 
BRANCH   9  10
ATOM     10  C   UNL     1      22.745   6.122  16.955  1.00  0.00     0.000 C 
BRANCH  10  11
ATOM     11  C   UNL     1      23.802   6.946  16.202  1.00  0.00     0.000 C 
BRANCH  11  12
ATOM     12  C   UNL     1      24.093   6.403  14.794  1.00  0.00     0.000 C 
BRANCH  12  13
ATOM     13  C   UNL     1      25.491   6.831  14.322  1.00  0.00     0.006 C 
BRANCH  13  14
ATOM     14  C   UNL     1      26.603   6.305  15.240  1.00  0.00     0.053 C 
BRANCH  14  15
ATOM     15  C   UNL     1      27.936   6.284  14.553  1.00  0.00     0.041 C 
ATOM     16  O   UNL     1      28.819   5.456  14.904  1.00  0.00    -0.550 OA
ATOM     17  O   UNL     1      28.205   7.186  13.530  1.00  0.00    -0.550 OA
ENDBRANCH  14  15
ENDBRANCH  13  14
ENDBRANCH  12  13
ENDBRANCH  11  12
ENDBRANCH  10  11
ENDBRANCH   9  10
ENDBRANCH   8   9
ENDBRANCH   7   8
ENDBRANCH   6   7
ENDBRANCH   5   6
ENDBRANCH   4   5
ENDBRANCH   3   4
ENDBRANCH   2   3
ENDBRANCH   1   2
BRANCH   1  18
ATOM     18  C   UNL     1      26.070   2.860  16.232  1.00  0.00     0.000 C 
BRANCH  18  19
ATOM     19  C   UNL     1      24.580   2.989  15.863  1.00  0.00     0.000 C 
BRANCH  19  20
ATOM     20  C   UNL     1      24.151   1.981  14.784  1.00  0.00     0.000 C 
BRANCH  20  21
ATOM     21  C   UNL     1      25.198   1.823  13.667  1.00  0.00     0.000 C 
BRANCH  21  22
ATOM     22  C   UNL     1      24.711   2.366  12.311  1.00  0.00     0.000 C 
BRANCH  22  23
ATOM     23  C   UNL     1      25.229   3.773  11.950  1.00  0.00     0.000 C 
BRANCH  23  24
ATOM     24  C   UNL     1      24.420   4.510  10.865  1.00  0.00    -0.000 C 
BRANCH  24  25
ATOM     25  C   UNL     1      24.269   6.031  11.080  1.00  0.00    -0.000 C 
BRANCH  25  26
ATOM     26  C   UNL     1      23.563   6.784   9.938  1.00  0.00    -0.000 C 
BRANCH  26  27
ATOM     27  C   UNL     1      22.223   7.402  10.365  1.00  0.00    -0.000 C 
BRANCH  27  28
ATOM     28  C   UNL     1      22.135   7.518  11.894  1.00  0.00    -0.000 C 
BRANCH  28  29
ATOM     29  C   UNL     1      20.686   7.400  12.409  1.00  0.00    -0.000 C 
BRANCH  29  30
ATOM     30  C   UNL     1      20.195   5.949  12.550  1.00  0.00    -0.000 C 
BRANCH  30  31
ATOM     31  C   UNL     1      21.244   5.021  13.173  1.00  0.00    -0.003 C 
ATOM     32  C   UNL     1      21.253   3.657  12.483  1.00  0.00     0.004 C 
ENDBRANCH  30  31
ENDBRANCH  29  30
ENDBRANCH  28  29
ENDBRANCH  27  28
ENDBRANCH  26  27
ENDBRANCH  25  26
ENDBRANCH  24  25
ENDBRANCH  23  24
ENDBRANCH  22  23
ENDBRANCH  21  22
ENDBRANCH  20  21
ENDBRANCH  19  20
ENDBRANCH  18  19
ENDBRANCH   1  18
TORSDOF 28
ENDMDL
MODEL 8
REMARK VINA RESULT:    -3.913      4.313     10.034
REMARK INTER + INTRA:         -16.052
REMARK INTER:                  -9.779
REMARK INTRA:                  -6.273
REMARK UNBOUND:                -5.734
REMARK SMILES CCCCCCCCCCCCCCCCCCCCCCCCCCCCCC(=O)[O-]
REMARK SMILES IDX 16 1 17 2 18 3 19 4 20 5 21 6 22 7 23 8 24 9 25 10 26 11
REMARK SMILES IDX 27 12 28 13 29 14 30 15 31 16 32 17 15 18 14 19 13 20 12 21
REMARK SMILES IDX 11 22 10 23 9 24 8 25 7 26 6 27 5 28 4 29 3 30 2 31 1 32
REMARK H PARENT
REMARK Flexibility Score: inf
ROOT
ATOM      1  C   UNL     1      24.099   1.116  19.370  1.00  0.00     0.000 C 
ENDROOT
BRANCH   1   2
ATOM      2  C   UNL     1      23.171   1.767  20.414  1.00  0.00     0.000 C 
BRANCH   2   3
ATOM      3  C   UNL     1      23.378   3.274  20.639  1.00  0.00     0.000 C 
BRANCH   3   4
ATOM      4  C   UNL     1      22.662   4.139  19.588  1.00  0.00     0.000 C 
BRANCH   4   5
ATOM      5  C   UNL     1      23.633   4.806  18.597  1.00  0.00     0.000 C 
BRANCH   5   6
ATOM      6  C   UNL     1      23.340   4.534  17.111  1.00  0.00     0.000 C 
BRANCH   6   7
ATOM      7  C   UNL     1      22.355   3.371  16.891  1.00  0.00     0.000 C 
BRANCH   7   8
ATOM      8  C   UNL     1      22.684   2.527  15.645  1.00  0.00     0.000 C 
BRANCH   8   9
ATOM      9  C   UNL     1      23.774   1.458  15.848  1.00  0.00     0.000 C 
BRANCH   9  10
ATOM     10  C   UNL     1      24.830   1.455  14.727  1.00  0.00     0.000 C 
BRANCH  10  11
ATOM     11  C   UNL     1      25.468   2.838  14.521  1.00  0.00     0.000 C 
BRANCH  11  12
ATOM     12  C   UNL     1      25.569   3.237  13.040  1.00  0.00     0.000 C 
BRANCH  12  13
ATOM     13  C   UNL     1      24.181   3.563  12.468  1.00  0.00     0.006 C 
BRANCH  13  14
ATOM     14  C   UNL     1      23.652   4.919  12.956  1.00  0.00     0.053 C 
BRANCH  14  15
ATOM     15  C   UNL     1      23.551   5.917  11.843  1.00  0.00     0.041 C 
ATOM     16  O   UNL     1      22.989   5.605  10.758  1.00  0.00    -0.550 OA
ATOM     17  O   UNL     1      24.083   7.192  12.000  1.00  0.00    -0.550 OA
ENDBRANCH  14  15
ENDBRANCH  13  14
ENDBRANCH  12  13
ENDBRANCH  11  12
ENDBRANCH  10  11
ENDBRANCH   9  10
ENDBRANCH   8   9
ENDBRANCH   7   8
ENDBRANCH   6   7
ENDBRANCH   5   6
ENDBRANCH   4   5
ENDBRANCH   3   4
ENDBRANCH   2   3
ENDBRANCH   1   2
BRANCH   1  18
ATOM     18  C   UNL     1      25.594   1.125  19.754  1.00  0.00     0.000 C 
BRANCH  18  19
ATOM     19  C   UNL     1      26.526   1.331  18.544  1.00  0.00     0.000 C 
BRANCH  19  20
ATOM     20  C   UNL     1      26.509   2.778  18.027  1.00  0.00     0.000 C 
BRANCH  20  21
ATOM     21  C   UNL     1      27.537   3.676  18.739  1.00  0.00     0.000 C 
BRANCH  21  22
ATOM     22  C   UNL     1      28.922   3.014  18.866  1.00  0.00     0.000 C 
BRANCH  22  23
ATOM     23  C   UNL     1      30.114   3.992  18.859  1.00  0.00     0.000 C 
BRANCH  23  24
ATOM     24  C   UNL     1      29.738   5.482  18.734  1.00  0.00    -0.000 C 
BRANCH  24  25
ATOM     25  C   UNL     1      30.564   6.281  17.704  1.00  0.00    -0.000 C 
BRANCH  25  26
ATOM     26  C   UNL     1      31.539   5.442  16.859  1.00  0.00    -0.000 C 
BRANCH  26  27
ATOM     27  C   UNL     1      31.101   5.309  15.393  1.00  0.00    -0.000 C 
BRANCH  27  28
ATOM     28  C   UNL     1      30.499   3.921  15.124  1.00  0.00    -0.000 C 
BRANCH  28  29
ATOM     29  C   UNL     1      28.963   3.911  15.263  1.00  0.00    -0.000 C 
BRANCH  29  30
ATOM     30  C   UNL     1      28.284   5.179  14.718  1.00  0.00    -0.000 C 
BRANCH  30  31
ATOM     31  C   UNL     1      27.421   5.893  15.765  1.00  0.00    -0.003 C 
ATOM     32  C   UNL     1      26.138   6.442  15.142  1.00  0.00     0.004 C 
ENDBRANCH  30  31
ENDBRANCH  29  30
ENDBRANCH  28  29
ENDBRANCH  27  28
ENDBRANCH  26  27
ENDBRANCH  25  26
ENDBRANCH  24  25
ENDBRANCH  23  24
ENDBRANCH  22  23
ENDBRANCH  21  22
ENDBRANCH  20  21
ENDBRANCH  19  20
ENDBRANCH  18  19
ENDBRANCH   1  18
TORSDOF 28
ENDMDL
MODEL 9
REMARK VINA RESULT:    -3.905      4.058      9.129
REMARK INTER + INTRA:         -16.030
REMARK INTER:                  -9.491
REMARK INTRA:                  -6.539
REMARK UNBOUND:                -5.734
REMARK SMILES CCCCCCCCCCCCCCCCCCCCCCCCCCCCCC(=O)[O-]
REMARK SMILES IDX 16 1 17 2 18 3 19 4 20 5 21 6 22 7 23 8 24 9 25 10 26 11
REMARK SMILES IDX 27 12 28 13 29 14 30 15 31 16 32 17 15 18 14 19 13 20 12 21
REMARK SMILES IDX 11 22 10 23 9 24 8 25 7 26 6 27 5 28 4 29 3 30 2 31 1 32
REMARK H PARENT
REMARK Flexibility Score: inf
ROOT
ATOM      1  C   UNL     1      23.363   0.715  16.566  1.00  0.00     0.000 C 
ENDROOT
BRANCH   1   2
ATOM      2  C   UNL     1      24.094   1.238  15.314  1.00  0.00     0.000 C 
BRANCH   2   3
ATOM      3  C   UNL     1      24.810   2.589  15.480  1.00  0.00     0.000 C 
BRANCH   3   4
ATOM      4  C   UNL     1      25.929   2.804  14.448  1.00  0.00     0.000 C 
BRANCH   4   5
ATOM      5  C   UNL     1      26.417   4.262  14.386  1.00  0.00     0.000 C 
BRANCH   5   6
ATOM      6  C   UNL     1      25.937   5.162  15.539  1.00  0.00     0.000 C 
BRANCH   6   7
ATOM      7  C   UNL     1      26.019   6.664  15.211  1.00  0.00     0.000 C 
BRANCH   7   8
ATOM      8  C   UNL     1      24.742   7.436  15.590  1.00  0.00     0.000 C 
BRANCH   8   9
ATOM      9  C   UNL     1      23.643   6.594  16.266  1.00  0.00     0.000 C 
BRANCH   9  10
ATOM     10  C   UNL     1      22.428   6.348  15.352  1.00  0.00     0.000 C 
BRANCH  10  11
ATOM     11  C   UNL     1      21.984   4.876  15.353  1.00  0.00     0.000 C 
BRANCH  11  12
ATOM     12  C   UNL     1      22.082   4.219  13.967  1.00  0.00     0.000 C 
BRANCH  12  13
ATOM     13  C   UNL     1      22.353   5.273  12.883  1.00  0.00     0.006 C 
BRANCH  13  14
ATOM     14  C   UNL     1      23.731   5.098  12.229  1.00  0.00     0.053 C 
BRANCH  14  15
ATOM     15  C   UNL     1      24.359   6.413  11.879  1.00  0.00     0.041 C 
ATOM     16  O   UNL     1      23.664   7.464  11.860  1.00  0.00    -0.550 OA
ATOM     17  O   UNL     1      25.712   6.477  11.568  1.00  0.00    -0.550 OA
ENDBRANCH  14  15
ENDBRANCH  13  14
ENDBRANCH  12  13
ENDBRANCH  11  12
ENDBRANCH  10  11
ENDBRANCH   9  10
ENDBRANCH   8   9
ENDBRANCH   7   8
ENDBRANCH   6   7
ENDBRANCH   5   6
ENDBRANCH   4   5
ENDBRANCH   3   4
ENDBRANCH   2   3
ENDBRANCH   1   2
BRANCH   1  18
ATOM     18  C   UNL     1      21.842   0.978  16.571  1.00  0.00     0.000 C 
BRANCH  18  19
ATOM     19  C   UNL     1      21.422   2.069  17.575  1.00  0.00     0.000 C 
BRANCH  19  20
ATOM     20  C   UNL     1      22.507   2.348  18.628  1.00  0.00     0.000 C 
BRANCH  20  21
ATOM     21  C   UNL     1      22.742   3.852  18.856  1.00  0.00     0.000 C 
BRANCH  21  22
ATOM     22  C   UNL     1      24.234   4.232  18.845  1.00  0.00     0.000 C 
BRANCH  22  23
ATOM     23  C   UNL     1      25.209   3.046  18.986  1.00  0.00     0.000 C 
BRANCH  23  24
ATOM     24  C   UNL     1      26.677   3.358  18.634  1.00  0.00    -0.000 C 
BRANCH  24  25
ATOM     25  C   UNL     1      27.629   2.145  18.659  1.00  0.00    -0.000 C 
BRANCH  25  26
ATOM     26  C   UNL     1      27.586   1.256  17.403  1.00  0.00    -0.000 C 
BRANCH  26  27
ATOM     27  C   UNL     1      26.832  -0.063  17.626  1.00  0.00    -0.000 C 
BRANCH  27  28
ATOM     28  C   UNL     1      26.996  -1.000  16.420  1.00  0.00    -0.000 C 
BRANCH  28  29
ATOM     29  C   UNL     1      27.848  -0.371  15.299  1.00  0.00    -0.000 C 
BRANCH  29  30
ATOM     30  C   UNL     1      27.310  -0.645  13.884  1.00  0.00    -0.000 C 
BRANCH  30  31
ATOM     31  C   UNL     1      27.322  -2.134  13.518  1.00  0.00    -0.003 C 
ATOM     32  C   UNL     1      26.747  -2.364  12.122  1.00  0.00     0.004 C 
ENDBRANCH  30  31
ENDBRANCH  29  30
ENDBRANCH  28  29
ENDBRANCH  27  28
ENDBRANCH  26  27
ENDBRANCH  25  26
ENDBRANCH  24  25
ENDBRANCH  23  24
ENDBRANCH  22  23
ENDBRANCH  21  22
ENDBRANCH  20  21
ENDBRANCH  19  20
ENDBRANCH  18  19
ENDBRANCH   1  18
TORSDOF 28
ENDMDL
