MODEL 1
REMARK VINA RESULT:    -4.641      0.000      0.000
REMARK INTER + INTRA:          -4.913
REMARK INTER:                  -4.913
REMARK INTRA:                   0.000
REMARK UNBOUND:                 0.000
REMARK SMILES Cc1cc(O)c(C)c(C)c1O
REMARK SMILES IDX 1 1 2 2 3 3 4 4 6 5 8 6 10 7 9 8 7 9 11 10 5 12
REMARK H PARENT 11 11 5 13
REMARK Flexibility Score: inf
ROOT
ATOM      1  C   UNL     1    -110.921 -14.783  55.371  1.00  0.00     0.048 C 
ATOM      2  C   UNL     1    -109.707 -14.552  54.514  1.00  0.00    -0.005 A 
ATOM      3  C   UNL     1    -108.803 -13.539  54.843  1.00  0.00     0.053 A 
ATOM      4  C   UNL     1    -107.690 -13.284  54.043  1.00  0.00     0.119 A 
ATOM      5  C   UNL     1    -107.469 -14.044  52.870  1.00  0.00    -0.003 A 
ATOM      6  C   UNL     1    -108.314 -15.158  52.598  1.00  0.00    -0.002 A 
ATOM      7  C   UNL     1    -109.474 -15.358  53.388  1.00  0.00     0.121 A 
ATOM      8  C   UNL     1    -107.999 -16.118  51.471  1.00  0.00     0.049 C 
ATOM      9  C   UNL     1    -106.336 -13.676  51.939  1.00  0.00     0.049 C 
ENDROOT
BRANCH   7  10
ATOM     10  O   UNL     1    -110.419 -16.343  53.073  1.00  0.00    -0.507 OA
ATOM     11  H   UNL     1    -111.286 -16.154  52.589  1.00  0.00     0.293 HD
ENDBRANCH   7  10
BRANCH   4  12
ATOM     12  O   UNL     1    -106.818 -12.272  54.453  1.00  0.00    -0.508 OA
ATOM     13  H   UNL     1    -105.917 -12.446  54.879  1.00  0.00     0.293 HD
ENDBRANCH   4  12
TORSDOF 2
ENDMDL
MODEL 2
REMARK VINA RESULT:    -4.382      1.269      3.357
REMARK INTER + INTRA:          -4.638
REMARK INTER:                  -4.638
REMARK INTRA:                   0.000
REMARK UNBOUND:                 0.000
REMARK SMILES Cc1cc(O)c(C)c(C)c1O
REMARK SMILES IDX 1 1 2 2 3 3 4 4 6 5 8 6 10 7 9 8 7 9 11 10 5 12
REMARK H PARENT 11 11 5 13
REMARK Flexibility Score: inf
ROOT
ATOM      1  C   UNL     1    -106.452 -16.680  50.285  1.00  0.00     0.048 C 
ATOM      2  C   UNL     1    -106.937 -15.700  51.316  1.00  0.00    -0.005 A 
ATOM      3  C   UNL     1    -106.252 -14.497  51.513  1.00  0.00     0.053 A 
ATOM      4  C   UNL     1    -106.662 -13.589  52.488  1.00  0.00     0.119 A 
ATOM      5  C   UNL     1    -107.778 -13.883  53.307  1.00  0.00    -0.003 A 
ATOM      6  C   UNL     1    -108.555 -15.044  53.029  1.00  0.00    -0.002 A 
ATOM      7  C   UNL     1    -108.083 -15.983  52.077  1.00  0.00     0.121 A 
ATOM      8  C   UNL     1    -109.865 -15.295  53.743  1.00  0.00     0.049 C 
ATOM      9  C   UNL     1    -108.136 -12.957  54.447  1.00  0.00     0.049 C 
ENDROOT
BRANCH   7  10
ATOM     10  O   UNL     1    -108.724 -17.211  51.873  1.00  0.00    -0.507 OA
ATOM     11  H   UNL     1    -108.265 -18.107  51.968  1.00  0.00     0.293 HD
ENDBRANCH   7  10
BRANCH   4  12
ATOM     12  O   UNL     1    -105.942 -12.397  52.605  1.00  0.00    -0.508 OA
ATOM     13  H   UNL     1    -104.983 -12.289  52.300  1.00  0.00     0.293 HD
ENDBRANCH   4  12
TORSDOF 2
ENDMDL
MODEL 3
REMARK VINA RESULT:    -4.290      0.758      3.250
REMARK INTER + INTRA:          -4.541
REMARK INTER:                  -4.541
REMARK INTRA:                   0.000
REMARK UNBOUND:                 0.000
REMARK SMILES Cc1cc(O)c(C)c(C)c1O
REMARK SMILES IDX 1 1 2 2 3 3 4 4 6 5 8 6 10 7 9 8 7 9 11 10 5 12
REMARK H PARENT 11 11 5 13
REMARK Flexibility Score: inf
ROOT
ATOM      1  C   UNL     1    -109.625 -12.090  55.568  1.00  0.00     0.048 C 
ATOM      2  C   UNL     1    -109.302 -13.116  54.518  1.00  0.00    -0.005 A 
ATOM      3  C   UNL     1    -110.266 -14.054  54.139  1.00  0.00     0.053 A 
ATOM      4  C   UNL     1    -109.978 -15.037  53.194  1.00  0.00     0.119 A 
ATOM      5  C   UNL     1    -108.690 -15.108  52.613  1.00  0.00    -0.003 A 
ATOM      6  C   UNL     1    -107.744 -14.082  52.899  1.00  0.00    -0.002 A 
ATOM      7  C   UNL     1    -108.037 -13.131  53.910  1.00  0.00     0.121 A 
ATOM      8  C   UNL     1    -106.430 -14.002  52.153  1.00  0.00     0.049 C 
ATOM      9  C   UNL     1    -108.345 -16.254  51.690  1.00  0.00     0.049 C 
ENDROOT
BRANCH   7  10
ATOM     10  O   UNL     1    -107.087 -12.196  54.338  1.00  0.00    -0.507 OA
ATOM     11  H   UNL     1    -106.094 -12.381  54.375  1.00  0.00     0.293 HD
ENDBRANCH   7  10
BRANCH   4  12
ATOM     12  O   UNL     1    -111.004 -15.921  52.848  1.00  0.00    -0.508 OA
ATOM     13  H   UNL     1    -111.948 -15.629  52.631  1.00  0.00     0.293 HD
ENDBRANCH   4  12
TORSDOF 2
ENDMDL
MODEL 4
REMARK VINA RESULT:    -4.229      1.872      3.342
REMARK INTER + INTRA:          -4.477
REMARK INTER:                  -4.477
REMARK INTRA:                   0.000
REMARK UNBOUND:                 0.000
REMARK SMILES Cc1cc(O)c(C)c(C)c1O
REMARK SMILES IDX 1 1 2 2 3 3 4 4 6 5 8 6 10 7 9 8 7 9 11 10 5 12
REMARK H PARENT 11 11 5 13
REMARK Flexibility Score: inf
ROOT
ATOM      1  C   UNL     1    -106.107 -13.105  52.719  1.00  0.00     0.048 C 
ATOM      2  C   UNL     1    -107.339 -13.894  53.067  1.00  0.00    -0.005 A 
ATOM      3  C   UNL     1    -108.133 -13.508  54.150  1.00  0.00     0.053 A 
ATOM      4  C   UNL     1    -109.259 -14.245  54.513  1.00  0.00     0.119 A 
ATOM      5  C   UNL     1    -109.608 -15.411  53.791  1.00  0.00    -0.003 A 
ATOM      6  C   UNL     1    -108.879 -15.738  52.612  1.00  0.00    -0.002 A 
ATOM      7  C   UNL     1    -107.701 -15.013  52.300  1.00  0.00     0.121 A 
ATOM      8  C   UNL     1    -109.335 -16.856  51.698  1.00  0.00     0.049 C 
ATOM      9  C   UNL     1    -110.751 -16.276  54.269  1.00  0.00     0.049 C 
ENDROOT
BRANCH   7  10
ATOM     10  O   UNL     1    -106.864 -15.387  51.241  1.00  0.00    -0.507 OA
ATOM     11  H   UNL     1    -106.639 -14.782  50.463  1.00  0.00     0.293 HD
ENDBRANCH   7  10
BRANCH   4  12
ATOM     12  O   UNL     1    -110.017 -13.779  55.591  1.00  0.00    -0.508 OA
ATOM     13  H   UNL     1    -109.623 -13.285  56.381  1.00  0.00     0.293 HD
ENDBRANCH   4  12
TORSDOF 2
ENDMDL
MODEL 5
REMARK VINA RESULT:    -4.215      1.357      4.145
REMARK INTER + INTRA:          -4.462
REMARK INTER:                  -4.462
REMARK INTRA:                   0.000
REMARK UNBOUND:                 0.000
REMARK SMILES Cc1cc(O)c(C)c(C)c1O
REMARK SMILES IDX 1 1 2 2 3 3 4 4 6 5 8 6 10 7 9 8 7 9 11 10 5 12
REMARK H PARENT 11 11 5 13
REMARK Flexibility Score: inf
ROOT
ATOM      1  C   UNL     1    -106.096 -13.071  52.593  1.00  0.00     0.048 C 
ATOM      2  C   UNL     1    -107.226 -14.057  52.696  1.00  0.00    -0.005 A 
ATOM      3  C   UNL     1    -107.282 -15.149  51.826  1.00  0.00     0.053 A 
ATOM      4  C   UNL     1    -108.339 -16.056  51.880  1.00  0.00     0.119 A 
ATOM      5  C   UNL     1    -109.384 -15.873  52.816  1.00  0.00    -0.003 A 
ATOM      6  C   UNL     1    -109.270 -14.839  53.788  1.00  0.00    -0.002 A 
ATOM      7  C   UNL     1    -108.221 -13.891  53.673  1.00  0.00     0.121 A 
ATOM      8  C   UNL     1    -110.258 -14.728  54.929  1.00  0.00     0.049 C 
ATOM      9  C   UNL     1    -110.591 -16.784  52.781  1.00  0.00     0.049 C 
ENDROOT
BRANCH   7  10
ATOM     10  O   UNL     1    -108.148 -12.769  54.507  1.00  0.00    -0.507 OA
ATOM     11  H   UNL     1    -108.749 -12.623  55.307  1.00  0.00     0.293 HD
ENDBRANCH   7  10
BRANCH   4  12
ATOM     12  O   UNL     1    -108.309 -17.136  50.994  1.00  0.00    -0.508 OA
ATOM     13  H   UNL     1    -108.366 -17.039  49.988  1.00  0.00     0.293 HD
ENDBRANCH   4  12
TORSDOF 2
ENDMDL
MODEL 6
REMARK VINA RESULT:    -4.199      1.169      3.177
REMARK INTER + INTRA:          -4.444
REMARK INTER:                  -4.444
REMARK INTRA:                   0.000
REMARK UNBOUND:                 0.000
REMARK SMILES Cc1cc(O)c(C)c(C)c1O
REMARK SMILES IDX 1 1 2 2 3 3 4 4 6 5 8 6 10 7 9 8 7 9 11 10 5 12
REMARK H PARENT 11 11 5 13
REMARK Flexibility Score: inf
ROOT
ATOM      1  C   UNL     1    -110.476 -14.314  54.887  1.00  0.00     0.048 C 
ATOM      2  C   UNL     1    -109.494 -14.709  53.821  1.00  0.00    -0.005 A 
ATOM      3  C   UNL     1    -109.707 -15.868  53.069  1.00  0.00     0.053 A 
ATOM      4  C   UNL     1    -108.791 -16.273  52.100  1.00  0.00     0.119 A 
ATOM      5  C   UNL     1    -107.617 -15.518  51.872  1.00  0.00    -0.003 A 
ATOM      6  C   UNL     1    -107.455 -14.272  52.542  1.00  0.00    -0.002 A 
ATOM      7  C   UNL     1    -108.365 -13.912  53.569  1.00  0.00     0.121 A 
ATOM      8  C   UNL     1    -106.320 -13.336  52.186  1.00  0.00     0.049 C 
ATOM      9  C   UNL     1    -106.566 -16.033  50.915  1.00  0.00     0.049 C 
ENDROOT
BRANCH   7  10
ATOM     10  O   UNL     1    -108.169 -12.776  54.363  1.00  0.00    -0.507 OA
ATOM     11  H   UNL     1    -107.752 -12.799  55.283  1.00  0.00     0.293 HD
ENDBRANCH   7  10
BRANCH   4  12
ATOM     12  O   UNL     1    -109.090 -17.429  51.372  1.00  0.00    -0.508 OA
ATOM     13  H   UNL     1    -108.487 -17.812  50.655  1.00  0.00     0.293 HD
ENDBRANCH   4  12
TORSDOF 2
ENDMDL
MODEL 7
REMARK VINA RESULT:    -4.125      1.250      1.572
REMARK INTER + INTRA:          -4.366
REMARK INTER:                  -4.366
REMARK INTRA:                   0.000
REMARK UNBOUND:                 0.000
REMARK SMILES Cc1cc(O)c(C)c(C)c1O
REMARK SMILES IDX 1 1 2 2 3 3 4 4 6 5 8 6 10 7 9 8 7 9 11 10 5 12
REMARK H PARENT 11 11 5 13
REMARK Flexibility Score: inf
ROOT
ATOM      1  C   UNL     1    -110.924 -16.675  53.554  1.00  0.00     0.048 C 
ATOM      2  C   UNL     1    -109.703 -15.864  53.218  1.00  0.00    -0.005 A 
ATOM      3  C   UNL     1    -109.431 -14.688  53.921  1.00  0.00     0.053 A 
ATOM      4  C   UNL     1    -108.326 -13.901  53.603  1.00  0.00     0.119 A 
ATOM      5  C   UNL     1    -107.466 -14.280  52.545  1.00  0.00    -0.003 A 
ATOM      6  C   UNL     1    -107.663 -15.539  51.909  1.00  0.00    -0.002 A 
ATOM      7  C   UNL     1    -108.829 -16.290  52.205  1.00  0.00     0.121 A 
ATOM      8  C   UNL     1    -106.658 -16.077  50.915  1.00  0.00     0.049 C 
ATOM      9  C   UNL     1    -106.347 -13.356  52.120  1.00  0.00     0.049 C 
ENDROOT
BRANCH   7  10
ATOM     10  O   UNL     1    -109.151 -17.457  51.502  1.00  0.00    -0.507 OA
ATOM     11  H   UNL     1    -110.089 -17.695  51.208  1.00  0.00     0.293 HD
ENDBRANCH   7  10
BRANCH   4  12
ATOM     12  O   UNL     1    -108.107 -12.753  54.370  1.00  0.00    -0.508 OA
ATOM     13  H   UNL     1    -108.620 -12.536  55.214  1.00  0.00     0.293 HD
ENDBRANCH   4  12
TORSDOF 2
ENDMDL
MODEL 8
REMARK VINA RESULT:    -4.035     12.645     14.688
REMARK INTER + INTRA:          -4.271
REMARK INTER:                  -4.271
REMARK INTRA:                   0.000
REMARK UNBOUND:                 0.000
REMARK SMILES Cc1cc(O)c(C)c(C)c1O
REMARK SMILES IDX 1 1 2 2 3 3 4 4 6 5 8 6 10 7 9 8 7 9 11 10 5 12
REMARK H PARENT 11 11 5 13
REMARK Flexibility Score: inf
ROOT
ATOM      1  C   UNL     1    -104.164  -4.114  49.114  1.00  0.00     0.048 C 
ATOM      2  C   UNL     1    -103.255  -3.767  47.968  1.00  0.00    -0.005 A 
ATOM      3  C   UNL     1    -103.626  -4.091  46.660  1.00  0.00     0.053 A 
ATOM      4  C   UNL     1    -102.783  -3.811  45.586  1.00  0.00     0.119 A 
ATOM      5  C   UNL     1    -101.525  -3.204  45.809  1.00  0.00    -0.003 A 
ATOM      6  C   UNL     1    -101.195  -2.758  47.121  1.00  0.00    -0.002 A 
ATOM      7  C   UNL     1    -102.037  -3.110  48.206  1.00  0.00     0.121 A 
ATOM      8  C   UNL     1     -99.954  -1.928  47.374  1.00  0.00     0.049 C 
ATOM      9  C   UNL     1    -100.562  -3.025  44.657  1.00  0.00     0.049 C 
ENDROOT
BRANCH   7  10
ATOM     10  O   UNL     1    -101.686  -2.829  49.532  1.00  0.00    -0.507 OA
ATOM     11  H   UNL     1    -101.877  -1.948  49.989  1.00  0.00     0.293 HD
ENDBRANCH   7  10
BRANCH   4  12
ATOM     12  O   UNL     1    -103.237  -4.141  44.305  1.00  0.00    -0.508 OA
ATOM     13  H   UNL     1    -104.179  -4.452  44.107  1.00  0.00     0.293 HD
ENDBRANCH   4  12
TORSDOF 2
ENDMDL
MODEL 9
REMARK VINA RESULT:    -4.006     13.329     15.678
REMARK INTER + INTRA:          -4.241
REMARK INTER:                  -4.241
REMARK INTRA:                   0.000
REMARK UNBOUND:                 0.000
REMARK SMILES Cc1cc(O)c(C)c(C)c1O
REMARK SMILES IDX 1 1 2 2 3 3 4 4 6 5 8 6 10 7 9 8 7 9 11 10 5 12
REMARK H PARENT 11 11 5 13
REMARK Flexibility Score: inf
ROOT
ATOM      1  C   UNL     1     -99.097  -0.875  48.128  1.00  0.00     0.048 C 
ATOM      2  C   UNL     1    -100.301  -1.689  47.744  1.00  0.00    -0.005 A 
ATOM      3  C   UNL     1    -101.055  -2.329  48.731  1.00  0.00     0.053 A 
ATOM      4  C   UNL     1    -102.154  -3.118  48.396  1.00  0.00     0.119 A 
ATOM      5  C   UNL     1    -102.514  -3.295  47.039  1.00  0.00    -0.003 A 
ATOM      6  C   UNL     1    -101.830  -2.547  46.039  1.00  0.00    -0.002 A 
ATOM      7  C   UNL     1    -100.677  -1.802  46.396  1.00  0.00     0.121 A 
ATOM      8  C   UNL     1    -102.305  -2.548  44.602  1.00  0.00     0.049 C 
ATOM      9  C   UNL     1    -103.623  -4.256  46.675  1.00  0.00     0.049 C 
ENDROOT
BRANCH   7  10
ATOM     10  O   UNL     1     -99.879  -1.173  45.433  1.00  0.00    -0.507 OA
ATOM     11  H   UNL     1     -99.141  -0.518  45.656  1.00  0.00     0.293 HD
ENDBRANCH   7  10
BRANCH   4  12
ATOM     12  O   UNL     1    -102.873  -3.703  49.442  1.00  0.00    -0.508 OA
ATOM     13  H   UNL     1    -103.424  -4.545  49.343  1.00  0.00     0.293 HD
ENDBRANCH   4  12
TORSDOF 2
ENDMDL
