MODEL 1
REMARK VINA RESULT:    -3.589      0.000      0.000
REMARK INTER + INTRA:          -5.798
REMARK INTER:                  -5.478
REMARK INTRA:                  -0.320
REMARK UNBOUND:                -0.320
REMARK SMILES CC1=CCC[C@H](C)C(=O)C[C@@H](C(C)C)C(=O)C1
REMARK SMILES IDX 8 1 9 2 6 3 7 4 5 5 4 6 3 7 2 8 1 9 10 11 11 12 15 13 16 14
REMARK SMILES IDX 17 15 12 17 13 18 14 19
REMARK H PARENT
REMARK Flexibility Score: 70.00
ROOT
ATOM      1  C   UNL     1      46.110  56.396  29.963  1.00  0.00     0.136 C 
ATOM      2  O   UNL     1      46.527  55.358  29.468  1.00  0.00    -0.299 OA
ENDROOT
BRANCH   1   3
ATOM      3  C   UNL     1      46.790  57.710  29.629  1.00  0.00     0.053 C 
ATOM      4  C   UNL     1      48.172  57.782  30.294  1.00  0.00     0.016 C 
BRANCH   3   5
ATOM      5  C   UNL     1      46.906  57.887  28.098  1.00  0.00     0.015 C 
BRANCH   5   6
ATOM      6  C   UNL     1      45.555  58.281  27.469  1.00  0.00     0.028 C 
BRANCH   6   7
ATOM      7  C   UNL     1      45.006  59.581  28.004  1.00  0.00    -0.028 C 
ATOM      8  C   UNL     1      43.842  59.720  28.686  1.00  0.00    -0.070 CG0
ATOM      9  C   UNL     1      43.509  61.088  29.228  1.00  0.00     0.039 C 
ATOM     10  G   UNL     1      42.843  58.589  28.890  1.00  0.00     0.000 G0
ENDBRANCH   6   7
ENDBRANCH   5   6
ENDBRANCH   3   5
ENDBRANCH   1   3
BRANCH   1  11
ATOM     11  C   UNL     1      44.932  56.334  30.910  1.00  0.00     0.087 C 
BRANCH  11  12
ATOM     12  C   UNL     1      43.573  56.403  30.163  1.00  0.00     0.066 C 
BRANCH  12  13
ATOM     13  C   UNL     1      43.000  57.813  30.190  1.00  0.00     0.140 C 
ATOM     14  O   UNL     1      42.625  58.310  31.243  1.00  0.00    -0.299 OA
BRANCH  13  15
ATOM     15  C   UNL     1      42.835  58.585  28.903  1.00  0.00     0.106 CG0
ATOM     16  G   UNL     1      43.843  59.712  28.724  1.00  0.00     0.000 G0
ENDBRANCH  13  15
ENDBRANCH  12  13
BRANCH  12  17
ATOM     17  C   UNL     1      42.535  55.343  30.659  1.00  0.00    -0.006 C 
ATOM     18  C   UNL     1      41.919  54.565  29.485  1.00  0.00     0.008 C 
ATOM     19  C   UNL     1      43.103  54.355  31.697  1.00  0.00     0.008 C 
ENDBRANCH  12  17
ENDBRANCH  11  12
ENDBRANCH   1  11
TORSDOF 1
ENDMDL
MODEL 2
REMARK VINA RESULT:    -3.572     18.302     20.212
REMARK INTER + INTRA:          -5.771
REMARK INTER:                  -5.689
REMARK INTRA:                  -0.081
REMARK UNBOUND:                -0.320
REMARK SMILES CC1=CCC[C@H](C)C(=O)C[C@@H](C(C)C)C(=O)C1
REMARK SMILES IDX 8 1 9 2 6 3 7 4 5 5 4 6 3 7 2 8 1 9 10 11 11 12 15 13 16 14
REMARK SMILES IDX 17 15 12 17 13 18 14 19
REMARK H PARENT
REMARK Flexibility Score: 70.00
ROOT
ATOM      1  C   UNL     1      60.549  70.430  32.955  1.00  0.00     0.136 C 
ATOM      2  O   UNL     1      61.280  71.363  33.260  1.00  0.00    -0.299 OA
ENDROOT
BRANCH   1   3
ATOM      3  C   UNL     1      60.512  69.949  31.517  1.00  0.00     0.053 C 
ATOM      4  C   UNL     1      61.329  70.887  30.617  1.00  0.00     0.016 C 
BRANCH   3   5
ATOM      5  C   UNL     1      61.031  68.497  31.417  1.00  0.00     0.015 C 
BRANCH   5   6
ATOM      6  C   UNL     1      59.873  67.480  31.395  1.00  0.00     0.028 C 
BRANCH   6   7
ATOM      7  C   UNL     1      60.185  66.206  32.140  1.00  0.00    -0.028 C 
ATOM      8  C   UNL     1      59.883  65.963  33.440  1.00  0.00    -0.070 CG0
ATOM      9  C   UNL     1      60.187  64.589  33.983  1.00  0.00     0.039 C 
ATOM     10  G   UNL     1      59.303  67.011  34.382  1.00  0.00     0.000 G0
ENDBRANCH   6   7
ENDBRANCH   5   6
ENDBRANCH   3   5
ENDBRANCH   1   3
BRANCH   1  11
ATOM     11  C   UNL     1      59.690  69.792  34.024  1.00  0.00     0.087 C 
BRANCH  11  12
ATOM     12  C   UNL     1      60.537  69.185  35.175  1.00  0.00     0.066 C 
BRANCH  12  13
ATOM     13  C   UNL     1      60.314  67.684  35.289  1.00  0.00     0.140 C 
ATOM     14  O   UNL     1      60.990  67.014  36.058  1.00  0.00    -0.299 OA
BRANCH  13  15
ATOM     15  C   UNL     1      59.296  67.003  34.407  1.00  0.00     0.106 CG0
ATOM     16  G   UNL     1      59.892  65.974  33.454  1.00  0.00     0.000 G0
ENDBRANCH  13  15
ENDBRANCH  12  13
BRANCH  12  17
ATOM     17  C   UNL     1      60.335  69.910  36.546  1.00  0.00    -0.006 C 
ATOM     18  C   UNL     1      61.536  70.805  36.892  1.00  0.00     0.008 C 
ATOM     19  C   UNL     1      59.033  70.730  36.631  1.00  0.00     0.008 C 
ENDBRANCH  12  17
ENDBRANCH  11  12
ENDBRANCH   1  11
TORSDOF 1
ENDMDL
MODEL 3
REMARK VINA RESULT:    -3.510     17.802     19.890
REMARK INTER + INTRA:          -5.677
REMARK INTER:                  -5.669
REMARK INTRA:                  -0.008
REMARK UNBOUND:                -0.320
REMARK SMILES CC1=CCC[C@H](C)C(=O)C[C@@H](C(C)C)C(=O)C1
REMARK SMILES IDX 8 1 9 2 6 3 7 4 5 5 4 6 3 7 2 8 1 9 10 11 11 12 15 13 16 14
REMARK SMILES IDX 17 15 12 17 13 18 14 19
REMARK H PARENT
REMARK Flexibility Score: 70.00
ROOT
ATOM      1  C   UNL     1      60.098  66.435  35.158  1.00  0.00     0.136 C 
ATOM      2  O   UNL     1      59.280  66.322  36.061  1.00  0.00    -0.299 OA
ENDROOT
BRANCH   1   3
ATOM      3  C   UNL     1      60.212  65.341  34.113  1.00  0.00     0.053 C 
ATOM      4  C   UNL     1      59.553  64.049  34.616  1.00  0.00     0.016 C 
BRANCH   3   5
ATOM      5  C   UNL     1      59.580  65.799  32.779  1.00  0.00     0.015 C 
BRANCH   5   6
ATOM      6  C   UNL     1      60.583  66.592  31.918  1.00  0.00     0.028 C 
BRANCH   6   7
ATOM      7  C   UNL     1      59.992  67.842  31.315  1.00  0.00    -0.028 C 
ATOM      8  C   UNL     1      60.270  69.110  31.707  1.00  0.00    -0.070 CG0
ATOM      9  C   UNL     1      59.654  70.238  30.916  1.00  0.00     0.039 C 
ATOM     10  G   UNL     1      61.123  69.450  32.923  1.00  0.00     0.000 G0
ENDBRANCH   6   7
ENDBRANCH   5   6
ENDBRANCH   3   5
ENDBRANCH   1   3
BRANCH   1  11
ATOM     11  C   UNL     1      60.985  67.660  35.120  1.00  0.00     0.087 C 
BRANCH  11  12
ATOM     12  C   UNL     1      60.182  68.973  35.322  1.00  0.00     0.066 C 
BRANCH  12  13
ATOM     13  C   UNL     1      60.361  69.914  34.138  1.00  0.00     0.140 C 
ATOM     14  O   UNL     1      59.842  71.021  34.143  1.00  0.00    -0.299 OA
BRANCH  13  15
ATOM     15  C   UNL     1      61.133  69.460  32.923  1.00  0.00     0.106 CG0
ATOM     16  G   UNL     1      60.255  69.112  31.728  1.00  0.00     0.000 G0
ENDBRANCH  13  15
ENDBRANCH  12  13
BRANCH  12  17
ATOM     17  C   UNL     1      60.482  69.684  36.682  1.00  0.00    -0.006 C 
ATOM     18  C   UNL     1      59.189  70.141  37.376  1.00  0.00     0.008 C 
ATOM     19  C   UNL     1      61.324  68.836  37.655  1.00  0.00     0.008 C 
ENDBRANCH  12  17
ENDBRANCH  11  12
ENDBRANCH   1  11
TORSDOF 1
ENDMDL
MODEL 4
REMARK VINA RESULT:    -3.477      2.520      4.706
REMARK INTER + INTRA:          -5.627
REMARK INTER:                  -5.415
REMARK INTRA:                  -0.211
REMARK UNBOUND:                -0.320
REMARK SMILES CC1=CCC[C@H](C)C(=O)C[C@@H](C(C)C)C(=O)C1
REMARK SMILES IDX 8 1 9 2 6 3 7 4 5 5 4 6 3 7 2 8 1 9 10 11 11 12 15 13 16 14
REMARK SMILES IDX 17 15 12 17 13 18 14 19
REMARK H PARENT
REMARK Flexibility Score: 70.00
ROOT
ATOM      1  C   UNL     1      44.387  60.471  29.751  1.00  0.00     0.136 C 
ATOM      2  O   UNL     1      43.430  61.191  29.500  1.00  0.00    -0.299 OA
ENDROOT
BRANCH   1   3
ATOM      3  C   UNL     1      44.851  60.320  31.187  1.00  0.00     0.053 C 
ATOM      4  C   UNL     1      44.912  61.690  31.877  1.00  0.00     0.016 C 
BRANCH   3   5
ATOM      5  C   UNL     1      43.923  59.355  31.958  1.00  0.00     0.015 C 
BRANCH   5   6
ATOM      6  C   UNL     1      44.556  57.958  32.110  1.00  0.00     0.028 C 
BRANCH   6   7
ATOM      7  C   UNL     1      46.065  57.986  32.116  1.00  0.00    -0.028 C 
ATOM      8  C   UNL     1      46.863  57.461  31.153  1.00  0.00    -0.070 CG0
ATOM      9  C   UNL     1      48.351  57.675  31.286  1.00  0.00     0.039 C 
ATOM     10  G   UNL     1      46.344  56.635  29.983  1.00  0.00     0.000 G0
ENDBRANCH   6   7
ENDBRANCH   5   6
ENDBRANCH   3   5
ENDBRANCH   1   3
BRANCH   1  11
ATOM     11  C   UNL     1      45.090  59.763  28.614  1.00  0.00     0.087 C 
BRANCH  11  12
ATOM     12  C   UNL     1      44.801  58.238  28.602  1.00  0.00     0.066 C 
BRANCH  12  13
ATOM     13  C   UNL     1      46.087  57.433  28.718  1.00  0.00     0.140 C 
ATOM     14  O   UNL     1      46.880  57.394  27.788  1.00  0.00    -0.299 OA
BRANCH  13  15
ATOM     15  C   UNL     1      46.362  56.626  29.965  1.00  0.00     0.106 CG0
ATOM     16  G   UNL     1      46.871  57.454  31.138  1.00  0.00     0.000 G0
ENDBRANCH  13  15
ENDBRANCH  12  13
BRANCH  12  17
ATOM     17  C   UNL     1      43.933  57.778  27.385  1.00  0.00    -0.006 C 
ATOM     18  C   UNL     1      43.793  56.248  27.340  1.00  0.00     0.008 C 
ATOM     19  C   UNL     1      42.538  58.430  27.333  1.00  0.00     0.008 C 
ENDBRANCH  12  17
ENDBRANCH  11  12
ENDBRANCH   1  11
TORSDOF 1
ENDMDL
MODEL 5
REMARK VINA RESULT:    -3.424      2.246      3.860
REMARK INTER + INTRA:          -5.546
REMARK INTER:                  -6.046
REMARK INTRA:                   0.501
REMARK UNBOUND:                -0.320
REMARK SMILES CC1=CCC[C@H](C)C(=O)C[C@@H](C(C)C)C(=O)C1
REMARK SMILES IDX 8 1 9 2 6 3 7 4 5 5 4 6 3 7 2 8 1 9 10 11 11 12 15 13 16 14
REMARK SMILES IDX 17 15 12 17 13 18 14 19
REMARK H PARENT
REMARK Flexibility Score: 70.00
ROOT
ATOM      1  C   UNL     1      43.081  58.891  28.092  1.00  0.00     0.136 C 
ATOM      2  O   UNL     1      42.650  58.441  27.039  1.00  0.00    -0.299 OA
ENDROOT
BRANCH   1   3
ATOM      3  C   UNL     1      44.050  60.059  28.063  1.00  0.00     0.053 C 
ATOM      4  C   UNL     1      43.718  61.058  29.181  1.00  0.00     0.016 C 
BRANCH   3   5
ATOM      5  C   UNL     1      45.506  59.558  28.186  1.00  0.00     0.015 C 
BRANCH   5   6
ATOM      6  C   UNL     1      45.776  58.360  27.255  1.00  0.00     0.028 C 
BRANCH   6   7
ATOM      7  C   UNL     1      46.389  57.178  27.965  1.00  0.00    -0.028 C 
ATOM      8  C   UNL     1      45.804  55.964  28.118  1.00  0.00    -0.070 CG0
ATOM      9  C   UNL     1      46.617  54.875  28.774  1.00  0.00     0.039 C 
ATOM     10  G   UNL     1      44.368  55.661  27.710  1.00  0.00     0.000 G0
ENDBRANCH   6   7
ENDBRANCH   5   6
ENDBRANCH   3   5
ENDBRANCH   1   3
BRANCH   1  11
ATOM     11  C   UNL     1      42.646  58.256  29.393  1.00  0.00     0.087 C 
BRANCH  11  12
ATOM     12  C   UNL     1      43.537  57.047  29.784  1.00  0.00     0.066 C 
BRANCH  12  13
ATOM     13  C   UNL     1      43.348  55.887  28.815  1.00  0.00     0.140 C 
ATOM     14  O   UNL     1      42.410  55.114  28.950  1.00  0.00    -0.299 OA
BRANCH  13  15
ATOM     15  C   UNL     1      44.356  55.652  27.716  1.00  0.00     0.106 CG0
ATOM     16  G   UNL     1      45.793  55.954  28.120  1.00  0.00     0.000 G0
ENDBRANCH  13  15
ENDBRANCH  12  13
BRANCH  12  17
ATOM     17  C   UNL     1      43.360  56.597  31.272  1.00  0.00    -0.006 C 
ATOM     18  C   UNL     1      44.692  56.645  32.038  1.00  0.00     0.008 C 
ATOM     19  C   UNL     1      42.289  57.397  32.040  1.00  0.00     0.008 C 
ENDBRANCH  12  17
ENDBRANCH  11  12
ENDBRANCH   1  11
TORSDOF 1
ENDMDL
MODEL 6
REMARK VINA RESULT:    -3.411      1.936      2.538
REMARK INTER + INTRA:          -5.526
REMARK INTER:                  -5.207
REMARK INTRA:                  -0.319
REMARK UNBOUND:                -0.320
REMARK SMILES CC1=CCC[C@H](C)C(=O)C[C@@H](C(C)C)C(=O)C1
REMARK SMILES IDX 8 1 9 2 6 3 7 4 5 5 4 6 3 7 2 8 1 9 10 11 11 12 15 13 16 14
REMARK SMILES IDX 17 15 12 17 13 18 14 19
REMARK H PARENT
REMARK Flexibility Score: 70.00
ROOT
ATOM      1  C   UNL     1      45.628  56.127  30.790  1.00  0.00     0.136 C 
ATOM      2  O   UNL     1      45.677  55.215  31.604  1.00  0.00    -0.299 OA
ENDROOT
BRANCH   1   3
ATOM      3  C   UNL     1      45.931  55.843  29.331  1.00  0.00     0.053 C 
ATOM      4  C   UNL     1      47.295  55.151  29.192  1.00  0.00     0.016 C 
BRANCH   3   5
ATOM      5  C   UNL     1      44.811  54.984  28.702  1.00  0.00     0.015 C 
BRANCH   5   6
ATOM      6  C   UNL     1      43.799  55.851  27.927  1.00  0.00     0.028 C 
BRANCH   6   7
ATOM      7  C   UNL     1      44.382  57.153  27.436  1.00  0.00    -0.028 C 
ATOM      8  C   UNL     1      44.053  58.385  27.898  1.00  0.00    -0.070 CG0
ATOM      9  C   UNL     1      44.819  59.564  27.351  1.00  0.00     0.039 C 
ATOM     10  G   UNL     1      42.930  58.640  28.895  1.00  0.00     0.000 G0
ENDBRANCH   6   7
ENDBRANCH   5   6
ENDBRANCH   3   5
ENDBRANCH   1   3
BRANCH   1  11
ATOM     11  C   UNL     1      45.279  57.519  31.268  1.00  0.00     0.087 C 
BRANCH  11  12
ATOM     12  C   UNL     1      43.750  57.787  31.231  1.00  0.00     0.066 C 
BRANCH  12  13
ATOM     13  C   UNL     1      43.416  58.942  30.298  1.00  0.00     0.140 C 
ATOM     14  O   UNL     1      43.494  60.098  30.689  1.00  0.00    -0.299 OA
BRANCH  13  15
ATOM     15  C   UNL     1      42.927  58.662  28.897  1.00  0.00     0.106 CG0
ATOM     16  G   UNL     1      44.042  58.388  27.896  1.00  0.00     0.000 G0
ENDBRANCH  13  15
ENDBRANCH  12  13
BRANCH  12  17
ATOM     17  C   UNL     1      43.117  57.982  32.648  1.00  0.00    -0.006 C 
ATOM     18  C   UNL     1      42.374  56.719  33.112  1.00  0.00     0.008 C 
ATOM     19  C   UNL     1      44.129  58.416  33.727  1.00  0.00     0.008 C 
ENDBRANCH  12  17
ENDBRANCH  11  12
ENDBRANCH   1  11
TORSDOF 1
ENDMDL
MODEL 7
REMARK VINA RESULT:    -3.405      2.995      4.823
REMARK INTER + INTRA:          -5.517
REMARK INTER:                  -5.659
REMARK INTRA:                   0.142
REMARK UNBOUND:                -0.320
REMARK SMILES CC1=CCC[C@H](C)C(=O)C[C@@H](C(C)C)C(=O)C1
REMARK SMILES IDX 8 1 9 2 6 3 7 4 5 5 4 6 3 7 2 8 1 9 10 11 11 12 15 13 16 14
REMARK SMILES IDX 17 15 12 17 13 18 14 19
REMARK H PARENT
REMARK Flexibility Score: 70.00
ROOT
ATOM      1  C   UNL     1      44.606  60.569  30.590  1.00  0.00     0.136 C 
ATOM      2  O   UNL     1      43.753  61.212  29.993  1.00  0.00    -0.299 OA
ENDROOT
BRANCH   1   3
ATOM      3  C   UNL     1      45.349  61.208  31.748  1.00  0.00     0.053 C 
ATOM      4  C   UNL     1      44.627  62.482  32.210  1.00  0.00     0.016 C 
BRANCH   3   5
ATOM      5  C   UNL     1      45.500  60.206  32.915  1.00  0.00     0.015 C 
BRANCH   5   6
ATOM      6  C   UNL     1      44.138  59.873  33.557  1.00  0.00     0.028 C 
BRANCH   6   7
ATOM      7  C   UNL     1      44.094  58.500  34.180  1.00  0.00    -0.028 C 
ATOM      8  C   UNL     1      43.542  57.398  33.613  1.00  0.00    -0.070 CG0
ATOM      9  C   UNL     1      43.683  56.089  34.349  1.00  0.00     0.039 C 
ATOM     10  G   UNL     1      42.754  57.424  32.310  1.00  0.00     0.000 G0
ENDBRANCH   6   7
ENDBRANCH   5   6
ENDBRANCH   3   5
ENDBRANCH   1   3
BRANCH   1  11
ATOM     11  C   UNL     1      44.906  59.156  30.142  1.00  0.00     0.087 C 
BRANCH  11  12
ATOM     12  C   UNL     1      43.620  58.299  29.999  1.00  0.00     0.066 C 
BRANCH  12  13
ATOM     13  C   UNL     1      43.563  57.210  31.062  1.00  0.00     0.140 C 
ATOM     14  O   UNL     1      44.139  56.145  30.889  1.00  0.00    -0.299 OA
BRANCH  13  15
ATOM     15  C   UNL     1      42.741  57.418  32.311  1.00  0.00     0.106 CG0
ATOM     16  G   UNL     1      43.555  57.391  33.598  1.00  0.00     0.000 G0
ENDBRANCH  13  15
ENDBRANCH  12  13
BRANCH  12  17
ATOM     17  C   UNL     1      43.413  57.720  28.561  1.00  0.00    -0.006 C 
ATOM     18  C   UNL     1      42.358  56.602  28.550  1.00  0.00     0.008 C 
ATOM     19  C   UNL     1      43.052  58.786  27.508  1.00  0.00     0.008 C 
ENDBRANCH  12  17
ENDBRANCH  11  12
ENDBRANCH   1  11
TORSDOF 1
ENDMDL
MODEL 8
REMARK VINA RESULT:    -3.385      2.693      4.241
REMARK INTER + INTRA:          -5.485
REMARK INTER:                  -5.183
REMARK INTRA:                  -0.302
REMARK UNBOUND:                -0.320
REMARK SMILES CC1=CCC[C@H](C)C(=O)C[C@@H](C(C)C)C(=O)C1
REMARK SMILES IDX 8 1 9 2 6 3 7 4 5 5 4 6 3 7 2 8 1 9 10 11 11 12 15 13 16 14
REMARK SMILES IDX 17 15 12 17 13 18 14 19
REMARK H PARENT
REMARK Flexibility Score: 70.00
ROOT
ATOM      1  C   UNL     1      44.025  56.535  30.833  1.00  0.00     0.136 C 
ATOM      2  O   UNL     1      44.083  55.517  30.158  1.00  0.00    -0.299 OA
ENDROOT
BRANCH   1   3
ATOM      3  C   UNL     1      44.466  56.496  32.284  1.00  0.00     0.053 C 
ATOM      4  C   UNL     1      45.998  56.466  32.378  1.00  0.00     0.016 C 
BRANCH   3   5
ATOM      5  C   UNL     1      43.890  57.703  33.059  1.00  0.00     0.015 C 
BRANCH   5   6
ATOM      6  C   UNL     1      45.007  58.574  33.665  1.00  0.00     0.028 C 
BRANCH   6   7
ATOM      7  C   UNL     1      44.669  60.045  33.687  1.00  0.00    -0.028 C 
ATOM      8  C   UNL     1      44.822  60.901  32.646  1.00  0.00    -0.070 CG0
ATOM      9  C   UNL     1      44.334  62.317  32.829  1.00  0.00     0.039 C 
ATOM     10  G   UNL     1      45.497  60.523  31.334  1.00  0.00     0.000 G0
ENDBRANCH   6   7
ENDBRANCH   5   6
ENDBRANCH   3   5
ENDBRANCH   1   3
BRANCH   1  11
ATOM     11  C   UNL     1      43.498  57.804  30.201  1.00  0.00     0.087 C 
BRANCH  11  12
ATOM     12  C   UNL     1      44.635  58.701  29.645  1.00  0.00     0.066 C 
BRANCH  12  13
ATOM     13  C   UNL     1      44.559  60.109  30.220  1.00  0.00     0.140 C 
ATOM     14  O   UNL     1      43.766  60.921  29.766  1.00  0.00    -0.299 OA
BRANCH  13  15
ATOM     15  C   UNL     1      45.507  60.527  31.319  1.00  0.00     0.106 CG0
ATOM     16  G   UNL     1      44.816  60.891  32.627  1.00  0.00     0.000 G0
ENDBRANCH  13  15
ENDBRANCH  12  13
BRANCH  12  17
ATOM     17  C   UNL     1      44.711  58.714  28.083  1.00  0.00    -0.006 C 
ATOM     18  C   UNL     1      45.807  57.770  27.563  1.00  0.00     0.008 C 
ATOM     19  C   UNL     1      43.373  58.387  27.392  1.00  0.00     0.008 C 
ENDBRANCH  12  17
ENDBRANCH  11  12
ENDBRANCH   1  11
TORSDOF 1
ENDMDL
MODEL 9
REMARK VINA RESULT:    -3.361      2.061      3.662
REMARK INTER + INTRA:          -5.450
REMARK INTER:                  -5.185
REMARK INTRA:                  -0.265
REMARK UNBOUND:                -0.320
REMARK SMILES CC1=CCC[C@H](C)C(=O)C[C@@H](C(C)C)C(=O)C1
REMARK SMILES IDX 8 1 9 2 6 3 7 4 5 5 4 6 3 7 2 8 1 9 10 11 11 12 15 13 16 14
REMARK SMILES IDX 17 15 12 17 13 18 14 19
REMARK H PARENT
REMARK Flexibility Score: 70.00
ROOT
ATOM      1  C   UNL     1      43.557  54.896  30.540  1.00  0.00     0.136 C 
ATOM      2  O   UNL     1      42.719  54.268  31.174  1.00  0.00    -0.299 OA
ENDROOT
BRANCH   1   3
ATOM      3  C   UNL     1      43.327  55.169  29.066  1.00  0.00     0.053 C 
ATOM      4  C   UNL     1      43.384  53.861  28.263  1.00  0.00     0.016 C 
BRANCH   3   5
ATOM      5  C   UNL     1      41.977  55.889  28.851  1.00  0.00     0.015 C 
BRANCH   5   6
ATOM      6  C   UNL     1      42.142  57.422  28.869  1.00  0.00     0.028 C 
BRANCH   6   7
ATOM      7  C   UNL     1      43.317  57.904  28.055  1.00  0.00    -0.028 C 
ATOM      8  C   UNL     1      44.442  58.469  28.559  1.00  0.00    -0.070 CG0
ATOM      9  C   UNL     1      45.553  58.797  27.593  1.00  0.00     0.039 C 
ATOM     10  G   UNL     1      44.620  58.831  30.028  1.00  0.00     0.000 G0
ENDBRANCH   6   7
ENDBRANCH   5   6
ENDBRANCH   3   5
ENDBRANCH   1   3
BRANCH   1  11
ATOM     11  C   UNL     1      44.808  55.369  31.246  1.00  0.00     0.087 C 
BRANCH  11  12
ATOM     12  C   UNL     1      44.681  56.831  31.750  1.00  0.00     0.066 C 
BRANCH  12  13
ATOM     13  C   UNL     1      45.413  57.797  30.827  1.00  0.00     0.140 C 
ATOM     14  O   UNL     1      46.633  57.779  30.753  1.00  0.00    -0.299 OA
BRANCH  13  15
ATOM     15  C   UNL     1      44.634  58.825  30.041  1.00  0.00     0.106 CG0
ATOM     16  G   UNL     1      44.439  58.463  28.574  1.00  0.00     0.000 G0
ENDBRANCH  13  15
ENDBRANCH  12  13
BRANCH  12  17
ATOM     17  C   UNL     1      45.110  57.016  33.243  1.00  0.00    -0.006 C 
ATOM     18  C   UNL     1      44.048  57.787  34.043  1.00  0.00     0.008 C 
ATOM     19  C   UNL     1      45.444  55.694  33.961  1.00  0.00     0.008 C 
ENDBRANCH  12  17
ENDBRANCH  11  12
ENDBRANCH   1  11
TORSDOF 1
ENDMDL
