MODEL 1
REMARK VINA RESULT:    -1.979      0.000      0.000
REMARK INTER + INTRA:          -4.441
REMARK INTER:                  -3.598
REMARK INTRA:                  -0.843
REMARK UNBOUND:                -0.843
REMARK SMILES CCCCCC=CCC=CCCCCCCCC(=O)[O-]
REMARK SMILES IDX 11 1 12 2 13 3 14 4 15 5 16 6 17 7 18 8 19 9 20 10 10 11
REMARK SMILES IDX 9 12 8 13 7 14 6 15 5 16 4 17 3 18 2 19 1 20
REMARK H PARENT
REMARK Flexibility Score: inf
ROOT
ATOM      1  C   UNL     1       1.737 -13.462 -19.122  1.00  0.00     0.027 C 
ENDROOT
BRANCH   1   2
ATOM      2  C   UNL     1       2.857 -12.467 -18.785  1.00  0.00     0.004 C 
BRANCH   2   3
ATOM      3  C   UNL     1       2.363 -11.009 -18.817  1.00  0.00     0.000 C 
BRANCH   3   4
ATOM      4  C   UNL     1       3.352 -10.029 -18.161  1.00  0.00     0.000 C 
BRANCH   4   5
ATOM      5  C   UNL     1       2.714  -8.991 -17.215  1.00  0.00     0.000 C 
BRANCH   5   6
ATOM      6  C   UNL     1       3.131  -9.110 -15.738  1.00  0.00     0.006 C 
BRANCH   6   7
ATOM      7  C   UNL     1       3.425  -7.751 -15.092  1.00  0.00     0.053 C 
BRANCH   7   8
ATOM      8  C   UNL     1       3.659  -7.912 -13.622  1.00  0.00     0.041 C 
ATOM      9  O   UNL     1       4.337  -8.882 -13.192  1.00  0.00    -0.550 OA
ATOM     10  O   UNL     1       3.169  -6.965 -12.732  1.00  0.00    -0.550 OA
ENDBRANCH   7   8
ENDBRANCH   6   7
ENDBRANCH   5   6
ENDBRANCH   4   5
ENDBRANCH   3   4
ENDBRANCH   2   3
ENDBRANCH   1   2
BRANCH   1  11
ATOM     11  C   UNL     1       1.691 -14.613 -18.146  1.00  0.00    -0.031 C 
ATOM     12  C   UNL     1       0.609 -15.383 -17.923  1.00  0.00    -0.027 C 
BRANCH  12  13
ATOM     13  C   UNL     1      -0.696 -15.260 -18.668  1.00  0.00     0.054 C 
BRANCH  13  14
ATOM     14  C   UNL     1      -1.386 -16.591 -18.781  1.00  0.00    -0.027 C 
ATOM     15  C   UNL     1      -1.075 -17.463 -19.752  1.00  0.00    -0.031 C 
BRANCH  15  16
ATOM     16  C   UNL     1      -1.773 -18.790 -19.872  1.00  0.00     0.027 C 
BRANCH  16  17
ATOM     17  C   UNL     1      -0.762 -19.946 -19.918  1.00  0.00     0.004 C 
BRANCH  17  18
ATOM     18  C   UNL     1       0.445 -19.712 -18.997  1.00  0.00     0.000 C 
BRANCH  18  19
ATOM     19  C   UNL     1       0.169 -20.124 -17.544  1.00  0.00    -0.003 C 
ATOM     20  C   UNL     1       1.334 -19.744 -16.634  1.00  0.00     0.004 C 
ENDBRANCH  18  19
ENDBRANCH  17  18
ENDBRANCH  16  17
ENDBRANCH  15  16
ENDBRANCH  13  14
ENDBRANCH  12  13
ENDBRANCH   1  11
TORSDOF 14
ENDMDL
MODEL 2
REMARK VINA RESULT:    -1.904      3.123      4.175
REMARK INTER + INTRA:          -4.305
REMARK INTER:                  -3.709
REMARK INTRA:                  -0.597
REMARK UNBOUND:                -0.843
REMARK SMILES CCCCCC=CCC=CCCCCCCCC(=O)[O-]
REMARK SMILES IDX 11 1 12 2 13 3 14 4 15 5 16 6 17 7 18 8 19 9 20 10 10 11
REMARK SMILES IDX 9 12 8 13 7 14 6 15 5 16 4 17 3 18 2 19 1 20
REMARK H PARENT
REMARK Flexibility Score: inf
ROOT
ATOM      1  C   UNL     1       0.479 -16.095 -18.421  1.00  0.00     0.027 C 
ENDROOT
BRANCH   1   2
ATOM      2  C   UNL     1       1.755 -15.241 -18.388  1.00  0.00     0.004 C 
BRANCH   2   3
ATOM      3  C   UNL     1       1.456 -13.747 -18.604  1.00  0.00     0.000 C 
BRANCH   3   4
ATOM      4  C   UNL     1       2.731 -12.901 -18.774  1.00  0.00     0.000 C 
BRANCH   4   5
ATOM      5  C   UNL     1       2.521 -11.375 -18.692  1.00  0.00     0.000 C 
BRANCH   5   6
ATOM      6  C   UNL     1       3.809 -10.535 -18.740  1.00  0.00     0.006 C 
BRANCH   6   7
ATOM      7  C   UNL     1       4.678 -10.847 -19.964  1.00  0.00     0.053 C 
BRANCH   7   8
ATOM      8  C   UNL     1       6.104 -11.042 -19.556  1.00  0.00     0.041 C 
ATOM      9  O   UNL     1       6.379 -11.514 -18.421  1.00  0.00    -0.550 OA
ATOM     10  O   UNL     1       7.129 -10.750 -20.446  1.00  0.00    -0.550 OA
ENDBRANCH   7   8
ENDBRANCH   6   7
ENDBRANCH   5   6
ENDBRANCH   4   5
ENDBRANCH   3   4
ENDBRANCH   2   3
ENDBRANCH   1   2
BRANCH   1  11
ATOM     11  C   UNL     1      -0.767 -15.247 -18.484  1.00  0.00    -0.031 C 
ATOM     12  C   UNL     1      -1.821 -15.496 -19.286  1.00  0.00    -0.027 C 
BRANCH  12  13
ATOM     13  C   UNL     1      -1.945 -16.699 -20.186  1.00  0.00     0.054 C 
BRANCH  13  14
ATOM     14  C   UNL     1      -2.046 -17.969 -19.386  1.00  0.00    -0.027 C 
ATOM     15  C   UNL     1      -1.032 -18.845 -19.328  1.00  0.00    -0.031 C 
BRANCH  15  16
ATOM     16  C   UNL     1      -1.136 -20.120 -18.539  1.00  0.00     0.027 C 
BRANCH  16  17
ATOM     17  C   UNL     1      -2.058 -19.945 -17.322  1.00  0.00     0.004 C 
BRANCH  17  18
ATOM     18  C   UNL     1      -1.317 -20.124 -15.988  1.00  0.00     0.000 C 
BRANCH  18  19
ATOM     19  C   UNL     1      -2.016 -19.411 -14.823  1.00  0.00    -0.003 C 
ATOM     20  C   UNL     1      -1.418 -19.831 -13.483  1.00  0.00     0.004 C 
ENDBRANCH  18  19
ENDBRANCH  17  18
ENDBRANCH  16  17
ENDBRANCH  15  16
ENDBRANCH  13  14
ENDBRANCH  12  13
ENDBRANCH   1  11
TORSDOF 14
ENDMDL
MODEL 3
REMARK VINA RESULT:    -1.667      0.751      1.958
REMARK INTER + INTRA:          -3.874
REMARK INTER:                  -3.355
REMARK INTRA:                  -0.519
REMARK UNBOUND:                -0.843
REMARK SMILES CCCCCC=CCC=CCCCCCCCC(=O)[O-]
REMARK SMILES IDX 11 1 12 2 13 3 14 4 15 5 16 6 17 7 18 8 19 9 20 10 10 11
REMARK SMILES IDX 9 12 8 13 7 14 6 15 5 16 4 17 3 18 2 19 1 20
REMARK H PARENT
REMARK Flexibility Score: inf
ROOT
ATOM      1  C   UNL     1       3.788 -12.473 -18.411  1.00  0.00     0.027 C 
ENDROOT
BRANCH   1   2
ATOM      2  C   UNL     1       4.573 -11.230 -18.856  1.00  0.00     0.004 C 
BRANCH   2   3
ATOM      3  C   UNL     1       3.656 -10.013 -19.069  1.00  0.00     0.000 C 
BRANCH   3   4
ATOM      4  C   UNL     1       2.548  -9.906 -18.005  1.00  0.00     0.000 C 
BRANCH   4   5
ATOM      5  C   UNL     1       2.623  -8.655 -17.106  1.00  0.00     0.000 C 
BRANCH   5   6
ATOM      6  C   UNL     1       3.263  -8.881 -15.725  1.00  0.00     0.006 C 
BRANCH   6   7
ATOM      7  C   UNL     1       3.288  -7.612 -14.865  1.00  0.00     0.053 C 
BRANCH   7   8
ATOM      8  C   UNL     1       3.742  -7.931 -13.476  1.00  0.00     0.041 C 
ATOM      9  O   UNL     1       4.182  -7.018 -12.728  1.00  0.00    -0.550 OA
ATOM     10  O   UNL     1       3.634  -9.227 -12.989  1.00  0.00    -0.550 OA
ENDBRANCH   7   8
ENDBRANCH   6   7
ENDBRANCH   5   6
ENDBRANCH   4   5
ENDBRANCH   3   4
ENDBRANCH   2   3
ENDBRANCH   1   2
BRANCH   1  11
ATOM     11  C   UNL     1       2.453 -12.578 -19.107  1.00  0.00    -0.031 C 
ATOM     12  C   UNL     1       1.566 -13.571 -18.913  1.00  0.00    -0.027 C 
BRANCH  12  13
ATOM     13  C   UNL     1       1.738 -14.689 -17.916  1.00  0.00     0.054 C 
BRANCH  13  14
ATOM     14  C   UNL     1       0.649 -15.717 -18.056  1.00  0.00    -0.027 C 
ATOM     15  C   UNL     1      -0.558 -15.399 -18.547  1.00  0.00    -0.031 C 
BRANCH  15  16
ATOM     16  C   UNL     1      -1.651 -16.423 -18.677  1.00  0.00     0.027 C 
BRANCH  16  17
ATOM     17  C   UNL     1      -1.375 -17.383 -19.844  1.00  0.00     0.004 C 
BRANCH  17  18
ATOM     18  C   UNL     1      -1.350 -18.855 -19.405  1.00  0.00     0.000 C 
BRANCH  18  19
ATOM     19  C   UNL     1       0.066 -19.449 -19.407  1.00  0.00    -0.003 C 
ATOM     20  C   UNL     1       0.737 -19.273 -18.047  1.00  0.00     0.004 C 
ENDBRANCH  18  19
ENDBRANCH  17  18
ENDBRANCH  16  17
ENDBRANCH  15  16
ENDBRANCH  13  14
ENDBRANCH  12  13
ENDBRANCH   1  11
TORSDOF 14
ENDMDL
MODEL 4
REMARK VINA RESULT:    -1.635      4.224     10.224
REMARK INTER + INTRA:          -3.816
REMARK INTER:                  -2.964
REMARK INTRA:                  -0.852
REMARK UNBOUND:                -0.843
REMARK SMILES CCCCCC=CCC=CCCCCCCCC(=O)[O-]
REMARK SMILES IDX 11 1 12 2 13 3 14 4 15 5 16 6 17 7 18 8 19 9 20 10 10 11
REMARK SMILES IDX 9 12 8 13 7 14 6 15 5 16 4 17 3 18 2 19 1 20
REMARK H PARENT
REMARK Flexibility Score: inf
ROOT
ATOM      1  C   UNL     1       1.662 -13.575 -18.749  1.00  0.00     0.027 C 
ENDROOT
BRANCH   1   2
ATOM      2  C   UNL     1       1.607 -14.841 -17.881  1.00  0.00     0.004 C 
BRANCH   2   3
ATOM      3  C   UNL     1       0.707 -15.926 -18.498  1.00  0.00     0.000 C 
BRANCH   3   4
ATOM      4  C   UNL     1      -0.785 -15.548 -18.476  1.00  0.00     0.000 C 
BRANCH   4   5
ATOM      5  C   UNL     1      -1.758 -16.705 -18.784  1.00  0.00     0.000 C 
BRANCH   5   6
ATOM      6  C   UNL     1      -1.288 -17.681 -19.876  1.00  0.00     0.006 C 
BRANCH   6   7
ATOM      7  C   UNL     1      -1.442 -19.151 -19.467  1.00  0.00     0.053 C 
BRANCH   7   8
ATOM      8  C   UNL     1      -0.597 -19.451 -18.269  1.00  0.00     0.041 C 
ATOM      9  O   UNL     1       0.656 -19.348 -18.337  1.00  0.00    -0.550 OA
ATOM     10  O   UNL     1      -1.195 -19.797 -17.065  1.00  0.00    -0.550 OA
ENDBRANCH   7   8
ENDBRANCH   6   7
ENDBRANCH   5   6
ENDBRANCH   4   5
ENDBRANCH   3   4
ENDBRANCH   2   3
ENDBRANCH   1   2
BRANCH   1  11
ATOM     11  C   UNL     1       3.077 -13.094 -18.958  1.00  0.00    -0.031 C 
ATOM     12  C   UNL     1       3.445 -11.800 -19.005  1.00  0.00    -0.027 C 
BRANCH  12  13
ATOM     13  C   UNL     1       2.512 -10.637 -18.782  1.00  0.00     0.054 C 
BRANCH  13  14
ATOM     14  C   UNL     1       3.121  -9.620 -17.856  1.00  0.00    -0.027 C 
ATOM     15  C   UNL     1       2.478  -9.198 -16.757  1.00  0.00    -0.031 C 
BRANCH  15  16
ATOM     16  C   UNL     1       3.081  -8.172 -15.837  1.00  0.00     0.027 C 
BRANCH  16  17
ATOM     17  C   UNL     1       3.876  -8.841 -14.705  1.00  0.00     0.004 C 
BRANCH  17  18
ATOM     18  C   UNL     1       3.393  -8.414 -13.311  1.00  0.00     0.000 C 
BRANCH  18  19
ATOM     19  C   UNL     1       3.628  -6.922 -13.035  1.00  0.00    -0.003 C 
ATOM     20  C   UNL     1       2.333  -6.229 -12.620  1.00  0.00     0.004 C 
ENDBRANCH  18  19
ENDBRANCH  17  18
ENDBRANCH  16  17
ENDBRANCH  15  16
ENDBRANCH  13  14
ENDBRANCH  12  13
ENDBRANCH   1  11
TORSDOF 14
ENDMDL
MODEL 5
REMARK VINA RESULT:    -1.629      4.102      9.525
REMARK INTER + INTRA:          -3.805
REMARK INTER:                  -2.901
REMARK INTRA:                  -0.903
REMARK UNBOUND:                -0.843
REMARK SMILES CCCCCC=CCC=CCCCCCCCC(=O)[O-]
REMARK SMILES IDX 11 1 12 2 13 3 14 4 15 5 16 6 17 7 18 8 19 9 20 10 10 11
REMARK SMILES IDX 9 12 8 13 7 14 6 15 5 16 4 17 3 18 2 19 1 20
REMARK H PARENT
REMARK Flexibility Score: inf
ROOT
ATOM      1  C   UNL     1      -0.512 -14.998 -18.980  1.00  0.00     0.027 C 
ENDROOT
BRANCH   1   2
ATOM      2  C   UNL     1      -1.602 -16.074 -18.867  1.00  0.00     0.004 C 
BRANCH   2   3
ATOM      3  C   UNL     1      -1.974 -16.667 -20.237  1.00  0.00     0.000 C 
BRANCH   3   4
ATOM      4  C   UNL     1      -2.041 -18.205 -20.223  1.00  0.00     0.000 C 
BRANCH   4   5
ATOM      5  C   UNL     1      -1.392 -18.878 -18.997  1.00  0.00     0.000 C 
BRANCH   5   6
ATOM      6  C   UNL     1       0.053 -19.365 -19.208  1.00  0.00     0.006 C 
BRANCH   6   7
ATOM      7  C   UNL     1       1.012 -18.876 -18.117  1.00  0.00     0.053 C 
BRANCH   7   8
ATOM      8  C   UNL     1       0.879 -19.720 -16.888  1.00  0.00     0.041 C 
ATOM      9  O   UNL     1      -0.255 -20.125 -16.518  1.00  0.00    -0.550 OA
ATOM     10  O   UNL     1       2.011 -20.100 -16.179  1.00  0.00    -0.550 OA
ENDBRANCH   7   8
ENDBRANCH   6   7
ENDBRANCH   5   6
ENDBRANCH   4   5
ENDBRANCH   3   4
ENDBRANCH   2   3
ENDBRANCH   1   2
BRANCH   1  11
ATOM     11  C   UNL     1       0.493 -15.090 -17.858  1.00  0.00    -0.031 C 
ATOM     12  C   UNL     1       1.744 -14.597 -17.911  1.00  0.00    -0.027 C 
BRANCH  12  13
ATOM     13  C   UNL     1       2.306 -13.812 -19.069  1.00  0.00     0.054 C 
BRANCH  13  14
ATOM     14  C   UNL     1       2.400 -12.347 -18.740  1.00  0.00    -0.027 C 
ATOM     15  C   UNL     1       3.493 -11.629 -19.040  1.00  0.00    -0.031 C 
BRANCH  15  16
ATOM     16  C   UNL     1       3.593 -10.167 -18.700  1.00  0.00     0.027 C 
BRANCH  16  17
ATOM     17  C   UNL     1       2.371  -9.701 -17.894  1.00  0.00     0.004 C 
BRANCH  17  18
ATOM     18  C   UNL     1       2.724  -8.624 -16.857  1.00  0.00     0.000 C 
BRANCH  18  19
ATOM     19  C   UNL     1       3.357  -9.211 -15.587  1.00  0.00    -0.003 C 
ATOM     20  C   UNL     1       3.530  -8.140 -14.514  1.00  0.00     0.004 C 
ENDBRANCH  18  19
ENDBRANCH  17  18
ENDBRANCH  16  17
ENDBRANCH  15  16
ENDBRANCH  13  14
ENDBRANCH  12  13
ENDBRANCH   1  11
TORSDOF 14
ENDMDL
MODEL 6
REMARK VINA RESULT:    -1.081      4.621      9.702
REMARK INTER + INTRA:          -2.809
REMARK INTER:                  -1.789
REMARK INTRA:                  -1.020
REMARK UNBOUND:                -0.843
REMARK SMILES CCCCCC=CCC=CCCCCCCCC(=O)[O-]
REMARK SMILES IDX 11 1 12 2 13 3 14 4 15 5 16 6 17 7 18 8 19 9 20 10 10 11
REMARK SMILES IDX 9 12 8 13 7 14 6 15 5 16 4 17 3 18 2 19 1 20
REMARK H PARENT
REMARK Flexibility Score: inf
ROOT
ATOM      1  C   UNL     1      -0.506 -15.280 -18.735  1.00  0.00     0.027 C 
ENDROOT
BRANCH   1   2
ATOM      2  C   UNL     1      -1.372 -16.513 -18.440  1.00  0.00     0.004 C 
BRANCH   2   3
ATOM      3  C   UNL     1      -2.018 -17.085 -19.714  1.00  0.00     0.000 C 
BRANCH   3   4
ATOM      4  C   UNL     1      -1.671 -18.567 -19.947  1.00  0.00     0.000 C 
BRANCH   4   5
ATOM      5  C   UNL     1      -0.214 -18.956 -19.623  1.00  0.00     0.000 C 
BRANCH   5   6
ATOM      6  C   UNL     1      -0.054 -20.125 -18.635  1.00  0.00     0.006 C 
BRANCH   6   7
ATOM      7  C   UNL     1      -1.114 -20.116 -17.527  1.00  0.00     0.053 C 
BRANCH   7   8
ATOM      8  C   UNL     1      -0.462 -20.059 -16.181  1.00  0.00     0.041 C 
ATOM      9  O   UNL     1       0.792 -20.123 -16.082  1.00  0.00    -0.550 OA
ATOM     10  O   UNL     1      -1.234 -19.887 -15.041  1.00  0.00    -0.550 OA
ENDBRANCH   7   8
ENDBRANCH   6   7
ENDBRANCH   5   6
ENDBRANCH   4   5
ENDBRANCH   3   4
ENDBRANCH   2   3
ENDBRANCH   1   2
BRANCH   1  11
ATOM     11  C   UNL     1       0.851 -15.373 -18.082  1.00  0.00    -0.031 C 
ATOM     12  C   UNL     1       1.788 -14.406 -18.125  1.00  0.00    -0.027 C 
BRANCH  12  13
ATOM     13  C   UNL     1       1.594 -13.056 -18.768  1.00  0.00     0.054 C 
BRANCH  13  14
ATOM     14  C   UNL     1       2.899 -12.319 -18.892  1.00  0.00    -0.027 C 
ATOM     15  C   UNL     1       2.947 -10.980 -18.952  1.00  0.00    -0.031 C 
BRANCH  15  16
ATOM     16  C   UNL     1       4.250 -10.243 -19.088  1.00  0.00     0.027 C 
BRANCH  16  17
ATOM     17  C   UNL     1       5.435 -11.134 -18.685  1.00  0.00     0.004 C 
BRANCH  17  18
ATOM     18  C   UNL     1       6.261 -11.603 -19.893  1.00  0.00     0.000 C 
BRANCH  18  19
ATOM     19  C   UNL     1       6.848 -10.434 -20.697  1.00  0.00    -0.003 C 
ATOM     20  C   UNL     1       8.347 -10.293 -20.446  1.00  0.00     0.004 C 
ENDBRANCH  18  19
ENDBRANCH  17  18
ENDBRANCH  16  17
ENDBRANCH  15  16
ENDBRANCH  13  14
ENDBRANCH  12  13
ENDBRANCH   1  11
TORSDOF 14
ENDMDL
MODEL 7
REMARK VINA RESULT:    -0.390      4.371     10.101
REMARK INTER + INTRA:          -1.551
REMARK INTER:                  -1.797
REMARK INTRA:                   0.246
REMARK UNBOUND:                -0.843
REMARK SMILES CCCCCC=CCC=CCCCCCCCC(=O)[O-]
REMARK SMILES IDX 11 1 12 2 13 3 14 4 15 5 16 6 17 7 18 8 19 9 20 10 10 11
REMARK SMILES IDX 9 12 8 13 7 14 6 15 5 16 4 17 3 18 2 19 1 20
REMARK H PARENT
REMARK Flexibility Score: inf
ROOT
ATOM      1  C   UNL     1       3.866 -12.263 -18.874  1.00  0.00     0.027 C 
ENDROOT
BRANCH   1   2
ATOM      2  C   UNL     1       2.385 -12.664 -18.815  1.00  0.00     0.004 C 
BRANCH   2   3
ATOM      3  C   UNL     1       2.201 -14.190 -18.750  1.00  0.00     0.000 C 
BRANCH   3   4
ATOM      4  C   UNL     1       0.989 -14.610 -17.900  1.00  0.00     0.000 C 
BRANCH   4   5
ATOM      5  C   UNL     1       0.371 -15.975 -18.269  1.00  0.00     0.000 C 
BRANCH   5   6
ATOM      6  C   UNL     1      -1.108 -15.930 -18.690  1.00  0.00     0.006 C 
BRANCH   6   7
ATOM      7  C   UNL     1      -1.464 -17.003 -19.727  1.00  0.00     0.053 C 
BRANCH   7   8
ATOM      8  C   UNL     1      -1.123 -18.364 -19.207  1.00  0.00     0.041 C 
ATOM      9  O   UNL     1      -0.441 -19.157 -19.909  1.00  0.00    -0.550 OA
ATOM     10  O   UNL     1      -1.518 -18.741 -17.930  1.00  0.00    -0.550 OA
ENDBRANCH   7   8
ENDBRANCH   6   7
ENDBRANCH   5   6
ENDBRANCH   4   5
ENDBRANCH   3   4
ENDBRANCH   2   3
ENDBRANCH   1   2
BRANCH   1  11
ATOM     11  C   UNL     1       4.049 -10.844 -19.355  1.00  0.00    -0.031 C 
ATOM     12  C   UNL     1       3.515  -9.761 -18.760  1.00  0.00    -0.027 C 
BRANCH  12  13
ATOM     13  C   UNL     1       2.715  -9.794 -17.482  1.00  0.00     0.054 C 
BRANCH  13  14
ATOM     14  C   UNL     1       2.564  -8.416 -16.898  1.00  0.00    -0.027 C 
ATOM     15  C   UNL     1       3.145  -8.077 -15.738  1.00  0.00    -0.031 C 
BRANCH  15  16
ATOM     16  C   UNL     1       2.984  -6.703 -15.148  1.00  0.00     0.027 C 
BRANCH  16  17
ATOM     17  C   UNL     1       3.030  -6.750 -13.613  1.00  0.00     0.004 C 
BRANCH  17  18
ATOM     18  C   UNL     1       4.280  -7.467 -13.081  1.00  0.00     0.000 C 
BRANCH  18  19
ATOM     19  C   UNL     1       4.207  -8.991 -13.254  1.00  0.00    -0.003 C 
ATOM     20  C   UNL     1       2.968  -9.562 -12.571  1.00  0.00     0.004 C 
ENDBRANCH  18  19
ENDBRANCH  17  18
ENDBRANCH  16  17
ENDBRANCH  15  16
ENDBRANCH  13  14
ENDBRANCH  12  13
ENDBRANCH   1  11
TORSDOF 14
ENDMDL
MODEL 8
REMARK VINA RESULT:    -0.344      1.335      3.003
REMARK INTER + INTRA:          -1.468
REMARK INTER:                  -1.388
REMARK INTRA:                  -0.079
REMARK UNBOUND:                -0.843
REMARK SMILES CCCCCC=CCC=CCCCCCCCC(=O)[O-]
REMARK SMILES IDX 11 1 12 2 13 3 14 4 15 5 16 6 17 7 18 8 19 9 20 10 10 11
REMARK SMILES IDX 9 12 8 13 7 14 6 15 5 16 4 17 3 18 2 19 1 20
REMARK H PARENT
REMARK Flexibility Score: inf
ROOT
ATOM      1  C   UNL     1       4.089 -10.777 -19.813  1.00  0.00     0.027 C 
ENDROOT
BRANCH   1   2
ATOM      2  C   UNL     1       3.454  -9.539 -19.162  1.00  0.00     0.004 C 
BRANCH   2   3
ATOM      3  C   UNL     1       2.816  -9.865 -17.799  1.00  0.00     0.000 C 
BRANCH   3   4
ATOM      4  C   UNL     1       2.584  -8.613 -16.934  1.00  0.00     0.000 C 
BRANCH   4   5
ATOM      5  C   UNL     1       3.357  -8.587 -15.599  1.00  0.00     0.000 C 
BRANCH   5   6
ATOM      6  C   UNL     1       3.173  -7.308 -14.763  1.00  0.00     0.006 C 
BRANCH   6   7
ATOM      7  C   UNL     1       3.733  -7.441 -13.342  1.00  0.00     0.053 C 
BRANCH   7   8
ATOM      8  C   UNL     1       3.963  -8.880 -13.004  1.00  0.00     0.041 C 
ATOM      9  O   UNL     1       5.120  -9.371 -13.077  1.00  0.00    -0.550 OA
ATOM     10  O   UNL     1       2.908  -9.668 -12.560  1.00  0.00    -0.550 OA
ENDBRANCH   7   8
ENDBRANCH   6   7
ENDBRANCH   5   6
ENDBRANCH   4   5
ENDBRANCH   3   4
ENDBRANCH   2   3
ENDBRANCH   1   2
BRANCH   1  11
ATOM     11  C   UNL     1       4.508 -11.802 -18.788  1.00  0.00    -0.031 C 
ATOM     12  C   UNL     1       3.734 -12.818 -18.363  1.00  0.00    -0.027 C 
BRANCH  12  13
ATOM     13  C   UNL     1       2.360 -13.130 -18.901  1.00  0.00     0.054 C 
BRANCH  13  14
ATOM     14  C   UNL     1       1.879 -14.472 -18.422  1.00  0.00    -0.027 C 
ATOM     15  C   UNL     1       0.578 -14.798 -18.437  1.00  0.00    -0.031 C 
BRANCH  15  16
ATOM     16  C   UNL     1       0.094 -16.135 -17.947  1.00  0.00     0.027 C 
BRANCH  16  17
ATOM     17  C   UNL     1       0.775 -17.283 -18.708  1.00  0.00     0.004 C 
BRANCH  17  18
ATOM     18  C   UNL     1       0.085 -18.636 -18.476  1.00  0.00     0.000 C 
BRANCH  18  19
ATOM     19  C   UNL     1      -1.431 -18.575 -18.709  1.00  0.00    -0.003 C 
ATOM     20  C   UNL     1      -1.755 -17.932 -20.055  1.00  0.00     0.004 C 
ENDBRANCH  18  19
ENDBRANCH  17  18
ENDBRANCH  16  17
ENDBRANCH  15  16
ENDBRANCH  13  14
ENDBRANCH  12  13
ENDBRANCH   1  11
TORSDOF 14
ENDMDL
MODEL 9
REMARK VINA RESULT:     0.275      3.704      4.656
REMARK INTER + INTRA:          -0.343
REMARK INTER:                   0.819
REMARK INTRA:                  -1.162
REMARK UNBOUND:                -0.843
REMARK SMILES CCCCCC=CCC=CCCCCCCCC(=O)[O-]
REMARK SMILES IDX 11 1 12 2 13 3 14 4 15 5 16 6 17 7 18 8 19 9 20 10 10 11
REMARK SMILES IDX 9 12 8 13 7 14 6 15 5 16 4 17 3 18 2 19 1 20
REMARK H PARENT
REMARK Flexibility Score: inf
ROOT
ATOM      1  C   UNL     1       1.985 -11.781 -18.747  1.00  0.00     0.027 C 
ENDROOT
BRANCH   1   2
ATOM      2  C   UNL     1       2.958 -10.697 -18.262  1.00  0.00     0.004 C 
BRANCH   2   3
ATOM      3  C   UNL     1       3.449  -9.803 -19.415  1.00  0.00     0.000 C 
BRANCH   3   4
ATOM      4  C   UNL     1       4.745 -10.324 -20.063  1.00  0.00     0.000 C 
BRANCH   4   5
ATOM      5  C   UNL     1       5.720 -11.032 -19.100  1.00  0.00     0.000 C 
BRANCH   5   6
ATOM      6  C   UNL     1       7.143 -11.240 -19.648  1.00  0.00     0.006 C 
BRANCH   6   7
ATOM      7  C   UNL     1       7.419 -10.420 -20.913  1.00  0.00     0.053 C 
BRANCH   7   8
ATOM      8  C   UNL     1       8.813  -9.874 -20.888  1.00  0.00     0.041 C 
ATOM      9  O   UNL     1       9.669 -10.285 -21.715  1.00  0.00    -0.550 OA
ATOM     10  O   UNL     1       9.152  -8.876 -19.983  1.00  0.00    -0.550 OA
ENDBRANCH   7   8
ENDBRANCH   6   7
ENDBRANCH   5   6
ENDBRANCH   4   5
ENDBRANCH   3   4
ENDBRANCH   2   3
ENDBRANCH   1   2
BRANCH   1  11
ATOM     11  C   UNL     1       2.678 -13.103 -18.972  1.00  0.00    -0.031 C 
ATOM     12  C   UNL     1       2.211 -14.292 -18.547  1.00  0.00    -0.027 C 
BRANCH  12  13
ATOM     13  C   UNL     1       0.889 -14.492 -17.849  1.00  0.00     0.054 C 
BRANCH  13  14
ATOM     14  C   UNL     1       0.217 -15.757 -18.308  1.00  0.00    -0.027 C 
ATOM     15  C   UNL     1      -1.076 -15.776 -18.663  1.00  0.00    -0.031 C 
BRANCH  15  16
ATOM     16  C   UNL     1      -1.752 -17.043 -19.110  1.00  0.00     0.027 C 
BRANCH  16  17
ATOM     17  C   UNL     1      -0.726 -18.076 -19.600  1.00  0.00     0.004 C 
BRANCH  17  18
ATOM     18  C   UNL     1      -1.000 -19.486 -19.056  1.00  0.00     0.000 C 
BRANCH  18  19
ATOM     19  C   UNL     1      -0.441 -19.693 -17.641  1.00  0.00    -0.003 C 
ATOM     20  C   UNL     1       1.031 -19.295 -17.568  1.00  0.00     0.004 C 
ENDBRANCH  18  19
ENDBRANCH  17  18
ENDBRANCH  16  17
ENDBRANCH  15  16
ENDBRANCH  13  14
ENDBRANCH  12  13
ENDBRANCH   1  11
TORSDOF 14
ENDMDL
