MODEL 1
REMARK VINA RESULT:    -3.966      0.000      0.000
REMARK INTER + INTRA:          -4.809
REMARK INTER:                  -6.053
REMARK INTRA:                   1.245
REMARK UNBOUND:                 1.245
REMARK SMILES CC1=CCC[C@@H](C)C(=O)C[C@@H](C(C)C)C(=O)C1
REMARK SMILES IDX 8 1 9 2 6 3 7 4 5 5 4 6 3 7 2 8 1 9 10 11 11 12 15 13 16 14
REMARK SMILES IDX 17 15 12 17 13 18 14 19
REMARK H PARENT
REMARK Flexibility Score: 70.00
ROOT
ATOM      1  C   UNL     1      -5.445 -14.123  -5.857  1.00  0.00     0.136 C 
ATOM      2  O   UNL     1      -6.275 -15.009  -5.714  1.00  0.00    -0.299 OA
ENDROOT
BRANCH   1   3
ATOM      3  C   UNL     1      -5.882 -12.738  -6.306  1.00  0.00     0.053 C 
ATOM      4  C   UNL     1      -6.966 -12.205  -5.359  1.00  0.00     0.016 C 
BRANCH   3   5
ATOM      5  C   UNL     1      -6.416 -12.705  -7.760  1.00  0.00     0.015 C 
BRANCH   5   6
ATOM      6  C   UNL     1      -5.370 -13.008  -8.842  1.00  0.00     0.028 C 
BRANCH   6   7
ATOM      7  C   UNL     1      -4.469 -11.829  -9.121  1.00  0.00    -0.028 C 
ATOM      8  C   UNL     1      -3.334 -11.511  -8.451  1.00  0.00    -0.070 CG0
ATOM      9  C   UNL     1      -2.548 -10.319  -8.938  1.00  0.00     0.039 C 
ATOM     10  G   UNL     1      -2.803 -12.284  -7.253  1.00  0.00     0.000 G0
ENDBRANCH   6   7
ENDBRANCH   5   6
ENDBRANCH   3   5
ENDBRANCH   1   3
BRANCH   1  11
ATOM     11  C   UNL     1      -4.015 -14.373  -5.429  1.00  0.00     0.087 C 
BRANCH  11  12
ATOM     12  C   UNL     1      -3.036 -14.858  -6.533  1.00  0.00     0.066 C 
BRANCH  12  13
ATOM     13  C   UNL     1      -2.615 -13.775  -7.521  1.00  0.00     0.140 C 
ATOM     14  O   UNL     1      -2.157 -14.125  -8.599  1.00  0.00    -0.299 OA
BRANCH  13  15
ATOM     15  C   UNL     1      -2.787 -12.298  -7.245  1.00  0.00     0.106 CG0
ATOM     16  G   UNL     1      -3.343 -11.547  -8.446  1.00  0.00     0.000 G0
ENDBRANCH  13  15
ENDBRANCH  12  13
BRANCH  12  17
ATOM     17  C   UNL     1      -3.378 -16.253  -7.152  1.00  0.00    -0.006 C 
ATOM     18  C   UNL     1      -3.677 -17.378  -6.149  1.00  0.00     0.008 C 
ATOM     19  C   UNL     1      -4.518 -16.150  -8.178  1.00  0.00     0.008 C 
ENDBRANCH  12  17
ENDBRANCH  11  12
ENDBRANCH   1  11
TORSDOF 1
ENDMDL
MODEL 2
REMARK VINA RESULT:    -3.852      1.992      4.027
REMARK INTER + INTRA:          -4.634
REMARK INTER:                  -4.745
REMARK INTRA:                   0.111
REMARK UNBOUND:                 1.245
REMARK SMILES CC1=CCC[C@@H](C)C(=O)C[C@@H](C(C)C)C(=O)C1
REMARK SMILES IDX 8 1 9 2 6 3 7 4 5 5 4 6 3 7 2 8 1 9 10 11 11 12 15 13 16 14
REMARK SMILES IDX 17 15 12 17 13 18 14 19
REMARK H PARENT
REMARK Flexibility Score: 70.00
ROOT
ATOM      1  C   UNL     1      -4.590 -11.946  -7.442  1.00  0.00     0.136 C 
ATOM      2  O   UNL     1      -5.257 -11.017  -7.874  1.00  0.00    -0.299 OA
ENDROOT
BRANCH   1   3
ATOM      3  C   UNL     1      -3.113 -12.047  -7.792  1.00  0.00     0.053 C 
ATOM      4  C   UNL     1      -2.526 -10.640  -7.967  1.00  0.00     0.016 C 
BRANCH   3   5
ATOM      5  C   UNL     1      -2.842 -12.874  -9.073  1.00  0.00     0.015 C 
BRANCH   5   6
ATOM      6  C   UNL     1      -2.212 -14.254  -8.833  1.00  0.00     0.028 C 
BRANCH   6   7
ATOM      7  C   UNL     1      -1.829 -14.471  -7.389  1.00  0.00    -0.028 C 
ATOM      8  C   UNL     1      -2.453 -15.290  -6.508  1.00  0.00    -0.070 CG0
ATOM      9  C   UNL     1      -1.862 -15.405  -5.124  1.00  0.00     0.039 C 
ATOM     10  G   UNL     1      -3.697 -16.103  -6.830  1.00  0.00     0.000 G0
ENDBRANCH   6   7
ENDBRANCH   5   6
ENDBRANCH   3   5
ENDBRANCH   1   3
BRANCH   1  11
ATOM     11  C   UNL     1      -5.204 -12.893  -6.435  1.00  0.00     0.087 C 
BRANCH  11  12
ATOM     12  C   UNL     1      -5.640 -14.285  -6.970  1.00  0.00     0.066 C 
BRANCH  12  13
ATOM     13  C   UNL     1      -4.955 -15.464  -6.285  1.00  0.00     0.140 C 
ATOM     14  O   UNL     1      -5.478 -15.931  -5.283  1.00  0.00    -0.299 OA
BRANCH  13  15
ATOM     15  C   UNL     1      -3.694 -16.105  -6.817  1.00  0.00     0.106 CG0
ATOM     16  G   UNL     1      -2.454 -15.274  -6.522  1.00  0.00     0.000 G0
ENDBRANCH  13  15
ENDBRANCH  12  13
BRANCH  12  17
ATOM     17  C   UNL     1      -5.776 -14.383  -8.525  1.00  0.00    -0.006 C 
ATOM     18  C   UNL     1      -5.733 -15.800  -9.114  1.00  0.00     0.008 C 
ATOM     19  C   UNL     1      -7.025 -13.642  -9.029  1.00  0.00     0.008 C 
ENDBRANCH  12  17
ENDBRANCH  11  12
ENDBRANCH   1  11
TORSDOF 1
ENDMDL
MODEL 3
REMARK VINA RESULT:    -3.708      1.529      3.587
REMARK INTER + INTRA:          -4.415
REMARK INTER:                  -5.558
REMARK INTRA:                   1.143
REMARK UNBOUND:                 1.245
REMARK SMILES CC1=CCC[C@@H](C)C(=O)C[C@@H](C(C)C)C(=O)C1
REMARK SMILES IDX 8 1 9 2 6 3 7 4 5 5 4 6 3 7 2 8 1 9 10 11 11 12 15 13 16 14
REMARK SMILES IDX 17 15 12 17 13 18 14 19
REMARK H PARENT
REMARK Flexibility Score: 70.00
ROOT
ATOM      1  C   UNL     1      -2.471 -13.649  -8.169  1.00  0.00     0.136 C 
ATOM      2  O   UNL     1      -1.732 -14.415  -8.771  1.00  0.00    -0.299 OA
ENDROOT
BRANCH   1   3
ATOM      3  C   UNL     1      -3.080 -12.457  -8.890  1.00  0.00     0.053 C 
ATOM      4  C   UNL     1      -2.797 -11.174  -8.097  1.00  0.00     0.016 C 
BRANCH   3   5
ATOM      5  C   UNL     1      -4.606 -12.590  -9.113  1.00  0.00     0.015 C 
BRANCH   5   6
ATOM      6  C   UNL     1      -5.433 -11.364  -8.698  1.00  0.00     0.028 C 
BRANCH   6   7
ATOM      7  C   UNL     1      -5.988 -11.489  -7.299  1.00  0.00    -0.028 C 
ATOM      8  C   UNL     1      -6.246 -12.644  -6.639  1.00  0.00    -0.070 CG0
ATOM      9  C   UNL     1      -6.742 -12.540  -5.218  1.00  0.00     0.039 C 
ATOM     10  G   UNL     1      -6.058 -14.031  -7.236  1.00  0.00     0.000 G0
ENDBRANCH   6   7
ENDBRANCH   5   6
ENDBRANCH   3   5
ENDBRANCH   1   3
BRANCH   1  11
ATOM     11  C   UNL     1      -2.897 -13.989  -6.758  1.00  0.00     0.087 C 
BRANCH  11  12
ATOM     12  C   UNL     1      -3.773 -15.261  -6.586  1.00  0.00     0.066 C 
BRANCH  12  13
ATOM     13  C   UNL     1      -5.254 -14.978  -6.358  1.00  0.00     0.140 C 
ATOM     14  O   UNL     1      -5.796 -15.491  -5.389  1.00  0.00    -0.299 OA
BRANCH  13  15
ATOM     15  C   UNL     1      -6.062 -14.057  -7.244  1.00  0.00     0.106 CG0
ATOM     16  G   UNL     1      -6.231 -12.673  -6.637  1.00  0.00     0.000 G0
ENDBRANCH  13  15
ENDBRANCH  12  13
BRANCH  12  17
ATOM     17  C   UNL     1      -3.145 -16.378  -5.690  1.00  0.00    -0.006 C 
ATOM     18  C   UNL     1      -3.666 -17.803  -5.929  1.00  0.00     0.008 C 
ATOM     19  C   UNL     1      -1.609 -16.363  -5.762  1.00  0.00     0.008 C 
ENDBRANCH  12  17
ENDBRANCH  11  12
ENDBRANCH   1  11
TORSDOF 1
ENDMDL
MODEL 4
REMARK VINA RESULT:    -3.420      1.674      3.604
REMARK INTER + INTRA:          -3.974
REMARK INTER:                  -5.431
REMARK INTRA:                   1.456
REMARK UNBOUND:                 1.245
REMARK SMILES CC1=CCC[C@@H](C)C(=O)C[C@@H](C(C)C)C(=O)C1
REMARK SMILES IDX 8 1 9 2 6 3 7 4 5 5 4 6 3 7 2 8 1 9 10 11 11 12 15 13 16 14
REMARK SMILES IDX 17 15 12 17 13 18 14 19
REMARK H PARENT
REMARK Flexibility Score: 70.00
ROOT
ATOM      1  C   UNL     1      -2.949 -12.827  -7.967  1.00  0.00     0.136 C 
ATOM      2  O   UNL     1      -2.599 -12.452  -6.857  1.00  0.00    -0.299 OA
ENDROOT
BRANCH   1   3
ATOM      3  C   UNL     1      -3.122 -11.817  -9.091  1.00  0.00     0.053 C 
ATOM      4  C   UNL     1      -2.021 -10.751  -9.002  1.00  0.00     0.016 C 
BRANCH   3   5
ATOM      5  C   UNL     1      -4.505 -11.121  -9.081  1.00  0.00     0.015 C 
BRANCH   5   6
ATOM      6  C   UNL     1      -5.686 -12.028  -8.706  1.00  0.00     0.028 C 
BRANCH   6   7
ATOM      7  C   UNL     1      -6.228 -11.733  -7.328  1.00  0.00    -0.028 C 
ATOM      8  C   UNL     1      -6.369 -12.621  -6.315  1.00  0.00    -0.070 CG0
ATOM      9  C   UNL     1      -6.874 -12.097  -4.993  1.00  0.00     0.039 C 
ATOM     10  G   UNL     1      -6.040 -14.102  -6.424  1.00  0.00     0.000 G0
ENDBRANCH   6   7
ENDBRANCH   5   6
ENDBRANCH   3   5
ENDBRANCH   1   3
BRANCH   1  11
ATOM     11  C   UNL     1      -3.047 -14.310  -8.250  1.00  0.00     0.087 C 
BRANCH  11  12
ATOM     12  C   UNL     1      -3.708 -15.184  -7.148  1.00  0.00     0.066 C 
BRANCH  12  13
ATOM     13  C   UNL     1      -4.576 -14.405  -6.165  1.00  0.00     0.140 C 
ATOM     14  O   UNL     1      -4.049 -13.972  -5.149  1.00  0.00    -0.299 OA
BRANCH  13  15
ATOM     15  C   UNL     1      -6.036 -14.105  -6.415  1.00  0.00     0.106 CG0
ATOM     16  G   UNL     1      -6.347 -12.619  -6.316  1.00  0.00     0.000 G0
ENDBRANCH  13  15
ENDBRANCH  12  13
BRANCH  12  17
ATOM     17  C   UNL     1      -2.776 -16.273  -6.523  1.00  0.00    -0.006 C 
ATOM     18  C   UNL     1      -1.888 -15.809  -5.358  1.00  0.00     0.008 C 
ATOM     19  C   UNL     1      -3.568 -17.525  -6.112  1.00  0.00     0.008 C 
ENDBRANCH  12  17
ENDBRANCH  11  12
ENDBRANCH   1  11
TORSDOF 1
ENDMDL
MODEL 5
REMARK VINA RESULT:    -3.361      1.667      2.679
REMARK INTER + INTRA:          -3.885
REMARK INTER:                  -4.285
REMARK INTRA:                   0.400
REMARK UNBOUND:                 1.245
REMARK SMILES CC1=CCC[C@@H](C)C(=O)C[C@@H](C(C)C)C(=O)C1
REMARK SMILES IDX 8 1 9 2 6 3 7 4 5 5 4 6 3 7 2 8 1 9 10 11 11 12 15 13 16 14
REMARK SMILES IDX 17 15 12 17 13 18 14 19
REMARK H PARENT
REMARK Flexibility Score: 70.00
ROOT
ATOM      1  C   UNL     1      -5.985 -13.210  -6.634  1.00  0.00     0.136 C 
ATOM      2  O   UNL     1      -5.608 -12.610  -5.638  1.00  0.00    -0.299 OA
ENDROOT
BRANCH   1   3
ATOM      3  C   UNL     1      -6.275 -12.447  -7.917  1.00  0.00     0.053 C 
ATOM      4  C   UNL     1      -6.427 -13.434  -9.082  1.00  0.00     0.016 C 
BRANCH   3   5
ATOM      5  C   UNL     1      -5.185 -11.406  -8.271  1.00  0.00     0.015 C 
BRANCH   5   6
ATOM      6  C   UNL     1      -3.989 -11.961  -9.059  1.00  0.00     0.028 C 
BRANCH   6   7
ATOM      7  C   UNL     1      -2.933 -12.559  -8.161  1.00  0.00    -0.028 C 
ATOM      8  C   UNL     1      -2.556 -13.860  -8.122  1.00  0.00    -0.070 CG0
ATOM      9  C   UNL     1      -1.429 -14.232  -7.189  1.00  0.00     0.039 C 
ATOM     10  G   UNL     1      -3.187 -14.959  -8.964  1.00  0.00     0.000 G0
ENDBRANCH   6   7
ENDBRANCH   5   6
ENDBRANCH   3   5
ENDBRANCH   1   3
BRANCH   1  11
ATOM     11  C   UNL     1      -6.004 -14.723  -6.623  1.00  0.00     0.087 C 
BRANCH  11  12
ATOM     12  C   UNL     1      -4.631 -15.434  -6.775  1.00  0.00     0.066 C 
BRANCH  12  13
ATOM     13  C   UNL     1      -4.239 -15.740  -8.217  1.00  0.00     0.140 C 
ATOM     14  O   UNL     1      -4.847 -16.624  -8.804  1.00  0.00    -0.299 OA
BRANCH  13  15
ATOM     15  C   UNL     1      -3.172 -14.970  -8.961  1.00  0.00     0.106 CG0
ATOM     16  G   UNL     1      -2.566 -13.859  -8.116  1.00  0.00     0.000 G0
ENDBRANCH  13  15
ENDBRANCH  12  13
BRANCH  12  17
ATOM     17  C   UNL     1      -4.358 -16.571  -5.736  1.00  0.00    -0.006 C 
ATOM     18  C   UNL     1      -3.242 -17.561  -6.102  1.00  0.00     0.008 C 
ATOM     19  C   UNL     1      -4.112 -16.001  -4.329  1.00  0.00     0.008 C 
ENDBRANCH  12  17
ENDBRANCH  11  12
ENDBRANCH   1  11
TORSDOF 1
ENDMDL
MODEL 6
REMARK VINA RESULT:    -3.015      2.063      3.945
REMARK INTER + INTRA:          -3.357
REMARK INTER:                  -4.783
REMARK INTRA:                   1.426
REMARK UNBOUND:                 1.245
REMARK SMILES CC1=CCC[C@@H](C)C(=O)C[C@@H](C(C)C)C(=O)C1
REMARK SMILES IDX 8 1 9 2 6 3 7 4 5 5 4 6 3 7 2 8 1 9 10 11 11 12 15 13 16 14
REMARK SMILES IDX 17 15 12 17 13 18 14 19
REMARK H PARENT
REMARK Flexibility Score: 70.00
ROOT
ATOM      1  C   UNL     1      -4.095 -16.061  -5.196  1.00  0.00     0.136 C 
ATOM      2  O   UNL     1      -4.851 -16.214  -4.247  1.00  0.00    -0.299 OA
ENDROOT
BRANCH   1   3
ATOM      3  C   UNL     1      -4.194 -16.980  -6.403  1.00  0.00     0.053 C 
ATOM      4  C   UNL     1      -3.372 -18.252  -6.154  1.00  0.00     0.016 C 
BRANCH   3   5
ATOM      5  C   UNL     1      -3.718 -16.317  -7.719  1.00  0.00     0.015 C 
BRANCH   5   6
ATOM      6  C   UNL     1      -4.788 -16.210  -8.816  1.00  0.00     0.028 C 
BRANCH   6   7
ATOM      7  C   UNL     1      -5.164 -14.780  -9.119  1.00  0.00    -0.028 C 
ATOM      8  C   UNL     1      -5.745 -13.905  -8.263  1.00  0.00    -0.070 CG0
ATOM      9  C   UNL     1      -5.977 -12.497  -8.755  1.00  0.00     0.039 C 
ATOM     10  G   UNL     1      -6.163 -14.249  -6.841  1.00  0.00     0.000 G0
ENDBRANCH   6   7
ENDBRANCH   5   6
ENDBRANCH   3   5
ENDBRANCH   1   3
BRANCH   1  11
ATOM     11  C   UNL     1      -3.179 -14.857  -5.224  1.00  0.00     0.087 C 
BRANCH  11  12
ATOM     12  C   UNL     1      -3.777 -13.544  -5.800  1.00  0.00     0.066 C 
BRANCH  12  13
ATOM     13  C   UNL     1      -5.302 -13.496  -5.801  1.00  0.00     0.140 C 
ATOM     14  O   UNL     1      -5.857 -12.804  -4.958  1.00  0.00    -0.299 OA
BRANCH  13  15
ATOM     15  C   UNL     1      -6.147 -14.222  -6.822  1.00  0.00     0.106 CG0
ATOM     16  G   UNL     1      -5.736 -13.896  -8.250  1.00  0.00     0.000 G0
ENDBRANCH  13  15
ENDBRANCH  12  13
BRANCH  12  17
ATOM     17  C   UNL     1      -3.075 -13.009  -7.091  1.00  0.00    -0.006 C 
ATOM     18  C   UNL     1      -2.775 -11.502  -7.116  1.00  0.00     0.008 C 
ATOM     19  C   UNL     1      -1.798 -13.803  -7.409  1.00  0.00     0.008 C 
ENDBRANCH  12  17
ENDBRANCH  11  12
ENDBRANCH   1  11
TORSDOF 1
ENDMDL
MODEL 7
REMARK VINA RESULT:    -2.863      1.513      3.608
REMARK INTER + INTRA:          -3.124
REMARK INTER:                  -3.639
REMARK INTRA:                   0.514
REMARK UNBOUND:                 1.245
REMARK SMILES CC1=CCC[C@@H](C)C(=O)C[C@@H](C(C)C)C(=O)C1
REMARK SMILES IDX 8 1 9 2 6 3 7 4 5 5 4 6 3 7 2 8 1 9 10 11 11 12 15 13 16 14
REMARK SMILES IDX 17 15 12 17 13 18 14 19
REMARK H PARENT
REMARK Flexibility Score: 70.00
ROOT
ATOM      1  C   UNL     1      -4.802 -15.669  -6.551  1.00  0.00     0.136 C 
ATOM      2  O   UNL     1      -5.380 -16.022  -5.533  1.00  0.00    -0.299 OA
ENDROOT
BRANCH   1   3
ATOM      3  C   UNL     1      -3.423 -16.225  -6.873  1.00  0.00     0.053 C 
ATOM      4  C   UNL     1      -2.974 -17.174  -5.753  1.00  0.00     0.016 C 
BRANCH   3   5
ATOM      5  C   UNL     1      -2.350 -15.126  -7.069  1.00  0.00     0.015 C 
BRANCH   5   6
ATOM      6  C   UNL     1      -2.348 -14.461  -8.453  1.00  0.00     0.028 C 
BRANCH   6   7
ATOM      7  C   UNL     1      -2.211 -12.960  -8.373  1.00  0.00    -0.028 C 
ATOM      8  C   UNL     1      -3.181 -12.050  -8.635  1.00  0.00    -0.070 CG0
ATOM      9  C   UNL     1      -2.846 -10.594  -8.429  1.00  0.00     0.039 C 
ATOM     10  G   UNL     1      -4.582 -12.407  -9.109  1.00  0.00     0.000 G0
ENDBRANCH   6   7
ENDBRANCH   5   6
ENDBRANCH   3   5
ENDBRANCH   1   3
BRANCH   1  11
ATOM     11  C   UNL     1      -5.534 -14.809  -7.557  1.00  0.00     0.087 C 
BRANCH  11  12
ATOM     12  C   UNL     1      -5.986 -13.405  -7.070  1.00  0.00     0.066 C 
BRANCH  12  13
ATOM     13  C   UNL     1      -5.626 -12.265  -8.018  1.00  0.00     0.140 C 
ATOM     14  O   UNL     1      -6.180 -11.187  -7.858  1.00  0.00    -0.299 OA
BRANCH  13  15
ATOM     15  C   UNL     1      -4.584 -12.397  -9.105  1.00  0.00     0.106 CG0
ATOM     16  G   UNL     1      -3.189 -12.037  -8.616  1.00  0.00     0.000 G0
ENDBRANCH  13  15
ENDBRANCH  12  13
BRANCH  12  17
ATOM     17  C   UNL     1      -5.754 -13.128  -5.548  1.00  0.00    -0.006 C 
ATOM     18  C   UNL     1      -4.316 -12.772  -5.142  1.00  0.00     0.008 C 
ATOM     19  C   UNL     1      -6.728 -12.065  -5.014  1.00  0.00     0.008 C 
ENDBRANCH  12  17
ENDBRANCH  11  12
ENDBRANCH   1  11
TORSDOF 1
ENDMDL
MODEL 8
REMARK VINA RESULT:    -2.628      2.162      4.390
REMARK INTER + INTRA:          -2.766
REMARK INTER:                  -4.849
REMARK INTRA:                   2.083
REMARK UNBOUND:                 1.245
REMARK SMILES CC1=CCC[C@@H](C)C(=O)C[C@@H](C(C)C)C(=O)C1
REMARK SMILES IDX 8 1 9 2 6 3 7 4 5 5 4 6 3 7 2 8 1 9 10 11 11 12 15 13 16 14
REMARK SMILES IDX 17 15 12 17 13 18 14 19
REMARK H PARENT
REMARK Flexibility Score: 70.00
ROOT
ATOM      1  C   UNL     1      -3.365 -12.150  -7.701  1.00  0.00     0.136 C 
ATOM      2  O   UNL     1      -3.081 -10.961  -7.660  1.00  0.00    -0.299 OA
ENDROOT
BRANCH   1   3
ATOM      3  C   UNL     1      -4.138 -12.706  -8.886  1.00  0.00     0.053 C 
ATOM      4  C   UNL     1      -5.445 -11.921  -9.065  1.00  0.00     0.016 C 
BRANCH   3   5
ATOM      5  C   UNL     1      -4.465 -14.213  -8.752  1.00  0.00     0.015 C 
BRANCH   5   6
ATOM      6  C   UNL     1      -3.260 -15.114  -8.444  1.00  0.00     0.028 C 
BRANCH   6   7
ATOM      7  C   UNL     1      -3.662 -16.410  -7.782  1.00  0.00    -0.028 C 
ATOM      8  C   UNL     1      -3.384 -16.780  -6.508  1.00  0.00    -0.070 CG0
ATOM      9  C   UNL     1      -3.940 -18.099  -6.028  1.00  0.00     0.039 C 
ATOM     10  G   UNL     1      -2.563 -15.948  -5.536  1.00  0.00     0.000 G0
ENDBRANCH   6   7
ENDBRANCH   5   6
ENDBRANCH   3   5
ENDBRANCH   1   3
BRANCH   1  11
ATOM     11  C   UNL     1      -2.803 -13.081  -6.649  1.00  0.00     0.087 C 
BRANCH  11  12
ATOM     12  C   UNL     1      -3.802 -13.601  -5.579  1.00  0.00     0.066 C 
BRANCH  12  13
ATOM     13  C   UNL     1      -3.339 -14.855  -4.844  1.00  0.00     0.140 C 
ATOM     14  O   UNL     1      -3.658 -14.985  -3.670  1.00  0.00    -0.299 OA
BRANCH  13  15
ATOM     15  C   UNL     1      -2.552 -15.958  -5.514  1.00  0.00     0.106 CG0
ATOM     16  G   UNL     1      -3.396 -16.756  -6.496  1.00  0.00     0.000 G0
ENDBRANCH  13  15
ENDBRANCH  12  13
BRANCH  12  17
ATOM     17  C   UNL     1      -5.305 -13.578  -6.012  1.00  0.00    -0.006 C 
ATOM     18  C   UNL     1      -6.096 -14.871  -5.761  1.00  0.00     0.008 C 
ATOM     19  C   UNL     1      -6.050 -12.381  -5.399  1.00  0.00     0.008 C 
ENDBRANCH  12  17
ENDBRANCH  11  12
ENDBRANCH   1  11
TORSDOF 1
ENDMDL
MODEL 9
REMARK VINA RESULT:    -2.473      2.016      4.866
REMARK INTER + INTRA:          -2.529
REMARK INTER:                  -2.737
REMARK INTRA:                   0.208
REMARK UNBOUND:                 1.245
REMARK SMILES CC1=CCC[C@@H](C)C(=O)C[C@@H](C(C)C)C(=O)C1
REMARK SMILES IDX 8 1 9 2 6 3 7 4 5 5 4 6 3 7 2 8 1 9 10 11 11 12 15 13 16 14
REMARK SMILES IDX 17 15 12 17 13 18 14 19
REMARK H PARENT
REMARK Flexibility Score: 70.00
ROOT
ATOM      1  C   UNL     1      -2.853 -12.394  -8.305  1.00  0.00     0.136 C 
ATOM      2  O   UNL     1      -2.693 -11.420  -9.026  1.00  0.00    -0.299 OA
ENDROOT
BRANCH   1   3
ATOM      3  C   UNL     1      -2.233 -13.730  -8.684  1.00  0.00     0.053 C 
ATOM      4  C   UNL     1      -3.334 -14.705  -9.125  1.00  0.00     0.016 C 
BRANCH   3   5
ATOM      5  C   UNL     1      -1.414 -14.372  -7.537  1.00  0.00     0.015 C 
BRANCH   5   6
ATOM      6  C   UNL     1      -2.033 -15.639  -6.928  1.00  0.00     0.028 C 
BRANCH   6   7
ATOM      7  C   UNL     1      -2.476 -15.435  -5.499  1.00  0.00    -0.028 C 
ATOM      8  C   UNL     1      -3.737 -15.168  -5.080  1.00  0.00    -0.070 CG0
ATOM      9  C   UNL     1      -3.970 -15.064  -3.593  1.00  0.00     0.039 C 
ATOM     10  G   UNL     1      -4.925 -14.980  -6.010  1.00  0.00     0.000 G0
ENDBRANCH   6   7
ENDBRANCH   5   6
ENDBRANCH   3   5
ENDBRANCH   1   3
BRANCH   1  11
ATOM     11  C   UNL     1      -3.532 -12.219  -6.965  1.00  0.00     0.087 C 
BRANCH  11  12
ATOM     12  C   UNL     1      -5.065 -12.470  -6.925  1.00  0.00     0.066 C 
BRANCH  12  13
ATOM     13  C   UNL     1      -5.496 -13.574  -5.965  1.00  0.00     0.140 C 
ATOM     14  O   UNL     1      -6.363 -13.316  -5.143  1.00  0.00    -0.299 OA
BRANCH  13  15
ATOM     15  C   UNL     1      -4.936 -14.978  -6.021  1.00  0.00     0.106 CG0
ATOM     16  G   UNL     1      -3.750 -15.164  -5.086  1.00  0.00     0.000 G0
ENDBRANCH  13  15
ENDBRANCH  12  13
BRANCH  12  17
ATOM     17  C   UNL     1      -5.771 -12.463  -8.321  1.00  0.00    -0.006 C 
ATOM     18  C   UNL     1      -6.386 -13.797  -8.769  1.00  0.00     0.008 C 
ATOM     19  C   UNL     1      -6.821 -11.344  -8.416  1.00  0.00     0.008 C 
ENDBRANCH  12  17
ENDBRANCH  11  12
ENDBRANCH   1  11
TORSDOF 1
ENDMDL
