MODEL 1
REMARK VINA RESULT:    -2.266      0.000      0.000
REMARK INTER + INTRA:          -2.865
REMARK INTER:                  -3.193
REMARK INTRA:                   0.328
REMARK UNBOUND:                 0.328
REMARK SMILES CC1=CCC(=C(C)C)C(=O)CC(C)=CCC1
REMARK SMILES IDX 12 1 14 2 13 3 15 4 16 5 2 6 1 7 3 8 11 10 9 11 10 12 5 13
REMARK SMILES IDX 6 14 7 15 8 16 4 17
REMARK H PARENT
REMARK Flexibility Score: 60.00
ROOT
ATOM      1  C   UNL     1     109.466  87.535  57.773  1.00  0.00    -0.070 C 
ATOM      2  C   UNL     1     109.919  88.159  56.654  1.00  0.00    -0.027 C 
ATOM      3  C   UNL     1     110.479  87.223  58.847  1.00  0.00     0.039 C 
ENDROOT
BRANCH   2   4
ATOM      4  C   UNL     1     109.073  88.653  55.506  1.00  0.00     0.032 C 
BRANCH   4   5
ATOM      5  C   UNL     1     108.977  87.653  54.348  1.00  0.00     0.034 C 
BRANCH   5   6
ATOM      6  C   UNL     1     107.524  87.359  54.027  1.00  0.00    -0.077 C 
ATOM      7  C   UNL     1     106.744  88.384  53.246  1.00  0.00     0.039 C 
ATOM      8  C   UNL     1     106.869  86.260  54.473  1.00  0.00    -0.023 CG0
ATOM      9  G   UNL     1     107.485  85.123  55.253  1.00  0.00     0.000 G0
ENDBRANCH   5   6
ENDBRANCH   4   5
ENDBRANCH   2   4
BRANCH   1  10
ATOM     10  C   UNL     1     108.030  87.063  57.976  1.00  0.00     0.111 C 
BRANCH  10  11
ATOM     11  C   UNL     1     107.843  85.577  57.793  1.00  0.00     0.163 C 
ATOM     12  O   UNL     1     108.465  84.809  58.577  1.00  0.00    -0.294 OA
BRANCH  11  13
ATOM     13  C   UNL     1     107.004  84.995  56.694  1.00  0.00    -0.002 C 
ATOM     14  C   UNL     1     105.790  84.421  56.969  1.00  0.00    -0.069 C 
ATOM     15  C   UNL     1     104.882  83.914  55.870  1.00  0.00     0.039 C 
ATOM     16  C   UNL     1     105.312  84.214  58.389  1.00  0.00     0.039 C 
BRANCH  13  17
ATOM     17  C   UNL     1     107.500  85.105  55.253  1.00  0.00     0.066 CG0
ATOM     18  G   UNL     1     106.868  86.263  54.519  1.00  0.00     0.000 G0
ENDBRANCH  13  17
ENDBRANCH  11  13
ENDBRANCH  10  11
ENDBRANCH   1  10
TORSDOF 0
ENDMDL
MODEL 2
REMARK VINA RESULT:    -1.907     13.494     15.280
REMARK INTER + INTRA:          -2.360
REMARK INTER:                  -2.459
REMARK INTRA:                   0.099
REMARK UNBOUND:                 0.328
REMARK SMILES CC1=CCC(=C(C)C)C(=O)CC(C)=CCC1
REMARK SMILES IDX 12 1 14 2 13 3 15 4 16 5 2 6 1 7 3 8 11 10 9 11 10 12 5 13
REMARK SMILES IDX 6 14 7 15 8 16 4 17
REMARK H PARENT
REMARK Flexibility Score: 60.00
ROOT
ATOM      1  C   UNL     1     124.020  86.481  54.767  1.00  0.00    -0.070 C 
ATOM      2  C   UNL     1     123.020  87.396  54.680  1.00  0.00    -0.027 C 
ATOM      3  C   UNL     1     124.964  86.375  53.593  1.00  0.00     0.039 C 
ENDROOT
BRANCH   2   4
ATOM      4  C   UNL     1     122.031  87.740  55.767  1.00  0.00     0.032 C 
BRANCH   4   5
ATOM      5  C   UNL     1     120.935  86.682  55.946  1.00  0.00     0.034 C 
BRANCH   5   6
ATOM      6  C   UNL     1     120.768  86.344  57.415  1.00  0.00    -0.077 C 
ATOM      7  C   UNL     1     120.476  87.466  58.379  1.00  0.00     0.039 C 
ATOM      8  C   UNL     1     120.945  85.099  57.919  1.00  0.00    -0.023 CG0
ATOM      9  G   UNL     1     121.225  83.854  57.112  1.00  0.00     0.000 G0
ENDBRANCH   5   6
ENDBRANCH   4   5
ENDBRANCH   2   4
BRANCH   1  10
ATOM     10  C   UNL     1     124.199  85.506  55.926  1.00  0.00     0.111 C 
BRANCH  10  11
ATOM     11  C   UNL     1     123.426  84.220  55.771  1.00  0.00     0.163 C 
ATOM     12  O   UNL     1     123.338  83.728  54.613  1.00  0.00    -0.294 OA
BRANCH  11  13
ATOM     13  C   UNL     1     122.722  83.554  56.916  1.00  0.00    -0.002 C 
ATOM     14  C   UNL     1     123.412  82.760  57.794  1.00  0.00    -0.069 C 
ATOM     15  C   UNL     1     122.747  82.155  59.012  1.00  0.00     0.039 C 
ATOM     16  C   UNL     1     124.864  82.400  57.570  1.00  0.00     0.039 C 
BRANCH  13  17
ATOM     17  C   UNL     1     121.232  83.822  57.121  1.00  0.00     0.066 CG0
ATOM     18  G   UNL     1     120.982  85.095  57.894  1.00  0.00     0.000 G0
ENDBRANCH  13  17
ENDBRANCH  11  13
ENDBRANCH  10  11
ENDBRANCH   1  10
TORSDOF 0
ENDMDL
MODEL 3
REMARK VINA RESULT:    -1.774     13.025     15.021
REMARK INTER + INTRA:          -2.172
REMARK INTER:                  -2.357
REMARK INTRA:                   0.185
REMARK UNBOUND:                 0.328
REMARK SMILES CC1=CCC(=C(C)C)C(=O)CC(C)=CCC1
REMARK SMILES IDX 12 1 14 2 13 3 15 4 16 5 2 6 1 7 3 8 11 10 9 11 10 12 5 13
REMARK SMILES IDX 6 14 7 15 8 16 4 17
REMARK H PARENT
REMARK Flexibility Score: 60.00
ROOT
ATOM      1  C   UNL     1     120.807  86.566  57.804  1.00  0.00    -0.070 C 
ATOM      2  C   UNL     1     121.717  86.003  58.641  1.00  0.00    -0.027 C 
ATOM      3  C   UNL     1     120.531  88.041  57.975  1.00  0.00     0.039 C 
ENDROOT
BRANCH   2   4
ATOM      4  C   UNL     1     122.219  84.581  58.583  1.00  0.00     0.032 C 
BRANCH   4   5
ATOM      5  C   UNL     1     123.643  84.461  58.026  1.00  0.00     0.034 C 
BRANCH   5   6
ATOM      6  C   UNL     1     123.611  83.863  56.632  1.00  0.00    -0.077 C 
ATOM      7  C   UNL     1     123.801  82.375  56.489  1.00  0.00     0.039 C 
ATOM      8  C   UNL     1     123.499  84.605  55.504  1.00  0.00    -0.023 CG0
ATOM      9  G   UNL     1     123.287  86.099  55.449  1.00  0.00     0.000 G0
ENDBRANCH   5   6
ENDBRANCH   4   5
ENDBRANCH   2   4
BRANCH   1  10
ATOM     10  C   UNL     1     119.996  85.797  56.767  1.00  0.00     0.111 C 
BRANCH  10  11
ATOM     11  C   UNL     1     120.714  85.592  55.456  1.00  0.00     0.163 C 
ATOM     12  O   UNL     1     120.365  84.610  54.746  1.00  0.00    -0.294 OA
BRANCH  11  13
ATOM     13  C   UNL     1     121.847  86.468  55.007  1.00  0.00    -0.002 C 
ATOM     14  C   UNL     1     121.608  87.599  54.272  1.00  0.00    -0.069 C 
ATOM     15  C   UNL     1     122.722  88.550  53.890  1.00  0.00     0.039 C 
ATOM     16  C   UNL     1     120.226  87.936  53.757  1.00  0.00     0.039 C 
BRANCH  13  17
ATOM     17  C   UNL     1     123.269  86.107  55.433  1.00  0.00     0.066 CG0
ATOM     18  G   UNL     1     123.480  84.613  55.510  1.00  0.00     0.000 G0
ENDBRANCH  13  17
ENDBRANCH  11  13
ENDBRANCH  10  11
ENDBRANCH   1  10
TORSDOF 0
ENDMDL
MODEL 4
REMARK VINA RESULT:    -1.741     13.108     15.117
REMARK INTER + INTRA:          -2.126
REMARK INTER:                  -2.322
REMARK INTRA:                   0.196
REMARK UNBOUND:                 0.328
REMARK SMILES CC1=CCC(=C(C)C)C(=O)CC(C)=CCC1
REMARK SMILES IDX 12 1 14 2 13 3 15 4 16 5 2 6 1 7 3 8 11 10 9 11 10 12 5 13
REMARK SMILES IDX 6 14 7 15 8 16 4 17
REMARK H PARENT
REMARK Flexibility Score: 60.00
ROOT
ATOM      1  C   UNL     1     123.538  83.645  55.564  1.00  0.00    -0.070 C 
ATOM      2  C   UNL     1     124.339  84.090  54.561  1.00  0.00    -0.027 C 
ATOM      3  C   UNL     1     123.999  82.428  56.328  1.00  0.00     0.039 C 
ENDROOT
BRANCH   2   4
ATOM      4  C   UNL     1     124.128  85.338  53.739  1.00  0.00     0.032 C 
BRANCH   4   5
ATOM      5  C   UNL     1     124.373  86.632  54.526  1.00  0.00     0.034 C 
BRANCH   5   6
ATOM      6  C   UNL     1     123.190  87.569  54.375  1.00  0.00    -0.077 C 
ATOM      7  C   UNL     1     122.874  88.107  53.003  1.00  0.00     0.039 C 
ATOM      8  C   UNL     1     122.449  88.009  55.420  1.00  0.00    -0.023 CG0
ATOM      9  G   UNL     1     122.605  87.571  56.857  1.00  0.00     0.000 G0
ENDBRANCH   5   6
ENDBRANCH   4   5
ENDBRANCH   2   4
BRANCH   1  10
ATOM     10  C   UNL     1     122.178  84.242  55.911  1.00  0.00     0.111 C 
BRANCH  10  11
ATOM     11  C   UNL     1     122.170  85.045  57.188  1.00  0.00     0.163 C 
ATOM     12  O   UNL     1     122.561  84.470  58.241  1.00  0.00    -0.294 OA
BRANCH  11  13
ATOM     13  C   UNL     1     121.667  86.457  57.256  1.00  0.00    -0.002 C 
ATOM     14  C   UNL     1     120.404  86.728  57.713  1.00  0.00    -0.069 C 
ATOM     15  C   UNL     1     119.907  88.148  57.882  1.00  0.00     0.039 C 
ATOM     16  C   UNL     1     119.417  85.626  58.025  1.00  0.00     0.039 C 
BRANCH  13  17
ATOM     17  C   UNL     1     122.609  87.593  56.860  1.00  0.00     0.066 CG0
ATOM     18  G   UNL     1     122.431  88.005  55.418  1.00  0.00     0.000 G0
ENDBRANCH  13  17
ENDBRANCH  11  13
ENDBRANCH  10  11
ENDBRANCH   1  10
TORSDOF 0
ENDMDL
MODEL 5
REMARK VINA RESULT:    -1.615      1.882      4.469
REMARK INTER + INTRA:          -1.947
REMARK INTER:                  -2.344
REMARK INTRA:                   0.396
REMARK UNBOUND:                 0.328
REMARK SMILES CC1=CCC(=C(C)C)C(=O)CC(C)=CCC1
REMARK SMILES IDX 12 1 14 2 13 3 15 4 16 5 2 6 1 7 3 8 11 10 9 11 10 12 5 13
REMARK SMILES IDX 6 14 7 15 8 16 4 17
REMARK H PARENT
REMARK Flexibility Score: 60.00
ROOT
ATOM      1  C   UNL     1     108.343  85.869  57.594  1.00  0.00    -0.070 C 
ATOM      2  C   UNL     1     107.561  85.408  58.604  1.00  0.00    -0.027 C 
ATOM      3  C   UNL     1     108.408  87.364  57.398  1.00  0.00     0.039 C 
ENDROOT
BRANCH   2   4
ATOM      4  C   UNL     1     107.427  83.970  59.042  1.00  0.00     0.032 C 
BRANCH   4   5
ATOM      5  C   UNL     1     105.990  83.440  58.959  1.00  0.00     0.034 C 
BRANCH   5   6
ATOM      6  C   UNL     1     105.845  82.504  57.774  1.00  0.00    -0.077 C 
ATOM      7  C   UNL     1     105.904  81.019  58.025  1.00  0.00     0.039 C 
ATOM      8  C   UNL     1     105.743  82.932  56.493  1.00  0.00    -0.023 CG0
ATOM      9  G   UNL     1     105.653  84.373  56.050  1.00  0.00     0.000 G0
ENDBRANCH   5   6
ENDBRANCH   4   5
ENDBRANCH   2   4
BRANCH   1  10
ATOM     10  C   UNL     1     109.089  84.979  56.605  1.00  0.00     0.111 C 
BRANCH  10  11
ATOM     11  C   UNL     1     108.197  84.318  55.583  1.00  0.00     0.163 C 
ATOM     12  O   UNL     1     108.650  83.308  54.979  1.00  0.00    -0.294 OA
BRANCH  11  13
ATOM     13  C   UNL     1     106.839  84.849  55.228  1.00  0.00    -0.002 C 
ATOM     14  C   UNL     1     106.677  85.704  54.170  1.00  0.00    -0.069 C 
ATOM     15  C   UNL     1     105.308  86.177  53.731  1.00  0.00     0.039 C 
ATOM     16  C   UNL     1     107.860  86.266  53.412  1.00  0.00     0.039 C 
BRANCH  13  17
ATOM     17  C   UNL     1     105.630  84.374  56.032  1.00  0.00     0.066 CG0
ATOM     18  G   UNL     1     105.764  82.933  56.466  1.00  0.00     0.000 G0
ENDBRANCH  13  17
ENDBRANCH  11  13
ENDBRANCH  10  11
ENDBRANCH   1  10
TORSDOF 0
ENDMDL
MODEL 6
REMARK VINA RESULT:    -1.496      2.064      3.644
REMARK INTER + INTRA:          -1.780
REMARK INTER:                  -2.162
REMARK INTRA:                   0.382
REMARK UNBOUND:                 0.328
REMARK SMILES CC1=CCC(=C(C)C)C(=O)CC(C)=CCC1
REMARK SMILES IDX 12 1 14 2 13 3 15 4 16 5 2 6 1 7 3 8 11 10 9 11 10 12 5 13
REMARK SMILES IDX 6 14 7 15 8 16 4 17
REMARK H PARENT
REMARK Flexibility Score: 60.00
ROOT
ATOM      1  C   UNL     1     109.661  86.039  54.367  1.00  0.00    -0.070 C 
ATOM      2  C   UNL     1     110.436  87.100  54.710  1.00  0.00    -0.027 C 
ATOM      3  C   UNL     1     110.329  84.686  54.308  1.00  0.00     0.039 C 
ENDROOT
BRANCH   2   4
ATOM      4  C   UNL     1     109.961  88.516  54.927  1.00  0.00     0.032 C 
BRANCH   4   5
ATOM      5  C   UNL     1     109.484  88.783  56.360  1.00  0.00     0.034 C 
BRANCH   5   6
ATOM      6  C   UNL     1     110.054  87.742  57.305  1.00  0.00    -0.077 C 
ATOM      7  C   UNL     1     111.529  87.783  57.607  1.00  0.00     0.039 C 
ATOM      8  C   UNL     1     109.321  86.731  57.831  1.00  0.00    -0.023 CG0
ATOM      9  G   UNL     1     107.834  86.536  57.655  1.00  0.00     0.000 G0
ENDBRANCH   5   6
ENDBRANCH   4   5
ENDBRANCH   2   4
BRANCH   1  10
ATOM     10  C   UNL     1     108.194  86.136  53.962  1.00  0.00     0.111 C 
BRANCH  10  11
ATOM     11  C   UNL     1     107.247  86.295  55.126  1.00  0.00     0.163 C 
ATOM     12  O   UNL     1     106.250  87.051  54.968  1.00  0.00    -0.294 OA
BRANCH  11  13
ATOM     13  C   UNL     1     107.480  85.640  56.456  1.00  0.00    -0.002 C 
ATOM     14  C   UNL     1     107.433  84.277  56.582  1.00  0.00    -0.069 C 
ATOM     15  C   UNL     1     107.760  83.587  57.889  1.00  0.00     0.039 C 
ATOM     16  C   UNL     1     107.002  83.386  55.438  1.00  0.00     0.039 C 
BRANCH  13  17
ATOM     17  C   UNL     1     107.829  86.519  57.656  1.00  0.00     0.066 CG0
ATOM     18  G   UNL     1     109.318  86.713  57.809  1.00  0.00     0.000 G0
ENDBRANCH  13  17
ENDBRANCH  11  13
ENDBRANCH  10  11
ENDBRANCH   1  10
TORSDOF 0
ENDMDL
MODEL 7
REMARK VINA RESULT:    -1.492      2.172      4.217
REMARK INTER + INTRA:          -1.774
REMARK INTER:                  -1.990
REMARK INTRA:                   0.215
REMARK UNBOUND:                 0.328
REMARK SMILES CC1=CCC(=C(C)C)C(=O)CC(C)=CCC1
REMARK SMILES IDX 12 1 14 2 13 3 15 4 16 5 2 6 1 7 3 8 11 10 9 11 10 12 5 13
REMARK SMILES IDX 6 14 7 15 8 16 4 17
REMARK H PARENT
REMARK Flexibility Score: 60.00
ROOT
ATOM      1  C   UNL     1     105.605  82.617  55.320  1.00  0.00    -0.070 C 
ATOM      2  C   UNL     1     105.894  83.283  54.172  1.00  0.00    -0.027 C 
ATOM      3  C   UNL     1     105.818  81.122  55.324  1.00  0.00     0.039 C 
ENDROOT
BRANCH   2   4
ATOM      4  C   UNL     1     105.853  84.779  53.976  1.00  0.00     0.032 C 
BRANCH   4   5
ATOM      5  C   UNL     1     107.237  85.437  54.034  1.00  0.00     0.034 C 
BRANCH   5   6
ATOM      6  C   UNL     1     107.416  86.163  55.354  1.00  0.00    -0.077 C 
ATOM      7  C   UNL     1     107.033  87.618  55.428  1.00  0.00     0.039 C 
ATOM      8  C   UNL     1     107.976  85.592  56.449  1.00  0.00    -0.023 CG0
ATOM      9  G   UNL     1     108.406  84.150  56.568  1.00  0.00     0.000 G0
ENDBRANCH   5   6
ENDBRANCH   4   5
ENDBRANCH   2   4
BRANCH   1  10
ATOM     10  C   UNL     1     105.010  83.263  56.566  1.00  0.00     0.111 C 
BRANCH  10  11
ATOM     11  C   UNL     1     106.039  83.742  57.559  1.00  0.00     0.163 C 
ATOM     12  O   UNL     1     105.658  84.542  58.457  1.00  0.00    -0.294 OA
BRANCH  11  13
ATOM     13  C   UNL     1     107.486  83.352  57.479  1.00  0.00    -0.002 C 
ATOM     14  C   UNL     1     107.952  82.251  58.148  1.00  0.00    -0.069 C 
ATOM     15  C   UNL     1     109.383  81.780  58.007  1.00  0.00     0.039 C 
ATOM     16  C   UNL     1     107.077  81.473  59.106  1.00  0.00     0.039 C 
BRANCH  13  17
ATOM     17  C   UNL     1     108.421  84.172  56.591  1.00  0.00     0.066 CG0
ATOM     18  G   UNL     1     107.966  85.605  56.453  1.00  0.00     0.000 G0
ENDBRANCH  13  17
ENDBRANCH  11  13
ENDBRANCH  10  11
ENDBRANCH   1  10
TORSDOF 0
ENDMDL
MODEL 8
REMARK VINA RESULT:    -1.479      1.912      4.021
REMARK INTER + INTRA:          -1.757
REMARK INTER:                  -1.893
REMARK INTRA:                   0.136
REMARK UNBOUND:                 0.328
REMARK SMILES CC1=CCC(=C(C)C)C(=O)CC(C)=CCC1
REMARK SMILES IDX 12 1 14 2 13 3 15 4 16 5 2 6 1 7 3 8 11 10 9 11 10 12 5 13
REMARK SMILES IDX 6 14 7 15 8 16 4 17
REMARK H PARENT
REMARK Flexibility Score: 60.00
ROOT
ATOM      1  C   UNL     1     105.495  83.986  54.291  1.00  0.00    -0.070 C 
ATOM      2  C   UNL     1     105.340  85.056  53.469  1.00  0.00    -0.027 C 
ATOM      3  C   UNL     1     105.121  82.631  53.738  1.00  0.00     0.039 C 
ENDROOT
BRANCH   2   4
ATOM      4  C   UNL     1     105.743  86.479  53.775  1.00  0.00     0.032 C 
BRANCH   4   5
ATOM      5  C   UNL     1     107.251  86.725  53.642  1.00  0.00     0.034 C 
BRANCH   5   6
ATOM      6  C   UNL     1     107.765  87.494  54.843  1.00  0.00    -0.077 C 
ATOM      7  C   UNL     1     107.335  88.929  55.011  1.00  0.00     0.039 C 
ATOM      8  C   UNL     1     108.651  86.985  55.732  1.00  0.00    -0.023 CG0
ATOM      9  G   UNL     1     109.182  85.571  55.735  1.00  0.00     0.000 G0
ENDBRANCH   5   6
ENDBRANCH   4   5
ENDBRANCH   2   4
BRANCH   1  10
ATOM     10  C   UNL     1     105.939  84.072  55.747  1.00  0.00     0.111 C 
BRANCH  10  11
ATOM     11  C   UNL     1     107.384  83.697  55.969  1.00  0.00     0.163 C 
ATOM     12  O   UNL     1     107.744  82.536  55.632  1.00  0.00    -0.294 OA
BRANCH  11  13
ATOM     13  C   UNL     1     108.371  84.621  56.619  1.00  0.00    -0.002 C 
ATOM     14  C   UNL     1     108.572  84.590  57.974  1.00  0.00    -0.069 C 
ATOM     15  C   UNL     1     109.630  85.442  58.642  1.00  0.00     0.039 C 
ATOM     16  C   UNL     1     107.715  83.741  58.886  1.00  0.00     0.039 C 
BRANCH  13  17
ATOM     17  C   UNL     1     109.191  85.560  55.735  1.00  0.00     0.066 CG0
ATOM     18  G   UNL     1     108.637  86.965  55.727  1.00  0.00     0.000 G0
ENDBRANCH  13  17
ENDBRANCH  11  13
ENDBRANCH  10  11
ENDBRANCH   1  10
TORSDOF 0
ENDMDL
MODEL 9
REMARK VINA RESULT:    -1.301      2.363      3.954
REMARK INTER + INTRA:          -1.505
REMARK INTER:                  -1.980
REMARK INTRA:                   0.475
REMARK UNBOUND:                 0.328
REMARK SMILES CC1=CCC(=C(C)C)C(=O)CC(C)=CCC1
REMARK SMILES IDX 12 1 14 2 13 3 15 4 16 5 2 6 1 7 3 8 11 10 9 11 10 12 5 13
REMARK SMILES IDX 6 14 7 15 8 16 4 17
REMARK H PARENT
REMARK Flexibility Score: 60.00
ROOT
ATOM      1  C   UNL     1     107.801  85.856  55.450  1.00  0.00    -0.070 C 
ATOM      2  C   UNL     1     108.204  87.141  55.623  1.00  0.00    -0.027 C 
ATOM      3  C   UNL     1     108.148  85.193  54.139  1.00  0.00     0.039 C 
ENDROOT
BRANCH   2   4
ATOM      4  C   UNL     1     108.055  87.959  56.884  1.00  0.00     0.032 C 
BRANCH   4   5
ATOM      5  C   UNL     1     109.225  87.786  57.861  1.00  0.00     0.034 C 
BRANCH   5   6
ATOM      6  C   UNL     1     110.441  87.248  57.132  1.00  0.00    -0.077 C 
ATOM      7  C   UNL     1     111.171  88.165  56.185  1.00  0.00     0.039 C 
ATOM      8  C   UNL     1     110.860  85.964  57.228  1.00  0.00    -0.023 CG0
ATOM      9  G   UNL     1     110.268  84.909  58.132  1.00  0.00     0.000 G0
ENDBRANCH   5   6
ENDBRANCH   4   5
ENDBRANCH   2   4
BRANCH   1  10
ATOM     10  C   UNL     1     106.957  85.073  56.452  1.00  0.00     0.111 C 
BRANCH  10  11
ATOM     11  C   UNL     1     107.752  84.478  57.588  1.00  0.00     0.163 C 
ATOM     12  O   UNL     1     107.180  84.371  58.707  1.00  0.00    -0.294 OA
BRANCH  11  13
ATOM     13  C   UNL     1     109.190  84.072  57.447  1.00  0.00    -0.002 C 
ATOM     14  C   UNL     1     109.541  83.001  56.668  1.00  0.00    -0.069 C 
ATOM     15  C   UNL     1     110.989  82.630  56.431  1.00  0.00     0.039 C 
ATOM     16  C   UNL     1     108.502  82.097  56.044  1.00  0.00     0.039 C 
BRANCH  13  17
ATOM     17  C   UNL     1     110.262  84.911  58.141  1.00  0.00     0.066 CG0
ATOM     18  G   UNL     1     110.854  85.953  57.222  1.00  0.00     0.000 G0
ENDBRANCH  13  17
ENDBRANCH  11  13
ENDBRANCH  10  11
ENDBRANCH   1  10
TORSDOF 0
ENDMDL
