MODEL 1
REMARK VINA RESULT:    -4.973      0.000      0.000
REMARK INTER + INTRA:         -15.786
REMARK INTER:                 -12.532
REMARK INTRA:                  -3.254
REMARK UNBOUND:                -3.254
REMARK SMILES CCCCCCCCCCCCCCCCCCCCCCCCCCCC(=O)[O-]
REMARK SMILES IDX 15 1 16 2 17 3 18 4 19 5 20 6 21 7 22 8 23 9 24 10 25 11
REMARK SMILES IDX 26 12 27 13 28 14 29 15 30 16 14 17 13 18 12 19 11 20 10 21
REMARK SMILES IDX 9 22 8 23 7 24 6 25 5 26 4 27 3 28 2 29 1 30
REMARK H PARENT
REMARK Flexibility Score: inf
ROOT
ATOM      1  C   UNL     1      -4.682  27.409  55.180  1.00  0.00     0.000 C 
ENDROOT
BRANCH   1   2
ATOM      2  C   UNL     1      -4.446  28.603  56.119  1.00  0.00     0.000 C 
BRANCH   2   3
ATOM      3  C   UNL     1      -2.953  28.894  56.342  1.00  0.00     0.000 C 
BRANCH   3   4
ATOM      4  C   UNL     1      -2.700  29.752  57.591  1.00  0.00     0.000 C 
BRANCH   4   5
ATOM      5  C   UNL     1      -3.980  30.488  58.013  1.00  0.00     0.000 C 
BRANCH   5   6
ATOM      6  C   UNL     1      -3.710  31.664  58.968  1.00  0.00     0.000 C 
BRANCH   6   7
ATOM      7  C   UNL     1      -4.227  31.467  60.408  1.00  0.00     0.000 C 
BRANCH   7   8
ATOM      8  C   UNL     1      -3.561  32.363  61.471  1.00  0.00     0.000 C 
BRANCH   8   9
ATOM      9  C   UNL     1      -2.175  32.913  61.084  1.00  0.00     0.000 C 
BRANCH   9  10
ATOM     10  C   UNL     1      -1.513  33.712  62.217  1.00  0.00     0.000 C 
BRANCH  10  11
ATOM     11  C   UNL     1      -1.454  32.887  63.511  1.00  0.00     0.000 C 
BRANCH  11  12
ATOM     12  C   UNL     1      -0.621  31.603  63.360  1.00  0.00     0.006 C 
BRANCH  12  13
ATOM     13  C   UNL     1       0.269  31.322  64.576  1.00  0.00     0.053 C 
BRANCH  13  14
ATOM     14  C   UNL     1       0.711  29.893  64.577  1.00  0.00     0.041 C 
ATOM     15  O   UNL     1       1.345  29.427  65.560  1.00  0.00    -0.550 OA
ATOM     16  O   UNL     1       0.378  29.062  63.515  1.00  0.00    -0.550 OA
ENDBRANCH  13  14
ENDBRANCH  12  13
ENDBRANCH  11  12
ENDBRANCH  10  11
ENDBRANCH   9  10
ENDBRANCH   8   9
ENDBRANCH   7   8
ENDBRANCH   6   7
ENDBRANCH   5   6
ENDBRANCH   4   5
ENDBRANCH   3   4
ENDBRANCH   2   3
ENDBRANCH   1   2
BRANCH   1  17
ATOM     17  C   UNL     1      -3.485  26.448  55.214  1.00  0.00     0.000 C 
BRANCH  17  18
ATOM     18  C   UNL     1      -2.706  26.421  53.884  1.00  0.00     0.000 C 
BRANCH  18  19
ATOM     19  C   UNL     1      -1.186  26.194  54.046  1.00  0.00     0.000 C 
BRANCH  19  20
ATOM     20  C   UNL     1      -0.736  25.998  55.505  1.00  0.00     0.000 C 
BRANCH  20  21
ATOM     21  C   UNL     1       0.728  26.421  55.736  1.00  0.00     0.000 C 
BRANCH  21  22
ATOM     22  C   UNL     1       0.902  27.187  57.058  1.00  0.00    -0.000 C 
BRANCH  22  23
ATOM     23  C   UNL     1       2.379  27.226  57.499  1.00  0.00    -0.000 C 
BRANCH  23  24
ATOM     24  C   UNL     1       3.090  28.518  57.070  1.00  0.00    -0.000 C 
BRANCH  24  25
ATOM     25  C   UNL     1       2.979  29.636  58.121  1.00  0.00    -0.000 C 
BRANCH  25  26
ATOM     26  C   UNL     1       1.793  30.577  57.853  1.00  0.00    -0.000 C 
BRANCH  26  27
ATOM     27  C   UNL     1       0.676  30.428  58.899  1.00  0.00    -0.000 C 
BRANCH  27  28
ATOM     28  C   UNL     1       1.106  30.889  60.303  1.00  0.00    -0.000 C 
BRANCH  28  29
ATOM     29  C   UNL     1       1.590  32.347  60.384  1.00  0.00    -0.003 C 
ATOM     30  C   UNL     1       2.452  32.625  61.613  1.00  0.00     0.004 C 
ENDBRANCH  28  29
ENDBRANCH  27  28
ENDBRANCH  26  27
ENDBRANCH  25  26
ENDBRANCH  24  25
ENDBRANCH  23  24
ENDBRANCH  22  23
ENDBRANCH  21  22
ENDBRANCH  20  21
ENDBRANCH  19  20
ENDBRANCH  18  19
ENDBRANCH  17  18
ENDBRANCH   1  17
TORSDOF 26
ENDMDL
MODEL 2
REMARK VINA RESULT:    -4.786      1.808      4.797
REMARK INTER + INTRA:         -15.315
REMARK INTER:                 -12.477
REMARK INTRA:                  -2.838
REMARK UNBOUND:                -3.254
REMARK SMILES CCCCCCCCCCCCCCCCCCCCCCCCCCCC(=O)[O-]
REMARK SMILES IDX 15 1 16 2 17 3 18 4 19 5 20 6 21 7 22 8 23 9 24 10 25 11
REMARK SMILES IDX 26 12 27 13 28 14 29 15 30 16 14 17 13 18 12 19 11 20 10 21
REMARK SMILES IDX 9 22 8 23 7 24 6 25 5 26 4 27 3 28 2 29 1 30
REMARK H PARENT
REMARK Flexibility Score: inf
ROOT
ATOM      1  C   UNL     1      -2.646  30.121  57.833  1.00  0.00     0.000 C 
ENDROOT
BRANCH   1   2
ATOM      2  C   UNL     1      -3.875  30.962  58.213  1.00  0.00     0.000 C 
BRANCH   2   3
ATOM      3  C   UNL     1      -4.405  30.635  59.618  1.00  0.00     0.000 C 
BRANCH   3   4
ATOM      4  C   UNL     1      -4.250  31.811  60.595  1.00  0.00     0.000 C 
BRANCH   4   5
ATOM      5  C   UNL     1      -2.818  32.362  60.559  1.00  0.00     0.000 C 
BRANCH   5   6
ATOM      6  C   UNL     1      -2.528  33.360  61.695  1.00  0.00     0.000 C 
BRANCH   6   7
ATOM      7  C   UNL     1      -2.751  32.810  63.119  1.00  0.00     0.000 C 
BRANCH   7   8
ATOM      8  C   UNL     1      -1.468  32.610  63.951  1.00  0.00     0.000 C 
BRANCH   8   9
ATOM      9  C   UNL     1      -0.766  31.255  63.750  1.00  0.00     0.000 C 
BRANCH   9  10
ATOM     10  C   UNL     1       0.748  31.324  64.000  1.00  0.00     0.000 C 
BRANCH  10  11
ATOM     11  C   UNL     1       1.533  31.015  62.717  1.00  0.00     0.000 C 
BRANCH  11  12
ATOM     12  C   UNL     1       1.082  31.873  61.523  1.00  0.00     0.006 C 
BRANCH  12  13
ATOM     13  C   UNL     1       0.633  31.035  60.321  1.00  0.00     0.053 C 
BRANCH  13  14
ATOM     14  C   UNL     1       1.810  30.671  59.473  1.00  0.00     0.041 C 
ATOM     15  O   UNL     1       2.328  29.527  59.566  1.00  0.00    -0.550 OA
ATOM     16  O   UNL     1       2.303  31.577  58.543  1.00  0.00    -0.550 OA
ENDBRANCH  13  14
ENDBRANCH  12  13
ENDBRANCH  11  12
ENDBRANCH  10  11
ENDBRANCH   9  10
ENDBRANCH   8   9
ENDBRANCH   7   8
ENDBRANCH   6   7
ENDBRANCH   5   6
ENDBRANCH   4   5
ENDBRANCH   3   4
ENDBRANCH   2   3
ENDBRANCH   1   2
BRANCH   1  17
ATOM     17  C   UNL     1      -2.948  29.246  56.607  1.00  0.00     0.000 C 
BRANCH  17  18
ATOM     18  C   UNL     1      -4.430  28.832  56.523  1.00  0.00     0.000 C 
BRANCH  18  19
ATOM     19  C   UNL     1      -4.715  27.708  55.501  1.00  0.00     0.000 C 
BRANCH  19  20
ATOM     20  C   UNL     1      -3.530  26.750  55.279  1.00  0.00     0.000 C 
BRANCH  20  21
ATOM     21  C   UNL     1      -3.319  26.401  53.793  1.00  0.00     0.000 C 
BRANCH  21  22
ATOM     22  C   UNL     1      -1.827  26.298  53.434  1.00  0.00    -0.000 C 
BRANCH  22  23
ATOM     23  C   UNL     1      -0.948  26.179  54.695  1.00  0.00    -0.000 C 
BRANCH  23  24
ATOM     24  C   UNL     1      -0.170  24.856  54.750  1.00  0.00    -0.000 C 
BRANCH  24  25
ATOM     25  C   UNL     1       0.679  24.612  53.489  1.00  0.00    -0.000 C 
BRANCH  25  26
ATOM     26  C   UNL     1       2.059  25.285  53.572  1.00  0.00    -0.000 C 
BRANCH  26  27
ATOM     27  C   UNL     1       2.658  25.225  54.986  1.00  0.00    -0.000 C 
BRANCH  27  28
ATOM     28  C   UNL     1       2.894  26.619  55.594  1.00  0.00    -0.000 C 
BRANCH  28  29
ATOM     29  C   UNL     1       2.512  26.749  57.078  1.00  0.00    -0.003 C 
ATOM     30  C   UNL     1       1.120  27.341  57.290  1.00  0.00     0.004 C 
ENDBRANCH  28  29
ENDBRANCH  27  28
ENDBRANCH  26  27
ENDBRANCH  25  26
ENDBRANCH  24  25
ENDBRANCH  23  24
ENDBRANCH  22  23
ENDBRANCH  21  22
ENDBRANCH  20  21
ENDBRANCH  19  20
ENDBRANCH  18  19
ENDBRANCH  17  18
ENDBRANCH   1  17
TORSDOF 26
ENDMDL
MODEL 3
REMARK VINA RESULT:    -4.782      2.031      7.643
REMARK INTER + INTRA:         -15.305
REMARK INTER:                 -12.705
REMARK INTRA:                  -2.600
REMARK UNBOUND:                -3.254
REMARK SMILES CCCCCCCCCCCCCCCCCCCCCCCCCCCC(=O)[O-]
REMARK SMILES IDX 15 1 16 2 17 3 18 4 19 5 20 6 21 7 22 8 23 9 24 10 25 11
REMARK SMILES IDX 26 12 27 13 28 14 29 15 30 16 14 17 13 18 12 19 11 20 10 21
REMARK SMILES IDX 9 22 8 23 7 24 6 25 5 26 4 27 3 28 2 29 1 30
REMARK H PARENT
REMARK Flexibility Score: inf
ROOT
ATOM      1  C   UNL     1      -4.292  30.172  58.175  1.00  0.00     0.000 C 
ENDROOT
BRANCH   1   2
ATOM      2  C   UNL     1      -2.808  30.126  57.778  1.00  0.00     0.000 C 
BRANCH   2   3
ATOM      3  C   UNL     1      -2.501  29.013  56.763  1.00  0.00     0.000 C 
BRANCH   3   4
ATOM      4  C   UNL     1      -3.737  28.601  55.949  1.00  0.00     0.000 C 
BRANCH   4   5
ATOM      5  C   UNL     1      -3.795  27.075  55.785  1.00  0.00     0.000 C 
BRANCH   5   6
ATOM      6  C   UNL     1      -3.784  26.628  54.312  1.00  0.00     0.000 C 
BRANCH   6   7
ATOM      7  C   UNL     1      -2.382  26.404  53.710  1.00  0.00     0.000 C 
BRANCH   7   8
ATOM      8  C   UNL     1      -1.251  26.207  54.738  1.00  0.00     0.000 C 
BRANCH   8   9
ATOM      9  C   UNL     1      -0.034  25.415  54.225  1.00  0.00     0.000 C 
BRANCH   9  10
ATOM     10  C   UNL     1       1.273  25.807  54.929  1.00  0.00     0.000 C 
BRANCH  10  11
ATOM     11  C   UNL     1       0.992  26.624  56.199  1.00  0.00     0.000 C 
BRANCH  11  12
ATOM     12  C   UNL     1       2.271  27.199  56.831  1.00  0.00     0.006 C 
BRANCH  12  13
ATOM     13  C   UNL     1       2.049  27.722  58.255  1.00  0.00     0.053 C 
BRANCH  13  14
ATOM     14  C   UNL     1       1.952  29.214  58.250  1.00  0.00     0.041 C 
ATOM     15  O   UNL     1       2.953  29.916  58.551  1.00  0.00    -0.550 OA
ATOM     16  O   UNL     1       0.769  29.832  57.863  1.00  0.00    -0.550 OA
ENDBRANCH  13  14
ENDBRANCH  12  13
ENDBRANCH  11  12
ENDBRANCH  10  11
ENDBRANCH   9  10
ENDBRANCH   8   9
ENDBRANCH   7   8
ENDBRANCH   6   7
ENDBRANCH   5   6
ENDBRANCH   4   5
ENDBRANCH   3   4
ENDBRANCH   2   3
ENDBRANCH   1   2
BRANCH   1  17
ATOM     17  C   UNL     1      -4.466  30.855  59.539  1.00  0.00     0.000 C 
BRANCH  17  18
ATOM     18  C   UNL     1      -3.458  31.999  59.764  1.00  0.00     0.000 C 
BRANCH  18  19
ATOM     19  C   UNL     1      -3.246  32.373  61.248  1.00  0.00     0.000 C 
BRANCH  19  20
ATOM     20  C   UNL     1      -2.320  33.584  61.462  1.00  0.00     0.000 C 
BRANCH  20  21
ATOM     21  C   UNL     1      -1.223  33.315  62.510  1.00  0.00     0.000 C 
BRANCH  21  22
ATOM     22  C   UNL     1      -1.814  32.894  63.866  1.00  0.00    -0.000 C 
BRANCH  22  23
ATOM     23  C   UNL     1      -1.173  33.676  65.030  1.00  0.00    -0.000 C 
BRANCH  23  24
ATOM     24  C   UNL     1      -0.687  32.758  66.161  1.00  0.00    -0.000 C 
BRANCH  24  25
ATOM     25  C   UNL     1       0.845  32.616  66.196  1.00  0.00    -0.000 C 
BRANCH  25  26
ATOM     26  C   UNL     1       1.386  31.804  65.008  1.00  0.00    -0.000 C 
BRANCH  26  27
ATOM     27  C   UNL     1       1.108  30.299  65.150  1.00  0.00    -0.000 C 
BRANCH  27  28
ATOM     28  C   UNL     1       0.235  29.742  64.011  1.00  0.00    -0.000 C 
BRANCH  28  29
ATOM     29  C   UNL     1       1.012  29.307  62.756  1.00  0.00    -0.003 C 
ATOM     30  C   UNL     1       1.073  30.393  61.684  1.00  0.00     0.004 C 
ENDBRANCH  28  29
ENDBRANCH  27  28
ENDBRANCH  26  27
ENDBRANCH  25  26
ENDBRANCH  24  25
ENDBRANCH  23  24
ENDBRANCH  22  23
ENDBRANCH  21  22
ENDBRANCH  20  21
ENDBRANCH  19  20
ENDBRANCH  18  19
ENDBRANCH  17  18
ENDBRANCH   1  17
TORSDOF 26
ENDMDL
MODEL 4
REMARK VINA RESULT:    -4.778      2.108      7.680
REMARK INTER + INTRA:         -15.295
REMARK INTER:                 -12.763
REMARK INTRA:                  -2.532
REMARK UNBOUND:                -3.254
REMARK SMILES CCCCCCCCCCCCCCCCCCCCCCCCCCCC(=O)[O-]
REMARK SMILES IDX 15 1 16 2 17 3 18 4 19 5 20 6 21 7 22 8 23 9 24 10 25 11
REMARK SMILES IDX 26 12 27 13 28 14 29 15 30 16 14 17 13 18 12 19 11 20 10 21
REMARK SMILES IDX 9 22 8 23 7 24 6 25 5 26 4 27 3 28 2 29 1 30
REMARK H PARENT
REMARK Flexibility Score: inf
ROOT
ATOM      1  C   UNL     1      -3.416  32.338  59.956  1.00  0.00     0.000 C 
ENDROOT
BRANCH   1   2
ATOM      2  C   UNL     1      -4.186  31.143  59.372  1.00  0.00     0.000 C 
BRANCH   2   3
ATOM      3  C   UNL     1      -3.443  30.472  58.206  1.00  0.00     0.000 C 
BRANCH   3   4
ATOM      4  C   UNL     1      -4.355  29.560  57.372  1.00  0.00     0.000 C 
BRANCH   4   5
ATOM      5  C   UNL     1      -3.556  28.856  56.266  1.00  0.00     0.000 C 
BRANCH   5   6
ATOM      6  C   UNL     1      -4.385  27.813  55.495  1.00  0.00     0.000 C 
BRANCH   6   7
ATOM      7  C   UNL     1      -3.648  26.495  55.184  1.00  0.00     0.000 C 
BRANCH   7   8
ATOM      8  C   UNL     1      -3.045  26.401  53.768  1.00  0.00     0.000 C 
BRANCH   8   9
ATOM      9  C   UNL     1      -1.519  26.200  53.722  1.00  0.00     0.000 C 
BRANCH   9  10
ATOM     10  C   UNL     1      -0.963  25.553  55.000  1.00  0.00     0.000 C 
BRANCH  10  11
ATOM     11  C   UNL     1       0.276  26.308  55.506  1.00  0.00     0.000 C 
BRANCH  11  12
ATOM     12  C   UNL     1      -0.023  27.182  56.735  1.00  0.00     0.006 C 
BRANCH  12  13
ATOM     13  C   UNL     1       1.241  27.571  57.512  1.00  0.00     0.053 C 
BRANCH  13  14
ATOM     14  C   UNL     1       1.253  29.042  57.780  1.00  0.00     0.041 C 
ATOM     15  O   UNL     1       2.319  29.613  58.131  1.00  0.00    -0.550 OA
ATOM     16  O   UNL     1       0.099  29.792  57.593  1.00  0.00    -0.550 OA
ENDBRANCH  13  14
ENDBRANCH  12  13
ENDBRANCH  11  12
ENDBRANCH  10  11
ENDBRANCH   9  10
ENDBRANCH   8   9
ENDBRANCH   7   8
ENDBRANCH   6   7
ENDBRANCH   5   6
ENDBRANCH   4   5
ENDBRANCH   3   4
ENDBRANCH   2   3
ENDBRANCH   1   2
BRANCH   1  17
ATOM     17  C   UNL     1      -3.476  32.322  61.491  1.00  0.00     0.000 C 
BRANCH  17  18
ATOM     18  C   UNL     1      -3.056  33.667  62.115  1.00  0.00     0.000 C 
BRANCH  18  19
ATOM     19  C   UNL     1      -2.885  33.624  63.651  1.00  0.00     0.000 C 
BRANCH  19  20
ATOM     20  C   UNL     1      -1.452  33.923  64.129  1.00  0.00     0.000 C 
BRANCH  20  21
ATOM     21  C   UNL     1      -0.973  32.943  65.217  1.00  0.00     0.000 C 
BRANCH  21  22
ATOM     22  C   UNL     1       0.186  32.060  64.724  1.00  0.00    -0.000 C 
BRANCH  22  23
ATOM     23  C   UNL     1      -0.316  30.925  63.810  1.00  0.00    -0.000 C 
BRANCH  23  24
ATOM     24  C   UNL     1       0.407  29.595  64.069  1.00  0.00    -0.000 C 
BRANCH  24  25
ATOM     25  C   UNL     1       1.039  29.004  62.796  1.00  0.00    -0.000 C 
BRANCH  25  26
ATOM     26  C   UNL     1       1.550  30.090  61.835  1.00  0.00    -0.000 C 
BRANCH  26  27
ATOM     27  C   UNL     1       3.079  30.066  61.681  1.00  0.00    -0.000 C 
BRANCH  27  28
ATOM     28  C   UNL     1       3.759  31.312  62.277  1.00  0.00    -0.000 C 
BRANCH  28  29
ATOM     29  C   UNL     1       4.339  31.118  63.688  1.00  0.00    -0.003 C 
ATOM     30  C   UNL     1       3.869  32.181  64.680  1.00  0.00     0.004 C 
ENDBRANCH  28  29
ENDBRANCH  27  28
ENDBRANCH  26  27
ENDBRANCH  25  26
ENDBRANCH  24  25
ENDBRANCH  23  24
ENDBRANCH  22  23
ENDBRANCH  21  22
ENDBRANCH  20  21
ENDBRANCH  19  20
ENDBRANCH  18  19
ENDBRANCH  17  18
ENDBRANCH   1  17
TORSDOF 26
ENDMDL
MODEL 5
REMARK VINA RESULT:    -4.749      2.415      7.020
REMARK INTER + INTRA:         -15.223
REMARK INTER:                 -12.277
REMARK INTRA:                  -2.945
REMARK UNBOUND:                -3.254
REMARK SMILES CCCCCCCCCCCCCCCCCCCCCCCCCCCC(=O)[O-]
REMARK SMILES IDX 15 1 16 2 17 3 18 4 19 5 20 6 21 7 22 8 23 9 24 10 25 11
REMARK SMILES IDX 26 12 27 13 28 14 29 15 30 16 14 17 13 18 12 19 11 20 10 21
REMARK SMILES IDX 9 22 8 23 7 24 6 25 5 26 4 27 3 28 2 29 1 30
REMARK H PARENT
REMARK Flexibility Score: inf
ROOT
ATOM      1  C   UNL     1      -2.512  29.031  56.575  1.00  0.00     0.000 C 
ENDROOT
BRANCH   1   2
ATOM      2  C   UNL     1      -3.832  28.389  56.120  1.00  0.00     0.000 C 
BRANCH   2   3
ATOM      3  C   UNL     1      -3.659  26.926  55.682  1.00  0.00     0.000 C 
BRANCH   3   4
ATOM      4  C   UNL     1      -3.598  26.770  54.155  1.00  0.00     0.000 C 
BRANCH   4   5
ATOM      5  C   UNL     1      -2.210  26.285  53.714  1.00  0.00     0.000 C 
BRANCH   5   6
ATOM      6  C   UNL     1      -1.319  25.856  54.894  1.00  0.00     0.000 C 
BRANCH   6   7
ATOM      7  C   UNL     1       0.161  25.609  54.538  1.00  0.00     0.000 C 
BRANCH   7   8
ATOM      8  C   UNL     1       1.180  26.153  55.559  1.00  0.00     0.000 C 
BRANCH   8   9
ATOM      9  C   UNL     1       0.584  27.056  56.655  1.00  0.00     0.000 C 
BRANCH   9  10
ATOM     10  C   UNL     1       1.658  27.751  57.505  1.00  0.00     0.000 C 
BRANCH  10  11
ATOM     11  C   UNL     1       1.269  29.208  57.800  1.00  0.00     0.000 C 
BRANCH  11  12
ATOM     12  C   UNL     1       2.491  30.118  58.008  1.00  0.00     0.006 C 
BRANCH  12  13
ATOM     13  C   UNL     1       3.096  30.615  56.690  1.00  0.00     0.053 C 
BRANCH  13  14
ATOM     14  C   UNL     1       4.553  30.906  56.864  1.00  0.00     0.041 C 
ATOM     15  O   UNL     1       4.933  31.740  57.727  1.00  0.00    -0.550 OA
ATOM     16  O   UNL     1       5.495  30.217  56.110  1.00  0.00    -0.550 OA
ENDBRANCH  13  14
ENDBRANCH  12  13
ENDBRANCH  11  12
ENDBRANCH  10  11
ENDBRANCH   9  10
ENDBRANCH   8   9
ENDBRANCH   7   8
ENDBRANCH   6   7
ENDBRANCH   5   6
ENDBRANCH   4   5
ENDBRANCH   3   4
ENDBRANCH   2   3
ENDBRANCH   1   2
BRANCH   1  17
ATOM     17  C   UNL     1      -2.756  30.004  57.737  1.00  0.00     0.000 C 
BRANCH  17  18
ATOM     18  C   UNL     1      -4.255  30.238  58.012  1.00  0.00     0.000 C 
BRANCH  18  19
ATOM     19  C   UNL     1      -4.555  30.850  59.399  1.00  0.00     0.000 C 
BRANCH  19  20
ATOM     20  C   UNL     1      -3.499  31.865  59.876  1.00  0.00     0.000 C 
BRANCH  20  21
ATOM     21  C   UNL     1      -3.555  32.109  61.396  1.00  0.00     0.000 C 
BRANCH  21  22
ATOM     22  C   UNL     1      -3.019  33.500  61.774  1.00  0.00    -0.000 C 
BRANCH  22  23
ATOM     23  C   UNL     1      -1.656  33.405  62.490  1.00  0.00    -0.000 C 
BRANCH  23  24
ATOM     24  C   UNL     1      -1.576  32.210  63.451  1.00  0.00    -0.000 C 
BRANCH  24  25
ATOM     25  C   UNL     1      -0.343  32.268  64.370  1.00  0.00    -0.000 C 
BRANCH  25  26
ATOM     26  C   UNL     1       0.176  30.870  64.744  1.00  0.00    -0.000 C 
BRANCH  26  27
ATOM     27  C   UNL     1       0.260  29.930  63.530  1.00  0.00    -0.000 C 
BRANCH  27  28
ATOM     28  C   UNL     1       1.433  30.269  62.592  1.00  0.00    -0.000 C 
BRANCH  28  29
ATOM     29  C   UNL     1       1.020  30.788  61.204  1.00  0.00    -0.003 C 
ATOM     30  C   UNL     1       1.581  32.173  60.891  1.00  0.00     0.004 C 
ENDBRANCH  28  29
ENDBRANCH  27  28
ENDBRANCH  26  27
ENDBRANCH  25  26
ENDBRANCH  24  25
ENDBRANCH  23  24
ENDBRANCH  22  23
ENDBRANCH  21  22
ENDBRANCH  20  21
ENDBRANCH  19  20
ENDBRANCH  18  19
ENDBRANCH  17  18
ENDBRANCH   1  17
TORSDOF 26
ENDMDL
MODEL 6
REMARK VINA RESULT:    -4.714      2.449      6.583
REMARK INTER + INTRA:         -15.133
REMARK INTER:                 -12.203
REMARK INTRA:                  -2.931
REMARK UNBOUND:                -3.254
REMARK SMILES CCCCCCCCCCCCCCCCCCCCCCCCCCCC(=O)[O-]
REMARK SMILES IDX 15 1 16 2 17 3 18 4 19 5 20 6 21 7 22 8 23 9 24 10 25 11
REMARK SMILES IDX 26 12 27 13 28 14 29 15 30 16 14 17 13 18 12 19 11 20 10 21
REMARK SMILES IDX 9 22 8 23 7 24 6 25 5 26 4 27 3 28 2 29 1 30
REMARK H PARENT
REMARK Flexibility Score: inf
ROOT
ATOM      1  C   UNL     1      -2.394  29.051  56.739  1.00  0.00     0.000 C 
ENDROOT
BRANCH   1   2
ATOM      2  C   UNL     1      -3.657  28.466  56.085  1.00  0.00     0.000 C 
BRANCH   2   3
ATOM      3  C   UNL     1      -3.530  26.963  55.792  1.00  0.00     0.000 C 
BRANCH   3   4
ATOM      4  C   UNL     1      -3.452  26.661  54.287  1.00  0.00     0.000 C 
BRANCH   4   5
ATOM      5  C   UNL     1      -2.016  26.301  53.879  1.00  0.00     0.000 C 
BRANCH   5   6
ATOM      6  C   UNL     1      -1.109  25.987  55.082  1.00  0.00     0.000 C 
BRANCH   6   7
ATOM      7  C   UNL     1       0.366  25.706  54.730  1.00  0.00     0.000 C 
BRANCH   7   8
ATOM      8  C   UNL     1       1.396  26.261  55.734  1.00  0.00     0.000 C 
BRANCH   8   9
ATOM      9  C   UNL     1       0.811  27.168  56.832  1.00  0.00     0.000 C 
BRANCH   9  10
ATOM     10  C   UNL     1       1.864  28.086  57.471  1.00  0.00     0.000 C 
BRANCH  10  11
ATOM     11  C   UNL     1       1.225  29.390  57.974  1.00  0.00     0.000 C 
BRANCH  11  12
ATOM     12  C   UNL     1       1.964  30.644  57.476  1.00  0.00     0.006 C 
BRANCH  12  13
ATOM     13  C   UNL     1       2.700  31.387  58.598  1.00  0.00     0.053 C 
BRANCH  13  14
ATOM     14  C   UNL     1       2.858  32.831  58.246  1.00  0.00     0.041 C 
ATOM     15  O   UNL     1       3.437  33.164  57.178  1.00  0.00    -0.550 OA
ATOM     16  O   UNL     1       2.320  33.811  59.071  1.00  0.00    -0.550 OA
ENDBRANCH  13  14
ENDBRANCH  12  13
ENDBRANCH  11  12
ENDBRANCH  10  11
ENDBRANCH   9  10
ENDBRANCH   8   9
ENDBRANCH   7   8
ENDBRANCH   6   7
ENDBRANCH   5   6
ENDBRANCH   4   5
ENDBRANCH   3   4
ENDBRANCH   2   3
ENDBRANCH   1   2
BRANCH   1  17
ATOM     17  C   UNL     1      -2.768  30.107  57.790  1.00  0.00     0.000 C 
BRANCH  17  18
ATOM     18  C   UNL     1      -4.274  30.112  58.117  1.00  0.00     0.000 C 
BRANCH  18  19
ATOM     19  C   UNL     1      -4.629  30.816  59.446  1.00  0.00     0.000 C 
BRANCH  19  20
ATOM     20  C   UNL     1      -3.610  31.886  59.878  1.00  0.00     0.000 C 
BRANCH  20  21
ATOM     21  C   UNL     1      -3.648  32.165  61.393  1.00  0.00     0.000 C 
BRANCH  21  22
ATOM     22  C   UNL     1      -2.653  33.264  61.800  1.00  0.00    -0.000 C 
BRANCH  22  23
ATOM     23  C   UNL     1      -1.335  32.666  62.332  1.00  0.00    -0.000 C 
BRANCH  23  24
ATOM     24  C   UNL     1      -0.224  32.650  61.272  1.00  0.00    -0.000 C 
BRANCH  24  25
ATOM     25  C   UNL     1       0.430  31.265  61.116  1.00  0.00    -0.000 C 
BRANCH  25  26
ATOM     26  C   UNL     1       0.873  30.671  62.462  1.00  0.00    -0.000 C 
BRANCH  26  27
ATOM     27  C   UNL     1       1.569  29.310  62.303  1.00  0.00    -0.000 C 
BRANCH  27  28
ATOM     28  C   UNL     1       3.065  29.358  62.663  1.00  0.00    -0.000 C 
BRANCH  28  29
ATOM     29  C   UNL     1       3.581  30.742  63.092  1.00  0.00    -0.003 C 
ATOM     30  C   UNL     1       4.391  30.704  64.386  1.00  0.00     0.004 C 
ENDBRANCH  28  29
ENDBRANCH  27  28
ENDBRANCH  26  27
ENDBRANCH  25  26
ENDBRANCH  24  25
ENDBRANCH  23  24
ENDBRANCH  22  23
ENDBRANCH  21  22
ENDBRANCH  20  21
ENDBRANCH  19  20
ENDBRANCH  18  19
ENDBRANCH  17  18
ENDBRANCH   1  17
TORSDOF 26
ENDMDL
MODEL 7
REMARK VINA RESULT:    -4.691      1.345      2.834
REMARK INTER + INTRA:         -15.076
REMARK INTER:                 -11.918
REMARK INTRA:                  -3.158
REMARK UNBOUND:                -3.254
REMARK SMILES CCCCCCCCCCCCCCCCCCCCCCCCCCCC(=O)[O-]
REMARK SMILES IDX 15 1 16 2 17 3 18 4 19 5 20 6 21 7 22 8 23 9 24 10 25 11
REMARK SMILES IDX 26 12 27 13 28 14 29 15 30 16 14 17 13 18 12 19 11 20 10 21
REMARK SMILES IDX 9 22 8 23 7 24 6 25 5 26 4 27 3 28 2 29 1 30
REMARK H PARENT
REMARK Flexibility Score: inf
ROOT
ATOM      1  C   UNL     1      -3.178  29.040  56.558  1.00  0.00     0.000 C 
ENDROOT
BRANCH   1   2
ATOM      2  C   UNL     1      -3.235  30.038  57.725  1.00  0.00     0.000 C 
BRANCH   2   3
ATOM      3  C   UNL     1      -4.643  30.160  58.331  1.00  0.00     0.000 C 
BRANCH   3   4
ATOM      4  C   UNL     1      -4.633  30.831  59.713  1.00  0.00     0.000 C 
BRANCH   4   5
ATOM      5  C   UNL     1      -3.453  31.806  59.836  1.00  0.00     0.000 C 
BRANCH   5   6
ATOM      6  C   UNL     1      -3.352  32.456  61.228  1.00  0.00     0.000 C 
BRANCH   6   7
ATOM      7  C   UNL     1      -2.162  33.419  61.413  1.00  0.00     0.000 C 
BRANCH   7   8
ATOM      8  C   UNL     1      -1.173  33.031  62.530  1.00  0.00     0.000 C 
BRANCH   8   9
ATOM      9  C   UNL     1       0.223  33.670  62.414  1.00  0.00     0.000 C 
BRANCH   9  10
ATOM     10  C   UNL     1       0.900  33.385  61.065  1.00  0.00     0.000 C 
BRANCH  10  11
ATOM     11  C   UNL     1       2.292  32.768  61.267  1.00  0.00     0.000 C 
BRANCH  11  12
ATOM     12  C   UNL     1       2.396  31.339  60.706  1.00  0.00     0.006 C 
BRANCH  12  13
ATOM     13  C   UNL     1       1.207  30.455  61.101  1.00  0.00     0.053 C 
BRANCH  13  14
ATOM     14  C   UNL     1       1.402  29.908  62.479  1.00  0.00     0.041 C 
ATOM     15  O   UNL     1       2.539  29.514  62.849  1.00  0.00    -0.550 OA
ATOM     16  O   UNL     1       0.340  29.882  63.374  1.00  0.00    -0.550 OA
ENDBRANCH  13  14
ENDBRANCH  12  13
ENDBRANCH  11  12
ENDBRANCH  10  11
ENDBRANCH   9  10
ENDBRANCH   8   9
ENDBRANCH   7   8
ENDBRANCH   6   7
ENDBRANCH   5   6
ENDBRANCH   4   5
ENDBRANCH   3   4
ENDBRANCH   2   3
ENDBRANCH   1   2
BRANCH   1  17
ATOM     17  C   UNL     1      -4.587  28.549  56.196  1.00  0.00     0.000 C 
BRANCH  17  18
ATOM     18  C   UNL     1      -4.571  27.413  55.154  1.00  0.00     0.000 C 
BRANCH  18  19
ATOM     19  C   UNL     1      -3.389  26.430  55.309  1.00  0.00     0.000 C 
BRANCH  19  20
ATOM     20  C   UNL     1      -2.487  26.336  54.065  1.00  0.00     0.000 C 
BRANCH  20  21
ATOM     21  C   UNL     1      -1.006  26.101  54.420  1.00  0.00     0.000 C 
BRANCH  21  22
ATOM     22  C   UNL     1      -0.720  26.380  55.905  1.00  0.00    -0.000 C 
BRANCH  22  23
ATOM     23  C   UNL     1       0.743  26.814  56.128  1.00  0.00    -0.000 C 
BRANCH  23  24
ATOM     24  C   UNL     1       1.030  27.192  57.588  1.00  0.00    -0.000 C 
BRANCH  24  25
ATOM     25  C   UNL     1       2.262  28.104  57.735  1.00  0.00    -0.000 C 
BRANCH  25  26
ATOM     26  C   UNL     1       1.914  29.592  57.565  1.00  0.00    -0.000 C 
BRANCH  26  27
ATOM     27  C   UNL     1       3.093  30.412  57.017  1.00  0.00    -0.000 C 
BRANCH  27  28
ATOM     28  C   UNL     1       2.802  31.923  56.978  1.00  0.00    -0.000 C 
BRANCH  28  29
ATOM     29  C   UNL     1       3.867  32.803  57.654  1.00  0.00    -0.003 C 
ATOM     30  C   UNL     1       3.419  34.251  57.839  1.00  0.00     0.004 C 
ENDBRANCH  28  29
ENDBRANCH  27  28
ENDBRANCH  26  27
ENDBRANCH  25  26
ENDBRANCH  24  25
ENDBRANCH  23  24
ENDBRANCH  22  23
ENDBRANCH  21  22
ENDBRANCH  20  21
ENDBRANCH  19  20
ENDBRANCH  18  19
ENDBRANCH  17  18
ENDBRANCH   1  17
TORSDOF 26
ENDMDL
MODEL 8
REMARK VINA RESULT:    -4.686      1.311      2.478
REMARK INTER + INTRA:         -15.062
REMARK INTER:                 -12.273
REMARK INTRA:                  -2.789
REMARK UNBOUND:                -3.254
REMARK SMILES CCCCCCCCCCCCCCCCCCCCCCCCCCCC(=O)[O-]
REMARK SMILES IDX 15 1 16 2 17 3 18 4 19 5 20 6 21 7 22 8 23 9 24 10 25 11
REMARK SMILES IDX 26 12 27 13 28 14 29 15 30 16 14 17 13 18 12 19 11 20 10 21
REMARK SMILES IDX 9 22 8 23 7 24 6 25 5 26 4 27 3 28 2 29 1 30
REMARK H PARENT
REMARK Flexibility Score: inf
ROOT
ATOM      1  C   UNL     1      -2.274  28.540  56.657  1.00  0.00     0.000 C 
ENDROOT
BRANCH   1   2
ATOM      2  C   UNL     1      -2.515  29.791  57.517  1.00  0.00     0.000 C 
BRANCH   2   3
ATOM      3  C   UNL     1      -4.003  30.161  57.621  1.00  0.00     0.000 C 
BRANCH   3   4
ATOM      4  C   UNL     1      -4.226  31.521  58.300  1.00  0.00     0.000 C 
BRANCH   4   5
ATOM      5  C   UNL     1      -4.108  31.393  59.826  1.00  0.00     0.000 C 
BRANCH   5   6
ATOM      6  C   UNL     1      -2.971  32.246  60.415  1.00  0.00     0.000 C 
BRANCH   6   7
ATOM      7  C   UNL     1      -3.179  32.692  61.876  1.00  0.00     0.000 C 
BRANCH   7   8
ATOM      8  C   UNL     1      -1.904  33.154  62.609  1.00  0.00     0.000 C 
BRANCH   8   9
ATOM      9  C   UNL     1      -0.773  32.110  62.669  1.00  0.00     0.000 C 
BRANCH   9  10
ATOM     10  C   UNL     1      -0.758  31.322  63.986  1.00  0.00     0.000 C 
BRANCH  10  11
ATOM     11  C   UNL     1      -0.178  29.914  63.779  1.00  0.00     0.000 C 
BRANCH  11  12
ATOM     12  C   UNL     1       1.336  29.851  64.038  1.00  0.00     0.006 C 
BRANCH  12  13
ATOM     13  C   UNL     1       1.832  30.976  64.955  1.00  0.00     0.053 C 
BRANCH  13  14
ATOM     14  C   UNL     1       3.308  30.864  65.163  1.00  0.00     0.041 C 
ATOM     15  O   UNL     1       4.012  31.901  65.282  1.00  0.00    -0.550 OA
ATOM     16  O   UNL     1       3.901  29.613  65.277  1.00  0.00    -0.550 OA
ENDBRANCH  13  14
ENDBRANCH  12  13
ENDBRANCH  11  12
ENDBRANCH  10  11
ENDBRANCH   9  10
ENDBRANCH   8   9
ENDBRANCH   7   8
ENDBRANCH   6   7
ENDBRANCH   5   6
ENDBRANCH   4   5
ENDBRANCH   3   4
ENDBRANCH   2   3
ENDBRANCH   1   2
BRANCH   1  17
ATOM     17  C   UNL     1      -3.593  28.037  56.052  1.00  0.00     0.000 C 
BRANCH  17  18
ATOM     18  C   UNL     1      -3.473  26.620  55.458  1.00  0.00     0.000 C 
BRANCH  18  19
ATOM     19  C   UNL     1      -3.204  26.594  53.937  1.00  0.00     0.000 C 
BRANCH  19  20
ATOM     20  C   UNL     1      -1.789  26.116  53.561  1.00  0.00     0.000 C 
BRANCH  20  21
ATOM     21  C   UNL     1      -0.882  25.920  54.791  1.00  0.00     0.000 C 
BRANCH  21  22
ATOM     22  C   UNL     1       0.510  25.396  54.400  1.00  0.00    -0.000 C 
BRANCH  22  23
ATOM     23  C   UNL     1       1.618  26.033  55.264  1.00  0.00    -0.000 C 
BRANCH  23  24
ATOM     24  C   UNL     1       1.057  26.802  56.469  1.00  0.00    -0.000 C 
BRANCH  24  25
ATOM     25  C   UNL     1       2.092  26.981  57.594  1.00  0.00    -0.000 C 
BRANCH  25  26
ATOM     26  C   UNL     1       2.374  28.461  57.902  1.00  0.00    -0.000 C 
BRANCH  26  27
ATOM     27  C   UNL     1       1.114  29.335  57.791  1.00  0.00    -0.000 C 
BRANCH  27  28
ATOM     28  C   UNL     1       1.131  30.533  58.757  1.00  0.00    -0.000 C 
BRANCH  28  29
ATOM     29  C   UNL     1       1.700  30.229  60.153  1.00  0.00    -0.003 C 
ATOM     30  C   UNL     1       2.299  31.456  60.837  1.00  0.00     0.004 C 
ENDBRANCH  28  29
ENDBRANCH  27  28
ENDBRANCH  26  27
ENDBRANCH  25  26
ENDBRANCH  24  25
ENDBRANCH  23  24
ENDBRANCH  22  23
ENDBRANCH  21  22
ENDBRANCH  20  21
ENDBRANCH  19  20
ENDBRANCH  18  19
ENDBRANCH  17  18
ENDBRANCH   1  17
TORSDOF 26
ENDMDL
MODEL 9
REMARK VINA RESULT:    -4.522      3.364      8.145
REMARK INTER + INTRA:         -14.651
REMARK INTER:                 -11.577
REMARK INTRA:                  -3.074
REMARK UNBOUND:                -3.254
REMARK SMILES CCCCCCCCCCCCCCCCCCCCCCCCCCCC(=O)[O-]
REMARK SMILES IDX 15 1 16 2 17 3 18 4 19 5 20 6 21 7 22 8 23 9 24 10 25 11
REMARK SMILES IDX 26 12 27 13 28 14 29 15 30 16 14 17 13 18 12 19 11 20 10 21
REMARK SMILES IDX 9 22 8 23 7 24 6 25 5 26 4 27 3 28 2 29 1 30
REMARK H PARENT
REMARK Flexibility Score: inf
ROOT
ATOM      1  C   UNL     1      -2.261  32.861  61.079  1.00  0.00     0.000 C 
ENDROOT
BRANCH   1   2
ATOM      2  C   UNL     1      -2.792  32.024  59.904  1.00  0.00     0.000 C 
BRANCH   2   3
ATOM      3  C   UNL     1      -4.223  31.513  60.141  1.00  0.00     0.000 C 
BRANCH   3   4
ATOM      4  C   UNL     1      -4.615  30.389  59.170  1.00  0.00     0.000 C 
BRANCH   4   5
ATOM      5  C   UNL     1      -4.072  30.671  57.762  1.00  0.00     0.000 C 
BRANCH   5   6
ATOM      6  C   UNL     1      -3.367  29.456  57.134  1.00  0.00     0.000 C 
BRANCH   6   7
ATOM      7  C   UNL     1      -4.247  28.605  56.196  1.00  0.00     0.000 C 
BRANCH   7   8
ATOM      8  C   UNL     1      -3.747  27.166  55.955  1.00  0.00     0.000 C 
BRANCH   8   9
ATOM      9  C   UNL     1      -3.604  26.766  54.476  1.00  0.00     0.000 C 
BRANCH   9  10
ATOM     10  C   UNL     1      -2.165  26.384  54.098  1.00  0.00     0.000 C 
BRANCH  10  11
ATOM     11  C   UNL     1      -1.212  26.582  55.286  1.00  0.00     0.000 C 
BRANCH  11  12
ATOM     12  C   UNL     1       0.178  25.971  55.041  1.00  0.00     0.006 C 
BRANCH  12  13
ATOM     13  C   UNL     1       0.133  24.725  54.148  1.00  0.00     0.053 C 
BRANCH  13  14
ATOM     14  C   UNL     1       1.499  24.411  53.626  1.00  0.00     0.041 C 
ATOM     15  O   UNL     1       2.408  24.041  54.414  1.00  0.00    -0.550 OA
ATOM     16  O   UNL     1       1.754  24.478  52.262  1.00  0.00    -0.550 OA
ENDBRANCH  13  14
ENDBRANCH  12  13
ENDBRANCH  11  12
ENDBRANCH  10  11
ENDBRANCH   9  10
ENDBRANCH   8   9
ENDBRANCH   7   8
ENDBRANCH   6   7
ENDBRANCH   5   6
ENDBRANCH   4   5
ENDBRANCH   3   4
ENDBRANCH   2   3
ENDBRANCH   1   2
BRANCH   1  17
ATOM     17  C   UNL     1      -3.183  32.728  62.299  1.00  0.00     0.000 C 
BRANCH  17  18
ATOM     18  C   UNL     1      -2.483  32.068  63.504  1.00  0.00     0.000 C 
BRANCH  18  19
ATOM     19  C   UNL     1      -1.376  32.936  64.144  1.00  0.00     0.000 C 
BRANCH  19  20
ATOM     20  C   UNL     1       0.032  32.320  64.053  1.00  0.00     0.000 C 
BRANCH  20  21
ATOM     21  C   UNL     1       0.014  30.781  64.138  1.00  0.00     0.000 C 
BRANCH  21  22
ATOM     22  C   UNL     1       0.742  30.131  62.950  1.00  0.00    -0.000 C 
BRANCH  22  23
ATOM     23  C   UNL     1       0.645  31.002  61.682  1.00  0.00    -0.000 C 
BRANCH  23  24
ATOM     24  C   UNL     1       1.517  30.473  60.534  1.00  0.00    -0.000 C 
BRANCH  24  25
ATOM     25  C   UNL     1       2.621  31.462  60.121  1.00  0.00    -0.000 C 
BRANCH  25  26
ATOM     26  C   UNL     1       2.304  32.905  60.546  1.00  0.00    -0.000 C 
BRANCH  26  27
ATOM     27  C   UNL     1       3.432  33.534  61.380  1.00  0.00    -0.000 C 
BRANCH  27  28
ATOM     28  C   UNL     1       3.264  33.291  62.891  1.00  0.00    -0.000 C 
BRANCH  28  29
ATOM     29  C   UNL     1       4.429  32.540  63.557  1.00  0.00    -0.003 C 
ATOM     30  C   UNL     1       4.306  31.022  63.445  1.00  0.00     0.004 C 
ENDBRANCH  28  29
ENDBRANCH  27  28
ENDBRANCH  26  27
ENDBRANCH  25  26
ENDBRANCH  24  25
ENDBRANCH  23  24
ENDBRANCH  22  23
ENDBRANCH  21  22
ENDBRANCH  20  21
ENDBRANCH  19  20
ENDBRANCH  18  19
ENDBRANCH  17  18
ENDBRANCH   1  17
TORSDOF 26
ENDMDL
