MODEL 1
REMARK VINA RESULT:    -7.770      0.000      0.000
REMARK INTER + INTRA:         -12.732
REMARK INTER:                 -11.632
REMARK INTRA:                  -1.100
REMARK UNBOUND:                -1.100
REMARK SMILES C=C(CC[C@@H](C(=O)[O-])[C@H]1[C@@H](O)C[C@@]2(C)C3=C(CC[C@@]12C)[C@]1(C)CC[C@@H](OC(C)=O)C(C)(C)[C@@H]1CC3)C(C)C
REMARK SMILES IDX 4 1 5 2 6 3 7 4 8 5 9 6 10 7 19 8 12 9 13 10 18 11 20 12
REMARK SMILES IDX 14 13 15 14 17 15 16 16 35 17 21 18 34 19 33 20 23 21 22 22
REMARK SMILES IDX 30 23 24 24 25 25 31 26 32 27 11 28 26 30 27 31 29 32 28 33
REMARK SMILES IDX 3 34 2 35 1 36 36 37 37 38 38 39
REMARK H PARENT 11 29
REMARK Flexibility Score: inf
ROOT
ATOM      1  C   UNL     1     180.746 -19.597  25.975  1.00  0.00     0.014 C 
ENDROOT
BRANCH   1   2
ATOM      2  C   UNL     1     182.010 -20.284  26.577  1.00  0.00     0.042 C 
BRANCH   2   3
ATOM      3  C   UNL     1     183.234 -19.723  25.902  1.00  0.00     0.045 C 
ATOM      4  O   UNL     1     183.424 -18.480  25.862  1.00  0.00    -0.550 OA
ATOM      5  O   UNL     1     184.162 -20.574  25.313  1.00  0.00    -0.550 OA
ENDBRANCH   2   3
BRANCH   2   6
ATOM      6  C   UNL     1     182.090 -20.101  28.139  1.00  0.00     0.033 C 
ATOM      7  C   UNL     1     180.762 -20.407  28.865  1.00  0.00     0.119 C 
ATOM      8  C   UNL     1     183.201 -20.870  28.947  1.00  0.00    -0.017 C 
ATOM      9  C   UNL     1     181.109 -20.825  30.296  1.00  0.00     0.043 C 
ATOM     10  C   UNL     1     182.655 -20.828  30.434  1.00  0.00    -0.003 C 
ATOM     11  C   UNL     1     183.427 -22.347  28.451  1.00  0.00     0.012 C 
ATOM     12  C   UNL     1     184.577 -20.147  28.829  1.00  0.00     0.013 C 
ATOM     13  C   UNL     1     183.029 -19.497  31.160  1.00  0.00     0.017 C 
ATOM     14  C   UNL     1     183.085 -22.079  31.245  1.00  0.00    -0.064 C 
ATOM     15  C   UNL     1     182.630 -23.405  29.211  1.00  0.00     0.032 C 
ATOM     16  C   UNL     1     182.960 -23.323  30.694  1.00  0.00    -0.064 C 
ATOM     17  C   UNL     1     183.626 -21.990  32.662  1.00  0.00     0.032 C 
ATOM     18  C   UNL     1     182.983 -24.578  31.620  1.00  0.00    -0.008 C 
ATOM     19  C   UNL     1     184.722 -23.032  32.824  1.00  0.00     0.009 C 
ATOM     20  C   UNL     1     184.174 -24.492  32.692  1.00  0.00     0.009 C 
ATOM     21  C   UNL     1     181.570 -24.609  32.280  1.00  0.00     0.015 C 
ATOM     22  C   UNL     1     183.160 -25.870  30.778  1.00  0.00     0.016 C 
ATOM     23  C   UNL     1     183.938 -25.273  34.078  1.00  0.00     0.005 C 
ATOM     24  C   UNL     1     181.457 -25.541  33.476  1.00  0.00     0.047 C 
ATOM     25  C   UNL     1     182.460 -25.144  34.560  1.00  0.00     0.182 C 
ATOM     26  C   UNL     1     184.327 -26.778  33.932  1.00  0.00     0.015 C 
ATOM     27  C   UNL     1     184.854 -24.735  35.213  1.00  0.00     0.015 C 
BRANCH   7  28
ATOM     28  O   UNL     1     180.051 -21.433  28.218  1.00  0.00    -0.393 OA
ATOM     29  H   UNL     1     179.754 -21.069  27.343  1.00  0.00     0.210 HD
ENDBRANCH   7  28
BRANCH  25  30
ATOM     30  O   UNL     1     182.220 -25.964  35.711  1.00  0.00    -0.462 OA
BRANCH  30  31
ATOM     31  C   UNL     1     181.980 -25.462  36.995  1.00  0.00     0.302 C 
ATOM     32  O   UNL     1     181.086 -24.596  37.201  1.00  0.00    -0.253 OA
ATOM     33  C   UNL     1     182.836 -25.917  38.128  1.00  0.00     0.139 C 
ENDBRANCH  30  31
ENDBRANCH  25  30
ENDBRANCH   2   6
ENDBRANCH   1   2
BRANCH   1  34
ATOM     34  C   UNL     1     180.377 -20.109  24.573  1.00  0.00     0.031 C 
BRANCH  34  35
ATOM     35  C   UNL     1     180.238 -21.614  24.510  1.00  0.00    -0.075 C 
ATOM     36  C   UNL     1     179.119 -22.198  24.975  1.00  0.00     0.008 C 
BRANCH  35  37
ATOM     37  C   UNL     1     181.340 -22.437  23.858  1.00  0.00     0.008 C 
ATOM     38  C   UNL     1     181.972 -21.676  22.684  1.00  0.00     0.012 C 
ATOM     39  C   UNL     1     180.838 -23.816  23.410  1.00  0.00     0.012 C 
ENDBRANCH  35  37
ENDBRANCH  34  35
ENDBRANCH   1  34
TORSDOF 9
ENDMDL
MODEL 2
REMARK VINA RESULT:    -7.577      1.338      1.897
REMARK INTER + INTRA:         -12.442
REMARK INTER:                 -12.032
REMARK INTRA:                  -0.410
REMARK UNBOUND:                -1.100
REMARK SMILES C=C(CC[C@@H](C(=O)[O-])[C@H]1[C@@H](O)C[C@@]2(C)C3=C(CC[C@@]12C)[C@]1(C)CC[C@@H](OC(C)=O)C(C)(C)[C@@H]1CC3)C(C)C
REMARK SMILES IDX 4 1 5 2 6 3 7 4 8 5 9 6 10 7 19 8 12 9 13 10 18 11 20 12
REMARK SMILES IDX 14 13 15 14 17 15 16 16 35 17 21 18 34 19 33 20 23 21 22 22
REMARK SMILES IDX 30 23 24 24 25 25 31 26 32 27 11 28 26 30 27 31 29 32 28 33
REMARK SMILES IDX 3 34 2 35 1 36 36 37 37 38 38 39
REMARK H PARENT 11 29
REMARK Flexibility Score: inf
ROOT
ATOM      1  C   UNL     1     181.649 -23.080  25.756  1.00  0.00     0.014 C 
ENDROOT
BRANCH   1   2
ATOM      2  C   UNL     1     182.871 -22.465  26.504  1.00  0.00     0.042 C 
BRANCH   2   3
ATOM      3  C   UNL     1     183.467 -21.379  25.647  1.00  0.00     0.045 C 
ATOM      4  O   UNL     1     183.212 -20.170  25.884  1.00  0.00    -0.550 OA
ATOM      5  O   UNL     1     184.301 -21.704  24.583  1.00  0.00    -0.550 OA
ENDBRANCH   2   3
BRANCH   2   6
ATOM      6  C   UNL     1     182.473 -21.913  27.924  1.00  0.00     0.033 C 
ATOM      7  C   UNL     1     181.141 -22.484  28.457  1.00  0.00     0.119 C 
ATOM      8  C   UNL     1     183.496 -22.043  29.114  1.00  0.00    -0.017 C 
ATOM      9  C   UNL     1     181.194 -22.416  29.985  1.00  0.00     0.043 C 
ATOM     10  C   UNL     1     182.582 -21.853  30.394  1.00  0.00    -0.003 C 
ATOM     11  C   UNL     1     184.255 -23.423  29.139  1.00  0.00     0.012 C 
ATOM     12  C   UNL     1     184.591 -20.937  29.031  1.00  0.00     0.013 C 
ATOM     13  C   UNL     1     182.356 -20.346  30.735  1.00  0.00     0.017 C 
ATOM     14  C   UNL     1     183.113 -22.657  31.610  1.00  0.00    -0.064 C 
ATOM     15  C   UNL     1     183.615 -24.486  30.029  1.00  0.00     0.032 C 
ATOM     16  C   UNL     1     183.496 -23.958  31.450  1.00  0.00    -0.064 C 
ATOM     17  C   UNL     1     183.204 -22.064  33.006  1.00  0.00     0.032 C 
ATOM     18  C   UNL     1     183.623 -24.879  32.703  1.00  0.00    -0.008 C 
ATOM     19  C   UNL     1     184.464 -22.596  33.671  1.00  0.00     0.009 C 
ATOM     20  C   UNL     1     184.407 -24.143  33.894  1.00  0.00     0.009 C 
ATOM     21  C   UNL     1     182.153 -25.245  33.075  1.00  0.00     0.015 C 
ATOM     22  C   UNL     1     184.377 -26.187  32.340  1.00  0.00     0.016 C 
ATOM     23  C   UNL     1     184.038 -24.618  35.386  1.00  0.00     0.005 C 
ATOM     24  C   UNL     1     181.991 -25.857  34.457  1.00  0.00     0.047 C 
ATOM     25  C   UNL     1     182.510 -24.901  35.531  1.00  0.00     0.182 C 
ATOM     26  C   UNL     1     184.860 -25.887  35.777  1.00  0.00     0.015 C 
ATOM     27  C   UNL     1     184.424 -23.552  36.449  1.00  0.00     0.015 C 
BRANCH   7  28
ATOM     28  O   UNL     1     180.950 -23.812  28.036  1.00  0.00    -0.393 OA
ATOM     29  H   UNL     1     180.840 -24.360  28.858  1.00  0.00     0.210 HD
ENDBRANCH   7  28
BRANCH  25  30
ATOM     30  O   UNL     1     182.211 -25.466  36.814  1.00  0.00    -0.462 OA
BRANCH  30  31
ATOM     31  C   UNL     1     181.300 -24.913  37.722  1.00  0.00     0.302 C 
ATOM     32  O   UNL     1     181.056 -25.473  38.825  1.00  0.00    -0.253 OA
ATOM     33  C   UNL     1     180.565 -23.670  37.350  1.00  0.00     0.139 C 
ENDBRANCH  30  31
ENDBRANCH  25  30
ENDBRANCH   2   6
ENDBRANCH   1   2
BRANCH   1  34
ATOM     34  C   UNL     1     181.316 -22.370  24.434  1.00  0.00     0.031 C 
BRANCH  34  35
ATOM     35  C   UNL     1     180.025 -21.584  24.493  1.00  0.00    -0.075 C 
ATOM     36  C   UNL     1     178.927 -22.148  25.027  1.00  0.00     0.008 C 
BRANCH  35  37
ATOM     37  C   UNL     1     180.008 -20.141  24.007  1.00  0.00     0.008 C 
ATOM     38  C   UNL     1     181.221 -19.852  23.109  1.00  0.00     0.012 C 
ATOM     39  C   UNL     1     179.938 -19.145  25.171  1.00  0.00     0.012 C 
ENDBRANCH  35  37
ENDBRANCH  34  35
ENDBRANCH   1  34
TORSDOF 9
ENDMDL
MODEL 3
REMARK VINA RESULT:    -7.436      6.535     10.386
REMARK INTER + INTRA:         -12.232
REMARK INTER:                 -11.441
REMARK INTRA:                  -0.791
REMARK UNBOUND:                -1.100
REMARK SMILES C=C(CC[C@@H](C(=O)[O-])[C@H]1[C@@H](O)C[C@@]2(C)C3=C(CC[C@@]12C)[C@]1(C)CC[C@@H](OC(C)=O)C(C)(C)[C@@H]1CC3)C(C)C
REMARK SMILES IDX 4 1 5 2 6 3 7 4 8 5 9 6 10 7 19 8 12 9 13 10 18 11 20 12
REMARK SMILES IDX 14 13 15 14 17 15 16 16 35 17 21 18 34 19 33 20 23 21 22 22
REMARK SMILES IDX 30 23 24 24 25 25 31 26 32 27 11 28 26 30 27 31 29 32 28 33
REMARK SMILES IDX 3 34 2 35 1 36 36 37 37 38 38 39
REMARK H PARENT 11 29
REMARK Flexibility Score: inf
ROOT
ATOM      1  C   UNL     1     183.118 -23.945  36.827  1.00  0.00     0.014 C 
ENDROOT
BRANCH   1   2
ATOM      2  C   UNL     1     183.015 -24.109  38.374  1.00  0.00     0.042 C 
BRANCH   2   3
ATOM      3  C   UNL     1     183.231 -22.764  39.018  1.00  0.00     0.045 C 
ATOM      4  O   UNL     1     183.147 -21.711  38.335  1.00  0.00    -0.550 OA
ATOM      5  O   UNL     1     183.529 -22.676  40.373  1.00  0.00    -0.550 OA
ENDBRANCH   2   3
BRANCH   2   6
ATOM      6  C   UNL     1     181.635 -24.731  38.808  1.00  0.00     0.033 C 
ATOM      7  C   UNL     1     180.415 -23.892  38.368  1.00  0.00     0.119 C 
ATOM      8  C   UNL     1     181.298 -26.214  38.402  1.00  0.00    -0.017 C 
ATOM      9  C   UNL     1     179.224 -24.846  38.252  1.00  0.00     0.043 C 
ATOM     10  C   UNL     1     179.723 -26.281  38.567  1.00  0.00    -0.003 C 
ATOM     11  C   UNL     1     181.746 -26.579  36.937  1.00  0.00     0.012 C 
ATOM     12  C   UNL     1     182.010 -27.227  39.348  1.00  0.00     0.013 C 
ATOM     13  C   UNL     1     179.300 -26.575  40.041  1.00  0.00     0.017 C 
ATOM     14  C   UNL     1     179.077 -27.272  37.563  1.00  0.00    -0.064 C 
ATOM     15  C   UNL     1     180.662 -26.408  35.876  1.00  0.00     0.032 C 
ATOM     16  C   UNL     1     179.448 -27.246  36.248  1.00  0.00    -0.064 C 
ATOM     17  C   UNL     1     178.010 -28.272  37.972  1.00  0.00     0.032 C 
ATOM     18  C   UNL     1     178.531 -27.918  35.180  1.00  0.00    -0.008 C 
ATOM     19  C   UNL     1     178.238 -29.561  37.198  1.00  0.00     0.009 C 
ATOM     20  C   UNL     1     178.041 -29.369  35.658  1.00  0.00     0.009 C 
ATOM     21  C   UNL     1     177.355 -26.913  34.980  1.00  0.00     0.015 C 
ATOM     22  C   UNL     1     179.287 -28.064  33.831  1.00  0.00     0.016 C 
ATOM     23  C   UNL     1     176.631 -29.871  35.070  1.00  0.00     0.005 C 
ATOM     24  C   UNL     1     176.158 -27.488  34.240  1.00  0.00     0.047 C 
ATOM     25  C   UNL     1     175.601 -28.702  34.986  1.00  0.00     0.182 C 
ATOM     26  C   UNL     1     176.824 -30.522  33.663  1.00  0.00     0.015 C 
ATOM     27  C   UNL     1     176.002 -30.993  35.943  1.00  0.00     0.015 C 
BRANCH   7  28
ATOM     28  O   UNL     1     180.650 -23.256  37.137  1.00  0.00    -0.393 OA
ATOM     29  H   UNL     1     180.309 -22.326  37.225  1.00  0.00     0.210 HD
ENDBRANCH   7  28
BRANCH  25  30
ATOM     30  O   UNL     1     174.401 -29.120  34.322  1.00  0.00    -0.462 OA
BRANCH  30  31
ATOM     31  C   UNL     1     173.111 -28.893  34.818  1.00  0.00     0.302 C 
ATOM     32  O   UNL     1     172.140 -28.684  34.041  1.00  0.00    -0.253 OA
ATOM     33  C   UNL     1     172.896 -28.843  36.293  1.00  0.00     0.139 C 
ENDBRANCH  30  31
ENDBRANCH  25  30
ENDBRANCH   2   6
ENDBRANCH   1   2
BRANCH   1  34
ATOM     34  C   UNL     1     184.528 -24.205  36.273  1.00  0.00     0.031 C 
BRANCH  34  35
ATOM     35  C   UNL     1     184.608 -25.451  35.417  1.00  0.00    -0.075 C 
ATOM     36  C   UNL     1     185.301 -26.516  35.857  1.00  0.00     0.008 C 
BRANCH  35  37
ATOM     37  C   UNL     1     183.846 -25.500  34.101  1.00  0.00     0.008 C 
ATOM     38  C   UNL     1     184.033 -26.857  33.408  1.00  0.00     0.012 C 
ATOM     39  C   UNL     1     184.241 -24.349  33.166  1.00  0.00     0.012 C 
ENDBRANCH  35  37
ENDBRANCH  34  35
ENDBRANCH   1  34
TORSDOF 9
ENDMDL
MODEL 4
REMARK VINA RESULT:    -7.342      1.988      9.200
REMARK INTER + INTRA:         -12.091
REMARK INTER:                 -11.250
REMARK INTRA:                  -0.841
REMARK UNBOUND:                -1.100
REMARK SMILES C=C(CC[C@@H](C(=O)[O-])[C@H]1[C@@H](O)C[C@@]2(C)C3=C(CC[C@@]12C)[C@]1(C)CC[C@@H](OC(C)=O)C(C)(C)[C@@H]1CC3)C(C)C
REMARK SMILES IDX 4 1 5 2 6 3 7 4 8 5 9 6 10 7 19 8 12 9 13 10 18 11 20 12
REMARK SMILES IDX 14 13 15 14 17 15 16 16 35 17 21 18 34 19 33 20 23 21 22 22
REMARK SMILES IDX 30 23 24 24 25 25 31 26 32 27 11 28 26 30 27 31 29 32 28 33
REMARK SMILES IDX 3 34 2 35 1 36 36 37 37 38 38 39
REMARK H PARENT 11 29
REMARK Flexibility Score: inf
ROOT
ATOM      1  C   UNL     1     184.684 -23.009  34.969  1.00  0.00     0.014 C 
ENDROOT
BRANCH   1   2
ATOM      2  C   UNL     1     183.305 -22.570  34.389  1.00  0.00     0.042 C 
BRANCH   2   3
ATOM      3  C   UNL     1     182.441 -22.072  35.518  1.00  0.00     0.045 C 
ATOM      4  O   UNL     1     182.830 -21.121  36.244  1.00  0.00    -0.550 OA
ATOM      5  O   UNL     1     181.208 -22.663  35.771  1.00  0.00    -0.550 OA
ENDBRANCH   2   3
BRANCH   2   6
ATOM      6  C   UNL     1     183.461 -21.475  33.269  1.00  0.00     0.033 C 
ATOM      7  C   UNL     1     184.559 -21.803  32.234  1.00  0.00     0.119 C 
ATOM      8  C   UNL     1     182.199 -21.052  32.428  1.00  0.00    -0.017 C 
ATOM      9  C   UNL     1     184.190 -21.085  30.933  1.00  0.00     0.043 C 
ATOM     10  C   UNL     1     182.835 -20.359  31.152  1.00  0.00    -0.003 C 
ATOM     11  C   UNL     1     181.274 -22.263  32.032  1.00  0.00     0.012 C 
ATOM     12  C   UNL     1     181.306 -20.055  33.226  1.00  0.00     0.013 C 
ATOM     13  C   UNL     1     183.183 -18.859  31.411  1.00  0.00     0.017 C 
ATOM     14  C   UNL     1     181.953 -20.548  29.890  1.00  0.00    -0.064 C 
ATOM     15  C   UNL     1     181.560 -22.862  30.657  1.00  0.00     0.032 C 
ATOM     16  C   UNL     1     181.442 -21.780  29.595  1.00  0.00    -0.064 C 
ATOM     17  C   UNL     1     181.646 -19.412  28.929  1.00  0.00     0.032 C 
ATOM     18  C   UNL     1     180.928 -22.071  28.151  1.00  0.00    -0.008 C 
ATOM     19  C   UNL     1     180.213 -19.568  28.444  1.00  0.00     0.009 C 
ATOM     20  C   UNL     1     180.013 -20.872  27.603  1.00  0.00     0.009 C 
ATOM     21  C   UNL     1     182.222 -22.286  27.307  1.00  0.00     0.015 C 
ATOM     22  C   UNL     1     180.100 -23.385  28.125  1.00  0.00     0.016 C 
ATOM     23  C   UNL     1     179.988 -20.673  26.007  1.00  0.00     0.005 C 
ATOM     24  C   UNL     1     182.001 -22.252  25.803  1.00  0.00     0.047 C 
ATOM     25  C   UNL     1     181.397 -20.912  25.381  1.00  0.00     0.182 C 
ATOM     26  C   UNL     1     178.938 -21.626  25.352  1.00  0.00     0.015 C 
ATOM     27  C   UNL     1     179.529 -19.242  25.606  1.00  0.00     0.015 C 
BRANCH   7  28
ATOM     28  O   UNL     1     184.655 -23.189  32.013  1.00  0.00    -0.393 OA
ATOM     29  H   UNL     1     183.739 -23.509  31.799  1.00  0.00     0.210 HD
ENDBRANCH   7  28
BRANCH  25  30
ATOM     30  O   UNL     1     181.335 -20.883  23.949  1.00  0.00    -0.462 OA
BRANCH  30  31
ATOM     31  C   UNL     1     182.361 -21.338  23.111  1.00  0.00     0.302 C 
ATOM     32  O   UNL     1     183.531 -20.877  23.202  1.00  0.00    -0.253 OA
ATOM     33  C   UNL     1     182.047 -22.344  22.056  1.00  0.00     0.139 C 
ENDBRANCH  30  31
ENDBRANCH  25  30
ENDBRANCH   2   6
ENDBRANCH   1   2
BRANCH   1  34
ATOM     34  C   UNL     1     184.586 -24.150  35.995  1.00  0.00     0.031 C 
BRANCH  34  35
ATOM     35  C   UNL     1     184.580 -25.522  35.355  1.00  0.00    -0.075 C 
ATOM     36  C   UNL     1     185.326 -26.506  35.887  1.00  0.00     0.008 C 
BRANCH  35  37
ATOM     37  C   UNL     1     183.675 -25.781  34.159  1.00  0.00     0.008 C 
ATOM     38  C   UNL     1     182.239 -26.081  34.613  1.00  0.00     0.012 C 
ATOM     39  C   UNL     1     184.214 -26.906  33.266  1.00  0.00     0.012 C 
ENDBRANCH  35  37
ENDBRANCH  34  35
ENDBRANCH   1  34
TORSDOF 9
ENDMDL
MODEL 5
REMARK VINA RESULT:    -7.171      1.403      1.769
REMARK INTER + INTRA:         -11.835
REMARK INTER:                 -10.940
REMARK INTRA:                  -0.895
REMARK UNBOUND:                -1.100
REMARK SMILES C=C(CC[C@@H](C(=O)[O-])[C@H]1[C@@H](O)C[C@@]2(C)C3=C(CC[C@@]12C)[C@]1(C)CC[C@@H](OC(C)=O)C(C)(C)[C@@H]1CC3)C(C)C
REMARK SMILES IDX 4 1 5 2 6 3 7 4 8 5 9 6 10 7 19 8 12 9 13 10 18 11 20 12
REMARK SMILES IDX 14 13 15 14 17 15 16 16 35 17 21 18 34 19 33 20 23 21 22 22
REMARK SMILES IDX 30 23 24 24 25 25 31 26 32 27 11 28 26 30 27 31 29 32 28 33
REMARK SMILES IDX 3 34 2 35 1 36 36 37 37 38 38 39
REMARK H PARENT 11 29
REMARK Flexibility Score: inf
ROOT
ATOM      1  C   UNL     1     181.087 -21.312  26.531  1.00  0.00     0.014 C 
ENDROOT
BRANCH   1   2
ATOM      2  C   UNL     1     182.332 -21.432  27.461  1.00  0.00     0.042 C 
BRANCH   2   3
ATOM      3  C   UNL     1     183.378 -20.450  26.999  1.00  0.00     0.045 C 
ATOM      4  O   UNL     1     184.560 -20.830  26.795  1.00  0.00    -0.550 OA
ATOM      5  O   UNL     1     183.046 -19.115  26.798  1.00  0.00    -0.550 OA
ENDBRANCH   2   3
BRANCH   2   6
ATOM      6  C   UNL     1     181.962 -21.195  28.973  1.00  0.00     0.033 C 
ATOM      7  C   UNL     1     180.699 -21.960  29.425  1.00  0.00     0.119 C 
ATOM      8  C   UNL     1     183.044 -21.472  30.082  1.00  0.00    -0.017 C 
ATOM      9  C   UNL     1     180.816 -22.183  30.935  1.00  0.00     0.043 C 
ATOM     10  C   UNL     1     182.178 -21.604  31.403  1.00  0.00    -0.003 C 
ATOM     11  C   UNL     1     183.898 -22.769  29.814  1.00  0.00     0.012 C 
ATOM     12  C   UNL     1     184.054 -20.290  30.183  1.00  0.00     0.013 C 
ATOM     13  C   UNL     1     181.863 -20.213  32.038  1.00  0.00     0.017 C 
ATOM     14  C   UNL     1     182.819 -22.583  32.421  1.00  0.00    -0.064 C 
ATOM     15  C   UNL     1     183.375 -24.030  30.498  1.00  0.00     0.032 C 
ATOM     16  C   UNL     1     183.284 -23.796  31.998  1.00  0.00    -0.064 C 
ATOM     17  C   UNL     1     182.932 -22.265  33.902  1.00  0.00     0.032 C 
ATOM     18  C   UNL     1     183.532 -24.928  33.042  1.00  0.00    -0.008 C 
ATOM     19  C   UNL     1     184.254 -22.816  34.412  1.00  0.00     0.009 C 
ATOM     20  C   UNL     1     184.316 -24.377  34.329  1.00  0.00     0.009 C 
ATOM     21  C   UNL     1     182.109 -25.471  33.381  1.00  0.00     0.015 C 
ATOM     22  C   UNL     1     184.358 -26.079  32.407  1.00  0.00     0.016 C 
ATOM     23  C   UNL     1     184.048 -25.157  35.710  1.00  0.00     0.005 C 
ATOM     24  C   UNL     1     182.053 -26.349  34.621  1.00  0.00     0.047 C 
ATOM     25  C   UNL     1     182.553 -25.580  35.845  1.00  0.00     0.182 C 
ATOM     26  C   UNL     1     184.975 -26.410  35.820  1.00  0.00     0.015 C 
ATOM     27  C   UNL     1     184.408 -24.288  36.949  1.00  0.00     0.015 C 
BRANCH   7  28
ATOM     28  O   UNL     1     180.582 -23.193  28.759  1.00  0.00    -0.393 OA
ATOM     29  H   UNL     1     180.089 -23.017  27.914  1.00  0.00     0.210 HD
ENDBRANCH   7  28
BRANCH  25  30
ATOM     30  O   UNL     1     182.353 -26.403  37.001  1.00  0.00    -0.462 OA
BRANCH  30  31
ATOM     31  C   UNL     1     181.400 -26.143  37.993  1.00  0.00     0.302 C 
ATOM     32  O   UNL     1     180.165 -26.196  37.742  1.00  0.00    -0.253 OA
ATOM     33  C   UNL     1     181.856 -25.740  39.354  1.00  0.00     0.139 C 
ENDBRANCH  30  31
ENDBRANCH  25  30
ENDBRANCH   2   6
ENDBRANCH   1   2
BRANCH   1  34
ATOM     34  C   UNL     1     181.231 -22.081  25.207  1.00  0.00     0.031 C 
BRANCH  34  35
ATOM     35  C   UNL     1     181.145 -21.185  23.990  1.00  0.00    -0.075 C 
ATOM     36  C   UNL     1     180.170 -20.262  23.912  1.00  0.00     0.008 C 
BRANCH  35  37
ATOM     37  C   UNL     1     182.207 -21.301  22.906  1.00  0.00     0.008 C 
ATOM     38  C   UNL     1     181.933 -22.508  21.997  1.00  0.00     0.012 C 
ATOM     39  C   UNL     1     183.622 -21.367  23.493  1.00  0.00     0.012 C 
ENDBRANCH  35  37
ENDBRANCH  34  35
ENDBRANCH   1  34
TORSDOF 9
ENDMDL
MODEL 6
REMARK VINA RESULT:    -7.164      2.331      9.819
REMARK INTER + INTRA:         -11.823
REMARK INTER:                 -11.469
REMARK INTRA:                  -0.355
REMARK UNBOUND:                -1.100
REMARK SMILES C=C(CC[C@@H](C(=O)[O-])[C@H]1[C@@H](O)C[C@@]2(C)C3=C(CC[C@@]12C)[C@]1(C)CC[C@@H](OC(C)=O)C(C)(C)[C@@H]1CC3)C(C)C
REMARK SMILES IDX 4 1 5 2 6 3 7 4 8 5 9 6 10 7 19 8 12 9 13 10 18 11 20 12
REMARK SMILES IDX 14 13 15 14 17 15 16 16 35 17 21 18 34 19 33 20 23 21 22 22
REMARK SMILES IDX 30 23 24 24 25 25 31 26 32 27 11 28 26 30 27 31 29 32 28 33
REMARK SMILES IDX 3 34 2 35 1 36 36 37 37 38 38 39
REMARK H PARENT 11 29
REMARK Flexibility Score: inf
ROOT
ATOM      1  C   UNL     1     184.516 -23.408  36.322  1.00  0.00     0.014 C 
ENDROOT
BRANCH   1   2
ATOM      2  C   UNL     1     184.211 -24.217  35.025  1.00  0.00     0.042 C 
BRANCH   2   3
ATOM      3  C   UNL     1     184.072 -25.674  35.384  1.00  0.00     0.045 C 
ATOM      4  O   UNL     1     184.986 -26.489  35.098  1.00  0.00    -0.550 OA
ATOM      5  O   UNL     1     182.929 -26.130  36.032  1.00  0.00    -0.550 OA
ENDBRANCH   2   3
BRANCH   2   6
ATOM      6  C   UNL     1     182.922 -23.689  34.293  1.00  0.00     0.033 C 
ATOM      7  C   UNL     1     182.822 -22.148  34.254  1.00  0.00     0.119 C 
ATOM      8  C   UNL     1     182.620 -24.169  32.824  1.00  0.00    -0.017 C 
ATOM      9  C   UNL     1     181.970 -21.776  33.038  1.00  0.00     0.043 C 
ATOM     10  C   UNL     1     181.591 -23.086  32.296  1.00  0.00    -0.003 C 
ATOM     11  C   UNL     1     183.904 -24.244  31.914  1.00  0.00     0.012 C 
ATOM     12  C   UNL     1     181.992 -25.595  32.821  1.00  0.00     0.013 C 
ATOM     13  C   UNL     1     180.125 -23.415  32.720  1.00  0.00     0.017 C 
ATOM     14  C   UNL     1     181.723 -22.856  30.768  1.00  0.00    -0.064 C 
ATOM     15  C   UNL     1     184.170 -22.993  31.081  1.00  0.00     0.032 C 
ATOM     16  C   UNL     1     182.959 -22.694  30.209  1.00  0.00    -0.064 C 
ATOM     17  C   UNL     1     180.519 -22.773  29.846  1.00  0.00     0.032 C 
ATOM     18  C   UNL     1     183.081 -22.056  28.791  1.00  0.00    -0.008 C 
ATOM     19  C   UNL     1     180.876 -23.444  28.529  1.00  0.00     0.009 C 
ATOM     20  C   UNL     1     182.017 -22.689  27.770  1.00  0.00     0.009 C 
ATOM     21  C   UNL     1     182.868 -20.529  29.025  1.00  0.00     0.015 C 
ATOM     22  C   UNL     1     184.510 -22.271  28.221  1.00  0.00     0.016 C 
ATOM     23  C   UNL     1     181.539 -21.738  26.564  1.00  0.00     0.005 C 
ATOM     24  C   UNL     1     182.606 -19.732  27.757  1.00  0.00     0.047 C 
ATOM     25  C   UNL     1     181.365 -20.262  27.037  1.00  0.00     0.182 C 
ATOM     26  C   UNL     1     182.552 -21.808  25.377  1.00  0.00     0.015 C 
ATOM     27  C   UNL     1     180.185 -22.203  25.958  1.00  0.00     0.015 C 
BRANCH   7  28
ATOM     28  O   UNL     1     184.094 -21.557  34.156  1.00  0.00    -0.393 OA
ATOM     29  H   UNL     1     183.947 -20.588  33.991  1.00  0.00     0.210 HD
ENDBRANCH   7  28
BRANCH  25  30
ATOM     30  O   UNL     1     181.088 -19.395  25.930  1.00  0.00    -0.462 OA
BRANCH  30  31
ATOM     31  C   UNL     1     179.945 -18.593  25.830  1.00  0.00     0.302 C 
ATOM     32  O   UNL     1     178.875 -19.040  25.335  1.00  0.00    -0.253 OA
ATOM     33  C   UNL     1     180.015 -17.168  26.263  1.00  0.00     0.139 C 
ENDBRANCH  30  31
ENDBRANCH  25  30
ENDBRANCH   2   6
ENDBRANCH   1   2
BRANCH   1  34
ATOM     34  C   UNL     1     183.339 -23.362  37.310  1.00  0.00     0.031 C 
BRANCH  34  35
ATOM     35  C   UNL     1     183.348 -22.127  38.185  1.00  0.00    -0.075 C 
ATOM     36  C   UNL     1     183.527 -20.918  37.625  1.00  0.00     0.008 C 
BRANCH  35  37
ATOM     37  C   UNL     1     183.087 -22.271  39.677  1.00  0.00     0.008 C 
ATOM     38  C   UNL     1     184.209 -21.615  40.496  1.00  0.00     0.012 C 
ATOM     39  C   UNL     1     182.894 -23.736  40.087  1.00  0.00     0.012 C 
ENDBRANCH  35  37
ENDBRANCH  34  35
ENDBRANCH   1  34
TORSDOF 9
ENDMDL
MODEL 7
REMARK VINA RESULT:    -7.157      2.329     10.201
REMARK INTER + INTRA:         -11.813
REMARK INTER:                 -11.535
REMARK INTRA:                  -0.278
REMARK UNBOUND:                -1.100
REMARK SMILES C=C(CC[C@@H](C(=O)[O-])[C@H]1[C@@H](O)C[C@@]2(C)C3=C(CC[C@@]12C)[C@]1(C)CC[C@@H](OC(C)=O)C(C)(C)[C@@H]1CC3)C(C)C
REMARK SMILES IDX 4 1 5 2 6 3 7 4 8 5 9 6 10 7 19 8 12 9 13 10 18 11 20 12
REMARK SMILES IDX 14 13 15 14 17 15 16 16 35 17 21 18 34 19 33 20 23 21 22 22
REMARK SMILES IDX 30 23 24 24 25 25 31 26 32 27 11 28 26 30 27 31 29 32 28 33
REMARK SMILES IDX 3 34 2 35 1 36 36 37 37 38 38 39
REMARK H PARENT 11 29
REMARK Flexibility Score: inf
ROOT
ATOM      1  C   UNL     1     182.316 -24.466  38.673  1.00  0.00     0.014 C 
ENDROOT
BRANCH   1   2
ATOM      2  C   UNL     1     182.860 -25.878  38.300  1.00  0.00     0.042 C 
BRANCH   2   3
ATOM      3  C   UNL     1     182.124 -26.911  39.113  1.00  0.00     0.045 C 
ATOM      4  O   UNL     1     181.172 -27.558  38.606  1.00  0.00    -0.550 OA
ATOM      5  O   UNL     1     182.487 -27.154  40.432  1.00  0.00    -0.550 OA
ENDBRANCH   2   3
BRANCH   2   6
ATOM      6  C   UNL     1     182.728 -26.171  36.759  1.00  0.00     0.033 C 
ATOM      7  C   UNL     1     181.302 -25.951  36.209  1.00  0.00     0.119 C 
ATOM      8  C   UNL     1     183.688 -25.433  35.751  1.00  0.00    -0.017 C 
ATOM      9  C   UNL     1     181.431 -25.628  34.719  1.00  0.00     0.043 C 
ATOM     10  C   UNL     1     182.942 -25.595  34.362  1.00  0.00    -0.003 C 
ATOM     11  C   UNL     1     183.928 -23.919  36.110  1.00  0.00     0.012 C 
ATOM     12  C   UNL     1     185.091 -26.109  35.721  1.00  0.00     0.013 C 
ATOM     13  C   UNL     1     183.258 -26.964  33.683  1.00  0.00     0.017 C 
ATOM     14  C   UNL     1     183.210 -24.394  33.417  1.00  0.00    -0.064 C 
ATOM     15  C   UNL     1     182.996 -22.939  35.401  1.00  0.00     0.032 C 
ATOM     16  C   UNL     1     183.118 -23.118  33.895  1.00  0.00    -0.064 C 
ATOM     17  C   UNL     1     183.550 -24.570  31.947  1.00  0.00     0.032 C 
ATOM     18  C   UNL     1     182.967 -21.932  32.893  1.00  0.00    -0.008 C 
ATOM     19  C   UNL     1     184.575 -23.515  31.562  1.00  0.00     0.009 C 
ATOM     20  C   UNL     1     184.000 -22.064  31.671  1.00  0.00     0.009 C 
ATOM     21  C   UNL     1     181.476 -21.985  32.440  1.00  0.00     0.015 C 
ATOM     22  C   UNL     1     183.214 -20.579  33.613  1.00  0.00     0.016 C 
ATOM     23  C   UNL     1     183.545 -21.391  30.283  1.00  0.00     0.005 C 
ATOM     24  C   UNL     1     181.164 -21.144  31.212  1.00  0.00     0.047 C 
ATOM     25  C   UNL     1     182.019 -21.592  30.025  1.00  0.00     0.182 C 
ATOM     26  C   UNL     1     183.897 -19.869  30.272  1.00  0.00     0.015 C 
ATOM     27  C   UNL     1     184.312 -21.984  29.069  1.00  0.00     0.015 C 
BRANCH   7  28
ATOM     28  O   UNL     1     180.652 -24.900  36.880  1.00  0.00    -0.393 OA
ATOM     29  H   UNL     1     180.633 -25.142  37.843  1.00  0.00     0.210 HD
ENDBRANCH   7  28
BRANCH  25  30
ATOM     30  O   UNL     1     181.592 -20.862  28.868  1.00  0.00    -0.462 OA
BRANCH  30  31
ATOM     31  C   UNL     1     180.794 -21.402  27.852  1.00  0.00     0.302 C 
ATOM     32  O   UNL     1     180.022 -20.672  27.172  1.00  0.00    -0.253 OA
ATOM     33  C   UNL     1     180.815 -22.873  27.612  1.00  0.00     0.139 C 
ENDBRANCH  30  31
ENDBRANCH  25  30
ENDBRANCH   2   6
ENDBRANCH   1   2
BRANCH   1  34
ATOM     34  C   UNL     1     183.087 -23.792  39.819  1.00  0.00     0.031 C 
BRANCH  34  35
ATOM     35  C   UNL     1     183.170 -22.287  39.673  1.00  0.00    -0.075 C 
ATOM     36  C   UNL     1     184.039 -21.593  40.429  1.00  0.00     0.008 C 
BRANCH  35  37
ATOM     37  C   UNL     1     182.314 -21.594  38.623  1.00  0.00     0.008 C 
ATOM     38  C   UNL     1     183.037 -20.367  38.048  1.00  0.00     0.012 C 
ATOM     39  C   UNL     1     180.934 -21.209  39.172  1.00  0.00     0.012 C 
ENDBRANCH  35  37
ENDBRANCH  34  35
ENDBRANCH   1  34
TORSDOF 9
ENDMDL
MODEL 8
REMARK VINA RESULT:    -7.130      1.958      9.527
REMARK INTER + INTRA:         -11.773
REMARK INTER:                 -10.979
REMARK INTRA:                  -0.793
REMARK UNBOUND:                -1.100
REMARK SMILES C=C(CC[C@@H](C(=O)[O-])[C@H]1[C@@H](O)C[C@@]2(C)C3=C(CC[C@@]12C)[C@]1(C)CC[C@@H](OC(C)=O)C(C)(C)[C@@H]1CC3)C(C)C
REMARK SMILES IDX 4 1 5 2 6 3 7 4 8 5 9 6 10 7 19 8 12 9 13 10 18 11 20 12
REMARK SMILES IDX 14 13 15 14 17 15 16 16 35 17 21 18 34 19 33 20 23 21 22 22
REMARK SMILES IDX 30 23 24 24 25 25 31 26 32 27 11 28 26 30 27 31 29 32 28 33
REMARK SMILES IDX 3 34 2 35 1 36 36 37 37 38 38 39
REMARK H PARENT 11 29
REMARK Flexibility Score: inf
ROOT
ATOM      1  C   UNL     1     183.246 -26.110  33.680  1.00  0.00     0.014 C 
ENDROOT
BRANCH   1   2
ATOM      2  C   UNL     1     182.232 -25.246  32.871  1.00  0.00     0.042 C 
BRANCH   2   3
ATOM      3  C   UNL     1     181.017 -24.997  33.727  1.00  0.00     0.045 C 
ATOM      4  O   UNL     1     181.134 -24.448  34.852  1.00  0.00    -0.550 OA
ATOM      5  O   UNL     1     179.756 -25.378  33.281  1.00  0.00    -0.550 OA
ENDBRANCH   2   3
BRANCH   2   6
ATOM      6  C   UNL     1     182.870 -23.891  32.387  1.00  0.00     0.033 C 
ATOM      7  C   UNL     1     184.157 -24.078  31.554  1.00  0.00     0.119 C 
ATOM      8  C   UNL     1     181.986 -22.871  31.576  1.00  0.00    -0.017 C 
ATOM      9  C   UNL     1     184.295 -22.855  30.644  1.00  0.00     0.043 C 
ATOM     10  C   UNL     1     183.063 -21.940  30.877  1.00  0.00    -0.003 C 
ATOM     11  C   UNL     1     181.042 -23.561  30.521  1.00  0.00     0.012 C 
ATOM     12  C   UNL     1     181.064 -22.053  32.528  1.00  0.00     0.013 C 
ATOM     13  C   UNL     1     183.546 -20.793  31.820  1.00  0.00     0.017 C 
ATOM     14  C   UNL     1     182.565 -21.406  29.509  1.00  0.00    -0.064 C 
ATOM     15  C   UNL     1     181.618 -23.652  29.111  1.00  0.00     0.032 C 
ATOM     16  C   UNL     1     181.980 -22.259  28.617  1.00  0.00    -0.064 C 
ATOM     17  C   UNL     1     182.727 -19.955  29.090  1.00  0.00     0.032 C 
ATOM     18  C   UNL     1     181.867 -21.843  27.118  1.00  0.00    -0.008 C 
ATOM     19  C   UNL     1     181.489 -19.540  28.308  1.00  0.00     0.009 C 
ATOM     20  C   UNL     1     181.344 -20.333  26.967  1.00  0.00     0.009 C 
ATOM     21  C   UNL     1     183.301 -22.052  26.541  1.00  0.00     0.015 C 
ATOM     22  C   UNL     1     180.891 -22.788  26.365  1.00  0.00     0.016 C 
ATOM     23  C   UNL     1     181.813 -19.550  25.643  1.00  0.00     0.005 C 
ATOM     24  C   UNL     1     183.532 -21.400  25.187  1.00  0.00     0.047 C 
ATOM     25  C   UNL     1     183.289 -19.893  25.270  1.00  0.00     0.182 C 
ATOM     26  C   UNL     1     180.865 -19.880  24.447  1.00  0.00     0.015 C 
ATOM     27  C   UNL     1     181.714 -18.007  25.813  1.00  0.00     0.015 C 
BRANCH   7  28
ATOM     28  O   UNL     1     184.100 -25.253  30.784  1.00  0.00    -0.393 OA
ATOM     29  H   UNL     1     184.036 -24.970  29.833  1.00  0.00     0.210 HD
ENDBRANCH   7  28
BRANCH  25  30
ATOM     30  O   UNL     1     183.650 -19.312  24.010  1.00  0.00    -0.462 OA
BRANCH  30  31
ATOM     31  C   UNL     1     184.806 -18.552  23.800  1.00  0.00     0.302 C 
ATOM     32  O   UNL     1     185.890 -19.095  23.450  1.00  0.00    -0.253 OA
ATOM     33  C   UNL     1     184.768 -17.083  24.052  1.00  0.00     0.139 C 
ENDBRANCH  30  31
ENDBRANCH  25  30
ENDBRANCH   2   6
ENDBRANCH   1   2
BRANCH   1  34
ATOM     34  C   UNL     1     184.435 -25.307  34.234  1.00  0.00     0.031 C 
BRANCH  34  35
ATOM     35  C   UNL     1     184.338 -25.057  35.723  1.00  0.00    -0.075 C 
ATOM     36  C   UNL     1     184.000 -26.066  36.546  1.00  0.00     0.008 C 
BRANCH  35  37
ATOM     37  C   UNL     1     184.690 -23.681  36.271  1.00  0.00     0.008 C 
ATOM     38  C   UNL     1     183.592 -23.169  37.215  1.00  0.00     0.012 C 
ATOM     39  C   UNL     1     184.964 -22.671  35.150  1.00  0.00     0.012 C 
ENDBRANCH  35  37
ENDBRANCH  34  35
ENDBRANCH   1  34
TORSDOF 9
ENDMDL
MODEL 9
REMARK VINA RESULT:    -7.027      1.446      2.027
REMARK INTER + INTRA:         -11.619
REMARK INTER:                 -11.081
REMARK INTRA:                  -0.539
REMARK UNBOUND:                -1.100
REMARK SMILES C=C(CC[C@@H](C(=O)[O-])[C@H]1[C@@H](O)C[C@@]2(C)C3=C(CC[C@@]12C)[C@]1(C)CC[C@@H](OC(C)=O)C(C)(C)[C@@H]1CC3)C(C)C
REMARK SMILES IDX 4 1 5 2 6 3 7 4 8 5 9 6 10 7 19 8 12 9 13 10 18 11 20 12
REMARK SMILES IDX 14 13 15 14 17 15 16 16 35 17 21 18 34 19 33 20 23 21 22 22
REMARK SMILES IDX 30 23 24 24 25 25 31 26 32 27 11 28 26 30 27 31 29 32 28 33
REMARK SMILES IDX 3 34 2 35 1 36 36 37 37 38 38 39
REMARK H PARENT 11 29
REMARK Flexibility Score: inf
ROOT
ATOM      1  C   UNL     1     180.805 -22.194  26.452  1.00  0.00     0.014 C 
ENDROOT
BRANCH   1   2
ATOM      2  C   UNL     1     180.868 -20.692  26.866  1.00  0.00     0.042 C 
BRANCH   2   3
ATOM      3  C   UNL     1     179.698 -19.970  26.248  1.00  0.00     0.045 C 
ATOM      4  O   UNL     1     179.673 -18.713  26.215  1.00  0.00    -0.550 OA
ATOM      5  O   UNL     1     178.635 -20.688  25.714  1.00  0.00    -0.550 OA
ENDBRANCH   2   3
BRANCH   2   6
ATOM      6  C   UNL     1     180.881 -20.514  28.430  1.00  0.00     0.033 C 
ATOM      7  C   UNL     1     179.648 -21.126  29.131  1.00  0.00     0.119 C 
ATOM      8  C   UNL     1     182.127 -21.018  29.251  1.00  0.00    -0.017 C 
ATOM      9  C   UNL     1     180.060 -21.470  30.564  1.00  0.00     0.043 C 
ATOM     10  C   UNL     1     181.564 -21.121  30.729  1.00  0.00    -0.003 C 
ATOM     11  C   UNL     1     182.693 -22.398  28.746  1.00  0.00     0.012 C 
ATOM     12  C   UNL     1     183.301 -19.998  29.163  1.00  0.00     0.013 C 
ATOM     13  C   UNL     1     181.612 -19.748  31.472  1.00  0.00     0.017 C 
ATOM     14  C   UNL     1     182.258 -22.249  31.536  1.00  0.00    -0.064 C 
ATOM     15  C   UNL     1     182.149 -23.619  29.483  1.00  0.00     0.032 C 
ATOM     16  C   UNL     1     182.429 -23.482  30.973  1.00  0.00    -0.064 C 
ATOM     17  C   UNL     1     182.742 -22.056  32.963  1.00  0.00     0.032 C 
ATOM     18  C   UNL     1     182.726 -24.709  31.889  1.00  0.00    -0.008 C 
ATOM     19  C   UNL     1     184.046 -22.821  33.135  1.00  0.00     0.009 C 
ATOM     20  C   UNL     1     183.850 -24.365  32.981  1.00  0.00     0.009 C 
ATOM     21  C   UNL     1     181.348 -25.071  32.523  1.00  0.00     0.015 C 
ATOM     22  C   UNL     1     183.208 -25.916  31.038  1.00  0.00     0.016 C 
ATOM     23  C   UNL     1     183.779 -25.197  34.357  1.00  0.00     0.005 C 
ATOM     24  C   UNL     1     181.435 -26.019  33.709  1.00  0.00     0.047 C 
ATOM     25  C   UNL     1     182.304 -25.416  34.814  1.00  0.00     0.182 C 
ATOM     26  C   UNL     1     184.506 -26.571  34.204  1.00  0.00     0.015 C 
ATOM     27  C   UNL     1     184.531 -24.477  35.512  1.00  0.00     0.015 C 
BRANCH   7  28
ATOM     28  O   UNL     1     179.201 -22.280  28.463  1.00  0.00    -0.393 OA
ATOM     29  H   UNL     1     179.999 -22.856  28.322  1.00  0.00     0.210 HD
ENDBRANCH   7  28
BRANCH  25  30
ATOM     30  O   UNL     1     182.242 -26.283  35.954  1.00  0.00    -0.462 OA
BRANCH  30  31
ATOM     31  C   UNL     1     181.577 -25.967  37.144  1.00  0.00     0.302 C 
ATOM     32  O   UNL     1     181.634 -24.806  37.635  1.00  0.00    -0.253 OA
ATOM     33  C   UNL     1     180.837 -27.037  37.873  1.00  0.00     0.139 C 
ENDBRANCH  30  31
ENDBRANCH  25  30
ENDBRANCH   2   6
ENDBRANCH   1   2
BRANCH   1  34
ATOM     34  C   UNL     1     181.997 -22.645  25.591  1.00  0.00     0.031 C 
BRANCH  34  35
ATOM     35  C   UNL     1     182.162 -21.823  24.331  1.00  0.00    -0.075 C 
ATOM     36  C   UNL     1     181.246 -21.919  23.351  1.00  0.00     0.008 C 
BRANCH  35  37
ATOM     37  C   UNL     1     183.328 -20.850  24.224  1.00  0.00     0.008 C 
ATOM     38  C   UNL     1     184.238 -20.948  25.457  1.00  0.00     0.012 C 
ATOM     39  C   UNL     1     182.853 -19.408  24.007  1.00  0.00     0.012 C 
ENDBRANCH  35  37
ENDBRANCH  34  35
ENDBRANCH   1  34
TORSDOF 9
ENDMDL
