MODEL 1
REMARK VINA RESULT:    -5.484      0.000      0.000
REMARK INTER + INTRA:          -5.897
REMARK INTER:                  -5.805
REMARK INTRA:                  -0.092
REMARK UNBOUND:                -0.092
REMARK SMILES C=C(C)[C@H]1CC=C(C)C(=O)C1
REMARK SMILES IDX 8 1 7 2 6 3 5 4 4 5 11 6 9 7 10 8 2 9 1 10 3 11
REMARK H PARENT
REMARK Flexibility Score: inf
ROOT
ATOM      1  C   UNL     1       0.986 147.525  -5.752  1.00  0.00     0.048 C 
ATOM      2  C   UNL     1       2.037 146.677  -6.417  1.00  0.00    -0.012 C 
ATOM      3  C   UNL     1       1.713 145.926  -7.484  1.00  0.00    -0.019 C 
ATOM      4  C   UNL     1       2.721 145.045  -8.175  1.00  0.00     0.036 C 
ATOM      5  C   UNL     1       4.132 145.660  -8.110  1.00  0.00     0.025 C 
ATOM      6  C   UNL     1       4.520 145.956  -6.650  1.00  0.00     0.089 C 
ATOM      7  C   UNL     1       3.450 146.767  -5.971  1.00  0.00     0.158 C 
ATOM      8  O   UNL     1       3.761 147.498  -4.993  1.00  0.00    -0.295 OA
ENDROOT
BRANCH   5   9
ATOM      9  C   UNL     1       5.160 144.768  -8.790  1.00  0.00    -0.077 C 
ATOM     10  C   UNL     1       6.363 145.261  -9.125  1.00  0.00     0.008 C 
ATOM     11  C   UNL     1       4.863 143.321  -9.101  1.00  0.00     0.039 C 
ENDBRANCH   5   9
TORSDOF 1
ENDMDL
MODEL 2
REMARK VINA RESULT:    -4.905      1.516      4.351
REMARK INTER + INTRA:          -5.284
REMARK INTER:                  -5.193
REMARK INTRA:                  -0.091
REMARK UNBOUND:                -0.092
REMARK SMILES C=C(C)[C@H]1CC=C(C)C(=O)C1
REMARK SMILES IDX 8 1 7 2 6 3 5 4 4 5 11 6 9 7 10 8 2 9 1 10 3 11
REMARK H PARENT
REMARK Flexibility Score: inf
ROOT
ATOM      1  C   UNL     1       5.603 143.323  -8.478  1.00  0.00     0.048 C 
ATOM      2  C   UNL     1       4.562 144.307  -8.018  1.00  0.00    -0.012 C 
ATOM      3  C   UNL     1       3.436 144.471  -8.733  1.00  0.00    -0.019 C 
ATOM      4  C   UNL     1       2.370 145.456  -8.328  1.00  0.00     0.036 C 
ATOM      5  C   UNL     1       2.294 145.591  -6.795  1.00  0.00     0.025 C 
ATOM      6  C   UNL     1       3.675 145.957  -6.221  1.00  0.00     0.089 C 
ATOM      7  C   UNL     1       4.724 144.999  -6.715  1.00  0.00     0.158 C 
ATOM      8  O   UNL     1       5.764 144.819  -6.026  1.00  0.00    -0.295 OA
ENDROOT
BRANCH   5   9
ATOM      9  C   UNL     1       1.232 146.598  -6.377  1.00  0.00    -0.077 C 
ATOM     10  C   UNL     1      -0.069 146.297  -6.504  1.00  0.00     0.008 C 
ATOM     11  C   UNL     1       1.607 147.947  -5.812  1.00  0.00     0.039 C 
ENDBRANCH   5   9
TORSDOF 1
ENDMDL
MODEL 3
REMARK VINA RESULT:    -4.720      2.048      4.615
REMARK INTER + INTRA:          -5.089
REMARK INTER:                  -4.990
REMARK INTRA:                  -0.098
REMARK UNBOUND:                -0.092
REMARK SMILES C=C(C)[C@H]1CC=C(C)C(=O)C1
REMARK SMILES IDX 8 1 7 2 6 3 5 4 4 5 11 6 9 7 10 8 2 9 1 10 3 11
REMARK H PARENT
REMARK Flexibility Score: inf
ROOT
ATOM      1  C   UNL     1       5.964 143.771  -8.696  1.00  0.00     0.048 C 
ATOM      2  C   UNL     1       4.877 144.500  -7.953  1.00  0.00    -0.012 C 
ATOM      3  C   UNL     1       5.001 145.816  -7.709  1.00  0.00    -0.019 C 
ATOM      4  C   UNL     1       3.952 146.590  -6.955  1.00  0.00     0.036 C 
ATOM      5  C   UNL     1       2.545 146.022  -7.221  1.00  0.00     0.025 C 
ATOM      6  C   UNL     1       2.506 144.517  -6.897  1.00  0.00     0.089 C 
ATOM      7  C   UNL     1       3.619 143.794  -7.604  1.00  0.00     0.158 C 
ATOM      8  O   UNL     1       3.486 142.568  -7.864  1.00  0.00    -0.295 OA
ENDROOT
BRANCH   5   9
ATOM      9  C   UNL     1       1.480 146.786  -6.448  1.00  0.00    -0.077 C 
ATOM     10  C   UNL     1       1.816 147.869  -5.729  1.00  0.00     0.008 C 
ATOM     11  C   UNL     1       0.033 146.355  -6.467  1.00  0.00     0.039 C 
ENDBRANCH   5   9
TORSDOF 1
ENDMDL
MODEL 4
REMARK VINA RESULT:    -4.468      1.417      2.283
REMARK INTER + INTRA:          -4.822
REMARK INTER:                  -4.731
REMARK INTRA:                  -0.091
REMARK UNBOUND:                -0.092
REMARK SMILES C=C(C)[C@H]1CC=C(C)C(=O)C1
REMARK SMILES IDX 8 1 7 2 6 3 5 4 4 5 11 6 9 7 10 8 2 9 1 10 3 11
REMARK H PARENT
REMARK Flexibility Score: inf
ROOT
ATOM      1  C   UNL     1       1.481 147.834  -5.430  1.00  0.00     0.048 C 
ATOM      2  C   UNL     1       2.477 147.083  -6.271  1.00  0.00    -0.012 C 
ATOM      3  C   UNL     1       3.794 147.271  -6.076  1.00  0.00    -0.019 C 
ATOM      4  C   UNL     1       4.833 146.559  -6.902  1.00  0.00     0.036 C 
ATOM      5  C   UNL     1       4.345 145.160  -7.321  1.00  0.00     0.025 C 
ATOM      6  C   UNL     1       2.991 145.260  -8.046  1.00  0.00     0.089 C 
ATOM      7  C   UNL     1       2.007 146.048  -7.226  1.00  0.00     0.158 C 
ATOM      8  O   UNL     1       0.773 145.845  -7.384  1.00  0.00    -0.295 OA
ENDROOT
BRANCH   5   9
ATOM      9  C   UNL     1       5.381 144.440  -8.172  1.00  0.00    -0.077 C 
ATOM     10  C   UNL     1       5.428 143.098  -8.185  1.00  0.00     0.008 C 
ATOM     11  C   UNL     1       6.373 145.203  -9.017  1.00  0.00     0.039 C 
ENDBRANCH   5   9
TORSDOF 1
ENDMDL
MODEL 5
REMARK VINA RESULT:    -4.462      1.529      2.514
REMARK INTER + INTRA:          -4.815
REMARK INTER:                  -4.717
REMARK INTRA:                  -0.098
REMARK UNBOUND:                -0.092
REMARK SMILES C=C(C)[C@H]1CC=C(C)C(=O)C1
REMARK SMILES IDX 8 1 7 2 6 3 5 4 4 5 11 6 9 7 10 8 2 9 1 10 3 11
REMARK H PARENT
REMARK Flexibility Score: inf
ROOT
ATOM      1  C   UNL     1       4.121 148.251  -5.373  1.00  0.00     0.048 C 
ATOM      2  C   UNL     1       3.995 147.028  -6.239  1.00  0.00    -0.012 C 
ATOM      3  C   UNL     1       5.100 146.379  -6.644  1.00  0.00    -0.019 C 
ATOM      4  C   UNL     1       5.032 145.160  -7.527  1.00  0.00     0.036 C 
ATOM      5  C   UNL     1       3.762 144.338  -7.239  1.00  0.00     0.025 C 
ATOM      6  C   UNL     1       2.510 145.224  -7.370  1.00  0.00     0.089 C 
ATOM      7  C   UNL     1       2.653 146.469  -6.539  1.00  0.00     0.158 C 
ATOM      8  O   UNL     1       1.616 147.056  -6.128  1.00  0.00    -0.295 OA
ENDROOT
BRANCH   5   9
ATOM      9  C   UNL     1       3.674 143.114  -8.140  1.00  0.00    -0.077 C 
ATOM     10  C   UNL     1       4.569 142.937  -9.125  1.00  0.00     0.008 C 
ATOM     11  C   UNL     1       2.594 142.076  -7.953  1.00  0.00     0.039 C 
ENDBRANCH   5   9
TORSDOF 1
ENDMDL
MODEL 6
REMARK VINA RESULT:    -4.410      1.192      4.197
REMARK INTER + INTRA:          -4.761
REMARK INTER:                  -4.662
REMARK INTRA:                  -0.099
REMARK UNBOUND:                -0.092
REMARK SMILES C=C(C)[C@H]1CC=C(C)C(=O)C1
REMARK SMILES IDX 8 1 7 2 6 3 5 4 4 5 11 6 9 7 10 8 2 9 1 10 3 11
REMARK H PARENT
REMARK Flexibility Score: inf
ROOT
ATOM      1  C   UNL     1       5.989 144.717  -8.494  1.00  0.00     0.048 C 
ATOM      2  C   UNL     1       4.750 145.420  -8.008  1.00  0.00    -0.012 C 
ATOM      3  C   UNL     1       3.568 145.175  -8.599  1.00  0.00    -0.019 C 
ATOM      4  C   UNL     1       2.300 145.864  -8.164  1.00  0.00     0.036 C 
ATOM      5  C   UNL     1       2.320 146.157  -6.652  1.00  0.00     0.025 C 
ATOM      6  C   UNL     1       3.579 146.961  -6.279  1.00  0.00     0.089 C 
ATOM      7  C   UNL     1       4.815 146.283  -6.802  1.00  0.00     0.158 C 
ATOM      8  O   UNL     1       5.917 146.485  -6.225  1.00  0.00    -0.295 OA
ENDROOT
BRANCH   5   9
ATOM      9  C   UNL     1       1.051 146.870  -6.207  1.00  0.00    -0.077 C 
ATOM     10  C   UNL     1       1.123 148.093  -5.658  1.00  0.00     0.008 C 
ATOM     11  C   UNL     1      -0.308 146.233  -6.369  1.00  0.00     0.039 C 
ENDBRANCH   5   9
TORSDOF 1
ENDMDL
MODEL 7
REMARK VINA RESULT:    -4.303      1.846      4.319
REMARK INTER + INTRA:          -4.647
REMARK INTER:                  -4.554
REMARK INTRA:                  -0.093
REMARK UNBOUND:                -0.092
REMARK SMILES C=C(C)[C@H]1CC=C(C)C(=O)C1
REMARK SMILES IDX 8 1 7 2 6 3 5 4 4 5 11 6 9 7 10 8 2 9 1 10 3 11
REMARK H PARENT
REMARK Flexibility Score: inf
ROOT
ATOM      1  C   UNL     1       4.795 142.615  -9.125  1.00  0.00     0.048 C 
ATOM      2  C   UNL     1       4.237 143.828  -8.431  1.00  0.00    -0.012 C 
ATOM      3  C   UNL     1       3.119 143.720  -7.692  1.00  0.00    -0.019 C 
ATOM      4  C   UNL     1       2.508 144.905  -6.991  1.00  0.00     0.036 C 
ATOM      5  C   UNL     1       3.592 145.903  -6.543  1.00  0.00     0.025 C 
ATOM      6  C   UNL     1       4.465 146.320  -7.740  1.00  0.00     0.089 C 
ATOM      7  C   UNL     1       4.988 145.108  -8.462  1.00  0.00     0.158 C 
ATOM      8  O   UNL     1       6.055 145.201  -9.125  1.00  0.00    -0.295 OA
ENDROOT
BRANCH   5   9
ATOM      9  C   UNL     1       2.983 147.114  -5.850  1.00  0.00    -0.077 C 
ATOM     10  C   UNL     1       3.758 147.936  -5.126  1.00  0.00     0.008 C 
ATOM     11  C   UNL     1       1.509 147.422  -5.958  1.00  0.00     0.039 C 
ENDBRANCH   5   9
TORSDOF 1
ENDMDL
MODEL 8
REMARK VINA RESULT:    -4.243      1.843      2.547
REMARK INTER + INTRA:          -4.584
REMARK INTER:                  -4.486
REMARK INTRA:                  -0.098
REMARK UNBOUND:                -0.092
REMARK SMILES C=C(C)[C@H]1CC=C(C)C(=O)C1
REMARK SMILES IDX 8 1 7 2 6 3 5 4 4 5 11 6 9 7 10 8 2 9 1 10 3 11
REMARK H PARENT
REMARK Flexibility Score: inf
ROOT
ATOM      1  C   UNL     1       0.788 148.294  -5.378  1.00  0.00     0.048 C 
ATOM      2  C   UNL     1       1.713 147.319  -6.055  1.00  0.00    -0.012 C 
ATOM      3  C   UNL     1       3.041 147.420  -5.871  1.00  0.00    -0.019 C 
ATOM      4  C   UNL     1       4.013 146.483  -6.540  1.00  0.00     0.036 C 
ATOM      5  C   UNL     1       3.399 145.081  -6.715  1.00  0.00     0.025 C 
ATOM      6  C   UNL     1       2.062 145.172  -7.472  1.00  0.00     0.089 C 
ATOM      7  C   UNL     1       1.153 146.178  -6.821  1.00  0.00     0.158 C 
ATOM      8  O   UNL     1      -0.094 146.062  -6.964  1.00  0.00    -0.295 OA
ENDROOT
BRANCH   5   9
ATOM      9  C   UNL     1       4.367 144.132  -7.407  1.00  0.00    -0.077 C 
ATOM     10  C   UNL     1       3.902 143.166  -8.215  1.00  0.00     0.008 C 
ATOM     11  C   UNL     1       5.859 144.248  -7.209  1.00  0.00     0.039 C 
ENDBRANCH   5   9
TORSDOF 1
ENDMDL
MODEL 9
REMARK VINA RESULT:    -2.675      1.562      2.144
REMARK INTER + INTRA:          -2.924
REMARK INTER:                  -2.825
REMARK INTRA:                  -0.099
REMARK UNBOUND:                -0.092
REMARK SMILES C=C(C)[C@H]1CC=C(C)C(=O)C1
REMARK SMILES IDX 8 1 7 2 6 3 5 4 4 5 11 6 9 7 10 8 2 9 1 10 3 11
REMARK H PARENT
REMARK Flexibility Score: inf
ROOT
ATOM      1  C   UNL     1       3.427 148.117  -5.423  1.00  0.00     0.048 C 
ATOM      2  C   UNL     1       3.552 146.758  -6.056  1.00  0.00    -0.012 C 
ATOM      3  C   UNL     1       2.509 145.910  -6.032  1.00  0.00    -0.019 C 
ATOM      4  C   UNL     1       2.587 144.531  -6.634  1.00  0.00     0.036 C 
ATOM      5  C   UNL     1       3.519 144.514  -7.860  1.00  0.00     0.025 C 
ATOM      6  C   UNL     1       4.906 145.066  -7.485  1.00  0.00     0.089 C 
ATOM      7  C   UNL     1       4.780 146.405  -6.812  1.00  0.00     0.158 C 
ATOM      8  O   UNL     1       5.745 147.213  -6.867  1.00  0.00    -0.295 OA
ENDROOT
BRANCH   5   9
ATOM      9  C   UNL     1       3.619 143.121  -8.464  1.00  0.00    -0.077 C 
ATOM     10  C   UNL     1       4.779 142.448  -8.418  1.00  0.00     0.008 C 
ATOM     11  C   UNL     1       2.431 142.463  -9.124  1.00  0.00     0.039 C 
ENDBRANCH   5   9
TORSDOF 1
ENDMDL
