MODEL 1
REMARK VINA RESULT:    -3.918      0.000      0.000
REMARK INTER + INTRA:          -7.822
REMARK INTER:                  -7.353
REMARK INTRA:                  -0.469
REMARK UNBOUND:                -0.469
REMARK SMILES O=C([O-])CCCCCCCCCCCCCCC(=O)[O-]
REMARK SMILES IDX 10 1 9 2 8 3 7 4 6 5 5 6 4 7 2 8 1 9 3 10 11 11 12 12 13 13
REMARK SMILES IDX 14 14 15 15 16 16 17 17 18 18 19 19 20 20
REMARK H PARENT
REMARK Flexibility Score: inf
ROOT
ATOM      1  C   UNL     1    -117.238-100.092  38.678  1.00  0.00     0.000 C 
ENDROOT
BRANCH   1   2
ATOM      2  C   UNL     1    -117.816 -99.456  39.950  1.00  0.00     0.000 C 
BRANCH   2   3
ATOM      3  C   UNL     1    -116.817 -99.541  41.111  1.00  0.00     0.000 C 
BRANCH   3   4
ATOM      4  C   UNL     1    -117.533 -99.853  42.432  1.00  0.00     0.000 C 
BRANCH   4   5
ATOM      5  C   UNL     1    -117.261 -98.799  43.516  1.00  0.00     0.000 C 
BRANCH   5   6
ATOM      6  C   UNL     1    -118.467 -98.583  44.448  1.00  0.00     0.006 C 
BRANCH   6   7
ATOM      7  C   UNL     1    -118.061 -98.577  45.928  1.00  0.00     0.053 C 
BRANCH   7   8
ATOM      8  C   UNL     1    -118.366 -97.263  46.582  1.00  0.00     0.041 C 
ATOM      9  O   UNL     1    -118.394 -97.171  47.837  1.00  0.00    -0.550 OA
ATOM     10  O   UNL     1    -118.588 -96.134  45.804  1.00  0.00    -0.550 OA
ENDBRANCH   7   8
ENDBRANCH   6   7
ENDBRANCH   5   6
ENDBRANCH   4   5
ENDBRANCH   3   4
ENDBRANCH   2   3
ENDBRANCH   1   2
BRANCH   1  11
ATOM     11  C   UNL     1    -116.578 -99.065  37.740  1.00  0.00     0.000 C 
BRANCH  11  12
ATOM     12  C   UNL     1    -116.270 -99.583  36.323  1.00  0.00     0.000 C 
BRANCH  12  13
ATOM     13  C   UNL     1    -115.177 -98.766  35.611  1.00  0.00     0.000 C 
BRANCH  13  14
ATOM     14  C   UNL     1    -115.718 -98.024  34.370  1.00  0.00     0.000 C 
BRANCH  14  15
ATOM     15  C   UNL     1    -116.022 -98.951  33.177  1.00  0.00     0.000 C 
BRANCH  15  16
ATOM     16  C   UNL     1    -117.419 -98.766  32.553  1.00  0.00     0.006 C 
BRANCH  16  17
ATOM     17  C   UNL     1    -117.707 -97.337  32.067  1.00  0.00     0.053 C 
BRANCH  17  18
ATOM     18  C   UNL     1    -118.342 -97.323  30.711  1.00  0.00     0.041 C 
ATOM     19  O   UNL     1    -118.665 -98.403  30.151  1.00  0.00    -0.550 OA
ATOM     20  O   UNL     1    -118.546 -96.117  30.051  1.00  0.00    -0.550 OA
ENDBRANCH  17  18
ENDBRANCH  16  17
ENDBRANCH  15  16
ENDBRANCH  14  15
ENDBRANCH  13  14
ENDBRANCH  12  13
ENDBRANCH  11  12
ENDBRANCH   1  11
TORSDOF 15
ENDMDL
MODEL 2
REMARK VINA RESULT:    -3.855      1.535      2.183
REMARK INTER + INTRA:          -7.704
REMARK INTER:                  -6.844
REMARK INTRA:                  -0.860
REMARK UNBOUND:                -0.469
REMARK SMILES O=C([O-])CCCCCCCCCCCCCCC(=O)[O-]
REMARK SMILES IDX 10 1 9 2 8 3 7 4 6 5 5 6 4 7 2 8 1 9 3 10 11 11 12 12 13 13
REMARK SMILES IDX 14 14 15 15 16 16 17 17 18 18 19 19 20 20
REMARK H PARENT
REMARK Flexibility Score: inf
ROOT
ATOM      1  C   UNL     1    -117.689 -98.882  40.343  1.00  0.00     0.000 C 
ENDROOT
BRANCH   1   2
ATOM      2  C   UNL     1    -116.861 -98.123  41.391  1.00  0.00     0.000 C 
BRANCH   2   3
ATOM      3  C   UNL     1    -116.651 -98.976  42.648  1.00  0.00     0.000 C 
BRANCH   3   4
ATOM      4  C   UNL     1    -117.925 -99.757  43.002  1.00  0.00     0.000 C 
BRANCH   4   5
ATOM      5  C   UNL     1    -118.249 -99.711  44.503  1.00  0.00     0.000 C 
BRANCH   5   6
ATOM      6  C   UNL     1    -118.544 -98.285  45.002  1.00  0.00     0.006 C 
BRANCH   6   7
ATOM      7  C   UNL     1    -118.328 -98.145  46.514  1.00  0.00     0.053 C 
BRANCH   7   8
ATOM      8  C   UNL     1    -118.216 -96.709  46.928  1.00  0.00     0.041 C 
ATOM      9  O   UNL     1    -118.602 -95.794  46.154  1.00  0.00    -0.550 OA
ATOM     10  O   UNL     1    -117.715 -96.383  48.182  1.00  0.00    -0.550 OA
ENDBRANCH   7   8
ENDBRANCH   6   7
ENDBRANCH   5   6
ENDBRANCH   4   5
ENDBRANCH   3   4
ENDBRANCH   2   3
ENDBRANCH   1   2
BRANCH   1  11
ATOM     11  C   UNL     1    -116.835 -99.426  39.184  1.00  0.00     0.000 C 
BRANCH  11  12
ATOM     12  C   UNL     1    -117.628-100.125  38.064  1.00  0.00     0.000 C 
BRANCH  12  13
ATOM     13  C   UNL     1    -116.918-100.066  36.700  1.00  0.00     0.000 C 
BRANCH  13  14
ATOM     14  C   UNL     1    -116.187 -98.724  36.479  1.00  0.00     0.000 C 
BRANCH  14  15
ATOM     15  C   UNL     1    -115.205 -98.742  35.291  1.00  0.00     0.000 C 
BRANCH  15  16
ATOM     16  C   UNL     1    -115.773 -98.181  33.973  1.00  0.00     0.006 C 
BRANCH  16  17
ATOM     17  C   UNL     1    -116.327 -99.251  33.019  1.00  0.00     0.053 C 
BRANCH  17  18
ATOM     18  C   UNL     1    -117.816 -99.171  32.888  1.00  0.00     0.041 C 
ATOM     19  O   UNL     1    -118.416 -99.869  32.030  1.00  0.00    -0.550 OA
ATOM     20  O   UNL     1    -118.539 -98.299  33.693  1.00  0.00    -0.550 OA
ENDBRANCH  17  18
ENDBRANCH  16  17
ENDBRANCH  15  16
ENDBRANCH  14  15
ENDBRANCH  13  14
ENDBRANCH  12  13
ENDBRANCH  11  12
ENDBRANCH   1  11
TORSDOF 15
ENDMDL
MODEL 3
REMARK VINA RESULT:    -3.813      1.857      3.790
REMARK INTER + INTRA:          -7.626
REMARK INTER:                  -7.196
REMARK INTRA:                  -0.430
REMARK UNBOUND:                -0.469
REMARK SMILES O=C([O-])CCCCCCCCCCCCCCC(=O)[O-]
REMARK SMILES IDX 10 1 9 2 8 3 7 4 6 5 5 6 4 7 2 8 1 9 3 10 11 11 12 12 13 13
REMARK SMILES IDX 14 14 15 15 16 16 17 17 18 18 19 19 20 20
REMARK H PARENT
REMARK Flexibility Score: inf
ROOT
ATOM      1  C   UNL     1    -117.116 -98.837  43.053  1.00  0.00     0.000 C 
ENDROOT
BRANCH   1   2
ATOM      2  C   UNL     1    -117.848 -99.642  44.137  1.00  0.00     0.000 C 
BRANCH   2   3
ATOM      3  C   UNL     1    -118.313 -98.730  45.280  1.00  0.00     0.000 C 
BRANCH   3   4
ATOM      4  C   UNL     1    -118.168 -99.432  46.638  1.00  0.00     0.000 C 
BRANCH   4   5
ATOM      5  C   UNL     1    -117.645 -98.494  47.736  1.00  0.00     0.000 C 
BRANCH   5   6
ATOM      6  C   UNL     1    -118.752 -97.608  48.335  1.00  0.00     0.006 C 
BRANCH   6   7
ATOM      7  C   UNL     1    -118.200 -96.292  48.898  1.00  0.00     0.053 C 
BRANCH   7   8
ATOM      8  C   UNL     1    -118.526 -95.129  48.011  1.00  0.00     0.041 C 
ATOM      9  O   UNL     1    -118.795 -94.006  48.512  1.00  0.00    -0.550 OA
ATOM     10  O   UNL     1    -118.500 -95.279  46.631  1.00  0.00    -0.550 OA
ENDBRANCH   7   8
ENDBRANCH   6   7
ENDBRANCH   5   6
ENDBRANCH   4   5
ENDBRANCH   3   4
ENDBRANCH   2   3
ENDBRANCH   1   2
BRANCH   1  11
ATOM     11  C   UNL     1    -116.913 -99.631  41.751  1.00  0.00     0.000 C 
BRANCH  11  12
ATOM     12  C   UNL     1    -117.296 -98.879  40.463  1.00  0.00     0.000 C 
BRANCH  12  13
ATOM     13  C   UNL     1    -117.261 -99.775  39.212  1.00  0.00     0.000 C 
BRANCH  13  14
ATOM     14  C   UNL     1    -116.833 -98.999  37.948  1.00  0.00     0.000 C 
BRANCH  14  15
ATOM     15  C   UNL     1    -116.486 -99.906  36.752  1.00  0.00     0.000 C 
BRANCH  15  16
ATOM     16  C   UNL     1    -116.944 -99.373  35.381  1.00  0.00     0.006 C 
BRANCH  16  17
ATOM     17  C   UNL     1    -115.793 -98.945  34.455  1.00  0.00     0.053 C 
BRANCH  17  18
ATOM     18  C   UNL     1    -116.237 -97.940  33.438  1.00  0.00     0.041 C 
ATOM     19  O   UNL     1    -117.094 -98.252  32.571  1.00  0.00    -0.550 OA
ATOM     20  O   UNL     1    -115.678 -96.668  33.426  1.00  0.00    -0.550 OA
ENDBRANCH  17  18
ENDBRANCH  16  17
ENDBRANCH  15  16
ENDBRANCH  14  15
ENDBRANCH  13  14
ENDBRANCH  12  13
ENDBRANCH  11  12
ENDBRANCH   1  11
TORSDOF 15
ENDMDL
MODEL 4
REMARK VINA RESULT:    -3.740      2.102     11.794
REMARK INTER + INTRA:          -7.489
REMARK INTER:                  -7.008
REMARK INTRA:                  -0.481
REMARK UNBOUND:                -0.469
REMARK SMILES O=C([O-])CCCCCCCCCCCCCCC(=O)[O-]
REMARK SMILES IDX 10 1 9 2 8 3 7 4 6 5 5 6 4 7 2 8 1 9 3 10 11 11 12 12 13 13
REMARK SMILES IDX 14 14 15 15 16 16 17 17 18 18 19 19 20 20
REMARK H PARENT
REMARK Flexibility Score: inf
ROOT
ATOM      1  C   UNL     1    -116.683 -98.325  42.126  1.00  0.00     0.000 C 
ENDROOT
BRANCH   1   2
ATOM      2  C   UNL     1    -116.492 -99.232  40.901  1.00  0.00     0.000 C 
BRANCH   2   3
ATOM      3  C   UNL     1    -117.832 -99.814  40.434  1.00  0.00     0.000 C 
BRANCH   3   4
ATOM      4  C   UNL     1    -117.803-100.124  38.930  1.00  0.00     0.000 C 
BRANCH   4   5
ATOM      5  C   UNL     1    -116.826 -99.224  38.159  1.00  0.00     0.000 C 
BRANCH   5   6
ATOM      6  C   UNL     1    -116.557 -99.727  36.730  1.00  0.00     0.006 C 
BRANCH   6   7
ATOM      7  C   UNL     1    -116.090 -98.602  35.798  1.00  0.00     0.053 C 
BRANCH   7   8
ATOM      8  C   UNL     1    -116.848 -98.601  34.505  1.00  0.00     0.041 C 
ATOM      9  O   UNL     1    -118.107 -98.593  34.508  1.00  0.00    -0.550 OA
ATOM     10  O   UNL     1    -116.163 -98.577  33.297  1.00  0.00    -0.550 OA
ENDBRANCH   7   8
ENDBRANCH   6   7
ENDBRANCH   5   6
ENDBRANCH   4   5
ENDBRANCH   3   4
ENDBRANCH   2   3
ENDBRANCH   1   2
BRANCH   1  11
ATOM     11  C   UNL     1    -116.865 -99.116  43.434  1.00  0.00     0.000 C 
BRANCH  11  12
ATOM     12  C   UNL     1    -118.296 -99.111  44.003  1.00  0.00     0.000 C 
BRANCH  12  13
ATOM     13  C   UNL     1    -118.386 -99.738  45.405  1.00  0.00     0.000 C 
BRANCH  13  14
ATOM     14  C   UNL     1    -119.057 -98.794  46.426  1.00  0.00     0.000 C 
BRANCH  14  15
ATOM     15  C   UNL     1    -118.129 -98.368  47.580  1.00  0.00     0.000 C 
BRANCH  15  16
ATOM     16  C   UNL     1    -118.803 -97.517  48.673  1.00  0.00     0.006 C 
BRANCH  16  17
ATOM     17  C   UNL     1    -118.097 -96.181  48.956  1.00  0.00     0.053 C 
BRANCH  17  18
ATOM     18  C   UNL     1    -118.482 -95.123  47.969  1.00  0.00     0.041 C 
ATOM     19  O   UNL     1    -118.314 -95.315  46.736  1.00  0.00    -0.550 OA
ATOM     20  O   UNL     1    -118.996 -93.911  48.413  1.00  0.00    -0.550 OA
ENDBRANCH  17  18
ENDBRANCH  16  17
ENDBRANCH  15  16
ENDBRANCH  14  15
ENDBRANCH  13  14
ENDBRANCH  12  13
ENDBRANCH  11  12
ENDBRANCH   1  11
TORSDOF 15
ENDMDL
MODEL 5
REMARK VINA RESULT:    -3.536      0.891     11.373
REMARK INTER + INTRA:          -7.105
REMARK INTER:                  -6.418
REMARK INTRA:                  -0.687
REMARK UNBOUND:                -0.469
REMARK SMILES O=C([O-])CCCCCCCCCCCCCCC(=O)[O-]
REMARK SMILES IDX 10 1 9 2 8 3 7 4 6 5 5 6 4 7 2 8 1 9 3 10 11 11 12 12 13 13
REMARK SMILES IDX 14 14 15 15 16 16 17 17 18 18 19 19 20 20
REMARK H PARENT
REMARK Flexibility Score: inf
ROOT
ATOM      1  C   UNL     1    -116.781 -99.163  38.211  1.00  0.00     0.000 C 
ENDROOT
BRANCH   1   2
ATOM      2  C   UNL     1    -116.317 -99.736  36.864  1.00  0.00     0.000 C 
BRANCH   2   3
ATOM      3  C   UNL     1    -116.838 -98.887  35.697  1.00  0.00     0.000 C 
BRANCH   3   4
ATOM      4  C   UNL     1    -115.705 -98.542  34.719  1.00  0.00     0.000 C 
BRANCH   4   5
ATOM      5  C   UNL     1    -115.769 -99.369  33.426  1.00  0.00     0.000 C 
BRANCH   5   6
ATOM      6  C   UNL     1    -116.872 -98.886  32.467  1.00  0.00     0.006 C 
BRANCH   6   7
ATOM      7  C   UNL     1    -116.977 -97.356  32.429  1.00  0.00     0.053 C 
BRANCH   7   8
ATOM      8  C   UNL     1    -117.982 -96.894  31.418  1.00  0.00     0.041 C 
ATOM      9  O   UNL     1    -118.428 -95.718  31.458  1.00  0.00    -0.550 OA
ATOM     10  O   UNL     1    -118.402 -97.755  30.411  1.00  0.00    -0.550 OA
ENDBRANCH   7   8
ENDBRANCH   6   7
ENDBRANCH   5   6
ENDBRANCH   4   5
ENDBRANCH   3   4
ENDBRANCH   2   3
ENDBRANCH   1   2
BRANCH   1  11
ATOM     11  C   UNL     1    -117.702-100.123  38.986  1.00  0.00     0.000 C 
BRANCH  11  12
ATOM     12  C   UNL     1    -118.384 -99.513  40.224  1.00  0.00     0.000 C 
BRANCH  12  13
ATOM     13  C   UNL     1    -117.708 -98.216  40.703  1.00  0.00     0.000 C 
BRANCH  13  14
ATOM     14  C   UNL     1    -117.817 -98.031  42.232  1.00  0.00     0.000 C 
BRANCH  14  15
ATOM     15  C   UNL     1    -117.075 -99.112  43.041  1.00  0.00     0.000 C 
BRANCH  15  16
ATOM     16  C   UNL     1    -117.476 -99.199  44.526  1.00  0.00     0.006 C 
BRANCH  16  17
ATOM     17  C   UNL     1    -118.840 -98.567  44.848  1.00  0.00     0.053 C 
BRANCH  17  18
ATOM     18  C   UNL     1    -118.735 -97.519  45.912  1.00  0.00     0.041 C 
ATOM     19  O   UNL     1    -118.541 -96.315  45.599  1.00  0.00    -0.550 OA
ATOM     20  O   UNL     1    -118.817 -97.876  47.252  1.00  0.00    -0.550 OA
ENDBRANCH  17  18
ENDBRANCH  16  17
ENDBRANCH  15  16
ENDBRANCH  14  15
ENDBRANCH  13  14
ENDBRANCH  12  13
ENDBRANCH  11  12
ENDBRANCH   1  11
TORSDOF 15
ENDMDL
MODEL 6
REMARK VINA RESULT:    -3.033      2.012     10.606
REMARK INTER + INTRA:          -6.163
REMARK INTER:                  -5.161
REMARK INTRA:                  -1.002
REMARK UNBOUND:                -0.469
REMARK SMILES O=C([O-])CCCCCCCCCCCCCCC(=O)[O-]
REMARK SMILES IDX 10 1 9 2 8 3 7 4 6 5 5 6 4 7 2 8 1 9 3 10 11 11 12 12 13 13
REMARK SMILES IDX 14 14 15 15 16 16 17 17 18 18 19 19 20 20
REMARK H PARENT
REMARK Flexibility Score: inf
ROOT
ATOM      1  C   UNL     1    -116.008 -97.941  35.017  1.00  0.00     0.000 C 
ENDROOT
BRANCH   1   2
ATOM      2  C   UNL     1    -115.792 -97.983  33.497  1.00  0.00     0.000 C 
BRANCH   2   3
ATOM      3  C   UNL     1    -115.389 -99.390  33.037  1.00  0.00     0.000 C 
BRANCH   3   4
ATOM      4  C   UNL     1    -116.581-100.125  32.405  1.00  0.00     0.000 C 
BRANCH   4   5
ATOM      5  C   UNL     1    -117.840-100.074  33.283  1.00  0.00     0.000 C 
BRANCH   5   6
ATOM      6  C   UNL     1    -119.045 -99.450  32.556  1.00  0.00     0.006 C 
BRANCH   6   7
ATOM      7  C   UNL     1    -118.690 -98.991  31.136  1.00  0.00     0.053 C 
BRANCH   7   8
ATOM      8  C   UNL     1    -118.584 -97.499  31.045  1.00  0.00     0.041 C 
ATOM      9  O   UNL     1    -118.250 -96.952  29.962  1.00  0.00    -0.550 OA
ATOM     10  O   UNL     1    -118.888 -96.712  32.149  1.00  0.00    -0.550 OA
ENDBRANCH   7   8
ENDBRANCH   6   7
ENDBRANCH   5   6
ENDBRANCH   4   5
ENDBRANCH   3   4
ENDBRANCH   2   3
ENDBRANCH   1   2
BRANCH   1  11
ATOM     11  C   UNL     1    -115.227 -99.038  35.763  1.00  0.00     0.000 C 
BRANCH  11  12
ATOM     12  C   UNL     1    -116.099-100.124  36.419  1.00  0.00     0.000 C 
BRANCH  12  13
ATOM     13  C   UNL     1    -117.235 -99.544  37.279  1.00  0.00     0.000 C 
BRANCH  13  14
ATOM     14  C   UNL     1    -117.234-100.116  38.713  1.00  0.00     0.000 C 
BRANCH  14  15
ATOM     15  C   UNL     1    -118.128 -99.331  39.693  1.00  0.00     0.000 C 
BRANCH  15  16
ATOM     16  C   UNL     1    -118.309 -99.991  41.074  1.00  0.00     0.006 C 
BRANCH  16  17
ATOM     17  C   UNL     1    -118.318 -99.000  42.249  1.00  0.00     0.053 C 
BRANCH  17  18
ATOM     18  C   UNL     1    -117.014 -98.987  42.983  1.00  0.00     0.041 C 
ATOM     19  O   UNL     1    -115.954 -98.663  42.386  1.00  0.00    -0.550 OA
ATOM     20  O   UNL     1    -116.963 -99.366  44.319  1.00  0.00    -0.550 OA
ENDBRANCH  17  18
ENDBRANCH  16  17
ENDBRANCH  15  16
ENDBRANCH  14  15
ENDBRANCH  13  14
ENDBRANCH  12  13
ENDBRANCH  11  12
ENDBRANCH   1  11
TORSDOF 15
ENDMDL
MODEL 7
REMARK VINA RESULT:    -2.969      1.767     11.695
REMARK INTER + INTRA:          -6.042
REMARK INTER:                  -5.444
REMARK INTRA:                  -0.597
REMARK UNBOUND:                -0.469
REMARK SMILES O=C([O-])CCCCCCCCCCCCCCC(=O)[O-]
REMARK SMILES IDX 10 1 9 2 8 3 7 4 6 5 5 6 4 7 2 8 1 9 3 10 11 11 12 12 13 13
REMARK SMILES IDX 14 14 15 15 16 16 17 17 18 18 19 19 20 20
REMARK H PARENT
REMARK Flexibility Score: inf
ROOT
ATOM      1  C   UNL     1    -117.401 -99.192  39.453  1.00  0.00     0.000 C 
ENDROOT
BRANCH   1   2
ATOM      2  C   UNL     1    -116.612-100.028  38.434  1.00  0.00     0.000 C 
BRANCH   2   3
ATOM      3  C   UNL     1    -117.092 -99.747  37.004  1.00  0.00     0.000 C 
BRANCH   3   4
ATOM      4  C   UNL     1    -116.053 -98.924  36.228  1.00  0.00     0.000 C 
BRANCH   4   5
ATOM      5  C   UNL     1    -115.800 -99.473  34.816  1.00  0.00     0.000 C 
BRANCH   5   6
ATOM      6  C   UNL     1    -116.972 -99.204  33.856  1.00  0.00     0.006 C 
BRANCH   6   7
ATOM      7  C   UNL     1    -116.525 -98.464  32.588  1.00  0.00     0.053 C 
BRANCH   7   8
ATOM      8  C   UNL     1    -116.736 -96.985  32.705  1.00  0.00     0.041 C 
ATOM      9  O   UNL     1    -117.648 -96.421  32.044  1.00  0.00    -0.550 OA
ATOM     10  O   UNL     1    -115.948 -96.236  33.568  1.00  0.00    -0.550 OA
ENDBRANCH   7   8
ENDBRANCH   6   7
ENDBRANCH   5   6
ENDBRANCH   4   5
ENDBRANCH   3   4
ENDBRANCH   2   3
ENDBRANCH   1   2
BRANCH   1  11
ATOM     11  C   UNL     1    -118.455-100.016  40.216  1.00  0.00     0.000 C 
BRANCH  11  12
ATOM     12  C   UNL     1    -119.125 -99.284  41.393  1.00  0.00     0.000 C 
BRANCH  12  13
ATOM     13  C   UNL     1    -118.416 -97.968  41.763  1.00  0.00     0.000 C 
BRANCH  13  14
ATOM     14  C   UNL     1    -118.578 -97.617  43.257  1.00  0.00     0.000 C 
BRANCH  14  15
ATOM     15  C   UNL     1    -118.387 -98.821  44.200  1.00  0.00     0.000 C 
BRANCH  15  16
ATOM     16  C   UNL     1    -118.168 -98.455  45.681  1.00  0.00     0.006 C 
BRANCH  16  17
ATOM     17  C   UNL     1    -117.846 -99.656  46.586  1.00  0.00     0.053 C 
BRANCH  17  18
ATOM     18  C   UNL     1    -117.629 -99.243  48.008  1.00  0.00     0.041 C 
ATOM     19  O   UNL     1    -117.445-100.113  48.899  1.00  0.00    -0.550 OA
ATOM     20  O   UNL     1    -117.664 -97.898  48.356  1.00  0.00    -0.550 OA
ENDBRANCH  17  18
ENDBRANCH  16  17
ENDBRANCH  15  16
ENDBRANCH  14  15
ENDBRANCH  13  14
ENDBRANCH  12  13
ENDBRANCH  11  12
ENDBRANCH   1  11
TORSDOF 15
ENDMDL
MODEL 8
REMARK VINA RESULT:    -2.366      2.149     11.908
REMARK INTER + INTRA:          -4.909
REMARK INTER:                  -4.217
REMARK INTRA:                  -0.693
REMARK UNBOUND:                -0.469
REMARK SMILES O=C([O-])CCCCCCCCCCCCCCC(=O)[O-]
REMARK SMILES IDX 10 1 9 2 8 3 7 4 6 5 5 6 4 7 2 8 1 9 3 10 11 11 12 12 13 13
REMARK SMILES IDX 14 14 15 15 16 16 17 17 18 18 19 19 20 20
REMARK H PARENT
REMARK Flexibility Score: inf
ROOT
ATOM      1  C   UNL     1    -116.502 -99.343  41.607  1.00  0.00     0.000 C 
ENDROOT
BRANCH   1   2
ATOM      2  C   UNL     1    -116.605-100.107  40.279  1.00  0.00     0.000 C 
BRANCH   2   3
ATOM      3  C   UNL     1    -118.012 -99.983  39.681  1.00  0.00     0.000 C 
BRANCH   3   4
ATOM      4  C   UNL     1    -117.975-100.122  38.152  1.00  0.00     0.000 C 
BRANCH   4   5
ATOM      5  C   UNL     1    -116.662 -99.608  37.544  1.00  0.00     0.000 C 
BRANCH   5   6
ATOM      6  C   UNL     1    -116.429-100.125  36.113  1.00  0.00     0.006 C 
BRANCH   6   7
ATOM      7  C   UNL     1    -117.236 -99.335  35.074  1.00  0.00     0.053 C 
BRANCH   7   8
ATOM      8  C   UNL     1    -116.719 -99.557  33.685  1.00  0.00     0.041 C 
ATOM      9  O   UNL     1    -117.485 -99.424  32.695  1.00  0.00    -0.550 OA
ATOM     10  O   UNL     1    -115.383 -99.879  33.483  1.00  0.00    -0.550 OA
ENDBRANCH   7   8
ENDBRANCH   6   7
ENDBRANCH   5   6
ENDBRANCH   4   5
ENDBRANCH   3   4
ENDBRANCH   2   3
ENDBRANCH   1   2
BRANCH   1  11
ATOM     11  C   UNL     1    -117.876 -99.000  42.210  1.00  0.00     0.000 C 
BRANCH  11  12
ATOM     12  C   UNL     1    -117.999 -99.241  43.726  1.00  0.00     0.000 C 
BRANCH  12  13
ATOM     13  C   UNL     1    -118.979 -98.270  44.409  1.00  0.00     0.000 C 
BRANCH  13  14
ATOM     14  C   UNL     1    -118.248 -97.137  45.162  1.00  0.00     0.000 C 
BRANCH  14  15
ATOM     15  C   UNL     1    -119.009 -96.629  46.402  1.00  0.00     0.000 C 
BRANCH  15  16
ATOM     16  C   UNL     1    -118.114 -96.225  47.590  1.00  0.00     0.006 C 
BRANCH  16  17
ATOM     17  C   UNL     1    -118.231 -97.152  48.811  1.00  0.00     0.053 C 
BRANCH  17  18
ATOM     18  C   UNL     1    -118.166 -98.597  48.426  1.00  0.00     0.041 C 
ATOM     19  O   UNL     1    -119.114 -99.373  48.715  1.00  0.00    -0.550 OA
ATOM     20  O   UNL     1    -117.043 -99.095  47.777  1.00  0.00    -0.550 OA
ENDBRANCH  17  18
ENDBRANCH  16  17
ENDBRANCH  15  16
ENDBRANCH  14  15
ENDBRANCH  13  14
ENDBRANCH  12  13
ENDBRANCH  11  12
ENDBRANCH   1  11
TORSDOF 15
ENDMDL
