MODEL 1
REMARK VINA RESULT:    -6.394      0.000      0.000
REMARK INTER + INTRA:         -10.545
REMARK INTER:                  -9.759
REMARK INTRA:                  -0.786
REMARK UNBOUND:                -0.786
REMARK SMILES CC(=O)CCC=C(C)CCC=C(C)CCC=C(C)C
REMARK SMILES IDX 10 1 11 2 12 3 13 4 14 5 15 6 16 7 18 8 17 9 19 10 9 11 7 12
REMARK SMILES IDX 6 13 8 14 5 15 4 16 2 17 3 18 1 19
REMARK H PARENT
REMARK Flexibility Score: inf
ROOT
ATOM      1  C   UNL     1     -25.477  17.308 -30.676  1.00  0.00     0.032 C 
ENDROOT
BRANCH   1   2
ATOM      2  C   UNL     1     -25.549  15.885 -30.179  1.00  0.00    -0.028 C 
ATOM      3  C   UNL     1     -24.630  14.930 -30.450  1.00  0.00    -0.077 C 
ATOM      4  C   UNL     1     -23.367  15.233 -31.218  1.00  0.00     0.039 C 
BRANCH   3   5
ATOM      5  C   UNL     1     -24.871  13.523 -29.951  1.00  0.00     0.034 C 
BRANCH   5   6
ATOM      6  C   UNL     1     -26.188  12.969 -30.508  1.00  0.00     0.032 C 
BRANCH   6   7
ATOM      7  C   UNL     1     -27.221  12.844 -29.417  1.00  0.00    -0.028 C 
ATOM      8  C   UNL     1     -28.728  11.396 -30.798  1.00  0.00     0.039 C 
ATOM      9  C   UNL     1     -28.381  12.160 -29.541  1.00  0.00    -0.080 C 
ATOM     10  C   UNL     1     -29.339  12.154 -28.379  1.00  0.00     0.039 C 
ENDBRANCH   6   7
ENDBRANCH   5   6
ENDBRANCH   3   5
ENDBRANCH   1   2
BRANCH   1  11
ATOM     11  C   UNL     1     -26.799  17.748 -31.321  1.00  0.00     0.034 C 
BRANCH  11  12
ATOM     12  C   UNL     1     -26.579  18.740 -32.446  1.00  0.00    -0.077 C 
ATOM     13  C   UNL     1     -25.316  19.122 -32.746  1.00  0.00    -0.028 C 
ATOM     14  C   UNL     1     -27.776  19.292 -33.183  1.00  0.00     0.039 C 
BRANCH  13  15
ATOM     15  C   UNL     1     -24.955  20.077 -33.857  1.00  0.00     0.035 C 
BRANCH  15  16
ATOM     16  C   UNL     1     -23.479  19.931 -34.242  1.00  0.00     0.079 C 
BRANCH  16  17
ATOM     17  C   UNL     1     -22.592  20.500 -33.168  1.00  0.00     0.130 C 
ATOM     18  O   UNL     1     -21.477  20.031 -32.997  1.00  0.00    -0.300 OA
ATOM     19  C   UNL     1     -23.043  21.643 -32.306  1.00  0.00     0.087 C 
ENDBRANCH  16  17
ENDBRANCH  15  16
ENDBRANCH  13  15
ENDBRANCH  11  12
ENDBRANCH   1  11
TORSDOF 9
ENDMDL
MODEL 2
REMARK VINA RESULT:    -6.084      2.456      7.679
REMARK INTER + INTRA:         -10.072
REMARK INTER:                  -9.129
REMARK INTRA:                  -0.942
REMARK UNBOUND:                -0.786
REMARK SMILES CC(=O)CCC=C(C)CCC=C(C)CCC=C(C)C
REMARK SMILES IDX 10 1 11 2 12 3 13 4 14 5 15 6 16 7 18 8 17 9 19 10 9 11 7 12
REMARK SMILES IDX 6 13 8 14 5 15 4 16 2 17 3 18 1 19
REMARK H PARENT
REMARK Flexibility Score: inf
ROOT
ATOM      1  C   UNL     1     -24.506  17.934 -30.839  1.00  0.00     0.032 C 
ENDROOT
BRANCH   1   2
ATOM      2  C   UNL     1     -24.647  18.511 -32.226  1.00  0.00    -0.028 C 
ATOM      3  C   UNL     1     -23.850  19.475 -32.742  1.00  0.00    -0.077 C 
ATOM      4  C   UNL     1     -22.655  20.009 -31.989  1.00  0.00     0.039 C 
BRANCH   3   5
ATOM      5  C   UNL     1     -24.158  20.018 -34.119  1.00  0.00     0.034 C 
BRANCH   5   6
ATOM      6  C   UNL     1     -25.667  19.993 -34.385  1.00  0.00     0.032 C 
BRANCH   6   7
ATOM      7  C   UNL     1     -26.332  21.222 -33.818  1.00  0.00    -0.028 C 
ATOM      8  C   UNL     1     -28.356  19.963 -33.052  1.00  0.00     0.039 C 
ATOM      9  C   UNL     1     -27.552  21.228 -33.237  1.00  0.00    -0.080 C 
ATOM     10  C   UNL     1     -28.110  22.540 -32.750  1.00  0.00     0.039 C 
ENDBRANCH   6   7
ENDBRANCH   5   6
ENDBRANCH   3   5
ENDBRANCH   1   2
BRANCH   1  11
ATOM     11  C   UNL     1     -25.659  16.976 -30.506  1.00  0.00     0.034 C 
BRANCH  11  12
ATOM     12  C   UNL     1     -25.196  15.534 -30.439  1.00  0.00    -0.077 C 
ATOM     13  C   UNL     1     -26.017  14.605 -29.898  1.00  0.00    -0.028 C 
ATOM     14  C   UNL     1     -23.821  15.180 -30.958  1.00  0.00     0.039 C 
BRANCH  13  15
ATOM     15  C   UNL     1     -25.693  13.136 -29.796  1.00  0.00     0.035 C 
BRANCH  15  16
ATOM     16  C   UNL     1     -26.851  12.284 -30.324  1.00  0.00     0.079 C 
BRANCH  16  17
ATOM     17  C   UNL     1     -26.668  11.990 -31.789  1.00  0.00     0.130 C 
ATOM     18  O   UNL     1     -26.319  12.884 -32.543  1.00  0.00    -0.300 OA
ATOM     19  C   UNL     1     -26.896  10.614 -32.343  1.00  0.00     0.087 C 
ENDBRANCH  16  17
ENDBRANCH  15  16
ENDBRANCH  13  15
ENDBRANCH  11  12
ENDBRANCH   1  11
TORSDOF 9
ENDMDL
MODEL 3
REMARK VINA RESULT:    -5.835      9.871     12.271
REMARK INTER + INTRA:          -9.692
REMARK INTER:                  -7.963
REMARK INTRA:                  -1.729
REMARK UNBOUND:                -0.786
REMARK SMILES CC(=O)CCC=C(C)CCC=C(C)CCC=C(C)C
REMARK SMILES IDX 10 1 11 2 12 3 13 4 14 5 15 6 16 7 18 8 17 9 19 10 9 11 7 12
REMARK SMILES IDX 6 13 8 14 5 15 4 16 2 17 3 18 1 19
REMARK H PARENT
REMARK Flexibility Score: inf
ROOT
ATOM      1  C   UNL     1     -16.822  13.946 -31.663  1.00  0.00     0.032 C 
ENDROOT
BRANCH   1   2
ATOM      2  C   UNL     1     -17.622  12.871 -30.969  1.00  0.00    -0.028 C 
ATOM      3  C   UNL     1     -17.728  12.738 -29.628  1.00  0.00    -0.077 C 
ATOM      4  C   UNL     1     -17.115  13.736 -28.676  1.00  0.00     0.039 C 
BRANCH   3   5
ATOM      5  C   UNL     1     -18.500  11.563 -29.069  1.00  0.00     0.034 C 
BRANCH   5   6
ATOM      6  C   UNL     1     -17.736  10.254 -29.302  1.00  0.00     0.032 C 
BRANCH   6   7
ATOM      7  C   UNL     1     -16.643  10.082 -28.278  1.00  0.00    -0.028 C 
ATOM      8  C   UNL     1     -14.818  10.600 -29.912  1.00  0.00     0.039 C 
ATOM      9  C   UNL     1     -15.324  10.211 -28.544  1.00  0.00    -0.080 C 
ATOM     10  C   UNL     1     -14.340   9.969 -27.428  1.00  0.00     0.039 C 
ENDBRANCH   6   7
ENDBRANCH   5   6
ENDBRANCH   3   5
ENDBRANCH   1   2
BRANCH   1  11
ATOM     11  C   UNL     1     -15.577  13.368 -32.351  1.00  0.00     0.034 C 
BRANCH  11  12
ATOM     12  C   UNL     1     -14.309  14.073 -31.914  1.00  0.00    -0.077 C 
ATOM     13  C   UNL     1     -13.138  13.749 -32.509  1.00  0.00    -0.028 C 
ATOM     14  C   UNL     1     -14.385  15.101 -30.809  1.00  0.00     0.039 C 
BRANCH  13  15
ATOM     15  C   UNL     1     -11.812  14.393 -32.190  1.00  0.00     0.035 C 
BRANCH  15  16
ATOM     16  C   UNL     1     -10.775  14.069 -33.271  1.00  0.00     0.079 C 
BRANCH  16  17
ATOM     17  C   UNL     1     -10.612  12.580 -33.420  1.00  0.00     0.130 C 
ATOM     18  O   UNL     1     -10.937  12.041 -34.467  1.00  0.00    -0.300 OA
ATOM     19  C   UNL     1     -10.047  11.741 -32.311  1.00  0.00     0.087 C 
ENDBRANCH  16  17
ENDBRANCH  15  16
ENDBRANCH  13  15
ENDBRANCH  11  12
ENDBRANCH   1  11
TORSDOF 9
ENDMDL
MODEL 4
REMARK VINA RESULT:    -5.771      2.888      7.881
REMARK INTER + INTRA:          -9.593
REMARK INTER:                  -8.989
REMARK INTRA:                  -0.604
REMARK UNBOUND:                -0.786
REMARK SMILES CC(=O)CCC=C(C)CCC=C(C)CCC=C(C)C
REMARK SMILES IDX 10 1 11 2 12 3 13 4 14 5 15 6 16 7 18 8 17 9 19 10 9 11 7 12
REMARK SMILES IDX 6 13 8 14 5 15 4 16 2 17 3 18 1 19
REMARK H PARENT
REMARK Flexibility Score: inf
ROOT
ATOM      1  C   UNL     1     -24.710  17.863 -30.803  1.00  0.00     0.032 C 
ENDROOT
BRANCH   1   2
ATOM      2  C   UNL     1     -24.805  18.337 -32.233  1.00  0.00    -0.028 C 
ATOM      3  C   UNL     1     -24.025  19.300 -32.776  1.00  0.00    -0.077 C 
ATOM      4  C   UNL     1     -22.894  19.938 -32.007  1.00  0.00     0.039 C 
BRANCH   3   5
ATOM      5  C   UNL     1     -24.286  19.732 -34.202  1.00  0.00     0.034 C 
BRANCH   5   6
ATOM      6  C   UNL     1     -25.463  20.712 -34.263  1.00  0.00     0.032 C 
BRANCH   6   7
ATOM      7  C   UNL     1     -26.753  20.024 -33.892  1.00  0.00    -0.028 C 
ATOM      8  C   UNL     1     -27.787  22.116 -32.984  1.00  0.00     0.039 C 
ATOM      9  C   UNL     1     -27.798  20.638 -33.294  1.00  0.00    -0.080 C 
ATOM     10  C   UNL     1     -29.011  19.814 -32.945  1.00  0.00     0.039 C 
ENDBRANCH   6   7
ENDBRANCH   5   6
ENDBRANCH   3   5
ENDBRANCH   1   2
BRANCH   1  11
ATOM     11  C   UNL     1     -25.814  16.849 -30.470  1.00  0.00     0.034 C 
BRANCH  11  12
ATOM     12  C   UNL     1     -25.271  15.439 -30.352  1.00  0.00    -0.077 C 
ATOM     13  C   UNL     1     -26.035  14.488 -29.766  1.00  0.00    -0.028 C 
ATOM     14  C   UNL     1     -23.883  15.141 -30.871  1.00  0.00     0.039 C 
BRANCH  13  15
ATOM     15  C   UNL     1     -25.629  13.044 -29.610  1.00  0.00     0.035 C 
BRANCH  15  16
ATOM     16  C   UNL     1     -26.843  12.119 -29.743  1.00  0.00     0.079 C 
BRANCH  16  17
ATOM     17  C   UNL     1     -27.664  12.138 -28.481  1.00  0.00     0.130 C 
ATOM     18  O   UNL     1     -27.149  11.813 -27.423  1.00  0.00    -0.300 OA
ATOM     19  C   UNL     1     -29.104  12.561 -28.494  1.00  0.00     0.087 C 
ENDBRANCH  16  17
ENDBRANCH  15  16
ENDBRANCH  13  15
ENDBRANCH  11  12
ENDBRANCH   1  11
TORSDOF 9
ENDMDL
MODEL 5
REMARK VINA RESULT:    -5.658     10.176     12.594
REMARK INTER + INTRA:          -9.421
REMARK INTER:                  -7.611
REMARK INTRA:                  -1.810
REMARK UNBOUND:                -0.786
REMARK SMILES CC(=O)CCC=C(C)CCC=C(C)CCC=C(C)C
REMARK SMILES IDX 10 1 11 2 12 3 13 4 14 5 15 6 16 7 18 8 17 9 19 10 9 11 7 12
REMARK SMILES IDX 6 13 8 14 5 15 4 16 2 17 3 18 1 19
REMARK H PARENT
REMARK Flexibility Score: inf
ROOT
ATOM      1  C   UNL     1     -17.209  13.767 -29.259  1.00  0.00     0.032 C 
ENDROOT
BRANCH   1   2
ATOM      2  C   UNL     1     -16.809  12.795 -28.177  1.00  0.00    -0.028 C 
ATOM      3  C   UNL     1     -16.981  11.455 -28.245  1.00  0.00    -0.077 C 
ATOM      4  C   UNL     1     -17.518  10.782 -29.486  1.00  0.00     0.039 C 
BRANCH   3   5
ATOM      5  C   UNL     1     -16.605  10.608 -27.050  1.00  0.00     0.034 C 
BRANCH   5   6
ATOM      6  C   UNL     1     -15.202  10.016 -27.227  1.00  0.00     0.032 C 
BRANCH   6   7
ATOM      7  C   UNL     1     -14.166  10.881 -26.553  1.00  0.00    -0.028 C 
ATOM      8  C   UNL     1     -13.348  11.852 -28.712  1.00  0.00     0.039 C 
ATOM      9  C   UNL     1     -13.309  11.694 -27.210  1.00  0.00    -0.080 C 
ATOM     10  C   UNL     1     -12.298  12.470 -26.407  1.00  0.00     0.039 C 
ENDBRANCH   6   7
ENDBRANCH   5   6
ENDBRANCH   3   5
ENDBRANCH   1   2
BRANCH   1  11
ATOM     11  C   UNL     1     -16.046  14.691 -29.647  1.00  0.00     0.034 C 
BRANCH  11  12
ATOM     12  C   UNL     1     -15.395  14.267 -30.949  1.00  0.00    -0.077 C 
ATOM     13  C   UNL     1     -14.113  14.626 -31.189  1.00  0.00    -0.028 C 
ATOM     14  C   UNL     1     -16.204  13.475 -31.950  1.00  0.00     0.039 C 
BRANCH  13  15
ATOM     15  C   UNL     1     -13.339  14.247 -32.427  1.00  0.00     0.035 C 
BRANCH  15  16
ATOM     16  C   UNL     1     -11.830  14.334 -32.174  1.00  0.00     0.079 C 
BRANCH  16  17
ATOM     17  C   UNL     1     -11.165  13.017 -32.471  1.00  0.00     0.130 C 
ATOM     18  O   UNL     1     -11.457  12.033 -31.809  1.00  0.00    -0.300 OA
ATOM     19  C   UNL     1     -10.157  12.883 -33.574  1.00  0.00     0.087 C 
ENDBRANCH  16  17
ENDBRANCH  15  16
ENDBRANCH  13  15
ENDBRANCH  11  12
ENDBRANCH   1  11
TORSDOF 9
ENDMDL
MODEL 6
REMARK VINA RESULT:    -5.555      1.887      3.899
REMARK INTER + INTRA:          -9.264
REMARK INTER:                  -8.266
REMARK INTRA:                  -0.998
REMARK UNBOUND:                -0.786
REMARK SMILES CC(=O)CCC=C(C)CCC=C(C)CCC=C(C)C
REMARK SMILES IDX 10 1 11 2 12 3 13 4 14 5 15 6 16 7 18 8 17 9 19 10 9 11 7 12
REMARK SMILES IDX 6 13 8 14 5 15 4 16 2 17 3 18 1 19
REMARK H PARENT
REMARK Flexibility Score: inf
ROOT
ATOM      1  C   UNL     1     -24.719  12.795 -29.789  1.00  0.00     0.032 C 
ENDROOT
BRANCH   1   2
ATOM      2  C   UNL     1     -25.368  12.041 -28.654  1.00  0.00    -0.028 C 
ATOM      3  C   UNL     1     -25.195  10.722 -28.410  1.00  0.00    -0.077 C 
ATOM      4  C   UNL     1     -24.236   9.881 -29.217  1.00  0.00     0.039 C 
BRANCH   3   5
ATOM      5  C   UNL     1     -25.972  10.079 -27.283  1.00  0.00     0.034 C 
BRANCH   5   6
ATOM      6  C   UNL     1     -27.442  10.513 -27.325  1.00  0.00     0.032 C 
BRANCH   6   7
ATOM      7  C   UNL     1     -28.009  10.353 -28.712  1.00  0.00    -0.028 C 
ATOM      8  C   UNL     1     -29.223  12.543 -28.636  1.00  0.00     0.039 C 
ATOM      9  C   UNL     1     -28.832  11.247 -29.306  1.00  0.00    -0.080 C 
ATOM     10  C   UNL     1     -29.355  10.936 -30.684  1.00  0.00     0.039 C 
ENDBRANCH   6   7
ENDBRANCH   5   6
ENDBRANCH   3   5
ENDBRANCH   1   2
BRANCH   1  11
ATOM     11  C   UNL     1     -25.665  13.852 -30.378  1.00  0.00     0.034 C 
BRANCH  11  12
ATOM     12  C   UNL     1     -24.984  15.198 -30.532  1.00  0.00    -0.077 C 
ATOM     13  C   UNL     1     -25.703  16.325 -30.324  1.00  0.00    -0.028 C 
ATOM     14  C   UNL     1     -23.528  15.242 -30.935  1.00  0.00     0.039 C 
BRANCH  13  15
ATOM     15  C   UNL     1     -25.143  17.722 -30.415  1.00  0.00     0.035 C 
BRANCH  15  16
ATOM     16  C   UNL     1     -25.372  18.312 -31.810  1.00  0.00     0.079 C 
BRANCH  16  17
ATOM     17  C   UNL     1     -24.101  18.916 -32.346  1.00  0.00     0.130 C 
ATOM     18  O   UNL     1     -23.024  18.449 -32.008  1.00  0.00    -0.300 OA
ATOM     19  C   UNL     1     -24.128  20.075 -33.297  1.00  0.00     0.087 C 
ENDBRANCH  16  17
ENDBRANCH  15  16
ENDBRANCH  13  15
ENDBRANCH  11  12
ENDBRANCH   1  11
TORSDOF 9
ENDMDL
MODEL 7
REMARK VINA RESULT:    -5.416     10.788     13.352
REMARK INTER + INTRA:          -9.052
REMARK INTER:                  -7.372
REMARK INTRA:                  -1.680
REMARK UNBOUND:                -0.786
REMARK SMILES CC(=O)CCC=C(C)CCC=C(C)CCC=C(C)C
REMARK SMILES IDX 10 1 11 2 12 3 13 4 14 5 15 6 16 7 18 8 17 9 19 10 9 11 7 12
REMARK SMILES IDX 6 13 8 14 5 15 4 16 2 17 3 18 1 19
REMARK H PARENT
REMARK Flexibility Score: inf
ROOT
ATOM      1  C   UNL     1     -15.210  15.229 -30.784  1.00  0.00     0.032 C 
ENDROOT
BRANCH   1   2
ATOM      2  C   UNL     1     -15.667  14.468 -29.563  1.00  0.00    -0.028 C 
ATOM      3  C   UNL     1     -16.562  13.455 -29.581  1.00  0.00    -0.077 C 
ATOM      4  C   UNL     1     -17.131  12.914 -30.871  1.00  0.00     0.039 C 
BRANCH   3   5
ATOM      5  C   UNL     1     -16.989  12.834 -28.270  1.00  0.00     0.034 C 
BRANCH   5   6
ATOM      6  C   UNL     1     -16.187  11.559 -27.988  1.00  0.00     0.032 C 
BRANCH   6   7
ATOM      7  C   UNL     1     -14.975  11.863 -27.144  1.00  0.00    -0.028 C 
ATOM      8  C   UNL     1     -13.394  11.699 -29.080  1.00  0.00     0.039 C 
ATOM      9  C   UNL     1     -13.709  11.905 -27.617  1.00  0.00    -0.080 C 
ATOM     10  C   UNL     1     -12.589  12.182 -26.647  1.00  0.00     0.039 C 
ENDBRANCH   6   7
ENDBRANCH   5   6
ENDBRANCH   3   5
ENDBRANCH   1   2
BRANCH   1  11
ATOM     11  C   UNL     1     -13.680  15.343 -30.838  1.00  0.00     0.034 C 
BRANCH  11  12
ATOM     12  C   UNL     1     -13.091  14.523 -31.970  1.00  0.00    -0.077 C 
ATOM     13  C   UNL     1     -11.777  14.657 -32.261  1.00  0.00    -0.028 C 
ATOM     14  C   UNL     1     -13.993  13.599 -32.753  1.00  0.00     0.039 C 
BRANCH  13  15
ATOM     15  C   UNL     1     -11.059  13.883 -33.339  1.00  0.00     0.035 C 
BRANCH  15  16
ATOM     16  C   UNL     1      -9.992  12.966 -32.733  1.00  0.00     0.079 C 
BRANCH  16  17
ATOM     17  C   UNL     1     -10.222  11.537 -33.147  1.00  0.00     0.130 C 
ATOM     18  O   UNL     1     -10.662  10.740 -32.334  1.00  0.00    -0.300 OA
ATOM     19  C   UNL     1      -9.934  11.073 -34.544  1.00  0.00     0.087 C 
ENDBRANCH  16  17
ENDBRANCH  15  16
ENDBRANCH  13  15
ENDBRANCH  11  12
ENDBRANCH   1  11
TORSDOF 9
ENDMDL
MODEL 8
REMARK VINA RESULT:    -5.259      9.987     13.249
REMARK INTER + INTRA:          -8.813
REMARK INTER:                  -7.295
REMARK INTRA:                  -1.518
REMARK UNBOUND:                -0.786
REMARK SMILES CC(=O)CCC=C(C)CCC=C(C)CCC=C(C)C
REMARK SMILES IDX 10 1 11 2 12 3 13 4 14 5 15 6 16 7 18 8 17 9 19 10 9 11 7 12
REMARK SMILES IDX 6 13 8 14 5 15 4 16 2 17 3 18 1 19
REMARK H PARENT
REMARK Flexibility Score: inf
ROOT
ATOM      1  C   UNL     1     -15.298  10.487 -27.251  1.00  0.00     0.032 C 
ENDROOT
BRANCH   1   2
ATOM      2  C   UNL     1     -14.227  10.430 -28.312  1.00  0.00    -0.028 C 
ATOM      3  C   UNL     1     -13.080  11.146 -28.285  1.00  0.00    -0.077 C 
ATOM      4  C   UNL     1     -12.714  12.021 -27.111  1.00  0.00     0.039 C 
BRANCH   3   5
ATOM      5  C   UNL     1     -12.131  11.050 -29.459  1.00  0.00     0.034 C 
BRANCH   5   6
ATOM      6  C   UNL     1     -12.540  12.028 -30.566  1.00  0.00     0.032 C 
BRANCH   6   7
ATOM      7  C   UNL     1     -11.439  12.173 -31.586  1.00  0.00    -0.028 C 
ATOM      8  C   UNL     1     -12.135  14.491 -32.233  1.00  0.00     0.039 C 
ATOM      9  C   UNL     1     -11.259  13.267 -32.361  1.00  0.00    -0.080 C 
ATOM     10  C   UNL     1     -10.138  13.257 -33.368  1.00  0.00     0.039 C 
ENDBRANCH   6   7
ENDBRANCH   5   6
ENDBRANCH   3   5
ENDBRANCH   1   2
BRANCH   1  11
ATOM     11  C   UNL     1     -16.695  10.259 -27.845  1.00  0.00     0.034 C 
BRANCH  11  12
ATOM     12  C   UNL     1     -17.195  11.477 -28.598  1.00  0.00    -0.077 C 
ATOM     13  C   UNL     1     -16.686  12.692 -28.292  1.00  0.00    -0.028 C 
ATOM     14  C   UNL     1     -18.264  11.300 -29.651  1.00  0.00     0.039 C 
BRANCH  13  15
ATOM     15  C   UNL     1     -17.073  13.977 -28.982  1.00  0.00     0.035 C 
BRANCH  15  16
ATOM     16  C   UNL     1     -16.032  14.365 -30.036  1.00  0.00     0.079 C 
BRANCH  16  17
ATOM     17  C   UNL     1     -16.429  13.842 -31.391  1.00  0.00     0.130 C 
ATOM     18  O   UNL     1     -17.534  14.110 -31.839  1.00  0.00    -0.300 OA
ATOM     19  C   UNL     1     -15.492  13.007 -32.212  1.00  0.00     0.087 C 
ENDBRANCH  16  17
ENDBRANCH  15  16
ENDBRANCH  13  15
ENDBRANCH  11  12
ENDBRANCH   1  11
TORSDOF 9
ENDMDL
MODEL 9
REMARK VINA RESULT:    -5.242      5.522      9.499
REMARK INTER + INTRA:          -8.786
REMARK INTER:                  -7.907
REMARK INTRA:                  -0.880
REMARK UNBOUND:                -0.786
REMARK SMILES CC(=O)CCC=C(C)CCC=C(C)CCC=C(C)C
REMARK SMILES IDX 10 1 11 2 12 3 13 4 14 5 15 6 16 7 18 8 17 9 19 10 9 11 7 12
REMARK SMILES IDX 6 13 8 14 5 15 4 16 2 17 3 18 1 19
REMARK H PARENT
REMARK Flexibility Score: inf
ROOT
ATOM      1  C   UNL     1     -22.326  10.560 -28.918  1.00  0.00     0.032 C 
ENDROOT
BRANCH   1   2
ATOM      2  C   UNL     1     -20.900  10.166 -28.621  1.00  0.00    -0.028 C 
ATOM      3  C   UNL     1     -19.811  10.863 -29.019  1.00  0.00    -0.077 C 
ATOM      4  C   UNL     1     -19.931  12.187 -29.736  1.00  0.00     0.039 C 
BRANCH   3   5
ATOM      5  C   UNL     1     -18.437  10.308 -28.719  1.00  0.00     0.034 C 
BRANCH   5   6
ATOM      6  C   UNL     1     -17.424  11.443 -28.534  1.00  0.00     0.032 C 
BRANCH   6   7
ATOM      7  C   UNL     1     -16.591  11.626 -29.778  1.00  0.00    -0.028 C 
ATOM      8  C   UNL     1     -16.592  14.124 -29.598  1.00  0.00     0.039 C 
ATOM      9  C   UNL     1     -16.229  12.827 -30.282  1.00  0.00    -0.080 C 
ATOM     10  C   UNL     1     -15.428  12.858 -31.558  1.00  0.00     0.039 C 
ENDBRANCH   6   7
ENDBRANCH   5   6
ENDBRANCH   3   5
ENDBRANCH   1   2
BRANCH   1  11
ATOM     11  C   UNL     1     -23.302   9.953 -27.899  1.00  0.00     0.034 C 
BRANCH  11  12
ATOM     12  C   UNL     1     -24.745  10.280 -28.234  1.00  0.00    -0.077 C 
ATOM     13  C   UNL     1     -25.066  10.604 -29.507  1.00  0.00    -0.028 C 
ATOM     14  C   UNL     1     -25.777  10.257 -27.131  1.00  0.00     0.039 C 
BRANCH  13  15
ATOM     15  C   UNL     1     -26.463  10.921 -29.980  1.00  0.00     0.035 C 
BRANCH  15  16
ATOM     16  C   UNL     1     -26.772  12.411 -29.805  1.00  0.00     0.079 C 
BRANCH  16  17
ATOM     17  C   UNL     1     -25.927  13.241 -30.735  1.00  0.00     0.130 C 
ATOM     18  O   UNL     1     -26.126  13.185 -31.939  1.00  0.00    -0.300 OA
ATOM     19  C   UNL     1     -24.851  14.146 -30.213  1.00  0.00     0.087 C 
ENDBRANCH  16  17
ENDBRANCH  15  16
ENDBRANCH  13  15
ENDBRANCH  11  12
ENDBRANCH   1  11
TORSDOF 9
ENDMDL
