MODEL 1
REMARK VINA RESULT:    -6.728      0.000      0.000
REMARK INTER + INTRA:         -12.894
REMARK INTER:                 -11.054
REMARK INTRA:                  -1.840
REMARK UNBOUND:                -1.840
REMARK SMILES COc1ccc([C@@H]2CC(=O)c3c(O)cc(O[C@H]4O[C@H](CO[C@@H]5O[C@@H](C)[C@H](O)[C@@H](O)[C@H]5O)[C@@H](O)[C@@H](O)[C@H]4O)cc3O2)cc1O
REMARK SMILES IDX 19 1 32 2 34 3 36 4 17 5 18 6 20 7 21 8 22 9 25 10 24 11
REMARK SMILES IDX 26 12 23 13 28 14 30 15 27 16 29 18 31 20 33 22 35 24 16 26
REMARK SMILES IDX 15 27 14 28 38 29 12 30 39 31 11 32 40 33 9 34 7 35 10 36
REMARK SMILES IDX 8 37 13 38 6 40 41 41 5 42 42 43 4 44 3 45 43 46 2 48 1 49
REMARK SMILES IDX 37 50
REMARK H PARENT 27 17 29 19 31 21 33 23 35 25 13 39 43 47 37 51
REMARK Flexibility Score: inf
ROOT
ATOM      1  C   UNL     1      14.039  20.013  47.190  1.00  0.00     0.180 C 
ATOM      2  C   UNL     1      14.899  18.714  47.251  1.00  0.00     0.177 C 
ATOM      3  C   UNL     1      15.956  18.857  48.359  1.00  0.00     0.180 C 
ATOM      4  C   UNL     1      15.294  19.314  49.683  1.00  0.00     0.214 C 
ATOM      5  C   UNL     1      14.348  20.520  49.465  1.00  0.00     0.339 C 
ATOM      6  O   UNL     1      13.407  20.221  48.447  1.00  0.00    -0.332 OA
ENDROOT
BRANCH   1   7
ATOM      7  C   UNL     1      12.938  19.944  46.115  1.00  0.00     0.198 C 
BRANCH   7   8
ATOM      8  O   UNL     1      13.190  20.932  45.136  1.00  0.00    -0.347 OA
BRANCH   8   9
ATOM      9  C   UNL     1      13.349  20.361  43.840  1.00  0.00     0.281 C 
ATOM     10  C   UNL     1      16.982  20.893  43.497  1.00  0.00     0.041 C 
ATOM     11  C   UNL     1      15.513  21.284  43.689  1.00  0.00     0.150 C 
ATOM     12  C   UNL     1      15.094  22.350  42.644  1.00  0.00     0.174 C 
ATOM     13  O   UNL     1      14.722  20.106  43.573  1.00  0.00    -0.344 OA
ATOM     14  C   UNL     1      13.575  22.638  42.741  1.00  0.00     0.179 C 
ATOM     15  C   UNL     1      12.761  21.322  42.791  1.00  0.00     0.202 C 
BRANCH  12  16
ATOM     16  O   UNL     1      15.816  23.540  42.877  1.00  0.00    -0.388 OA
ATOM     17  H   UNL     1      15.167  24.290  42.816  1.00  0.00     0.211 HD
ENDBRANCH  12  16
BRANCH  14  18
ATOM     18  O   UNL     1      13.142  23.468  41.701  1.00  0.00    -0.387 OA
ATOM     19  H   UNL     1      12.648  22.910  41.044  1.00  0.00     0.211 HD
ENDBRANCH  14  18
BRANCH  15  20
ATOM     20  O   UNL     1      12.686  20.704  41.528  1.00  0.00    -0.385 OA
ATOM     21  H   UNL     1      12.437  21.393  40.859  1.00  0.00     0.211 HD
ENDBRANCH  15  20
ENDBRANCH   8   9
ENDBRANCH   7   8
ENDBRANCH   1   7
BRANCH   2  22
ATOM     22  O   UNL     1      15.568  18.409  46.045  1.00  0.00    -0.387 OA
ATOM     23  H   UNL     1      14.899  18.235  45.345  1.00  0.00     0.211 HD
ENDBRANCH   2  22
BRANCH   3  24
ATOM     24  O   UNL     1      17.002  19.704  47.908  1.00  0.00    -0.387 OA
ATOM     25  H   UNL     1      16.818  20.647  48.141  1.00  0.00     0.211 HD
ENDBRANCH   3  24
BRANCH   5  26
ATOM     26  O   UNL     1      15.055  21.722  49.128  1.00  0.00    -0.462 OA
BRANCH  26  27
ATOM     27  C   UNL     1      14.559  23.037  49.150  1.00  0.00     0.130 A 
ATOM     28  C   UNL     1      13.436  23.462  48.415  1.00  0.00     0.093 A 
ATOM     29  C   UNL     1      15.244  23.961  49.940  1.00  0.00     0.094 A 
ATOM     30  C   UNL     1      13.001  24.798  48.488  1.00  0.00     0.133 A 
ATOM     31  C   UNL     1      14.847  25.295  49.984  1.00  0.00     0.138 A 
ATOM     32  C   UNL     1      13.716  25.726  49.278  1.00  0.00     0.102 A 
ATOM     33  O   UNL     1      15.596  26.203  50.732  1.00  0.00    -0.484 OA
ATOM     34  C   UNL     1      13.313  27.154  49.423  1.00  0.00     0.174 C 
ATOM     35  C   UNL     1      15.517  27.610  50.511  1.00  0.00     0.211 C 
ATOM     36  O   UNL     1      12.310  27.607  48.810  1.00  0.00    -0.294 OA
ATOM     37  C   UNL     1      14.048  28.052  50.382  1.00  0.00     0.131 C 
BRANCH  30  38
ATOM     38  O   UNL     1      11.875  25.198  47.771  1.00  0.00    -0.507 OA
ATOM     39  H   UNL     1      11.759  24.975  46.791  1.00  0.00     0.293 HD
ENDBRANCH  30  38
BRANCH  35  40
ATOM     40  C   UNL     1      16.244  28.315  51.631  1.00  0.00    -0.003 A 
ATOM     41  C   UNL     1      16.956  27.570  52.583  1.00  0.00     0.057 A 
ATOM     42  C   UNL     1      16.363  29.716  51.628  1.00  0.00     0.011 A 
ATOM     43  C   UNL     1      17.772  28.209  53.520  1.00  0.00     0.158 A 
ATOM     44  C   UNL     1      17.182  30.362  52.557  1.00  0.00     0.051 A 
ATOM     45  C   UNL     1      17.916  29.610  53.495  1.00  0.00     0.160 A 
BRANCH  43  46
ATOM     46  O   UNL     1      18.465  27.427  54.444  1.00  0.00    -0.504 OA
ATOM     47  H   UNL     1      18.315  27.523  55.446  1.00  0.00     0.293 HD
ENDBRANCH  43  46
BRANCH  45  48
ATOM     48  O   UNL     1      18.789  30.215  54.408  1.00  0.00    -0.493 OA
ATOM     49  C   UNL     1      20.020  30.854  54.052  1.00  0.00     0.278 C 
ENDBRANCH  45  48
ENDBRANCH  35  40
ENDBRANCH  26  27
ENDBRANCH   5  26
BRANCH   4  50
ATOM     50  O   UNL     1      16.277  19.609  50.643  1.00  0.00    -0.384 OA
ATOM     51  H   UNL     1      15.971  20.412  51.142  1.00  0.00     0.211 HD
ENDBRANCH   4  50
TORSDOF 15
ENDMDL
MODEL 2
REMARK VINA RESULT:    -6.283      2.610      9.314
REMARK INTER + INTRA:         -12.163
REMARK INTER:                  -9.648
REMARK INTRA:                  -2.515
REMARK UNBOUND:                -1.840
REMARK SMILES COc1ccc([C@@H]2CC(=O)c3c(O)cc(O[C@H]4O[C@H](CO[C@@H]5O[C@@H](C)[C@H](O)[C@@H](O)[C@H]5O)[C@@H](O)[C@@H](O)[C@H]4O)cc3O2)cc1O
REMARK SMILES IDX 19 1 32 2 34 3 36 4 17 5 18 6 20 7 21 8 22 9 25 10 24 11
REMARK SMILES IDX 26 12 23 13 28 14 30 15 27 16 29 18 31 20 33 22 35 24 16 26
REMARK SMILES IDX 15 27 14 28 38 29 12 30 39 31 11 32 40 33 9 34 7 35 10 36
REMARK SMILES IDX 8 37 13 38 6 40 41 41 5 42 42 43 4 44 3 45 43 46 2 48 1 49
REMARK SMILES IDX 37 50
REMARK H PARENT 27 17 29 19 31 21 33 23 35 25 13 39 43 47 37 51
REMARK Flexibility Score: inf
ROOT
ATOM      1  C   UNL     1      15.175  26.307  50.566  1.00  0.00     0.180 C 
ATOM      2  C   UNL     1      15.433  27.801  50.935  1.00  0.00     0.177 C 
ATOM      3  C   UNL     1      15.079  28.689  49.730  1.00  0.00     0.180 C 
ATOM      4  C   UNL     1      13.667  28.340  49.196  1.00  0.00     0.214 C 
ATOM      5  C   UNL     1      13.485  26.813  49.011  1.00  0.00     0.339 C 
ATOM      6  O   UNL     1      13.807  26.136  50.215  1.00  0.00    -0.332 OA
ENDROOT
BRANCH   1   7
ATOM      7  C   UNL     1      15.486  25.348  51.730  1.00  0.00     0.198 C 
BRANCH   7   8
ATOM      8  O   UNL     1      16.137  24.203  51.218  1.00  0.00    -0.347 OA
BRANCH   8   9
ATOM      9  C   UNL     1      16.007  23.086  52.094  1.00  0.00     0.281 C 
ATOM     10  C   UNL     1      19.386  23.199  53.564  1.00  0.00     0.041 C 
ATOM     11  C   UNL     1      18.335  23.084  52.455  1.00  0.00     0.150 C 
ATOM     12  C   UNL     1      18.565  21.796  51.623  1.00  0.00     0.174 C 
ATOM     13  O   UNL     1      17.048  23.086  53.061  1.00  0.00    -0.344 OA
ATOM     14  C   UNL     1      17.421  21.602  50.596  1.00  0.00     0.179 C 
ATOM     15  C   UNL     1      16.036  21.789  51.264  1.00  0.00     0.202 C 
BRANCH  12  16
ATOM     16  O   UNL     1      19.797  21.894  50.942  1.00  0.00    -0.388 OA
ATOM     17  H   UNL     1      19.636  22.436  50.124  1.00  0.00     0.211 HD
ENDBRANCH  12  16
BRANCH  14  18
ATOM     18  O   UNL     1      17.513  20.363  49.951  1.00  0.00    -0.387 OA
ATOM     19  H   UNL     1      16.651  20.189  49.489  1.00  0.00     0.211 HD
ENDBRANCH  14  18
BRANCH  15  20
ATOM     20  O   UNL     1      15.681  20.678  52.053  1.00  0.00    -0.385 OA
ATOM     21  H   UNL     1      16.501  20.333  52.491  1.00  0.00     0.211 HD
ENDBRANCH  15  20
ENDBRANCH   8   9
ENDBRANCH   7   8
ENDBRANCH   1   7
BRANCH   2  22
ATOM     22  O   UNL     1      16.766  28.079  51.308  1.00  0.00    -0.387 OA
ATOM     23  H   UNL     1      16.923  29.047  51.229  1.00  0.00     0.211 HD
ENDBRANCH   2  22
BRANCH   3  24
ATOM     24  O   UNL     1      16.109  28.598  48.758  1.00  0.00    -0.387 OA
ATOM     25  H   UNL     1      16.948  29.000  49.093  1.00  0.00     0.211 HD
ENDBRANCH   3  24
BRANCH   5  26
ATOM     26  O   UNL     1      14.280  26.289  47.938  1.00  0.00    -0.462 OA
BRANCH  26  27
ATOM     27  C   UNL     1      14.002  25.163  47.144  1.00  0.00     0.130 A 
ATOM     28  C   UNL     1      13.760  25.221  45.759  1.00  0.00     0.093 A 
ATOM     29  C   UNL     1      13.952  23.927  47.791  1.00  0.00     0.094 A 
ATOM     30  C   UNL     1      13.487  24.048  45.033  1.00  0.00     0.133 A 
ATOM     31  C   UNL     1      13.640  22.766  47.088  1.00  0.00     0.138 A 
ATOM     32  C   UNL     1      13.423  22.807  45.704  1.00  0.00     0.102 A 
ATOM     33  O   UNL     1      13.534  21.560  47.781  1.00  0.00    -0.484 OA
ATOM     34  C   UNL     1      13.156  21.516  45.009  1.00  0.00     0.174 C 
ATOM     35  C   UNL     1      12.836  20.439  47.242  1.00  0.00     0.211 C 
ATOM     36  O   UNL     1      12.946  21.483  43.767  1.00  0.00    -0.294 OA
ATOM     37  C   UNL     1      13.229  20.219  45.770  1.00  0.00     0.131 C 
BRANCH  30  38
ATOM     38  O   UNL     1      13.272  24.120  43.658  1.00  0.00    -0.507 OA
ATOM     39  H   UNL     1      12.374  23.898  43.246  1.00  0.00     0.293 HD
ENDBRANCH  30  38
BRANCH  35  40
ATOM     40  C   UNL     1      13.116  19.234  48.109  1.00  0.00    -0.003 A 
ATOM     41  C   UNL     1      14.269  19.199  48.908  1.00  0.00     0.057 A 
ATOM     42  C   UNL     1      12.147  18.227  48.258  1.00  0.00     0.011 A 
ATOM     43  C   UNL     1      14.457  18.176  49.840  1.00  0.00     0.158 A 
ATOM     44  C   UNL     1      12.324  17.204  49.193  1.00  0.00     0.051 A 
ATOM     45  C   UNL     1      13.469  17.185  50.012  1.00  0.00     0.160 A 
BRANCH  43  46
ATOM     46  O   UNL     1      15.616  18.185  50.616  1.00  0.00    -0.504 OA
ATOM     47  H   UNL     1      15.610  17.886  51.589  1.00  0.00     0.293 HD
ENDBRANCH  43  46
BRANCH  45  48
ATOM     48  O   UNL     1      13.659  16.209  50.998  1.00  0.00    -0.493 OA
ATOM     49  C   UNL     1      12.769  15.113  51.237  1.00  0.00     0.278 C 
ENDBRANCH  45  48
ENDBRANCH  35  40
ENDBRANCH  26  27
ENDBRANCH   5  26
BRANCH   4  50
ATOM     50  O   UNL     1      13.415  29.028  47.997  1.00  0.00    -0.384 OA
ATOM     51  H   UNL     1      13.432  28.359  47.263  1.00  0.00     0.211 HD
ENDBRANCH   4  50
TORSDOF 15
ENDMDL
MODEL 3
REMARK VINA RESULT:    -6.277      2.139      3.456
REMARK INTER + INTRA:         -12.153
REMARK INTER:                 -10.333
REMARK INTRA:                  -1.820
REMARK UNBOUND:                -1.840
REMARK SMILES COc1ccc([C@@H]2CC(=O)c3c(O)cc(O[C@H]4O[C@H](CO[C@@H]5O[C@@H](C)[C@H](O)[C@@H](O)[C@H]5O)[C@@H](O)[C@@H](O)[C@H]4O)cc3O2)cc1O
REMARK SMILES IDX 19 1 32 2 34 3 36 4 17 5 18 6 20 7 21 8 22 9 25 10 24 11
REMARK SMILES IDX 26 12 23 13 28 14 30 15 27 16 29 18 31 20 33 22 35 24 16 26
REMARK SMILES IDX 15 27 14 28 38 29 12 30 39 31 11 32 40 33 9 34 7 35 10 36
REMARK SMILES IDX 8 37 13 38 6 40 41 41 5 42 42 43 4 44 3 45 43 46 2 48 1 49
REMARK SMILES IDX 37 50
REMARK H PARENT 27 17 29 19 31 21 33 23 35 25 13 39 43 47 37 51
REMARK Flexibility Score: inf
ROOT
ATOM      1  C   UNL     1      13.083  20.684  46.787  1.00  0.00     0.180 C 
ATOM      2  C   UNL     1      12.728  19.172  46.649  1.00  0.00     0.177 C 
ATOM      3  C   UNL     1      13.470  18.375  47.735  1.00  0.00     0.180 C 
ATOM      4  C   UNL     1      13.244  19.017  49.127  1.00  0.00     0.214 C 
ATOM      5  C   UNL     1      13.485  20.546  49.100  1.00  0.00     0.339 C 
ATOM      6  O   UNL     1      12.703  21.143  48.079  1.00  0.00    -0.332 OA
ENDROOT
BRANCH   1   7
ATOM      7  C   UNL     1      12.362  21.559  45.745  1.00  0.00     0.198 C 
BRANCH   7   8
ATOM      8  O   UNL     1      13.328  22.192  44.931  1.00  0.00    -0.347 OA
BRANCH   8   9
ATOM      9  C   UNL     1      13.355  21.640  43.618  1.00  0.00     0.281 C 
ATOM     10  C   UNL     1      16.402  19.598  43.991  1.00  0.00     0.041 C 
ATOM     11  C   UNL     1      15.555  20.875  43.974  1.00  0.00     0.150 C 
ATOM     12  C   UNL     1      16.183  21.929  43.025  1.00  0.00     0.174 C 
ATOM     13  O   UNL     1      14.238  20.527  43.563  1.00  0.00    -0.344 OA
ATOM     14  C   UNL     1      15.254  23.162  42.894  1.00  0.00     0.179 C 
ATOM     15  C   UNL     1      13.791  22.729  42.621  1.00  0.00     0.202 C 
BRANCH  12  16
ATOM     16  O   UNL     1      17.433  22.334  43.541  1.00  0.00    -0.388 OA
ATOM     17  H   UNL     1      17.312  22.480  44.516  1.00  0.00     0.211 HD
ENDBRANCH  12  16
BRANCH  14  18
ATOM     18  O   UNL     1      15.715  24.050  41.915  1.00  0.00    -0.387 OA
ATOM     19  H   UNL     1      15.846  23.542  41.072  1.00  0.00     0.211 HD
ENDBRANCH  14  18
BRANCH  15  20
ATOM     20  O   UNL     1      13.612  22.299  41.293  1.00  0.00    -0.385 OA
ATOM     21  H   UNL     1      12.643  22.148  41.143  1.00  0.00     0.211 HD
ENDBRANCH  15  20
ENDBRANCH   8   9
ENDBRANCH   7   8
ENDBRANCH   1   7
BRANCH   2  22
ATOM     22  O   UNL     1      13.059  18.615  45.394  1.00  0.00    -0.387 OA
ATOM     23  H   UNL     1      13.949  18.938  45.127  1.00  0.00     0.211 HD
ENDBRANCH   2  22
BRANCH   3  24
ATOM     24  O   UNL     1      14.835  18.239  47.371  1.00  0.00    -0.387 OA
ATOM     25  H   UNL     1      15.220  17.409  47.748  1.00  0.00     0.211 HD
ENDBRANCH   3  24
BRANCH   5  26
ATOM     26  O   UNL     1      14.866  20.883  48.907  1.00  0.00    -0.462 OA
BRANCH  26  27
ATOM     27  C   UNL     1      15.765  21.376  49.868  1.00  0.00     0.130 A 
ATOM     28  C   UNL     1      16.762  20.594  50.481  1.00  0.00     0.093 A 
ATOM     29  C   UNL     1      15.633  22.716  50.233  1.00  0.00     0.094 A 
ATOM     30  C   UNL     1      17.624  21.160  51.437  1.00  0.00     0.133 A 
ATOM     31  C   UNL     1      16.453  23.274  51.211  1.00  0.00     0.138 A 
ATOM     32  C   UNL     1      17.467  22.514  51.810  1.00  0.00     0.102 A 
ATOM     33  O   UNL     1      16.247  24.598  51.597  1.00  0.00    -0.484 OA
ATOM     34  C   UNL     1      18.347  23.195  52.801  1.00  0.00     0.174 C 
ATOM     35  C   UNL     1      16.739  25.109  52.834  1.00  0.00     0.211 C 
ATOM     36  O   UNL     1      19.273  22.568  53.381  1.00  0.00    -0.294 OA
ATOM     37  C   UNL     1      18.199  24.672  53.053  1.00  0.00     0.131 C 
BRANCH  30  38
ATOM     38  O   UNL     1      18.621  20.379  52.019  1.00  0.00    -0.507 OA
ATOM     39  H   UNL     1      19.584  20.687  52.062  1.00  0.00     0.293 HD
ENDBRANCH  30  38
BRANCH  35  40
ATOM     40  C   UNL     1      16.571  26.610  52.837  1.00  0.00    -0.003 A 
ATOM     41  C   UNL     1      16.883  27.347  53.989  1.00  0.00     0.057 A 
ATOM     42  C   UNL     1      16.276  27.293  51.645  1.00  0.00     0.011 A 
ATOM     43  C   UNL     1      16.898  28.744  53.956  1.00  0.00     0.158 A 
ATOM     44  C   UNL     1      16.297  28.690  51.602  1.00  0.00     0.051 A 
ATOM     45  C   UNL     1      16.635  29.427  52.752  1.00  0.00     0.160 A 
BRANCH  43  46
ATOM     46  O   UNL     1      17.220  29.435  55.125  1.00  0.00    -0.504 OA
ATOM     47  H   UNL     1      16.626  30.177  55.488  1.00  0.00     0.293 HD
ENDBRANCH  43  46
BRANCH  45  48
ATOM     48  O   UNL     1      16.720  30.825  52.738  1.00  0.00    -0.493 OA
ATOM     49  C   UNL     1      17.942  31.563  52.627  1.00  0.00     0.278 C 
ENDBRANCH  45  48
ENDBRANCH  35  40
ENDBRANCH  26  27
ENDBRANCH   5  26
BRANCH   4  50
ATOM     50  O   UNL     1      14.056  18.394  50.090  1.00  0.00    -0.384 OA
ATOM     51  H   UNL     1      13.621  17.535  50.334  1.00  0.00     0.211 HD
ENDBRANCH   4  50
TORSDOF 15
ENDMDL
MODEL 4
REMARK VINA RESULT:    -6.268      2.736      8.892
REMARK INTER + INTRA:         -12.138
REMARK INTER:                 -10.159
REMARK INTRA:                  -1.979
REMARK UNBOUND:                -1.840
REMARK SMILES COc1ccc([C@@H]2CC(=O)c3c(O)cc(O[C@H]4O[C@H](CO[C@@H]5O[C@@H](C)[C@H](O)[C@@H](O)[C@H]5O)[C@@H](O)[C@@H](O)[C@H]4O)cc3O2)cc1O
REMARK SMILES IDX 19 1 32 2 34 3 36 4 17 5 18 6 20 7 21 8 22 9 25 10 24 11
REMARK SMILES IDX 26 12 23 13 28 14 30 15 27 16 29 18 31 20 33 22 35 24 16 26
REMARK SMILES IDX 15 27 14 28 38 29 12 30 39 31 11 32 40 33 9 34 7 35 10 36
REMARK SMILES IDX 8 37 13 38 6 40 41 41 5 42 42 43 4 44 3 45 43 46 2 48 1 49
REMARK SMILES IDX 37 50
REMARK H PARENT 27 17 29 19 31 21 33 23 35 25 13 39 43 47 37 51
REMARK Flexibility Score: inf
ROOT
ATOM      1  C   UNL     1      16.026  23.190  52.267  1.00  0.00     0.180 C 
ATOM      2  C   UNL     1      17.189  23.316  53.299  1.00  0.00     0.177 C 
ATOM      3  C   UNL     1      18.033  22.030  53.273  1.00  0.00     0.180 C 
ATOM      4  C   UNL     1      18.431  21.673  51.819  1.00  0.00     0.214 C 
ATOM      5  C   UNL     1      17.215  21.727  50.862  1.00  0.00     0.339 C 
ATOM      6  O   UNL     1      16.567  22.984  50.968  1.00  0.00    -0.332 OA
ENDROOT
BRANCH   1   7
ATOM      7  C   UNL     1      15.141  24.449  52.215  1.00  0.00     0.198 C 
BRANCH   7   8
ATOM      8  O   UNL     1      15.238  25.024  50.927  1.00  0.00    -0.347 OA
BRANCH   8   9
ATOM      9  C   UNL     1      14.174  25.938  50.677  1.00  0.00     0.281 C 
ATOM     10  C   UNL     1      13.261  24.738  47.312  1.00  0.00     0.041 C 
ATOM     11  C   UNL     1      14.166  25.320  48.402  1.00  0.00     0.150 C 
ATOM     12  C   UNL     1      14.789  26.660  47.932  1.00  0.00     0.174 C 
ATOM     13  O   UNL     1      13.386  25.497  49.579  1.00  0.00    -0.344 OA
ATOM     14  C   UNL     1      15.587  27.321  49.084  1.00  0.00     0.179 C 
ATOM     15  C   UNL     1      14.763  27.333  50.396  1.00  0.00     0.202 C 
BRANCH  12  16
ATOM     16  O   UNL     1      15.652  26.416  46.841  1.00  0.00    -0.388 OA
ATOM     17  H   UNL     1      15.470  25.490  46.528  1.00  0.00     0.211 HD
ENDBRANCH  12  16
BRANCH  14  18
ATOM     18  O   UNL     1      16.016  28.608  48.739  1.00  0.00    -0.387 OA
ATOM     19  H   UNL     1      16.845  28.524  48.198  1.00  0.00     0.211 HD
ENDBRANCH  14  18
BRANCH  15  20
ATOM     20  O   UNL     1      13.752  28.311  50.370  1.00  0.00    -0.385 OA
ATOM     21  H   UNL     1      13.807  28.794  49.505  1.00  0.00     0.211 HD
ENDBRANCH  15  20
ENDBRANCH   8   9
ENDBRANCH   7   8
ENDBRANCH   1   7
BRANCH   2  22
ATOM     22  O   UNL     1      16.759  23.531  54.627  1.00  0.00    -0.387 OA
ATOM     23  H   UNL     1      17.186  24.347  54.972  1.00  0.00     0.211 HD
ENDBRANCH   2  22
BRANCH   3  24
ATOM     24  O   UNL     1      17.340  20.998  53.957  1.00  0.00    -0.387 OA
ATOM     25  H   UNL     1      16.448  20.846  53.559  1.00  0.00     0.211 HD
ENDBRANCH   3  24
BRANCH   5  26
ATOM     26  O   UNL     1      16.269  20.676  51.111  1.00  0.00    -0.462 OA
BRANCH  26  27
ATOM     27  C   UNL     1      15.444  20.033  50.173  1.00  0.00     0.130 A 
ATOM     28  C   UNL     1      14.803  18.802  50.409  1.00  0.00     0.093 A 
ATOM     29  C   UNL     1      15.277  20.661  48.938  1.00  0.00     0.094 A 
ATOM     30  C   UNL     1      13.992  18.220  49.418  1.00  0.00     0.133 A 
ATOM     31  C   UNL     1      14.512  20.070  47.936  1.00  0.00     0.138 A 
ATOM     32  C   UNL     1      13.847  18.858  48.166  1.00  0.00     0.102 A 
ATOM     33  O   UNL     1      14.423  20.695  46.691  1.00  0.00    -0.484 OA
ATOM     34  C   UNL     1      12.995  18.318  47.069  1.00  0.00     0.174 C 
ATOM     35  C   UNL     1      14.025  19.988  45.519  1.00  0.00     0.211 C 
ATOM     36  O   UNL     1      12.376  17.230  47.208  1.00  0.00    -0.294 OA
ATOM     37  C   UNL     1      12.788  19.118  45.810  1.00  0.00     0.131 C 
BRANCH  30  38
ATOM     38  O   UNL     1      13.347  17.012  49.674  1.00  0.00    -0.507 OA
ATOM     39  H   UNL     1      12.866  16.838  50.548  1.00  0.00     0.293 HD
ENDBRANCH  30  38
BRANCH  35  40
ATOM     40  C   UNL     1      13.789  20.986  44.410  1.00  0.00    -0.003 A 
ATOM     41  C   UNL     1      14.142  22.332  44.593  1.00  0.00     0.057 A 
ATOM     42  C   UNL     1      13.386  20.550  43.136  1.00  0.00     0.011 A 
ATOM     43  C   UNL     1      14.091  23.231  43.525  1.00  0.00     0.158 A 
ATOM     44  C   UNL     1      13.340  21.441  42.061  1.00  0.00     0.051 A 
ATOM     45  C   UNL     1      13.719  22.785  42.241  1.00  0.00     0.160 A 
BRANCH  43  46
ATOM     46  O   UNL     1      14.456  24.558  43.752  1.00  0.00    -0.504 OA
ATOM     47  H   UNL     1      14.192  25.047  44.605  1.00  0.00     0.293 HD
ENDBRANCH  43  46
BRANCH  45  48
ATOM     48  O   UNL     1      13.738  23.698  41.179  1.00  0.00    -0.493 OA
ATOM     49  C   UNL     1      12.586  24.382  40.675  1.00  0.00     0.278 C 
ENDBRANCH  45  48
ENDBRANCH  35  40
ENDBRANCH  26  27
ENDBRANCH   5  26
BRANCH   4  50
ATOM     50  O   UNL     1      19.051  20.413  51.778  1.00  0.00    -0.384 OA
ATOM     51  H   UNL     1      18.954  20.006  52.678  1.00  0.00     0.211 HD
ENDBRANCH   4  50
TORSDOF 15
ENDMDL
MODEL 5
REMARK VINA RESULT:    -6.247      2.442      4.924
REMARK INTER + INTRA:         -12.104
REMARK INTER:                 -10.237
REMARK INTRA:                  -1.867
REMARK UNBOUND:                -1.840
REMARK SMILES COc1ccc([C@@H]2CC(=O)c3c(O)cc(O[C@H]4O[C@H](CO[C@@H]5O[C@@H](C)[C@H](O)[C@@H](O)[C@H]5O)[C@@H](O)[C@@H](O)[C@H]4O)cc3O2)cc1O
REMARK SMILES IDX 19 1 32 2 34 3 36 4 17 5 18 6 20 7 21 8 22 9 25 10 24 11
REMARK SMILES IDX 26 12 23 13 28 14 30 15 27 16 29 18 31 20 33 22 35 24 16 26
REMARK SMILES IDX 15 27 14 28 38 29 12 30 39 31 11 32 40 33 9 34 7 35 10 36
REMARK SMILES IDX 8 37 13 38 6 40 41 41 5 42 42 43 4 44 3 45 43 46 2 48 1 49
REMARK SMILES IDX 37 50
REMARK H PARENT 27 17 29 19 31 21 33 23 35 25 13 39 43 47 37 51
REMARK Flexibility Score: inf
ROOT
ATOM      1  C   UNL     1      12.768  21.351  44.490  1.00  0.00     0.180 C 
ATOM      2  C   UNL     1      13.009  21.153  42.962  1.00  0.00     0.177 C 
ATOM      3  C   UNL     1      13.449  22.489  42.340  1.00  0.00     0.180 C 
ATOM      4  C   UNL     1      14.615  23.106  43.152  1.00  0.00     0.214 C 
ATOM      5  C   UNL     1      14.317  23.111  44.671  1.00  0.00     0.339 C 
ATOM      6  O   UNL     1      13.969  21.805  45.102  1.00  0.00    -0.332 OA
ENDROOT
BRANCH   1   7
ATOM      7  C   UNL     1      12.343  20.050  45.196  1.00  0.00     0.198 C 
BRANCH   7   8
ATOM      8  O   UNL     1      13.188  19.834  46.308  1.00  0.00    -0.347 OA
BRANCH   8   9
ATOM      9  C   UNL     1      13.659  18.490  46.360  1.00  0.00     0.281 C 
ATOM     10  C   UNL     1      15.258  18.643  49.679  1.00  0.00     0.041 C 
ATOM     11  C   UNL     1      15.010  19.025  48.216  1.00  0.00     0.150 C 
ATOM     12  C   UNL     1      16.329  18.950  47.405  1.00  0.00     0.174 C 
ATOM     13  O   UNL     1      14.027  18.141  47.688  1.00  0.00    -0.344 OA
ATOM     14  C   UNL     1      16.055  19.193  45.899  1.00  0.00     0.179 C 
ATOM     15  C   UNL     1      14.859  18.340  45.407  1.00  0.00     0.202 C 
BRANCH  12  16
ATOM     16  O   UNL     1      17.227  19.929  47.884  1.00  0.00    -0.388 OA
ATOM     17  H   UNL     1      17.629  20.369  47.089  1.00  0.00     0.211 HD
ENDBRANCH  12  16
BRANCH  14  18
ATOM     18  O   UNL     1      17.199  18.964  45.125  1.00  0.00    -0.387 OA
ATOM     19  H   UNL     1      17.698  19.820  45.049  1.00  0.00     0.211 HD
ENDBRANCH  14  18
BRANCH  15  20
ATOM     20  O   UNL     1      15.212  16.986  45.250  1.00  0.00    -0.385 OA
ATOM     21  H   UNL     1      16.201  16.917  45.276  1.00  0.00     0.211 HD
ENDBRANCH  15  20
ENDBRANCH   8   9
ENDBRANCH   7   8
ENDBRANCH   1   7
BRANCH   2  22
ATOM     22  O   UNL     1      11.876  20.694  42.256  1.00  0.00    -0.387 OA
ATOM     23  H   UNL     1      12.019  19.756  41.997  1.00  0.00     0.211 HD
ENDBRANCH   2  22
BRANCH   3  24
ATOM     24  O   UNL     1      12.321  23.340  42.202  1.00  0.00    -0.387 OA
ATOM     25  H   UNL     1      11.567  22.861  41.777  1.00  0.00     0.211 HD
ENDBRANCH   3  24
BRANCH   5  26
ATOM     26  O   UNL     1      13.272  24.028  45.026  1.00  0.00    -0.462 OA
BRANCH  26  27
ATOM     27  C   UNL     1      13.273  24.952  46.085  1.00  0.00     0.130 A 
ATOM     28  C   UNL     1      12.586  26.181  46.053  1.00  0.00     0.093 A 
ATOM     29  C   UNL     1      14.018  24.620  47.217  1.00  0.00     0.094 A 
ATOM     30  C   UNL     1      12.637  27.054  47.154  1.00  0.00     0.133 A 
ATOM     31  C   UNL     1      14.109  25.497  48.294  1.00  0.00     0.138 A 
ATOM     32  C   UNL     1      13.409  26.711  48.286  1.00  0.00     0.102 A 
ATOM     33  O   UNL     1      14.917  25.159  49.380  1.00  0.00    -0.484 OA
ATOM     34  C   UNL     1      13.504  27.571  49.500  1.00  0.00     0.174 C 
ATOM     35  C   UNL     1      15.388  26.138  50.305  1.00  0.00     0.211 C 
ATOM     36  O   UNL     1      12.904  28.678  49.556  1.00  0.00    -0.294 OA
ATOM     37  C   UNL     1      14.243  27.082  50.717  1.00  0.00     0.131 C 
BRANCH  30  38
ATOM     38  O   UNL     1      11.934  28.256  47.116  1.00  0.00    -0.507 OA
ATOM     39  H   UNL     1      11.268  28.463  46.381  1.00  0.00     0.293 HD
ENDBRANCH  30  38
BRANCH  35  40
ATOM     40  C   UNL     1      16.013  25.429  51.482  1.00  0.00    -0.003 A 
ATOM     41  C   UNL     1      16.322  24.063  51.392  1.00  0.00     0.057 A 
ATOM     42  C   UNL     1      16.452  26.159  52.599  1.00  0.00     0.011 A 
ATOM     43  C   UNL     1      17.054  23.433  52.402  1.00  0.00     0.158 A 
ATOM     44  C   UNL     1      17.191  25.538  53.610  1.00  0.00     0.051 A 
ATOM     45  C   UNL     1      17.521  24.174  53.506  1.00  0.00     0.160 A 
BRANCH  43  46
ATOM     46  O   UNL     1      17.342  22.074  52.268  1.00  0.00    -0.504 OA
ATOM     47  H   UNL     1      16.956  21.380  52.904  1.00  0.00     0.293 HD
ENDBRANCH  43  46
BRANCH  45  48
ATOM     48  O   UNL     1      18.305  23.526  54.469  1.00  0.00    -0.493 OA
ATOM     49  C   UNL     1      19.732  23.417  54.415  1.00  0.00     0.278 C 
ENDBRANCH  45  48
ENDBRANCH  35  40
ENDBRANCH  26  27
ENDBRANCH   5  26
BRANCH   4  50
ATOM     50  O   UNL     1      14.901  24.401  42.689  1.00  0.00    -0.384 OA
ATOM     51  H   UNL     1      15.847  24.597  42.920  1.00  0.00     0.211 HD
ENDBRANCH   4  50
TORSDOF 15
ENDMDL
MODEL 6
REMARK VINA RESULT:    -6.225      4.539      8.500
REMARK INTER + INTRA:         -12.068
REMARK INTER:                 -10.328
REMARK INTRA:                  -1.740
REMARK UNBOUND:                -1.840
REMARK SMILES COc1ccc([C@@H]2CC(=O)c3c(O)cc(O[C@H]4O[C@H](CO[C@@H]5O[C@@H](C)[C@H](O)[C@@H](O)[C@H]5O)[C@@H](O)[C@@H](O)[C@H]4O)cc3O2)cc1O
REMARK SMILES IDX 19 1 32 2 34 3 36 4 17 5 18 6 20 7 21 8 22 9 25 10 24 11
REMARK SMILES IDX 26 12 23 13 28 14 30 15 27 16 29 18 31 20 33 22 35 24 16 26
REMARK SMILES IDX 15 27 14 28 38 29 12 30 39 31 11 32 40 33 9 34 7 35 10 36
REMARK SMILES IDX 8 37 13 38 6 40 41 41 5 42 42 43 4 44 3 45 43 46 2 48 1 49
REMARK SMILES IDX 37 50
REMARK H PARENT 27 17 29 19 31 21 33 23 35 25 13 39 43 47 37 51
REMARK Flexibility Score: inf
ROOT
ATOM      1  C   UNL     1      15.922  25.398  38.844  1.00  0.00     0.180 C 
ATOM      2  C   UNL     1      15.116  25.995  37.650  1.00  0.00     0.177 C 
ATOM      3  C   UNL     1      13.613  25.771  37.888  1.00  0.00     0.180 C 
ATOM      4  C   UNL     1      13.212  26.252  39.305  1.00  0.00     0.214 C 
ATOM      5  C   UNL     1      14.177  25.711  40.389  1.00  0.00     0.339 C 
ATOM      6  O   UNL     1      15.516  26.032  40.051  1.00  0.00    -0.332 OA
ENDROOT
BRANCH   1   7
ATOM      7  C   UNL     1      17.441  25.600  38.694  1.00  0.00     0.198 C 
BRANCH   7   8
ATOM      8  O   UNL     1      18.032  24.371  38.324  1.00  0.00    -0.347 OA
BRANCH   8   9
ATOM      9  C   UNL     1      18.600  24.430  37.018  1.00  0.00     0.281 C 
ATOM     10  C   UNL     1      16.236  22.157  35.334  1.00  0.00     0.041 C 
ATOM     11  C   UNL     1      17.296  22.583  36.356  1.00  0.00     0.150 C 
ATOM     12  C   UNL     1      18.506  21.614  36.317  1.00  0.00     0.174 C 
ATOM     13  O   UNL     1      17.691  23.917  36.055  1.00  0.00    -0.344 OA
ATOM     14  C   UNL     1      19.639  22.125  37.242  1.00  0.00     0.179 C 
ATOM     15  C   UNL     1      19.916  23.630  37.004  1.00  0.00     0.202 C 
BRANCH  12  16
ATOM     16  O   UNL     1      18.092  20.334  36.743  1.00  0.00    -0.388 OA
ATOM     17  H   UNL     1      18.555  19.671  36.165  1.00  0.00     0.211 HD
ENDBRANCH  12  16
BRANCH  14  18
ATOM     18  O   UNL     1      20.804  21.362  37.097  1.00  0.00    -0.387 OA
ATOM     19  H   UNL     1      20.549  20.402  37.107  1.00  0.00     0.211 HD
ENDBRANCH  14  18
BRANCH  15  20
ATOM     20  O   UNL     1      20.626  23.850  35.809  1.00  0.00    -0.385 OA
ATOM     21  H   UNL     1      20.385  23.132  35.167  1.00  0.00     0.211 HD
ENDBRANCH  15  20
ENDBRANCH   8   9
ENDBRANCH   7   8
ENDBRANCH   1   7
BRANCH   2  22
ATOM     22  O   UNL     1      15.448  25.437  36.396  1.00  0.00    -0.387 OA
ATOM     23  H   UNL     1      15.204  24.485  36.396  1.00  0.00     0.211 HD
ENDBRANCH   2  22
BRANCH   3  24
ATOM     24  O   UNL     1      13.290  24.415  37.620  1.00  0.00    -0.387 OA
ATOM     25  H   UNL     1      13.006  24.298  36.680  1.00  0.00     0.211 HD
ENDBRANCH   3  24
BRANCH   5  26
ATOM     26  O   UNL     1      14.055  24.294  40.579  1.00  0.00    -0.462 OA
BRANCH  26  27
ATOM     27  C   UNL     1      13.806  23.614  41.783  1.00  0.00     0.130 A 
ATOM     28  C   UNL     1      13.255  22.321  41.853  1.00  0.00     0.093 A 
ATOM     29  C   UNL     1      14.115  24.286  42.967  1.00  0.00     0.094 A 
ATOM     30  C   UNL     1      13.033  21.707  43.099  1.00  0.00     0.133 A 
ATOM     31  C   UNL     1      13.858  23.703  44.205  1.00  0.00     0.138 A 
ATOM     32  C   UNL     1      13.335  22.406  44.289  1.00  0.00     0.102 A 
ATOM     33  O   UNL     1      14.119  24.431  45.366  1.00  0.00    -0.484 OA
ATOM     34  C   UNL     1      13.146  21.823  45.647  1.00  0.00     0.174 C 
ATOM     35  C   UNL     1      13.522  24.096  46.618  1.00  0.00     0.211 C 
ATOM     36  O   UNL     1      12.673  20.664  45.793  1.00  0.00    -0.294 OA
ATOM     37  C   UNL     1      13.609  22.579  46.864  1.00  0.00     0.131 C 
BRANCH  30  38
ATOM     38  O   UNL     1      12.507  20.417  43.150  1.00  0.00    -0.507 OA
ATOM     39  H   UNL     1      12.997  19.659  43.609  1.00  0.00     0.293 HD
ENDBRANCH  30  38
BRANCH  35  40
ATOM     40  C   UNL     1      14.192  24.904  47.703  1.00  0.00    -0.003 A 
ATOM     41  C   UNL     1      14.748  26.157  47.402  1.00  0.00     0.057 A 
ATOM     42  C   UNL     1      14.108  24.496  49.046  1.00  0.00     0.011 A 
ATOM     43  C   UNL     1      15.216  26.990  48.421  1.00  0.00     0.158 A 
ATOM     44  C   UNL     1      14.567  25.327  50.071  1.00  0.00     0.051 A 
ATOM     45  C   UNL     1      15.101  26.594  49.768  1.00  0.00     0.160 A 
BRANCH  43  46
ATOM     46  O   UNL     1      15.755  28.229  48.075  1.00  0.00    -0.504 OA
ATOM     47  H   UNL     1      16.432  28.703  48.669  1.00  0.00     0.293 HD
ENDBRANCH  43  46
BRANCH  45  48
ATOM     48  O   UNL     1      15.523  27.478  50.769  1.00  0.00    -0.493 OA
ATOM     49  C   UNL     1      16.531  27.182  51.742  1.00  0.00     0.278 C 
ENDBRANCH  45  48
ENDBRANCH  35  40
ENDBRANCH  26  27
ENDBRANCH   5  26
BRANCH   4  50
ATOM     50  O   UNL     1      11.883  25.891  39.585  1.00  0.00    -0.384 OA
ATOM     51  H   UNL     1      11.577  25.297  38.851  1.00  0.00     0.211 HD
ENDBRANCH   4  50
TORSDOF 15
ENDMDL
MODEL 7
REMARK VINA RESULT:    -6.077      3.252     10.282
REMARK INTER + INTRA:         -11.825
REMARK INTER:                 -10.396
REMARK INTRA:                  -1.428
REMARK UNBOUND:                -1.840
REMARK SMILES COc1ccc([C@@H]2CC(=O)c3c(O)cc(O[C@H]4O[C@H](CO[C@@H]5O[C@@H](C)[C@H](O)[C@@H](O)[C@H]5O)[C@@H](O)[C@@H](O)[C@H]4O)cc3O2)cc1O
REMARK SMILES IDX 19 1 32 2 34 3 36 4 17 5 18 6 20 7 21 8 22 9 25 10 24 11
REMARK SMILES IDX 26 12 23 13 28 14 30 15 27 16 29 18 31 20 33 22 35 24 16 26
REMARK SMILES IDX 15 27 14 28 38 29 12 30 39 31 11 32 40 33 9 34 7 35 10 36
REMARK SMILES IDX 8 37 13 38 6 40 41 41 5 42 42 43 4 44 3 45 43 46 2 48 1 49
REMARK SMILES IDX 37 50
REMARK H PARENT 27 17 29 19 31 21 33 23 35 25 13 39 43 47 37 51
REMARK Flexibility Score: inf
ROOT
ATOM      1  C   UNL     1      15.538  26.361  50.952  1.00  0.00     0.180 C 
ATOM      2  C   UNL     1      15.618  27.905  51.163  1.00  0.00     0.177 C 
ATOM      3  C   UNL     1      15.069  28.617  49.916  1.00  0.00     0.180 C 
ATOM      4  C   UNL     1      13.684  28.040  49.528  1.00  0.00     0.214 C 
ATOM      5  C   UNL     1      13.696  26.492  49.497  1.00  0.00     0.339 C 
ATOM      6  O   UNL     1      14.185  25.985  50.728  1.00  0.00    -0.332 OA
ENDROOT
BRANCH   1   7
ATOM      7  C   UNL     1      16.052  25.570  52.169  1.00  0.00     0.198 C 
BRANCH   7   8
ATOM      8  O   UNL     1      16.848  24.495  51.714  1.00  0.00    -0.347 OA
BRANCH   8   9
ATOM      9  C   UNL     1      17.814  24.105  52.687  1.00  0.00     0.281 C 
ATOM     10  C   UNL     1      19.465  21.456  50.724  1.00  0.00     0.041 C 
ATOM     11  C   UNL     1      18.311  22.172  51.433  1.00  0.00     0.150 C 
ATOM     12  C   UNL     1      17.617  21.218  52.439  1.00  0.00     0.174 C 
ATOM     13  O   UNL     1      18.837  23.321  52.087  1.00  0.00    -0.344 OA
ATOM     14  C   UNL     1      16.546  21.981  53.260  1.00  0.00     0.179 C 
ATOM     15  C   UNL     1      17.111  23.316  53.807  1.00  0.00     0.202 C 
BRANCH  12  16
ATOM     16  O   UNL     1      17.003  20.161  51.732  1.00  0.00    -0.388 OA
ATOM     17  H   UNL     1      17.478  20.078  50.864  1.00  0.00     0.211 HD
ENDBRANCH  12  16
BRANCH  14  18
ATOM     18  O   UNL     1      16.025  21.187  54.288  1.00  0.00    -0.387 OA
ATOM     19  H   UNL     1      15.873  21.767  55.080  1.00  0.00     0.211 HD
ENDBRANCH  14  18
BRANCH  15  20
ATOM     20  O   UNL     1      17.977  23.110  54.897  1.00  0.00    -0.385 OA
ATOM     21  H   UNL     1      18.414  23.973  55.116  1.00  0.00     0.211 HD
ENDBRANCH  15  20
ENDBRANCH   8   9
ENDBRANCH   7   8
ENDBRANCH   1   7
BRANCH   2  22
ATOM     22  O   UNL     1      16.924  28.386  51.403  1.00  0.00    -0.387 OA
ATOM     23  H   UNL     1      17.451  27.677  51.834  1.00  0.00     0.211 HD
ENDBRANCH   2  22
BRANCH   3  24
ATOM     24  O   UNL     1      16.034  28.561  48.877  1.00  0.00    -0.387 OA
ATOM     25  H   UNL     1      16.713  29.272  48.986  1.00  0.00     0.211 HD
ENDBRANCH   3  24
BRANCH   5  26
ATOM     26  O   UNL     1      14.479  25.968  48.415  1.00  0.00    -0.462 OA
BRANCH  26  27
ATOM     27  C   UNL     1      14.075  25.037  47.443  1.00  0.00     0.130 A 
ATOM     28  C   UNL     1      13.656  23.727  47.740  1.00  0.00     0.093 A 
ATOM     29  C   UNL     1      14.114  25.453  46.111  1.00  0.00     0.094 A 
ATOM     30  C   UNL     1      13.268  22.852  46.709  1.00  0.00     0.133 A 
ATOM     31  C   UNL     1      13.773  24.580  45.081  1.00  0.00     0.138 A 
ATOM     32  C   UNL     1      13.330  23.281  45.364  1.00  0.00     0.102 A 
ATOM     33  O   UNL     1      13.889  25.010  43.760  1.00  0.00    -0.484 OA
ATOM     34  C   UNL     1      12.921  22.425  44.215  1.00  0.00     0.174 C 
ATOM     35  C   UNL     1      13.962  24.093  42.670  1.00  0.00     0.211 C 
ATOM     36  O   UNL     1      12.519  21.245  44.400  1.00  0.00    -0.294 OA
ATOM     37  C   UNL     1      12.893  22.994  42.821  1.00  0.00     0.131 C 
BRANCH  30  38
ATOM     38  O   UNL     1      12.835  21.565  47.021  1.00  0.00    -0.507 OA
ATOM     39  H   UNL     1      13.323  20.742  46.689  1.00  0.00     0.293 HD
ENDBRANCH  30  38
BRANCH  35  40
ATOM     40  C   UNL     1      13.828  24.864  41.379  1.00  0.00    -0.003 A 
ATOM     41  C   UNL     1      14.924  24.966  40.508  1.00  0.00     0.057 A 
ATOM     42  C   UNL     1      12.571  25.330  40.958  1.00  0.00     0.011 A 
ATOM     43  C   UNL     1      14.770  25.526  39.237  1.00  0.00     0.158 A 
ATOM     44  C   UNL     1      12.408  25.885  39.686  1.00  0.00     0.051 A 
ATOM     45  C   UNL     1      13.503  25.963  38.804  1.00  0.00     0.160 A 
BRANCH  43  46
ATOM     46  O   UNL     1      15.886  25.601  38.403  1.00  0.00    -0.504 OA
ATOM     47  H   UNL     1      16.833  25.586  38.774  1.00  0.00     0.293 HD
ENDBRANCH  43  46
BRANCH  45  48
ATOM     48  O   UNL     1      13.371  26.462  37.501  1.00  0.00    -0.493 OA
ATOM     49  C   UNL     1      12.247  27.214  37.031  1.00  0.00     0.278 C 
ENDBRANCH  45  48
ENDBRANCH  35  40
ENDBRANCH  26  27
ENDBRANCH   5  26
BRANCH   4  50
ATOM     50  O   UNL     1      13.262  28.567  48.297  1.00  0.00    -0.384 OA
ATOM     51  H   UNL     1      12.882  27.818  47.768  1.00  0.00     0.211 HD
ENDBRANCH   4  50
TORSDOF 15
ENDMDL
MODEL 8
REMARK VINA RESULT:    -6.065      3.162      7.218
REMARK INTER + INTRA:         -11.805
REMARK INTER:                  -9.638
REMARK INTRA:                  -2.167
REMARK UNBOUND:                -1.840
REMARK SMILES COc1ccc([C@@H]2CC(=O)c3c(O)cc(O[C@H]4O[C@H](CO[C@@H]5O[C@@H](C)[C@H](O)[C@@H](O)[C@H]5O)[C@@H](O)[C@@H](O)[C@H]4O)cc3O2)cc1O
REMARK SMILES IDX 19 1 32 2 34 3 36 4 17 5 18 6 20 7 21 8 22 9 25 10 24 11
REMARK SMILES IDX 26 12 23 13 28 14 30 15 27 16 29 18 31 20 33 22 35 24 16 26
REMARK SMILES IDX 15 27 14 28 38 29 12 30 39 31 11 32 40 33 9 34 7 35 10 36
REMARK SMILES IDX 8 37 13 38 6 40 41 41 5 42 42 43 4 44 3 45 43 46 2 48 1 49
REMARK SMILES IDX 37 50
REMARK H PARENT 27 17 29 19 31 21 33 23 35 25 13 39 43 47 37 51
REMARK Flexibility Score: inf
ROOT
ATOM      1  C   UNL     1      13.136  24.012  43.962  1.00  0.00     0.180 C 
ATOM      2  C   UNL     1      13.232  24.487  42.479  1.00  0.00     0.177 C 
ATOM      3  C   UNL     1      13.312  23.258  41.557  1.00  0.00     0.180 C 
ATOM      4  C   UNL     1      12.179  22.255  41.892  1.00  0.00     0.214 C 
ATOM      5  C   UNL     1      12.090  21.979  43.413  1.00  0.00     0.339 C 
ATOM      6  O   UNL     1      11.979  23.201  44.124  1.00  0.00    -0.332 OA
ENDROOT
BRANCH   1   7
ATOM      7  C   UNL     1      13.031  25.185  44.954  1.00  0.00     0.198 C 
BRANCH   7   8
ATOM      8  O   UNL     1      12.929  24.669  46.265  1.00  0.00    -0.347 OA
BRANCH   8   9
ATOM      9  C   UNL     1      14.128  24.873  47.007  1.00  0.00     0.281 C 
ATOM     10  C   UNL     1      12.695  24.536  50.387  1.00  0.00     0.041 C 
ATOM     11  C   UNL     1      12.873  25.128  48.985  1.00  0.00     0.150 C 
ATOM     12  C   UNL     1      13.128  26.655  49.070  1.00  0.00     0.174 C 
ATOM     13  O   UNL     1      13.958  24.456  48.355  1.00  0.00    -0.344 OA
ATOM     14  C   UNL     1      13.453  27.229  47.668  1.00  0.00     0.179 C 
ATOM     15  C   UNL     1      14.513  26.363  46.944  1.00  0.00     0.202 C 
BRANCH  12  16
ATOM     16  O   UNL     1      11.978  27.292  49.585  1.00  0.00    -0.388 OA
ATOM     17  H   UNL     1      11.279  26.592  49.687  1.00  0.00     0.211 HD
ENDBRANCH  12  16
BRANCH  14  18
ATOM     18  O   UNL     1      13.851  28.569  47.741  1.00  0.00    -0.387 OA
ATOM     19  H   UNL     1      14.771  28.599  48.115  1.00  0.00     0.211 HD
ENDBRANCH  14  18
BRANCH  15  20
ATOM     20  O   UNL     1      15.804  26.573  47.464  1.00  0.00    -0.385 OA
ATOM     21  H   UNL     1      15.741  27.239  48.196  1.00  0.00     0.211 HD
ENDBRANCH  15  20
ENDBRANCH   8   9
ENDBRANCH   7   8
ENDBRANCH   1   7
BRANCH   2  22
ATOM     22  O   UNL     1      14.348  25.309  42.210  1.00  0.00    -0.387 OA
ATOM     23  H   UNL     1      14.034  26.223  42.027  1.00  0.00     0.211 HD
ENDBRANCH   2  22
BRANCH   3  24
ATOM     24  O   UNL     1      14.617  22.705  41.619  1.00  0.00    -0.387 OA
ATOM     25  H   UNL     1      15.103  22.849  40.770  1.00  0.00     0.211 HD
ENDBRANCH   3  24
BRANCH   5  26
ATOM     26  O   UNL     1      13.215  21.237  43.906  1.00  0.00    -0.462 OA
BRANCH  26  27
ATOM     27  C   UNL     1      13.298  20.515  45.109  1.00  0.00     0.130 A 
ATOM     28  C   UNL     1      12.642  19.291  45.335  1.00  0.00     0.093 A 
ATOM     29  C   UNL     1      14.068  21.072  46.131  1.00  0.00     0.094 A 
ATOM     30  C   UNL     1      12.773  18.628  46.569  1.00  0.00     0.133 A 
ATOM     31  C   UNL     1      14.168  20.445  47.371  1.00  0.00     0.138 A 
ATOM     32  C   UNL     1      13.542  19.213  47.600  1.00  0.00     0.102 A 
ATOM     33  O   UNL     1      14.892  21.065  48.389  1.00  0.00    -0.484 OA
ATOM     34  C   UNL     1      13.746  18.571  48.929  1.00  0.00     0.174 C 
ATOM     35  C   UNL     1      14.711  20.721  49.762  1.00  0.00     0.211 C 
ATOM     36  O   UNL     1      13.205  17.466  49.202  1.00  0.00    -0.294 OA
ATOM     37  C   UNL     1      14.681  19.191  49.933  1.00  0.00     0.131 C 
BRANCH  30  38
ATOM     38  O   UNL     1      12.135  17.406  46.768  1.00  0.00    -0.507 OA
ATOM     39  H   UNL     1      11.500  17.016  46.082  1.00  0.00     0.293 HD
ENDBRANCH  30  38
BRANCH  35  40
ATOM     40  C   UNL     1      15.802  21.379  50.572  1.00  0.00    -0.003 A 
ATOM     41  C   UNL     1      17.029  20.724  50.756  1.00  0.00     0.057 A 
ATOM     42  C   UNL     1      15.666  22.713  50.994  1.00  0.00     0.011 A 
ATOM     43  C   UNL     1      18.105  21.386  51.354  1.00  0.00     0.158 A 
ATOM     44  C   UNL     1      16.740  23.384  51.586  1.00  0.00     0.051 A 
ATOM     45  C   UNL     1      17.978  22.733  51.746  1.00  0.00     0.160 A 
BRANCH  43  46
ATOM     46  O   UNL     1      19.308  20.697  51.511  1.00  0.00    -0.504 OA
ATOM     47  H   UNL     1      19.437  20.008  52.249  1.00  0.00     0.293 HD
ENDBRANCH  43  46
BRANCH  45  48
ATOM     48  O   UNL     1      19.094  23.386  52.285  1.00  0.00    -0.493 OA
ATOM     49  C   UNL     1      19.363  23.511  53.686  1.00  0.00     0.278 C 
ENDBRANCH  45  48
ENDBRANCH  35  40
ENDBRANCH  26  27
ENDBRANCH   5  26
BRANCH   4  50
ATOM     50  O   UNL     1      12.354  21.063  41.171  1.00  0.00    -0.384 OA
ATOM     51  H   UNL     1      11.839  21.149  40.326  1.00  0.00     0.211 HD
ENDBRANCH   4  50
TORSDOF 15
ENDMDL
MODEL 9
REMARK VINA RESULT:    -6.065      2.278      5.645
REMARK INTER + INTRA:         -11.805
REMARK INTER:                  -9.565
REMARK INTRA:                  -2.239
REMARK UNBOUND:                -1.840
REMARK SMILES COc1ccc([C@@H]2CC(=O)c3c(O)cc(O[C@H]4O[C@H](CO[C@@H]5O[C@@H](C)[C@H](O)[C@@H](O)[C@H]5O)[C@@H](O)[C@@H](O)[C@H]4O)cc3O2)cc1O
REMARK SMILES IDX 19 1 32 2 34 3 36 4 17 5 18 6 20 7 21 8 22 9 25 10 24 11
REMARK SMILES IDX 26 12 23 13 28 14 30 15 27 16 29 18 31 20 33 22 35 24 16 26
REMARK SMILES IDX 15 27 14 28 38 29 12 30 39 31 11 32 40 33 9 34 7 35 10 36
REMARK SMILES IDX 8 37 13 38 6 40 41 41 5 42 42 43 4 44 3 45 43 46 2 48 1 49
REMARK SMILES IDX 37 50
REMARK H PARENT 27 17 29 19 31 21 33 23 35 25 13 39 43 47 37 51
REMARK Flexibility Score: inf
ROOT
ATOM      1  C   UNL     1      13.741  22.538  47.187  1.00  0.00     0.180 C 
ATOM      2  C   UNL     1      13.291  21.428  46.188  1.00  0.00     0.177 C 
ATOM      3  C   UNL     1      13.838  20.069  46.659  1.00  0.00     0.180 C 
ATOM      4  C   UNL     1      13.500  19.837  48.153  1.00  0.00     0.214 C 
ATOM      5  C   UNL     1      13.858  21.069  49.020  1.00  0.00     0.339 C 
ATOM      6  O   UNL     1      13.248  22.233  48.486  1.00  0.00    -0.332 OA
ENDROOT
BRANCH   1   7
ATOM      7  C   UNL     1      13.216  23.932  46.799  1.00  0.00     0.198 C 
BRANCH   7   8
ATOM      8  O   UNL     1      13.169  24.743  47.956  1.00  0.00    -0.347 OA
BRANCH   8   9
ATOM      9  C   UNL     1      14.419  25.381  48.202  1.00  0.00     0.281 C 
ATOM     10  C   UNL     1      13.894  26.159  51.768  1.00  0.00     0.041 C 
ATOM     11  C   UNL     1      13.610  26.191  50.263  1.00  0.00     0.150 C 
ATOM     12  C   UNL     1      13.505  27.654  49.762  1.00  0.00     0.174 C 
ATOM     13  O   UNL     1      14.656  25.490  49.600  1.00  0.00    -0.344 OA
ATOM     14  C   UNL     1      13.365  27.691  48.219  1.00  0.00     0.179 C 
ATOM     15  C   UNL     1      14.413  26.773  47.543  1.00  0.00     0.202 C 
BRANCH  12  16
ATOM     16  O   UNL     1      12.380  28.270  50.352  1.00  0.00    -0.388 OA
ATOM     17  H   UNL     1      11.634  27.615  50.307  1.00  0.00     0.211 HD
ENDBRANCH  12  16
BRANCH  14  18
ATOM     18  O   UNL     1      13.438  28.999  47.727  1.00  0.00    -0.387 OA
ATOM     19  H   UNL     1      14.343  29.355  47.928  1.00  0.00     0.211 HD
ENDBRANCH  14  18
BRANCH  15  20
ATOM     20  O   UNL     1      15.699  27.345  47.561  1.00  0.00    -0.385 OA
ATOM     21  H   UNL     1      16.171  27.025  48.374  1.00  0.00     0.211 HD
ENDBRANCH  15  20
ENDBRANCH   8   9
ENDBRANCH   7   8
ENDBRANCH   1   7
BRANCH   2  22
ATOM     22  O   UNL     1      13.724  21.638  44.861  1.00  0.00    -0.387 OA
ATOM     23  H   UNL     1      13.879  22.599  44.725  1.00  0.00     0.211 HD
ENDBRANCH   2  22
BRANCH   3  24
ATOM     24  O   UNL     1      15.222  19.987  46.355  1.00  0.00    -0.387 OA
ATOM     25  H   UNL     1      15.627  20.888  46.304  1.00  0.00     0.211 HD
ENDBRANCH   3  24
BRANCH   5  26
ATOM     26  O   UNL     1      15.274  21.275  49.128  1.00  0.00    -0.462 OA
BRANCH  26  27
ATOM     27  C   UNL     1      16.015  21.503  50.301  1.00  0.00     0.130 A 
ATOM     28  C   UNL     1      16.461  20.478  51.156  1.00  0.00     0.093 A 
ATOM     29  C   UNL     1      16.298  22.831  50.625  1.00  0.00     0.094 A 
ATOM     30  C   UNL     1      17.197  20.787  52.315  1.00  0.00     0.133 A 
ATOM     31  C   UNL     1      16.988  23.148  51.792  1.00  0.00     0.138 A 
ATOM     32  C   UNL     1      17.461  22.137  52.639  1.00  0.00     0.102 A 
ATOM     33  O   UNL     1      17.194  24.489  52.116  1.00  0.00    -0.484 OA
ATOM     34  C   UNL     1      18.246  22.550  53.836  1.00  0.00     0.174 C 
ATOM     35  C   UNL     1      17.507  24.905  53.444  1.00  0.00     0.211 C 
ATOM     36  O   UNL     1      18.694  21.691  54.642  1.00  0.00    -0.294 OA
ATOM     37  C   UNL     1      18.595  23.999  54.048  1.00  0.00     0.131 C 
BRANCH  30  38
ATOM     38  O   UNL     1      17.651  19.760  53.140  1.00  0.00    -0.507 OA
ATOM     39  H   UNL     1      17.239  18.835  53.116  1.00  0.00     0.293 HD
ENDBRANCH  30  38
BRANCH  35  40
ATOM     40  C   UNL     1      17.911  26.360  53.411  1.00  0.00    -0.003 A 
ATOM     41  C   UNL     1      17.181  27.272  52.633  1.00  0.00     0.057 A 
ATOM     42  C   UNL     1      18.899  26.843  54.286  1.00  0.00     0.011 A 
ATOM     43  C   UNL     1      17.432  28.643  52.724  1.00  0.00     0.158 A 
ATOM     44  C   UNL     1      19.150  28.213  54.388  1.00  0.00     0.051 A 
ATOM     45  C   UNL     1      18.399  29.128  53.627  1.00  0.00     0.160 A 
BRANCH  43  46
ATOM     46  O   UNL     1      16.677  29.513  51.936  1.00  0.00    -0.504 OA
ATOM     47  H   UNL     1      15.665  29.571  52.022  1.00  0.00     0.293 HD
ENDBRANCH  43  46
BRANCH  45  48
ATOM     48  O   UNL     1      18.582  30.512  53.739  1.00  0.00    -0.493 OA
ATOM     49  C   UNL     1      19.737  31.219  53.270  1.00  0.00     0.278 C 
ENDBRANCH  45  48
ENDBRANCH  35  40
ENDBRANCH  26  27
ENDBRANCH   5  26
BRANCH   4  50
ATOM     50  O   UNL     1      14.145  18.682  48.625  1.00  0.00    -0.384 OA
ATOM     51  H   UNL     1      13.891  17.934  48.023  1.00  0.00     0.211 HD
ENDBRANCH   4  50
TORSDOF 15
ENDMDL
