MODEL 1
REMARK VINA RESULT:    -4.641      0.000      0.000
REMARK INTER + INTRA:          -9.757
REMARK INTER:                  -8.168
REMARK INTRA:                  -1.589
REMARK UNBOUND:                -1.589
REMARK SMILES CCCCCCCCCCCCCCC(=O)[O-]
REMARK SMILES IDX 9 1 10 2 11 3 12 4 13 5 14 6 15 7 16 8 17 9 8 10 7 11 6 12
REMARK SMILES IDX 5 13 4 14 3 15 2 16 1 17
REMARK H PARENT
REMARK Flexibility Score: inf
ROOT
ATOM      1  C   UNL     1      10.573 -15.819  12.573  1.00  0.00     0.000 C 
ENDROOT
BRANCH   1   2
ATOM      2  C   UNL     1      11.476 -15.209  13.654  1.00  0.00     0.000 C 
BRANCH   2   3
ATOM      3  C   UNL     1      10.993 -15.516  15.081  1.00  0.00     0.000 C 
BRANCH   3   4
ATOM      4  C   UNL     1      11.416 -14.454  16.119  1.00  0.00     0.000 C 
BRANCH   4   5
ATOM      5  C   UNL     1      11.732 -13.098  15.465  1.00  0.00     0.006 C 
BRANCH   5   6
ATOM      6  C   UNL     1      13.231 -12.770  15.500  1.00  0.00     0.053 C 
BRANCH   6   7
ATOM      7  C   UNL     1      13.524 -11.442  14.874  1.00  0.00     0.041 C 
ATOM      8  O   UNL     1      14.416 -11.341  13.991  1.00  0.00    -0.550 OA
ATOM      9  O   UNL     1      12.838 -10.308  15.291  1.00  0.00    -0.550 OA
ENDBRANCH   6   7
ENDBRANCH   5   6
ENDBRANCH   4   5
ENDBRANCH   3   4
ENDBRANCH   2   3
ENDBRANCH   1   2
BRANCH   1  10
ATOM     10  C   UNL     1      11.407 -16.465  11.459  1.00  0.00     0.000 C 
BRANCH  10  11
ATOM     11  C   UNL     1      12.891 -16.097  11.601  1.00  0.00    -0.000 C 
BRANCH  11  12
ATOM     12  C   UNL     1      13.824 -17.302  11.394  1.00  0.00    -0.000 C 
BRANCH  12  13
ATOM     13  C   UNL     1      15.276 -17.001  11.804  1.00  0.00    -0.000 C 
BRANCH  13  14
ATOM     14  C   UNL     1      15.666 -17.672  13.132  1.00  0.00    -0.000 C 
BRANCH  14  15
ATOM     15  C   UNL     1      15.864 -16.658  14.272  1.00  0.00    -0.000 C 
BRANCH  15  16
ATOM     16  C   UNL     1      14.597 -16.475  15.123  1.00  0.00    -0.003 C 
ATOM     17  C   UNL     1      13.831 -17.781  15.331  1.00  0.00     0.004 C 
ENDBRANCH  15  16
ENDBRANCH  14  15
ENDBRANCH  13  14
ENDBRANCH  12  13
ENDBRANCH  11  12
ENDBRANCH  10  11
ENDBRANCH   1  10
TORSDOF 13
ENDMDL
MODEL 2
REMARK VINA RESULT:    -4.549      2.420      5.283
REMARK INTER + INTRA:          -9.594
REMARK INTER:                  -7.813
REMARK INTRA:                  -1.781
REMARK UNBOUND:                -1.589
REMARK SMILES CCCCCCCCCCCCCCC(=O)[O-]
REMARK SMILES IDX 9 1 10 2 11 3 12 4 13 5 14 6 15 7 16 8 17 9 8 10 7 11 6 12
REMARK SMILES IDX 5 13 4 14 3 15 2 16 1 17
REMARK H PARENT
REMARK Flexibility Score: inf
ROOT
ATOM      1  C   UNL     1      16.211 -15.415  13.607  1.00  0.00     0.000 C 
ENDROOT
BRANCH   1   2
ATOM      2  C   UNL     1      15.807 -16.857  13.270  1.00  0.00     0.000 C 
BRANCH   2   3
ATOM      3  C   UNL     1      15.660 -17.743  14.518  1.00  0.00     0.000 C 
BRANCH   3   4
ATOM      4  C   UNL     1      14.332 -17.529  15.276  1.00  0.00     0.000 C 
BRANCH   4   5
ATOM      5  C   UNL     1      13.107 -17.835  14.397  1.00  0.00     0.006 C 
BRANCH   5   6
ATOM      6  C   UNL     1      12.103 -16.675  14.373  1.00  0.00     0.053 C 
BRANCH   6   7
ATOM      7  C   UNL     1      11.780 -16.248  12.974  1.00  0.00     0.041 C 
ATOM      8  O   UNL     1      12.555 -16.543  12.027  1.00  0.00    -0.550 OA
ATOM      9  O   UNL     1      10.641 -15.493  12.722  1.00  0.00    -0.550 OA
ENDBRANCH   6   7
ENDBRANCH   5   6
ENDBRANCH   4   5
ENDBRANCH   3   4
ENDBRANCH   2   3
ENDBRANCH   1   2
BRANCH   1  10
ATOM     10  C   UNL     1      15.056 -14.442  13.335  1.00  0.00     0.000 C 
BRANCH  10  11
ATOM     11  C   UNL     1      14.490 -13.881  14.648  1.00  0.00    -0.000 C 
BRANCH  11  12
ATOM     12  C   UNL     1      14.485 -12.345  14.684  1.00  0.00    -0.000 C 
BRANCH  12  13
ATOM     13  C   UNL     1      13.077 -11.763  14.903  1.00  0.00    -0.000 C 
BRANCH  13  14
ATOM     14  C   UNL     1      11.985 -12.847  14.907  1.00  0.00    -0.000 C 
BRANCH  14  15
ATOM     15  C   UNL     1      11.348 -13.040  16.294  1.00  0.00    -0.000 C 
BRANCH  15  16
ATOM     16  C   UNL     1      11.463 -14.488  16.797  1.00  0.00    -0.003 C 
ATOM     17  C   UNL     1      12.436 -14.634  17.966  1.00  0.00     0.004 C 
ENDBRANCH  15  16
ENDBRANCH  14  15
ENDBRANCH  13  14
ENDBRANCH  12  13
ENDBRANCH  11  12
ENDBRANCH  10  11
ENDBRANCH   1  10
TORSDOF 13
ENDMDL
MODEL 3
REMARK VINA RESULT:    -4.548      1.380      4.612
REMARK INTER + INTRA:          -9.593
REMARK INTER:                  -7.594
REMARK INTRA:                  -1.999
REMARK UNBOUND:                -1.589
REMARK SMILES CCCCCCCCCCCCCCC(=O)[O-]
REMARK SMILES IDX 9 1 10 2 11 3 12 4 13 5 14 6 15 7 16 8 17 9 8 10 7 11 6 12
REMARK SMILES IDX 5 13 4 14 3 15 2 16 1 17
REMARK H PARENT
REMARK Flexibility Score: inf
ROOT
ATOM      1  C   UNL     1      15.719 -17.571  14.448  1.00  0.00     0.000 C 
ENDROOT
BRANCH   1   2
ATOM      2  C   UNL     1      14.891 -17.347  13.175  1.00  0.00     0.000 C 
BRANCH   2   3
ATOM      3  C   UNL     1      15.706 -16.713  12.035  1.00  0.00     0.000 C 
BRANCH   3   4
ATOM      4  C   UNL     1      15.774 -15.172  12.106  1.00  0.00     0.000 C 
BRANCH   4   5
ATOM      5  C   UNL     1      14.685 -14.586  13.020  1.00  0.00     0.006 C 
BRANCH   5   6
ATOM      6  C   UNL     1      15.274 -13.781  14.186  1.00  0.00     0.053 C 
BRANCH   6   7
ATOM      7  C   UNL     1      14.633 -12.434  14.313  1.00  0.00     0.041 C 
ATOM      8  O   UNL     1      13.682 -12.259  15.120  1.00  0.00    -0.550 OA
ATOM      9  O   UNL     1      15.062 -11.380  13.516  1.00  0.00    -0.550 OA
ENDBRANCH   6   7
ENDBRANCH   5   6
ENDBRANCH   4   5
ENDBRANCH   3   4
ENDBRANCH   2   3
ENDBRANCH   1   2
BRANCH   1  10
ATOM     10  C   UNL     1      14.810 -17.768  15.668  1.00  0.00     0.000 C 
BRANCH  10  11
ATOM     11  C   UNL     1      13.457 -17.070  15.463  1.00  0.00    -0.000 C 
BRANCH  11  12
ATOM     12  C   UNL     1      13.242 -15.896  16.432  1.00  0.00    -0.000 C 
BRANCH  12  13
ATOM     13  C   UNL     1      11.971 -15.090  16.111  1.00  0.00    -0.000 C 
BRANCH  13  14
ATOM     14  C   UNL     1      11.134 -15.729  14.989  1.00  0.00    -0.000 C 
BRANCH  14  15
ATOM     15  C   UNL     1      11.160 -14.906  13.690  1.00  0.00    -0.000 C 
BRANCH  15  16
ATOM     16  C   UNL     1      10.605 -15.688  12.488  1.00  0.00    -0.003 C 
ATOM     17  C   UNL     1      11.704 -16.304  11.623  1.00  0.00     0.004 C 
ENDBRANCH  15  16
ENDBRANCH  14  15
ENDBRANCH  13  14
ENDBRANCH  12  13
ENDBRANCH  11  12
ENDBRANCH  10  11
ENDBRANCH   1  10
TORSDOF 13
ENDMDL
MODEL 4
REMARK VINA RESULT:    -4.517      1.721      4.090
REMARK INTER + INTRA:          -9.538
REMARK INTER:                  -8.316
REMARK INTRA:                  -1.221
REMARK UNBOUND:                -1.589
REMARK SMILES CCCCCCCCCCCCCCC(=O)[O-]
REMARK SMILES IDX 9 1 10 2 11 3 12 4 13 5 14 6 15 7 16 8 17 9 8 10 7 11 6 12
REMARK SMILES IDX 5 13 4 14 3 15 2 16 1 17
REMARK H PARENT
REMARK Flexibility Score: inf
ROOT
ATOM      1  C   UNL     1      11.375 -12.888  15.845  1.00  0.00     0.000 C 
ENDROOT
BRANCH   1   2
ATOM      2  C   UNL     1      12.236 -11.818  15.160  1.00  0.00     0.000 C 
BRANCH   2   3
ATOM      3  C   UNL     1      11.616 -10.413  15.234  1.00  0.00     0.000 C 
BRANCH   3   4
ATOM      4  C   UNL     1      12.660  -9.275  15.227  1.00  0.00     0.000 C 
BRANCH   4   5
ATOM      5  C   UNL     1      14.095  -9.806  15.063  1.00  0.00     0.006 C 
BRANCH   5   6
ATOM      6  C   UNL     1      14.781  -9.251  13.808  1.00  0.00     0.053 C 
BRANCH   6   7
ATOM      7  C   UNL     1      15.301 -10.347  12.929  1.00  0.00     0.041 C 
ATOM      8  O   UNL     1      15.407 -11.520  13.374  1.00  0.00    -0.550 OA
ATOM      9  O   UNL     1      15.702 -10.065  11.628  1.00  0.00    -0.550 OA
ENDBRANCH   6   7
ENDBRANCH   5   6
ENDBRANCH   4   5
ENDBRANCH   3   4
ENDBRANCH   2   3
ENDBRANCH   1   2
BRANCH   1  10
ATOM     10  C   UNL     1      12.244 -13.856  16.658  1.00  0.00     0.000 C 
BRANCH  10  11
ATOM     11  C   UNL     1      12.210 -15.266  16.049  1.00  0.00    -0.000 C 
BRANCH  11  12
ATOM     12  C   UNL     1      11.015 -15.478  15.107  1.00  0.00    -0.000 C 
BRANCH  12  13
ATOM     13  C   UNL     1      11.441 -15.983  13.717  1.00  0.00    -0.000 C 
BRANCH  13  14
ATOM     14  C   UNL     1      12.937 -15.756  13.439  1.00  0.00    -0.000 C 
BRANCH  14  15
ATOM     15  C   UNL     1      13.605 -16.971  12.772  1.00  0.00    -0.000 C 
BRANCH  15  16
ATOM     16  C   UNL     1      14.850 -17.450  13.536  1.00  0.00    -0.003 C 
ATOM     17  C   UNL     1      15.658 -16.299  14.134  1.00  0.00     0.004 C 
ENDBRANCH  15  16
ENDBRANCH  14  15
ENDBRANCH  13  14
ENDBRANCH  12  13
ENDBRANCH  11  12
ENDBRANCH  10  11
ENDBRANCH   1  10
TORSDOF 13
ENDMDL
MODEL 5
REMARK VINA RESULT:    -4.494      1.569      3.619
REMARK INTER + INTRA:          -9.499
REMARK INTER:                  -7.660
REMARK INTRA:                  -1.839
REMARK UNBOUND:                -1.589
REMARK SMILES CCCCCCCCCCCCCCC(=O)[O-]
REMARK SMILES IDX 9 1 10 2 11 3 12 4 13 5 14 6 15 7 16 8 17 9 8 10 7 11 6 12
REMARK SMILES IDX 5 13 4 14 3 15 2 16 1 17
REMARK H PARENT
REMARK Flexibility Score: inf
ROOT
ATOM      1  C   UNL     1      15.238 -15.456  12.774  1.00  0.00     0.000 C 
ENDROOT
BRANCH   1   2
ATOM      2  C   UNL     1      15.690 -14.563  13.938  1.00  0.00     0.000 C 
BRANCH   2   3
ATOM      3  C   UNL     1      14.757 -13.363  14.170  1.00  0.00     0.000 C 
BRANCH   3   4
ATOM      4  C   UNL     1      15.208 -12.079  13.441  1.00  0.00     0.000 C 
BRANCH   4   5
ATOM      5  C   UNL     1      14.701 -10.807  14.141  1.00  0.00     0.006 C 
BRANCH   5   6
ATOM      6  C   UNL     1      13.404 -11.050  14.924  1.00  0.00     0.053 C 
BRANCH   6   7
ATOM      7  C   UNL     1      12.633  -9.783  15.132  1.00  0.00     0.041 C 
ATOM      8  O   UNL     1      13.235  -8.680  15.199  1.00  0.00    -0.550 OA
ATOM      9  O   UNL     1      11.252  -9.824  15.286  1.00  0.00    -0.550 OA
ENDBRANCH   6   7
ENDBRANCH   5   6
ENDBRANCH   4   5
ENDBRANCH   3   4
ENDBRANCH   2   3
ENDBRANCH   1   2
BRANCH   1  10
ATOM     10  C   UNL     1      14.975 -16.890  13.250  1.00  0.00     0.000 C 
BRANCH  10  11
ATOM     11  C   UNL     1      13.548 -17.332  12.895  1.00  0.00    -0.000 C 
BRANCH  11  12
ATOM     12  C   UNL     1      12.752 -16.240  12.163  1.00  0.00    -0.000 C 
BRANCH  12  13
ATOM     13  C   UNL     1      11.452 -15.864  12.897  1.00  0.00    -0.000 C 
BRANCH  13  14
ATOM     14  C   UNL     1      11.505 -16.194  14.399  1.00  0.00    -0.000 C 
BRANCH  14  15
ATOM     15  C   UNL     1      11.268 -14.959  15.284  1.00  0.00    -0.000 C 
BRANCH  15  16
ATOM     16  C   UNL     1      12.291 -14.849  16.427  1.00  0.00    -0.003 C 
ATOM     17  C   UNL     1      13.272 -16.020  16.458  1.00  0.00     0.004 C 
ENDBRANCH  15  16
ENDBRANCH  14  15
ENDBRANCH  13  14
ENDBRANCH  12  13
ENDBRANCH  11  12
ENDBRANCH  10  11
ENDBRANCH   1  10
TORSDOF 13
ENDMDL
MODEL 6
REMARK VINA RESULT:    -4.470      2.909      5.118
REMARK INTER + INTRA:          -9.456
REMARK INTER:                  -8.747
REMARK INTRA:                  -0.708
REMARK UNBOUND:                -1.589
REMARK SMILES CCCCCCCCCCCCCCC(=O)[O-]
REMARK SMILES IDX 9 1 10 2 11 3 12 4 13 5 14 6 15 7 16 8 17 9 8 10 7 11 6 12
REMARK SMILES IDX 5 13 4 14 3 15 2 16 1 17
REMARK H PARENT
REMARK Flexibility Score: inf
ROOT
ATOM      1  C   UNL     1      12.499 -11.665  15.112  1.00  0.00     0.000 C 
ENDROOT
BRANCH   1   2
ATOM      2  C   UNL     1      12.197 -10.162  15.191  1.00  0.00     0.000 C 
BRANCH   2   3
ATOM      3  C   UNL     1      13.452  -9.290  15.015  1.00  0.00     0.000 C 
BRANCH   3   4
ATOM      4  C   UNL     1      14.599 -10.001  14.265  1.00  0.00     0.000 C 
BRANCH   4   5
ATOM      5  C   UNL     1      15.261  -9.087  13.219  1.00  0.00     0.006 C 
BRANCH   5   6
ATOM      6  C   UNL     1      16.735  -8.808  13.539  1.00  0.00     0.053 C 
BRANCH   6   7
ATOM      7  C   UNL     1      17.018  -7.340  13.622  1.00  0.00     0.041 C 
ATOM      8  O   UNL     1      18.114  -6.882  13.204  1.00  0.00    -0.550 OA
ATOM      9  O   UNL     1      16.087  -6.482  14.193  1.00  0.00    -0.550 OA
ENDBRANCH   6   7
ENDBRANCH   5   6
ENDBRANCH   4   5
ENDBRANCH   3   4
ENDBRANCH   2   3
ENDBRANCH   1   2
BRANCH   1  10
ATOM     10  C   UNL     1      11.370 -12.487  15.748  1.00  0.00     0.000 C 
BRANCH  10  11
ATOM     11  C   UNL     1      11.929 -13.731  16.454  1.00  0.00    -0.000 C 
BRANCH  11  12
ATOM     12  C   UNL     1      11.279 -15.035  15.964  1.00  0.00    -0.000 C 
BRANCH  12  13
ATOM     13  C   UNL     1      11.238 -15.134  14.429  1.00  0.00    -0.000 C 
BRANCH  13  14
ATOM     14  C   UNL     1      11.550 -16.552  13.920  1.00  0.00    -0.000 C 
BRANCH  14  15
ATOM     15  C   UNL     1      13.059 -16.850  13.892  1.00  0.00    -0.000 C 
BRANCH  15  16
ATOM     16  C   UNL     1      13.485 -17.831  14.997  1.00  0.00    -0.003 C 
ATOM     17  C   UNL     1      14.979 -17.759  15.309  1.00  0.00     0.004 C 
ENDBRANCH  15  16
ENDBRANCH  14  15
ENDBRANCH  13  14
ENDBRANCH  12  13
ENDBRANCH  11  12
ENDBRANCH  10  11
ENDBRANCH   1  10
TORSDOF 13
ENDMDL
MODEL 7
REMARK VINA RESULT:    -4.459      1.561      3.906
REMARK INTER + INTRA:          -9.436
REMARK INTER:                  -7.494
REMARK INTRA:                  -1.942
REMARK UNBOUND:                -1.589
REMARK SMILES CCCCCCCCCCCCCCC(=O)[O-]
REMARK SMILES IDX 9 1 10 2 11 3 12 4 13 5 14 6 15 7 16 8 17 9 8 10 7 11 6 12
REMARK SMILES IDX 5 13 4 14 3 15 2 16 1 17
REMARK H PARENT
REMARK Flexibility Score: inf
ROOT
ATOM      1  C   UNL     1      14.828 -15.669  12.757  1.00  0.00     0.000 C 
ENDROOT
BRANCH   1   2
ATOM      2  C   UNL     1      16.147 -15.328  13.463  1.00  0.00     0.000 C 
BRANCH   2   3
ATOM      3  C   UNL     1      16.256 -13.841  13.840  1.00  0.00     0.000 C 
BRANCH   3   4
ATOM      4  C   UNL     1      14.893 -13.171  14.115  1.00  0.00     0.000 C 
BRANCH   4   5
ATOM      5  C   UNL     1      14.890 -11.682  13.726  1.00  0.00     0.006 C 
BRANCH   5   6
ATOM      6  C   UNL     1      14.815 -10.760  14.950  1.00  0.00     0.053 C 
BRANCH   6   7
ATOM      7  C   UNL     1      13.525  -9.999  14.995  1.00  0.00     0.041 C 
ATOM      8  O   UNL     1      13.524  -8.747  14.864  1.00  0.00    -0.550 OA
ATOM      9  O   UNL     1      12.328 -10.669  15.216  1.00  0.00    -0.550 OA
ENDBRANCH   6   7
ENDBRANCH   5   6
ENDBRANCH   4   5
ENDBRANCH   3   4
ENDBRANCH   2   3
ENDBRANCH   1   2
BRANCH   1  10
ATOM     10  C   UNL     1      14.506 -17.164  12.884  1.00  0.00     0.000 C 
BRANCH  10  11
ATOM     11  C   UNL     1      14.917 -17.698  14.264  1.00  0.00    -0.000 C 
BRANCH  11  12
ATOM     12  C   UNL     1      13.749 -17.727  15.263  1.00  0.00    -0.000 C 
BRANCH  12  13
ATOM     13  C   UNL     1      13.806 -16.567  16.273  1.00  0.00    -0.000 C 
BRANCH  13  14
ATOM     14  C   UNL     1      12.853 -15.416  15.904  1.00  0.00    -0.000 C 
BRANCH  14  15
ATOM     15  C   UNL     1      11.620 -15.897  15.120  1.00  0.00    -0.000 C 
BRANCH  15  16
ATOM     16  C   UNL     1      11.356 -15.051  13.864  1.00  0.00    -0.003 C 
ATOM     17  C   UNL     1      10.866 -15.884  12.681  1.00  0.00     0.004 C 
ENDBRANCH  15  16
ENDBRANCH  14  15
ENDBRANCH  13  14
ENDBRANCH  12  13
ENDBRANCH  11  12
ENDBRANCH  10  11
ENDBRANCH   1  10
TORSDOF 13
ENDMDL
MODEL 8
REMARK VINA RESULT:    -4.419      2.355      5.167
REMARK INTER + INTRA:          -9.366
REMARK INTER:                  -7.869
REMARK INTRA:                  -1.497
REMARK UNBOUND:                -1.589
REMARK SMILES CCCCCCCCCCCCCCC(=O)[O-]
REMARK SMILES IDX 9 1 10 2 11 3 12 4 13 5 14 6 15 7 16 8 17 9 8 10 7 11 6 12
REMARK SMILES IDX 5 13 4 14 3 15 2 16 1 17
REMARK H PARENT
REMARK Flexibility Score: inf
ROOT
ATOM      1  C   UNL     1      12.495 -16.977  11.297  1.00  0.00     0.000 C 
ENDROOT
BRANCH   1   2
ATOM      2  C   UNL     1      13.499 -16.930  10.137  1.00  0.00     0.000 C 
BRANCH   2   3
ATOM      3  C   UNL     1      14.953 -16.772  10.611  1.00  0.00     0.000 C 
BRANCH   3   4
ATOM      4  C   UNL     1      15.079 -16.257  12.061  1.00  0.00     0.000 C 
BRANCH   4   5
ATOM      5  C   UNL     1      15.447 -17.381  13.045  1.00  0.00     0.006 C 
BRANCH   5   6
ATOM      6  C   UNL     1      15.653 -16.860  14.474  1.00  0.00     0.053 C 
BRANCH   6   7
ATOM      7  C   UNL     1      14.500 -17.209  15.365  1.00  0.00     0.041 C 
ATOM      8  O   UNL     1      14.365 -16.636  16.478  1.00  0.00    -0.550 OA
ATOM      9  O   UNL     1      13.596 -18.192  14.982  1.00  0.00    -0.550 OA
ENDBRANCH   6   7
ENDBRANCH   5   6
ENDBRANCH   4   5
ENDBRANCH   3   4
ENDBRANCH   2   3
ENDBRANCH   1   2
BRANCH   1  10
ATOM     10  C   UNL     1      11.329 -16.010  11.055  1.00  0.00     0.000 C 
BRANCH  10  11
ATOM     11  C   UNL     1      10.717 -15.545  12.385  1.00  0.00    -0.000 C 
BRANCH  11  12
ATOM     12  C   UNL     1      11.660 -15.760  13.580  1.00  0.00    -0.000 C 
BRANCH  12  13
ATOM     13  C   UNL     1      10.990 -15.437  14.927  1.00  0.00    -0.000 C 
BRANCH  13  14
ATOM     14  C   UNL     1      11.772 -14.391  15.741  1.00  0.00    -0.000 C 
BRANCH  14  15
ATOM     15  C   UNL     1      12.879 -13.710  14.918  1.00  0.00    -0.000 C 
BRANCH  15  16
ATOM     16  C   UNL     1      12.849 -12.178  15.049  1.00  0.00    -0.003 C 
ATOM     17  C   UNL     1      11.438 -11.628  15.249  1.00  0.00     0.004 C 
ENDBRANCH  15  16
ENDBRANCH  14  15
ENDBRANCH  13  14
ENDBRANCH  12  13
ENDBRANCH  11  12
ENDBRANCH  10  11
ENDBRANCH   1  10
TORSDOF 13
ENDMDL
MODEL 9
REMARK VINA RESULT:    -4.394      4.351      6.507
REMARK INTER + INTRA:          -9.321
REMARK INTER:                  -8.116
REMARK INTRA:                  -1.206
REMARK UNBOUND:                -1.589
REMARK SMILES CCCCCCCCCCCCCCC(=O)[O-]
REMARK SMILES IDX 9 1 10 2 11 3 12 4 13 5 14 6 15 7 16 8 17 9 8 10 7 11 6 12
REMARK SMILES IDX 5 13 4 14 3 15 2 16 1 17
REMARK H PARENT
REMARK Flexibility Score: inf
ROOT
ATOM      1  C   UNL     1      10.799 -16.104  12.583  1.00  0.00     0.000 C 
ENDROOT
BRANCH   1   2
ATOM      2  C   UNL     1      10.908 -15.546  11.158  1.00  0.00     0.000 C 
BRANCH   2   3
ATOM      3  C   UNL     1      11.823 -16.388  10.253  1.00  0.00     0.000 C 
BRANCH   3   4
ATOM      4  C   UNL     1      11.062 -17.178   9.167  1.00  0.00     0.000 C 
BRANCH   4   5
ATOM      5  C   UNL     1      10.841 -16.345   7.892  1.00  0.00     0.006 C 
BRANCH   5   6
ATOM      6  C   UNL     1       9.422 -16.504   7.331  1.00  0.00     0.053 C 
BRANCH   6   7
ATOM      7  C   UNL     1       9.254 -15.781   6.030  1.00  0.00     0.041 C 
ATOM      8  O   UNL     1       8.572 -16.294   5.104  1.00  0.00    -0.550 OA
ATOM      9  O   UNL     1       9.879 -14.557   5.827  1.00  0.00    -0.550 OA
ENDBRANCH   6   7
ENDBRANCH   5   6
ENDBRANCH   4   5
ENDBRANCH   3   4
ENDBRANCH   2   3
ENDBRANCH   1   2
BRANCH   1  10
ATOM     10  C   UNL     1      11.335 -15.099  13.611  1.00  0.00     0.000 C 
BRANCH  10  11
ATOM     11  C   UNL     1      11.000 -15.546  15.042  1.00  0.00    -0.000 C 
BRANCH  11  12
ATOM     12  C   UNL     1      12.074 -15.132  16.061  1.00  0.00    -0.000 C 
BRANCH  12  13
ATOM     13  C   UNL     1      13.501 -15.411  15.560  1.00  0.00    -0.000 C 
BRANCH  13  14
ATOM     14  C   UNL     1      14.088 -16.709  16.143  1.00  0.00    -0.000 C 
BRANCH  14  15
ATOM     15  C   UNL     1      14.765 -17.584  15.073  1.00  0.00    -0.000 C 
BRANCH  15  16
ATOM     16  C   UNL     1      13.928 -17.694  13.789  1.00  0.00    -0.003 C 
ATOM     17  C   UNL     1      14.701 -17.275  12.539  1.00  0.00     0.004 C 
ENDBRANCH  15  16
ENDBRANCH  14  15
ENDBRANCH  13  14
ENDBRANCH  12  13
ENDBRANCH  11  12
ENDBRANCH  10  11
ENDBRANCH   1  10
TORSDOF 13
ENDMDL
