MODEL 1
REMARK VINA RESULT:    -5.798      0.000      0.000
REMARK INTER + INTRA:          -6.233
REMARK INTER:                  -6.137
REMARK INTRA:                  -0.096
REMARK UNBOUND:                -0.096
REMARK SMILES C=C(C)[C@@H]1CC=C(C)C(=O)C1
REMARK SMILES IDX 8 1 7 2 6 3 5 4 4 5 11 6 9 7 10 8 2 9 1 10 3 11
REMARK H PARENT
REMARK Flexibility Score: inf
ROOT
ATOM      1  C   UNL     1     -11.405 -34.797  25.983  1.00  0.00     0.048 C 
ATOM      2  C   UNL     1     -11.865 -34.350  27.343  1.00  0.00    -0.012 C 
ATOM      3  C   UNL     1     -11.068 -34.514  28.413  1.00  0.00    -0.019 C 
ATOM      4  C   UNL     1     -11.452 -34.010  29.780  1.00  0.00     0.036 C 
ATOM      5  C   UNL     1     -12.980 -34.023  29.969  1.00  0.00     0.025 C 
ATOM      6  C   UNL     1     -13.667 -33.231  28.841  1.00  0.00     0.089 C 
ATOM      7  C   UNL     1     -13.194 -33.706  27.495  1.00  0.00     0.158 C 
ATOM      8  O   UNL     1     -13.919 -33.508  26.484  1.00  0.00    -0.295 OA
ENDROOT
BRANCH   5   9
ATOM      9  C   UNL     1     -13.377 -33.496  31.341  1.00  0.00    -0.077 C 
ATOM     10  C   UNL     1     -12.615 -33.762  32.412  1.00  0.00     0.008 C 
ATOM     11  C   UNL     1     -14.625 -32.669  31.534  1.00  0.00     0.039 C 
ENDBRANCH   5   9
TORSDOF 1
ENDMDL
MODEL 2
REMARK VINA RESULT:    -5.728      3.124      4.845
REMARK INTER + INTRA:          -6.159
REMARK INTER:                  -6.063
REMARK INTRA:                  -0.096
REMARK UNBOUND:                -0.096
REMARK SMILES C=C(C)[C@@H]1CC=C(C)C(=O)C1
REMARK SMILES IDX 8 1 7 2 6 3 5 4 4 5 11 6 9 7 10 8 2 9 1 10 3 11
REMARK H PARENT
REMARK Flexibility Score: inf
ROOT
ATOM      1  C   UNL     1     -12.526 -38.371  31.841  1.00  0.00     0.048 C 
ATOM      2  C   UNL     1     -12.606 -37.346  30.743  1.00  0.00    -0.012 C 
ATOM      3  C   UNL     1     -13.453 -37.523  29.714  1.00  0.00    -0.019 C 
ATOM      4  C   UNL     1     -13.625 -36.487  28.635  1.00  0.00     0.036 C 
ATOM      5  C   UNL     1     -12.324 -35.693  28.412  1.00  0.00     0.025 C 
ATOM      6  C   UNL     1     -11.838 -35.079  29.738  1.00  0.00     0.089 C 
ATOM      7  C   UNL     1     -11.761 -36.128  30.813  1.00  0.00     0.158 C 
ATOM      8  O   UNL     1     -11.004 -35.939  31.802  1.00  0.00    -0.295 OA
ENDROOT
BRANCH   5   9
ATOM      9  C   UNL     1     -12.496 -34.630  27.337  1.00  0.00    -0.077 C 
ATOM     10  C   UNL     1     -13.395 -33.647  27.499  1.00  0.00     0.008 C 
ATOM     11  C   UNL     1     -11.672 -34.650  26.072  1.00  0.00     0.039 C 
ENDBRANCH   5   9
TORSDOF 1
ENDMDL
MODEL 3
REMARK VINA RESULT:    -5.646      2.101      4.424
REMARK INTER + INTRA:          -6.072
REMARK INTER:                  -5.981
REMARK INTRA:                  -0.092
REMARK UNBOUND:                -0.096
REMARK SMILES C=C(C)[C@@H]1CC=C(C)C(=O)C1
REMARK SMILES IDX 8 1 7 2 6 3 5 4 4 5 11 6 9 7 10 8 2 9 1 10 3 11
REMARK H PARENT
REMARK Flexibility Score: inf
ROOT
ATOM      1  C   UNL     1     -11.335 -33.672  32.893  1.00  0.00     0.048 C 
ATOM      2  C   UNL     1     -11.641 -33.882  31.435  1.00  0.00    -0.012 C 
ATOM      3  C   UNL     1     -10.790 -33.434  30.496  1.00  0.00    -0.019 C 
ATOM      4  C   UNL     1     -11.014 -33.691  29.029  1.00  0.00     0.036 C 
ATOM      5  C   UNL     1     -12.516 -33.784  28.702  1.00  0.00     0.025 C 
ATOM      6  C   UNL     1     -13.192 -34.846  29.590  1.00  0.00     0.089 C 
ATOM      7  C   UNL     1     -12.875 -34.606  31.040  1.00  0.00     0.158 C 
ATOM      8  O   UNL     1     -13.646 -35.069  31.922  1.00  0.00    -0.295 OA
ENDROOT
BRANCH   5   9
ATOM      9  C   UNL     1     -12.750 -34.064  27.224  1.00  0.00    -0.077 C 
ATOM     10  C   UNL     1     -13.933 -33.772  26.662  1.00  0.00     0.008 C 
ATOM     11  C   UNL     1     -11.672 -34.672  26.359  1.00  0.00     0.039 C 
ENDBRANCH   5   9
TORSDOF 1
ENDMDL
MODEL 4
REMARK VINA RESULT:    -5.524      2.026      4.664
REMARK INTER + INTRA:          -5.943
REMARK INTER:                  -5.848
REMARK INTRA:                  -0.096
REMARK UNBOUND:                -0.096
REMARK SMILES C=C(C)[C@@H]1CC=C(C)C(=O)C1
REMARK SMILES IDX 8 1 7 2 6 3 5 4 4 5 11 6 9 7 10 8 2 9 1 10 3 11
REMARK H PARENT
REMARK Flexibility Score: inf
ROOT
ATOM      1  C   UNL     1     -11.982 -34.029  32.704  1.00  0.00     0.048 C 
ATOM      2  C   UNL     1     -12.126 -33.975  31.208  1.00  0.00    -0.012 C 
ATOM      3  C   UNL     1     -13.196 -33.378  30.654  1.00  0.00    -0.019 C 
ATOM      4  C   UNL     1     -13.344 -33.229  29.163  1.00  0.00     0.036 C 
ATOM      5  C   UNL     1     -12.657 -34.389  28.417  1.00  0.00     0.025 C 
ATOM      6  C   UNL     1     -11.183 -34.505  28.848  1.00  0.00     0.089 C 
ATOM      7  C   UNL     1     -11.071 -34.564  30.346  1.00  0.00     0.158 C 
ATOM      8  O   UNL     1     -10.045 -35.079  30.866  1.00  0.00    -0.295 OA
ENDROOT
BRANCH   5   9
ATOM      9  C   UNL     1     -12.785 -34.235  26.908  1.00  0.00    -0.077 C 
ATOM     10  C   UNL     1     -13.930 -33.785  26.371  1.00  0.00     0.008 C 
ATOM     11  C   UNL     1     -11.643 -34.579  25.983  1.00  0.00     0.039 C 
ENDBRANCH   5   9
TORSDOF 1
ENDMDL
MODEL 5
REMARK VINA RESULT:    -5.517      2.935      4.023
REMARK INTER + INTRA:          -5.936
REMARK INTER:                  -5.838
REMARK INTRA:                  -0.098
REMARK UNBOUND:                -0.096
REMARK SMILES C=C(C)[C@@H]1CC=C(C)C(=O)C1
REMARK SMILES IDX 8 1 7 2 6 3 5 4 4 5 11 6 9 7 10 8 2 9 1 10 3 11
REMARK H PARENT
REMARK Flexibility Score: inf
ROOT
ATOM      1  C   UNL     1     -12.533 -38.606  31.914  1.00  0.00     0.048 C 
ATOM      2  C   UNL     1     -12.356 -37.306  31.178  1.00  0.00    -0.012 C 
ATOM      3  C   UNL     1     -11.769 -36.261  31.786  1.00  0.00    -0.019 C 
ATOM      4  C   UNL     1     -11.499 -34.967  31.065  1.00  0.00     0.036 C 
ATOM      5  C   UNL     1     -12.552 -34.708  29.971  1.00  0.00     0.025 C 
ATOM      6  C   UNL     1     -12.630 -35.907  29.008  1.00  0.00     0.089 C 
ATOM      7  C   UNL     1     -12.813 -37.190  29.771  1.00  0.00     0.158 C 
ATOM      8  O   UNL     1     -13.319 -38.185  29.186  1.00  0.00    -0.295 OA
ENDROOT
BRANCH   5   9
ATOM      9  C   UNL     1     -12.274 -33.411  29.224  1.00  0.00    -0.077 C 
ATOM     10  C   UNL     1     -11.022 -32.935  29.144  1.00  0.00     0.008 C 
ATOM     11  C   UNL     1     -13.384 -32.633  28.560  1.00  0.00     0.039 C 
ENDBRANCH   5   9
TORSDOF 1
ENDMDL
MODEL 6
REMARK VINA RESULT:    -5.355      2.412      3.351
REMARK INTER + INTRA:          -5.764
REMARK INTER:                  -5.668
REMARK INTRA:                  -0.096
REMARK UNBOUND:                -0.096
REMARK SMILES C=C(C)[C@@H]1CC=C(C)C(=O)C1
REMARK SMILES IDX 8 1 7 2 6 3 5 4 4 5 11 6 9 7 10 8 2 9 1 10 3 11
REMARK H PARENT
REMARK Flexibility Score: inf
ROOT
ATOM      1  C   UNL     1     -14.042 -31.994  28.285  1.00  0.00     0.048 C 
ATOM      2  C   UNL     1     -13.448 -33.045  29.181  1.00  0.00    -0.012 C 
ATOM      3  C   UNL     1     -12.490 -33.866  28.715  1.00  0.00    -0.019 C 
ATOM      4  C   UNL     1     -11.810 -34.880  29.597  1.00  0.00     0.036 C 
ATOM      5  C   UNL     1     -12.756 -35.377  30.706  1.00  0.00     0.025 C 
ATOM      6  C   UNL     1     -13.313 -34.187  31.509  1.00  0.00     0.089 C 
ATOM      7  C   UNL     1     -13.907 -33.157  30.588  1.00  0.00     0.158 C 
ATOM      8  O   UNL     1     -14.769 -32.355  31.037  1.00  0.00    -0.295 OA
ENDROOT
BRANCH   5   9
ATOM      9  C   UNL     1     -12.068 -36.387  31.614  1.00  0.00    -0.077 C 
ATOM     10  C   UNL     1     -11.020 -36.014  32.365  1.00  0.00     0.008 C 
ATOM     11  C   UNL     1     -12.538 -37.819  31.696  1.00  0.00     0.039 C 
ENDBRANCH   5   9
TORSDOF 1
ENDMDL
MODEL 7
REMARK VINA RESULT:    -5.325      1.639      4.323
REMARK INTER + INTRA:          -5.732
REMARK INTER:                  -5.641
REMARK INTRA:                  -0.091
REMARK UNBOUND:                -0.096
REMARK SMILES C=C(C)[C@@H]1CC=C(C)C(=O)C1
REMARK SMILES IDX 8 1 7 2 6 3 5 4 4 5 11 6 9 7 10 8 2 9 1 10 3 11
REMARK H PARENT
REMARK Flexibility Score: inf
ROOT
ATOM      1  C   UNL     1     -15.438 -32.666  32.825  1.00  0.00     0.048 C 
ATOM      2  C   UNL     1     -14.449 -33.130  31.791  1.00  0.00    -0.012 C 
ATOM      3  C   UNL     1     -13.606 -34.139  32.068  1.00  0.00    -0.019 C 
ATOM      4  C   UNL     1     -12.654 -34.691  31.039  1.00  0.00     0.036 C 
ATOM      5  C   UNL     1     -12.223 -33.601  30.040  1.00  0.00     0.025 C 
ATOM      6  C   UNL     1     -13.458 -32.942  29.398  1.00  0.00     0.089 C 
ATOM      7  C   UNL     1     -14.424 -32.483  30.455  1.00  0.00     0.158 C 
ATOM      8  O   UNL     1     -15.248 -31.570  30.179  1.00  0.00    -0.295 OA
ENDROOT
BRANCH   5   9
ATOM      9  C   UNL     1     -11.276 -34.155  28.984  1.00  0.00    -0.077 C 
ATOM     10  C   UNL     1     -10.002 -34.435  29.300  1.00  0.00     0.008 C 
ATOM     11  C   UNL     1     -11.737 -34.402  27.568  1.00  0.00     0.039 C 
ENDBRANCH   5   9
TORSDOF 1
ENDMDL
MODEL 8
REMARK VINA RESULT:    -5.268      2.802      3.436
REMARK INTER + INTRA:          -5.672
REMARK INTER:                  -5.574
REMARK INTRA:                  -0.098
REMARK UNBOUND:                -0.096
REMARK SMILES C=C(C)[C@@H]1CC=C(C)C(=O)C1
REMARK SMILES IDX 8 1 7 2 6 3 5 4 4 5 11 6 9 7 10 8 2 9 1 10 3 11
REMARK H PARENT
REMARK Flexibility Score: inf
ROOT
ATOM      1  C   UNL     1     -14.373 -38.003  28.602  1.00  0.00     0.048 C 
ATOM      2  C   UNL     1     -13.491 -37.235  29.548  1.00  0.00    -0.012 C 
ATOM      3  C   UNL     1     -13.074 -37.801  30.693  1.00  0.00    -0.019 C 
ATOM      4  C   UNL     1     -12.128 -37.102  31.632  1.00  0.00     0.036 C 
ATOM      5  C   UNL     1     -12.310 -35.573  31.571  1.00  0.00     0.025 C 
ATOM      6  C   UNL     1     -12.168 -35.075  30.120  1.00  0.00     0.089 C 
ATOM      7  C   UNL     1     -13.066 -35.856  29.200  1.00  0.00     0.158 C 
ATOM      8  O   UNL     1     -13.416 -35.343  28.104  1.00  0.00    -0.295 OA
ENDROOT
BRANCH   5   9
ATOM      9  C   UNL     1     -11.342 -34.857  32.502  1.00  0.00    -0.077 C 
ATOM     10  C   UNL     1     -10.162 -35.418  32.808  1.00  0.00     0.008 C 
ATOM     11  C   UNL     1     -11.678 -33.514  33.102  1.00  0.00     0.039 C 
ENDBRANCH   5   9
TORSDOF 1
ENDMDL
MODEL 9
REMARK VINA RESULT:    -5.260      2.040      4.870
REMARK INTER + INTRA:          -5.663
REMARK INTER:                  -5.570
REMARK INTRA:                  -0.093
REMARK UNBOUND:                -0.096
REMARK SMILES C=C(C)[C@@H]1CC=C(C)C(=O)C1
REMARK SMILES IDX 8 1 7 2 6 3 5 4 4 5 11 6 9 7 10 8 2 9 1 10 3 11
REMARK H PARENT
REMARK Flexibility Score: inf
ROOT
ATOM      1  C   UNL     1     -15.016 -32.503  32.763  1.00  0.00     0.048 C 
ATOM      2  C   UNL     1     -14.369 -32.854  31.452  1.00  0.00    -0.012 C 
ATOM      3  C   UNL     1     -14.651 -32.141  30.348  1.00  0.00    -0.019 C 
ATOM      4  C   UNL     1     -13.968 -32.404  29.031  1.00  0.00     0.036 C 
ATOM      5  C   UNL     1     -13.579 -33.888  28.892  1.00  0.00     0.025 C 
ATOM      6  C   UNL     1     -12.723 -34.332  30.093  1.00  0.00     0.089 C 
ATOM      7  C   UNL     1     -13.399 -33.976  31.388  1.00  0.00     0.158 C 
ATOM      8  O   UNL     1     -13.098 -34.611  32.433  1.00  0.00    -0.295 OA
ENDROOT
BRANCH   5   9
ATOM      9  C   UNL     1     -12.869 -34.157  27.573  1.00  0.00    -0.077 C 
ATOM     10  C   UNL     1     -13.507 -33.951  26.410  1.00  0.00     0.008 C 
ATOM     11  C   UNL     1     -11.447 -34.659  27.534  1.00  0.00     0.039 C 
ENDBRANCH   5   9
TORSDOF 1
ENDMDL
