MODEL 1
REMARK VINA RESULT:     2.809      0.000      0.000
REMARK INTER + INTRA:           5.807
REMARK INTER:                   7.408
REMARK INTRA:                  -1.601
REMARK UNBOUND:                -1.601
REMARK SMILES CCCCCCCCCCCCCCCCCCCCCCCCCCCCCC(=O)[O-]
REMARK SMILES IDX 16 1 17 2 18 3 19 4 20 5 21 6 22 7 23 8 24 9 25 10 26 11
REMARK SMILES IDX 27 12 28 13 29 14 30 15 31 16 32 17 15 18 14 19 13 20 12 21
REMARK SMILES IDX 11 22 10 23 9 24 8 25 7 26 6 27 5 28 4 29 3 30 2 31 1 32
REMARK H PARENT
REMARK Flexibility Score: inf
ROOT
ATOM      1  C   UNL     1      34.419  29.058  18.565  1.00  0.00     0.000 C 
ENDROOT
BRANCH   1   2
ATOM      2  C   UNL     1      35.568  28.652  17.627  1.00  0.00     0.000 C 
BRANCH   2   3
ATOM      3  C   UNL     1      35.566  27.150  17.293  1.00  0.00     0.000 C 
BRANCH   3   4
ATOM      4  C   UNL     1      35.812  26.875  15.801  1.00  0.00     0.000 C 
BRANCH   4   5
ATOM      5  C   UNL     1      36.869  27.798  15.159  1.00  0.00     0.000 C 
BRANCH   5   6
ATOM      6  C   UNL     1      36.370  28.441  13.853  1.00  0.00     0.000 C 
BRANCH   6   7
ATOM      7  C   UNL     1      36.732  27.617  12.608  1.00  0.00     0.000 C 
BRANCH   7   8
ATOM      8  C   UNL     1      35.492  27.108  11.849  1.00  0.00     0.000 C 
BRANCH   8   9
ATOM      9  C   UNL     1      34.197  27.758  12.363  1.00  0.00     0.000 C 
BRANCH   9  10
ATOM     10  C   UNL     1      33.515  28.630  11.296  1.00  0.00     0.000 C 
BRANCH  10  11
ATOM     11  C   UNL     1      33.289  30.053  11.825  1.00  0.00     0.000 C 
BRANCH  11  12
ATOM     12  C   UNL     1      33.332  30.137  13.362  1.00  0.00     0.000 C 
BRANCH  12  13
ATOM     13  C   UNL     1      31.964  30.350  14.040  1.00  0.00     0.006 C 
BRANCH  13  14
ATOM     14  C   UNL     1      30.839  30.640  13.038  1.00  0.00     0.053 C 
BRANCH  14  15
ATOM     15  C   UNL     1      30.702  32.115  12.816  1.00  0.00     0.041 C 
ATOM     16  O   UNL     1      31.416  32.923  13.468  1.00  0.00    -0.550 OA
ATOM     17  O   UNL     1      29.829  32.596  11.848  1.00  0.00    -0.550 OA
ENDBRANCH  14  15
ENDBRANCH  13  14
ENDBRANCH  12  13
ENDBRANCH  11  12
ENDBRANCH  10  11
ENDBRANCH   9  10
ENDBRANCH   8   9
ENDBRANCH   7   8
ENDBRANCH   6   7
ENDBRANCH   5   6
ENDBRANCH   4   5
ENDBRANCH   3   4
ENDBRANCH   2   3
ENDBRANCH   1   2
BRANCH   1  18
ATOM     18  C   UNL     1      34.557  28.464  19.975  1.00  0.00     0.000 C 
BRANCH  18  19
ATOM     19  C   UNL     1      35.845  27.638  20.108  1.00  0.00     0.000 C 
BRANCH  19  20
ATOM     20  C   UNL     1      36.699  28.062  21.323  1.00  0.00     0.000 C 
BRANCH  20  21
ATOM     21  C   UNL     1      36.772  27.007  22.448  1.00  0.00     0.000 C 
BRANCH  21  22
ATOM     22  C   UNL     1      35.727  27.166  23.566  1.00  0.00     0.000 C 
BRANCH  22  23
ATOM     23  C   UNL     1      35.196  28.598  23.776  1.00  0.00     0.000 C 
BRANCH  23  24
ATOM     24  C   UNL     1      35.680  29.261  25.084  1.00  0.00    -0.000 C 
BRANCH  24  25
ATOM     25  C   UNL     1      37.090  29.869  24.953  1.00  0.00    -0.000 C 
BRANCH  25  26
ATOM     26  C   UNL     1      37.102  31.182  24.142  1.00  0.00    -0.000 C 
BRANCH  26  27
ATOM     27  C   UNL     1      35.841  32.044  24.334  1.00  0.00    -0.000 C 
BRANCH  27  28
ATOM     28  C   UNL     1      36.108  33.332  25.125  1.00  0.00    -0.000 C 
BRANCH  28  29
ATOM     29  C   UNL     1      36.085  34.560  24.204  1.00  0.00    -0.000 C 
BRANCH  29  30
ATOM     30  C   UNL     1      36.119  35.862  25.022  1.00  0.00    -0.000 C 
BRANCH  30  31
ATOM     31  C   UNL     1      37.069  36.912  24.425  1.00  0.00    -0.003 C 
ATOM     32  C   UNL     1      36.453  38.313  24.391  1.00  0.00     0.004 C 
ENDBRANCH  30  31
ENDBRANCH  29  30
ENDBRANCH  28  29
ENDBRANCH  27  28
ENDBRANCH  26  27
ENDBRANCH  25  26
ENDBRANCH  24  25
ENDBRANCH  23  24
ENDBRANCH  22  23
ENDBRANCH  21  22
ENDBRANCH  20  21
ENDBRANCH  19  20
ENDBRANCH  18  19
ENDBRANCH   1  18
TORSDOF 28
ENDMDL
MODEL 2
REMARK VINA RESULT:     3.465      3.631     10.719
REMARK INTER + INTRA:           7.537
REMARK INTER:                   4.496
REMARK INTRA:                   3.040
REMARK UNBOUND:                -1.601
REMARK SMILES CCCCCCCCCCCCCCCCCCCCCCCCCCCCCC(=O)[O-]
REMARK SMILES IDX 16 1 17 2 18 3 19 4 20 5 21 6 22 7 23 8 24 9 25 10 26 11
REMARK SMILES IDX 27 12 28 13 29 14 30 15 31 16 32 17 15 18 14 19 13 20 12 21
REMARK SMILES IDX 11 22 10 23 9 24 8 25 7 26 6 27 5 28 4 29 3 30 2 31 1 32
REMARK H PARENT
REMARK Flexibility Score: inf
ROOT
ATOM      1  C   UNL     1      35.146  29.456  17.592  1.00  0.00     0.000 C 
ENDROOT
BRANCH   1   2
ATOM      2  C   UNL     1      34.006  28.512  17.175  1.00  0.00     0.000 C 
BRANCH   2   3
ATOM      3  C   UNL     1      34.100  27.128  17.842  1.00  0.00     0.000 C 
BRANCH   3   4
ATOM      4  C   UNL     1      34.808  27.176  19.206  1.00  0.00     0.000 C 
BRANCH   4   5
ATOM      5  C   UNL     1      36.312  27.515  19.121  1.00  0.00     0.000 C 
BRANCH   5   6
ATOM      6  C   UNL     1      37.113  26.920  20.292  1.00  0.00     0.000 C 
BRANCH   6   7
ATOM      7  C   UNL     1      36.332  26.932  21.615  1.00  0.00     0.000 C 
BRANCH   7   8
ATOM      8  C   UNL     1      37.085  27.659  22.744  1.00  0.00     0.000 C 
BRANCH   8   9
ATOM      9  C   UNL     1      36.317  27.603  24.075  1.00  0.00     0.000 C 
BRANCH   9  10
ATOM     10  C   UNL     1      36.726  28.732  25.036  1.00  0.00     0.000 C 
BRANCH  10  11
ATOM     11  C   UNL     1      36.002  30.036  24.676  1.00  0.00     0.000 C 
BRANCH  11  12
ATOM     12  C   UNL     1      35.764  30.194  23.162  1.00  0.00     0.000 C 
BRANCH  12  13
ATOM     13  C   UNL     1      36.807  31.059  22.427  1.00  0.00     0.006 C 
BRANCH  13  14
ATOM     14  C   UNL     1      36.384  32.529  22.304  1.00  0.00     0.053 C 
BRANCH  14  15
ATOM     15  C   UNL     1      36.289  33.163  23.658  1.00  0.00     0.041 C 
ATOM     16  O   UNL     1      35.526  32.674  24.534  1.00  0.00    -0.550 OA
ATOM     17  O   UNL     1      37.084  34.258  23.972  1.00  0.00    -0.550 OA
ENDBRANCH  14  15
ENDBRANCH  13  14
ENDBRANCH  12  13
ENDBRANCH  11  12
ENDBRANCH  10  11
ENDBRANCH   9  10
ENDBRANCH   8   9
ENDBRANCH   7   8
ENDBRANCH   6   7
ENDBRANCH   5   6
ENDBRANCH   4   5
ENDBRANCH   3   4
ENDBRANCH   2   3
ENDBRANCH   1   2
BRANCH   1  18
ATOM     18  C   UNL     1      36.133  29.746  16.450  1.00  0.00     0.000 C 
BRANCH  18  19
ATOM     19  C   UNL     1      37.109  28.576  16.248  1.00  0.00     0.000 C 
BRANCH  19  20
ATOM     20  C   UNL     1      37.022  27.971  14.829  1.00  0.00     0.000 C 
BRANCH  20  21
ATOM     21  C   UNL     1      35.904  26.920  14.654  1.00  0.00     0.000 C 
BRANCH  21  22
ATOM     22  C   UNL     1      35.002  27.119  13.424  1.00  0.00     0.000 C 
BRANCH  22  23
ATOM     23  C   UNL     1      35.744  27.329  12.088  1.00  0.00     0.000 C 
BRANCH  23  24
ATOM     24  C   UNL     1      34.808  27.514  10.873  1.00  0.00    -0.000 C 
BRANCH  24  25
ATOM     25  C   UNL     1      33.438  28.102  11.265  1.00  0.00    -0.000 C 
BRANCH  25  26
ATOM     26  C   UNL     1      32.968  27.642  12.661  1.00  0.00    -0.000 C 
BRANCH  26  27
ATOM     27  C   UNL     1      32.505  28.793  13.573  1.00  0.00    -0.000 C 
BRANCH  27  28
ATOM     28  C   UNL     1      33.325  30.076  13.385  1.00  0.00    -0.000 C 
BRANCH  28  29
ATOM     29  C   UNL     1      32.585  31.079  12.488  1.00  0.00    -0.000 C 
BRANCH  29  30
ATOM     30  C   UNL     1      31.263  31.524  13.135  1.00  0.00    -0.000 C 
BRANCH  30  31
ATOM     31  C   UNL     1      30.035  30.867  12.485  1.00  0.00    -0.003 C 
ATOM     32  C   UNL     1      29.132  31.878  11.774  1.00  0.00     0.004 C 
ENDBRANCH  30  31
ENDBRANCH  29  30
ENDBRANCH  28  29
ENDBRANCH  27  28
ENDBRANCH  26  27
ENDBRANCH  25  26
ENDBRANCH  24  25
ENDBRANCH  23  24
ENDBRANCH  22  23
ENDBRANCH  21  22
ENDBRANCH  20  21
ENDBRANCH  19  20
ENDBRANCH  18  19
ENDBRANCH   1  18
TORSDOF 28
ENDMDL
MODEL 3
REMARK VINA RESULT:     3.622      2.872     10.816
REMARK INTER + INTRA:           7.951
REMARK INTER:                   6.270
REMARK INTRA:                   1.681
REMARK UNBOUND:                -1.601
REMARK SMILES CCCCCCCCCCCCCCCCCCCCCCCCCCCCCC(=O)[O-]
REMARK SMILES IDX 16 1 17 2 18 3 19 4 20 5 21 6 22 7 23 8 24 9 25 10 26 11
REMARK SMILES IDX 27 12 28 13 29 14 30 15 31 16 32 17 15 18 14 19 13 20 12 21
REMARK SMILES IDX 11 22 10 23 9 24 8 25 7 26 6 27 5 28 4 29 3 30 2 31 1 32
REMARK H PARENT
REMARK Flexibility Score: inf
ROOT
ATOM      1  C   UNL     1      35.152  28.979  17.664  1.00  0.00     0.000 C 
ENDROOT
BRANCH   1   2
ATOM      2  C   UNL     1      35.106  27.662  18.457  1.00  0.00     0.000 C 
BRANCH   2   3
ATOM      3  C   UNL     1      35.076  27.882  19.980  1.00  0.00     0.000 C 
BRANCH   3   4
ATOM      4  C   UNL     1      35.975  26.892  20.739  1.00  0.00     0.000 C 
BRANCH   4   5
ATOM      5  C   UNL     1      37.030  27.567  21.641  1.00  0.00     0.000 C 
BRANCH   5   6
ATOM      6  C   UNL     1      37.000  27.028  23.082  1.00  0.00     0.000 C 
BRANCH   6   7
ATOM      7  C   UNL     1      35.599  27.090  23.711  1.00  0.00     0.000 C 
BRANCH   7   8
ATOM      8  C   UNL     1      35.369  28.374  24.528  1.00  0.00     0.000 C 
BRANCH   8   9
ATOM      9  C   UNL     1      36.678  28.920  25.121  1.00  0.00     0.000 C 
BRANCH   9  10
ATOM     10  C   UNL     1      37.125  30.229  24.450  1.00  0.00     0.000 C 
BRANCH  10  11
ATOM     11  C   UNL     1      36.346  31.422  25.022  1.00  0.00     0.000 C 
BRANCH  11  12
ATOM     12  C   UNL     1      36.585  32.727  24.240  1.00  0.00     0.000 C 
BRANCH  12  13
ATOM     13  C   UNL     1      36.978  32.535  22.762  1.00  0.00     0.006 C 
BRANCH  13  14
ATOM     14  C   UNL     1      36.989  31.062  22.331  1.00  0.00     0.053 C 
BRANCH  14  15
ATOM     15  C   UNL     1      36.378  30.909  20.972  1.00  0.00     0.041 C 
ATOM     16  O   UNL     1      37.067  30.467  20.014  1.00  0.00    -0.550 OA
ATOM     17  O   UNL     1      35.033  31.198  20.776  1.00  0.00    -0.550 OA
ENDBRANCH  14  15
ENDBRANCH  13  14
ENDBRANCH  12  13
ENDBRANCH  11  12
ENDBRANCH  10  11
ENDBRANCH   9  10
ENDBRANCH   8   9
ENDBRANCH   7   8
ENDBRANCH   6   7
ENDBRANCH   5   6
ENDBRANCH   4   5
ENDBRANCH   3   4
ENDBRANCH   2   3
ENDBRANCH   1   2
BRANCH   1  18
ATOM     18  C   UNL     1      34.621  28.834  16.229  1.00  0.00     0.000 C 
BRANCH  18  19
ATOM     19  C   UNL     1      35.391  27.751  15.458  1.00  0.00     0.000 C 
BRANCH  19  20
ATOM     20  C   UNL     1      36.109  28.309  14.209  1.00  0.00     0.000 C 
BRANCH  20  21
ATOM     21  C   UNL     1      36.543  27.232  13.192  1.00  0.00     0.000 C 
BRANCH  21  22
ATOM     22  C   UNL     1      35.716  27.183  11.895  1.00  0.00     0.000 C 
BRANCH  22  23
ATOM     23  C   UNL     1      34.213  26.889  12.080  1.00  0.00     0.000 C 
BRANCH  23  24
ATOM     24  C   UNL     1      33.726  27.006  13.540  1.00  0.00    -0.000 C 
BRANCH  24  25
ATOM     25  C   UNL     1      32.571  28.014  13.701  1.00  0.00    -0.000 C 
BRANCH  25  26
ATOM     26  C   UNL     1      32.416  28.943  12.479  1.00  0.00    -0.000 C 
BRANCH  26  27
ATOM     27  C   UNL     1      33.241  30.239  12.572  1.00  0.00    -0.000 C 
BRANCH  27  28
ATOM     28  C   UNL     1      32.495  31.376  13.286  1.00  0.00    -0.000 C 
BRANCH  28  29
ATOM     29  C   UNL     1      30.982  31.282  13.044  1.00  0.00    -0.000 C 
BRANCH  29  30
ATOM     30  C   UNL     1      30.435  32.595  12.462  1.00  0.00    -0.000 C 
BRANCH  30  31
ATOM     31  C   UNL     1      29.001  32.456  11.928  1.00  0.00    -0.003 C 
ATOM     32  C   UNL     1      28.612  31.002  11.651  1.00  0.00     0.004 C 
ENDBRANCH  30  31
ENDBRANCH  29  30
ENDBRANCH  28  29
ENDBRANCH  27  28
ENDBRANCH  26  27
ENDBRANCH  25  26
ENDBRANCH  24  25
ENDBRANCH  23  24
ENDBRANCH  22  23
ENDBRANCH  21  22
ENDBRANCH  20  21
ENDBRANCH  19  20
ENDBRANCH  18  19
ENDBRANCH   1  18
TORSDOF 28
ENDMDL
MODEL 4
REMARK VINA RESULT:     3.630      3.754     11.088
REMARK INTER + INTRA:           7.970
REMARK INTER:                   8.170
REMARK INTRA:                  -0.200
REMARK UNBOUND:                -1.601
REMARK SMILES CCCCCCCCCCCCCCCCCCCCCCCCCCCCCC(=O)[O-]
REMARK SMILES IDX 16 1 17 2 18 3 19 4 20 5 21 6 22 7 23 8 24 9 25 10 26 11
REMARK SMILES IDX 27 12 28 13 29 14 30 15 31 16 32 17 15 18 14 19 13 20 12 21
REMARK SMILES IDX 11 22 10 23 9 24 8 25 7 26 6 27 5 28 4 29 3 30 2 31 1 32
REMARK H PARENT
REMARK Flexibility Score: inf
ROOT
ATOM      1  C   UNL     1      33.876  29.078  16.232  1.00  0.00     0.000 C 
ENDROOT
BRANCH   1   2
ATOM      2  C   UNL     1      34.854  29.314  17.395  1.00  0.00     0.000 C 
BRANCH   2   3
ATOM      3  C   UNL     1      34.423  28.608  18.693  1.00  0.00     0.000 C 
BRANCH   3   4
ATOM      4  C   UNL     1      35.169  27.283  18.922  1.00  0.00     0.000 C 
BRANCH   4   5
ATOM      5  C   UNL     1      35.416  26.952  20.409  1.00  0.00     0.000 C 
BRANCH   5   6
ATOM      6  C   UNL     1      36.885  27.160  20.819  1.00  0.00     0.000 C 
BRANCH   6   7
ATOM      7  C   UNL     1      37.112  26.979  22.327  1.00  0.00     0.000 C 
BRANCH   7   8
ATOM      8  C   UNL     1      36.884  28.277  23.124  1.00  0.00     0.000 C 
BRANCH   8   9
ATOM      9  C   UNL     1      36.014  29.280  22.351  1.00  0.00     0.000 C 
BRANCH   9  10
ATOM     10  C   UNL     1      36.729  30.622  22.123  1.00  0.00     0.000 C 
BRANCH  10  11
ATOM     11  C   UNL     1      37.114  31.264  23.462  1.00  0.00     0.000 C 
BRANCH  11  12
ATOM     12  C   UNL     1      35.985  32.122  24.065  1.00  0.00     0.000 C 
BRANCH  12  13
ATOM     13  C   UNL     1      35.071  31.384  25.063  1.00  0.00     0.006 C 
BRANCH  13  14
ATOM     14  C   UNL     1      35.347  29.875  25.125  1.00  0.00     0.053 C 
BRANCH  14  15
ATOM     15  C   UNL     1      34.069  29.103  25.006  1.00  0.00     0.041 C 
ATOM     16  O   UNL     1      34.092  27.844  24.958  1.00  0.00    -0.550 OA
ATOM     17  O   UNL     1      32.850  29.769  25.007  1.00  0.00    -0.550 OA
ENDBRANCH  14  15
ENDBRANCH  13  14
ENDBRANCH  12  13
ENDBRANCH  11  12
ENDBRANCH  10  11
ENDBRANCH   9  10
ENDBRANCH   8   9
ENDBRANCH   7   8
ENDBRANCH   6   7
ENDBRANCH   5   6
ENDBRANCH   4   5
ENDBRANCH   3   4
ENDBRANCH   2   3
ENDBRANCH   1   2
BRANCH   1  18
ATOM     18  C   UNL     1      34.259  27.869  15.362  1.00  0.00     0.000 C 
BRANCH  18  19
ATOM     19  C   UNL     1      35.784  27.745  15.223  1.00  0.00     0.000 C 
BRANCH  19  20
ATOM     20  C   UNL     1      36.200  26.878  14.014  1.00  0.00     0.000 C 
BRANCH  20  21
ATOM     21  C   UNL     1      36.338  27.660  12.690  1.00  0.00     0.000 C 
BRANCH  21  22
ATOM     22  C   UNL     1      35.736  26.970  11.453  1.00  0.00     0.000 C 
BRANCH  22  23
ATOM     23  C   UNL     1      34.807  27.850  10.592  1.00  0.00     0.000 C 
BRANCH  23  24
ATOM     24  C   UNL     1      33.892  28.785  11.411  1.00  0.00    -0.000 C 
BRANCH  24  25
ATOM     25  C   UNL     1      32.833  28.015  12.224  1.00  0.00    -0.000 C 
BRANCH  25  26
ATOM     26  C   UNL     1      31.976  28.939  13.114  1.00  0.00    -0.000 C 
BRANCH  26  27
ATOM     27  C   UNL     1      32.722  30.190  13.613  1.00  0.00    -0.000 C 
BRANCH  27  28
ATOM     28  C   UNL     1      32.065  31.502  13.159  1.00  0.00    -0.000 C 
BRANCH  28  29
ATOM     29  C   UNL     1      30.621  31.264  12.694  1.00  0.00    -0.000 C 
BRANCH  29  30
ATOM     30  C   UNL     1      29.971  32.576  12.225  1.00  0.00    -0.000 C 
BRANCH  30  31
ATOM     31  C   UNL     1      28.755  32.344  11.316  1.00  0.00    -0.003 C 
ATOM     32  C   UNL     1      27.951  31.103  11.710  1.00  0.00     0.004 C 
ENDBRANCH  30  31
ENDBRANCH  29  30
ENDBRANCH  28  29
ENDBRANCH  27  28
ENDBRANCH  26  27
ENDBRANCH  25  26
ENDBRANCH  24  25
ENDBRANCH  23  24
ENDBRANCH  22  23
ENDBRANCH  21  22
ENDBRANCH  20  21
ENDBRANCH  19  20
ENDBRANCH  18  19
ENDBRANCH   1  18
TORSDOF 28
ENDMDL
MODEL 5
REMARK VINA RESULT:     3.814      3.521     10.976
REMARK INTER + INTRA:           8.456
REMARK INTER:                   7.742
REMARK INTRA:                   0.714
REMARK UNBOUND:                -1.601
REMARK SMILES CCCCCCCCCCCCCCCCCCCCCCCCCCCCCC(=O)[O-]
REMARK SMILES IDX 16 1 17 2 18 3 19 4 20 5 21 6 22 7 23 8 24 9 25 10 26 11
REMARK SMILES IDX 27 12 28 13 29 14 30 15 31 16 32 17 15 18 14 19 13 20 12 21
REMARK SMILES IDX 11 22 10 23 9 24 8 25 7 26 6 27 5 28 4 29 3 30 2 31 1 32
REMARK H PARENT
REMARK Flexibility Score: inf
ROOT
ATOM      1  C   UNL     1      35.617  28.763  16.714  1.00  0.00     0.000 C 
ENDROOT
BRANCH   1   2
ATOM      2  C   UNL     1      35.746  29.160  18.194  1.00  0.00     0.000 C 
BRANCH   2   3
ATOM      3  C   UNL     1      34.697  28.477  19.089  1.00  0.00     0.000 C 
BRANCH   3   4
ATOM      4  C   UNL     1      33.456  29.354  19.322  1.00  0.00     0.000 C 
BRANCH   4   5
ATOM      5  C   UNL     1      33.322  29.882  20.766  1.00  0.00     0.000 C 
BRANCH   5   6
ATOM      6  C   UNL     1      34.676  29.940  21.496  1.00  0.00     0.000 C 
BRANCH   6   7
ATOM      7  C   UNL     1      35.075  28.593  22.118  1.00  0.00     0.000 C 
BRANCH   7   8
ATOM      8  C   UNL     1      36.552  28.237  21.872  1.00  0.00     0.000 C 
BRANCH   8   9
ATOM      9  C   UNL     1      36.939  26.903  22.531  1.00  0.00     0.000 C 
BRANCH   9  10
ATOM     10  C   UNL     1      36.812  26.947  24.062  1.00  0.00     0.000 C 
BRANCH  10  11
ATOM     11  C   UNL     1      37.092  28.362  24.587  1.00  0.00     0.000 C 
BRANCH  11  12
ATOM     12  C   UNL     1      35.830  29.066  25.120  1.00  0.00     0.000 C 
BRANCH  12  13
ATOM     13  C   UNL     1      35.701  30.552  24.729  1.00  0.00     0.006 C 
BRANCH  13  14
ATOM     14  C   UNL     1      36.934  31.381  25.114  1.00  0.00     0.053 C 
BRANCH  14  15
ATOM     15  C   UNL     1      37.034  32.603  24.254  1.00  0.00     0.041 C 
ATOM     16  O   UNL     1      37.117  33.744  24.783  1.00  0.00    -0.550 OA
ATOM     17  O   UNL     1      37.094  32.480  22.872  1.00  0.00    -0.550 OA
ENDBRANCH  14  15
ENDBRANCH  13  14
ENDBRANCH  12  13
ENDBRANCH  11  12
ENDBRANCH  10  11
ENDBRANCH   9  10
ENDBRANCH   8   9
ENDBRANCH   7   8
ENDBRANCH   6   7
ENDBRANCH   5   6
ENDBRANCH   4   5
ENDBRANCH   3   4
ENDBRANCH   2   3
ENDBRANCH   1   2
BRANCH   1  18
ATOM     18  C   UNL     1      36.954  28.328  16.091  1.00  0.00     0.000 C 
BRANCH  18  19
ATOM     19  C   UNL     1      36.749  27.205  15.063  1.00  0.00     0.000 C 
BRANCH  19  20
ATOM     20  C   UNL     1      36.941  27.690  13.609  1.00  0.00     0.000 C 
BRANCH  20  21
ATOM     21  C   UNL     1      36.067  26.952  12.572  1.00  0.00     0.000 C 
BRANCH  21  22
ATOM     22  C   UNL     1      34.987  27.811  11.892  1.00  0.00     0.000 C 
BRANCH  22  23
ATOM     23  C   UNL     1      33.587  27.172  11.811  1.00  0.00     0.000 C 
BRANCH  23  24
ATOM     24  C   UNL     1      32.514  27.904  12.646  1.00  0.00    -0.000 C 
BRANCH  24  25
ATOM     25  C   UNL     1      33.042  28.359  14.021  1.00  0.00    -0.000 C 
BRANCH  25  26
ATOM     26  C   UNL     1      33.699  29.755  13.975  1.00  0.00    -0.000 C 
BRANCH  26  27
ATOM     27  C   UNL     1      33.968  30.270  12.550  1.00  0.00    -0.000 C 
BRANCH  27  28
ATOM     28  C   UNL     1      32.697  30.742  11.831  1.00  0.00    -0.000 C 
BRANCH  28  29
ATOM     29  C   UNL     1      31.855  31.652  12.737  1.00  0.00    -0.000 C 
BRANCH  29  30
ATOM     30  C   UNL     1      30.625  30.905  13.278  1.00  0.00    -0.000 C 
BRANCH  30  31
ATOM     31  C   UNL     1      29.378  31.106  12.404  1.00  0.00    -0.003 C 
ATOM     32  C   UNL     1      29.110  32.579  12.086  1.00  0.00     0.004 C 
ENDBRANCH  30  31
ENDBRANCH  29  30
ENDBRANCH  28  29
ENDBRANCH  27  28
ENDBRANCH  26  27
ENDBRANCH  25  26
ENDBRANCH  24  25
ENDBRANCH  23  24
ENDBRANCH  22  23
ENDBRANCH  21  22
ENDBRANCH  20  21
ENDBRANCH  19  20
ENDBRANCH  18  19
ENDBRANCH   1  18
TORSDOF 28
ENDMDL
MODEL 6
REMARK VINA RESULT:     4.707      3.797     11.077
REMARK INTER + INTRA:          10.810
REMARK INTER:                   5.816
REMARK INTRA:                   4.994
REMARK UNBOUND:                -1.601
REMARK SMILES CCCCCCCCCCCCCCCCCCCCCCCCCCCCCC(=O)[O-]
REMARK SMILES IDX 16 1 17 2 18 3 19 4 20 5 21 6 22 7 23 8 24 9 25 10 26 11
REMARK SMILES IDX 27 12 28 13 29 14 30 15 31 16 32 17 15 18 14 19 13 20 12 21
REMARK SMILES IDX 11 22 10 23 9 24 8 25 7 26 6 27 5 28 4 29 3 30 2 31 1 32
REMARK H PARENT
REMARK Flexibility Score: inf
ROOT
ATOM      1  C   UNL     1      35.142  29.029  16.772  1.00  0.00     0.000 C 
ENDROOT
BRANCH   1   2
ATOM      2  C   UNL     1      35.018  29.414  18.256  1.00  0.00     0.000 C 
BRANCH   2   3
ATOM      3  C   UNL     1      36.357  29.335  19.009  1.00  0.00     0.000 C 
BRANCH   3   4
ATOM      4  C   UNL     1      36.823  27.888  19.238  1.00  0.00     0.000 C 
BRANCH   4   5
ATOM      5  C   UNL     1      36.963  27.502  20.726  1.00  0.00     0.000 C 
BRANCH   5   6
ATOM      6  C   UNL     1      36.137  28.416  21.648  1.00  0.00     0.000 C 
BRANCH   6   7
ATOM      7  C   UNL     1      36.913  29.661  22.103  1.00  0.00     0.000 C 
BRANCH   7   8
ATOM      8  C   UNL     1      36.017  30.906  22.239  1.00  0.00     0.000 C 
BRANCH   8   9
ATOM      9  C   UNL     1      36.757  32.078  22.903  1.00  0.00     0.000 C 
BRANCH   9  10
ATOM     10  C   UNL     1      37.125  31.785  24.367  1.00  0.00     0.000 C 
BRANCH  10  11
ATOM     11  C   UNL     1      36.230  30.677  24.937  1.00  0.00     0.000 C 
BRANCH  11  12
ATOM     12  C   UNL     1      36.917  29.298  24.955  1.00  0.00     0.000 C 
BRANCH  12  13
ATOM     13  C   UNL     1      36.080  28.148  24.362  1.00  0.00     0.006 C 
BRANCH  13  14
ATOM     14  C   UNL     1      34.769  27.906  25.124  1.00  0.00     0.053 C 
BRANCH  14  15
ATOM     15  C   UNL     1      33.810  29.032  24.888  1.00  0.00     0.041 C 
ATOM     16  O   UNL     1      32.595  28.790  24.655  1.00  0.00    -0.550 OA
ATOM     17  O   UNL     1      34.243  30.348  24.981  1.00  0.00    -0.550 OA
ENDBRANCH  14  15
ENDBRANCH  13  14
ENDBRANCH  12  13
ENDBRANCH  11  12
ENDBRANCH  10  11
ENDBRANCH   9  10
ENDBRANCH   8   9
ENDBRANCH   7   8
ENDBRANCH   6   7
ENDBRANCH   5   6
ENDBRANCH   4   5
ENDBRANCH   3   4
ENDBRANCH   2   3
ENDBRANCH   1   2
BRANCH   1  18
ATOM     18  C   UNL     1      36.533  28.485  16.409  1.00  0.00     0.000 C 
BRANCH  18  19
ATOM     19  C   UNL     1      36.428  27.259  15.488  1.00  0.00     0.000 C 
BRANCH  19  20
ATOM     20  C   UNL     1      36.817  27.579  14.028  1.00  0.00     0.000 C 
BRANCH  20  21
ATOM     21  C   UNL     1      35.793  27.098  12.978  1.00  0.00     0.000 C 
BRANCH  21  22
ATOM     22  C   UNL     1      35.092  28.214  12.183  1.00  0.00     0.000 C 
BRANCH  22  23
ATOM     23  C   UNL     1      33.862  27.771  11.365  1.00  0.00     0.000 C 
BRANCH  23  24
ATOM     24  C   UNL     1      32.514  28.235  11.958  1.00  0.00    -0.000 C 
BRANCH  24  25
ATOM     25  C   UNL     1      32.476  28.132  13.495  1.00  0.00    -0.000 C 
BRANCH  25  26
ATOM     26  C   UNL     1      32.808  29.469  14.191  1.00  0.00    -0.000 C 
BRANCH  26  27
ATOM     27  C   UNL     1      33.155  30.609  13.217  1.00  0.00    -0.000 C 
BRANCH  27  28
ATOM     28  C   UNL     1      32.200  31.806  13.328  1.00  0.00    -0.000 C 
BRANCH  28  29
ATOM     29  C   UNL     1      31.005  31.650  12.376  1.00  0.00    -0.000 C 
BRANCH  29  30
ATOM     30  C   UNL     1      29.852  32.582  12.783  1.00  0.00    -0.000 C 
BRANCH  30  31
ATOM     31  C   UNL     1      28.564  32.313  11.990  1.00  0.00    -0.003 C 
ATOM     32  C   UNL     1      28.547  30.926  11.343  1.00  0.00     0.004 C 
ENDBRANCH  30  31
ENDBRANCH  29  30
ENDBRANCH  28  29
ENDBRANCH  27  28
ENDBRANCH  26  27
ENDBRANCH  25  26
ENDBRANCH  24  25
ENDBRANCH  23  24
ENDBRANCH  22  23
ENDBRANCH  21  22
ENDBRANCH  20  21
ENDBRANCH  19  20
ENDBRANCH  18  19
ENDBRANCH   1  18
TORSDOF 28
ENDMDL
MODEL 7
REMARK VINA RESULT:     4.865      3.554     11.205
REMARK INTER + INTRA:          11.228
REMARK INTER:                  10.714
REMARK INTRA:                   0.514
REMARK UNBOUND:                -1.601
REMARK SMILES CCCCCCCCCCCCCCCCCCCCCCCCCCCCCC(=O)[O-]
REMARK SMILES IDX 16 1 17 2 18 3 19 4 20 5 21 6 22 7 23 8 24 9 25 10 26 11
REMARK SMILES IDX 27 12 28 13 29 14 30 15 31 16 32 17 15 18 14 19 13 20 12 21
REMARK SMILES IDX 11 22 10 23 9 24 8 25 7 26 6 27 5 28 4 29 3 30 2 31 1 32
REMARK H PARENT
REMARK Flexibility Score: inf
ROOT
ATOM      1  C   UNL     1      34.682  29.046  17.052  1.00  0.00     0.000 C 
ENDROOT
BRANCH   1   2
ATOM      2  C   UNL     1      34.978  28.632  18.503  1.00  0.00     0.000 C 
BRANCH   2   3
ATOM      3  C   UNL     1      36.451  28.247  18.727  1.00  0.00     0.000 C 
BRANCH   3   4
ATOM      4  C   UNL     1      36.687  27.574  20.089  1.00  0.00     0.000 C 
BRANCH   4   5
ATOM      5  C   UNL     1      35.414  26.968  20.717  1.00  0.00     0.000 C 
BRANCH   5   6
ATOM      6  C   UNL     1      35.390  27.114  22.249  1.00  0.00     0.000 C 
BRANCH   6   7
ATOM      7  C   UNL     1      36.790  27.033  22.876  1.00  0.00     0.000 C 
BRANCH   7   8
ATOM      8  C   UNL     1      36.751  26.961  24.414  1.00  0.00     0.000 C 
BRANCH   8   9
ATOM      9  C   UNL     1      37.068  28.320  25.060  1.00  0.00     0.000 C 
BRANCH   9  10
ATOM     10  C   UNL     1      37.019  29.476  24.048  1.00  0.00     0.000 C 
BRANCH  10  11
ATOM     11  C   UNL     1      36.061  30.574  24.529  1.00  0.00     0.000 C 
BRANCH  11  12
ATOM     12  C   UNL     1      36.780  31.892  24.874  1.00  0.00     0.000 C 
BRANCH  12  13
ATOM     13  C   UNL     1      37.089  32.798  23.666  1.00  0.00     0.006 C 
BRANCH  13  14
ATOM     14  C   UNL     1      37.037  34.293  24.010  1.00  0.00     0.053 C 
BRANCH  14  15
ATOM     15  C   UNL     1      35.751  34.627  24.701  1.00  0.00     0.041 C 
ATOM     16  O   UNL     1      34.910  33.721  24.947  1.00  0.00    -0.550 OA
ATOM     17  O   UNL     1      35.505  35.927  25.125  1.00  0.00    -0.550 OA
ENDBRANCH  14  15
ENDBRANCH  13  14
ENDBRANCH  12  13
ENDBRANCH  11  12
ENDBRANCH  10  11
ENDBRANCH   9  10
ENDBRANCH   8   9
ENDBRANCH   7   8
ENDBRANCH   6   7
ENDBRANCH   5   6
ENDBRANCH   4   5
ENDBRANCH   3   4
ENDBRANCH   2   3
ENDBRANCH   1   2
BRANCH   1  18
ATOM     18  C   UNL     1      35.942  29.095  16.173  1.00  0.00     0.000 C 
BRANCH  18  19
ATOM     19  C   UNL     1      36.387  27.684  15.758  1.00  0.00     0.000 C 
BRANCH  19  20
ATOM     20  C   UNL     1      35.727  27.218  14.441  1.00  0.00     0.000 C 
BRANCH  20  21
ATOM     21  C   UNL     1      36.726  26.875  13.316  1.00  0.00     0.000 C 
BRANCH  21  22
ATOM     22  C   UNL     1      36.572  27.700  12.026  1.00  0.00     0.000 C 
BRANCH  22  23
ATOM     23  C   UNL     1      35.228  28.439  11.871  1.00  0.00     0.000 C 
BRANCH  23  24
ATOM     24  C   UNL     1      34.178  27.666  11.044  1.00  0.00    -0.000 C 
BRANCH  24  25
ATOM     25  C   UNL     1      32.950  27.255  11.881  1.00  0.00    -0.000 C 
BRANCH  25  26
ATOM     26  C   UNL     1      32.871  28.001  13.229  1.00  0.00    -0.000 C 
BRANCH  26  27
ATOM     27  C   UNL     1      33.445  29.428  13.187  1.00  0.00    -0.000 C 
BRANCH  27  28
ATOM     28  C   UNL     1      32.624  30.431  14.010  1.00  0.00    -0.000 C 
BRANCH  28  29
ATOM     29  C   UNL     1      32.060  31.547  13.119  1.00  0.00    -0.000 C 
BRANCH  29  30
ATOM     30  C   UNL     1      30.845  31.051  12.319  1.00  0.00    -0.000 C 
BRANCH  30  31
ATOM     31  C   UNL     1      29.550  31.792  12.686  1.00  0.00    -0.003 C 
ATOM     32  C   UNL     1      28.430  31.566  11.667  1.00  0.00     0.004 C 
ENDBRANCH  30  31
ENDBRANCH  29  30
ENDBRANCH  28  29
ENDBRANCH  27  28
ENDBRANCH  26  27
ENDBRANCH  25  26
ENDBRANCH  24  25
ENDBRANCH  23  24
ENDBRANCH  22  23
ENDBRANCH  21  22
ENDBRANCH  20  21
ENDBRANCH  19  20
ENDBRANCH  18  19
ENDBRANCH   1  18
TORSDOF 28
ENDMDL
