MODEL 1
REMARK VINA RESULT:    -4.187      0.000      0.000
REMARK INTER + INTRA:          -9.080
REMARK INTER:                  -7.614
REMARK INTRA:                  -1.466
REMARK UNBOUND:                -1.466
REMARK SMILES CCCCCC=CCC=CCCCCCCCC(=O)[O-]
REMARK SMILES IDX 11 1 12 2 13 3 14 4 15 5 16 6 17 7 18 8 19 9 20 10 10 11
REMARK SMILES IDX 9 12 8 13 7 14 6 15 5 16 4 17 3 18 2 19 1 20
REMARK H PARENT
REMARK Flexibility Score: inf
ROOT
ATOM      1  C   UNL     1      17.082  -6.239  27.691  1.00  0.00     0.027 C 
ENDROOT
BRANCH   1   2
ATOM      2  C   UNL     1      18.384  -6.767  28.311  1.00  0.00     0.004 C 
BRANCH   2   3
ATOM      3  C   UNL     1      19.509  -5.723  28.271  1.00  0.00     0.000 C 
BRANCH   3   4
ATOM      4  C   UNL     1      19.132  -4.543  27.362  1.00  0.00     0.000 C 
BRANCH   4   5
ATOM      5  C   UNL     1      19.579  -3.188  27.932  1.00  0.00     0.000 C 
BRANCH   5   6
ATOM      6  C   UNL     1      20.401  -3.330  29.222  1.00  0.00     0.006 C 
BRANCH   6   7
ATOM      7  C   UNL     1      21.504  -2.269  29.288  1.00  0.00     0.053 C 
BRANCH   7   8
ATOM      8  C   UNL     1      20.948  -0.965  29.767  1.00  0.00     0.041 C 
ATOM      9  O   UNL     1      21.436   0.120  29.354  1.00  0.00    -0.550 OA
ATOM     10  O   UNL     1      19.925  -0.947  30.705  1.00  0.00    -0.550 OA
ENDBRANCH   7   8
ENDBRANCH   6   7
ENDBRANCH   5   6
ENDBRANCH   4   5
ENDBRANCH   3   4
ENDBRANCH   2   3
ENDBRANCH   1   2
BRANCH   1  11
ATOM     11  C   UNL     1      16.433  -7.245  26.777  1.00  0.00    -0.031 C 
ATOM     12  C   UNL     1      16.592  -7.192  25.445  1.00  0.00    -0.027 C 
BRANCH  12  13
ATOM     13  C   UNL     1      15.946  -8.201  24.538  1.00  0.00     0.054 C 
BRANCH  13  14
ATOM     14  C   UNL     1      16.583  -9.553  24.688  1.00  0.00    -0.027 C 
ATOM     15  C   UNL     1      17.185 -10.163  23.655  1.00  0.00    -0.031 C 
BRANCH  15  16
ATOM     16  C   UNL     1      17.836 -11.510  23.806  1.00  0.00     0.027 C 
BRANCH  16  17
ATOM     17  C   UNL     1      17.711 -12.031  25.243  1.00  0.00     0.004 C 
BRANCH  17  18
ATOM     18  C   UNL     1      19.094 -12.202  25.887  1.00  0.00     0.000 C 
BRANCH  18  19
ATOM     19  C   UNL     1      19.097 -11.849  27.382  1.00  0.00    -0.003 C 
ATOM     20  C   UNL     1      18.397 -10.523  27.678  1.00  0.00     0.004 C 
ENDBRANCH  18  19
ENDBRANCH  17  18
ENDBRANCH  16  17
ENDBRANCH  15  16
ENDBRANCH  13  14
ENDBRANCH  12  13
ENDBRANCH   1  11
TORSDOF 14
ENDMDL
MODEL 2
REMARK VINA RESULT:    -4.184      5.877      9.917
REMARK INTER + INTRA:          -9.074
REMARK INTER:                  -8.139
REMARK INTRA:                  -0.935
REMARK UNBOUND:                -1.466
REMARK SMILES CCCCCC=CCC=CCCCCCCCC(=O)[O-]
REMARK SMILES IDX 11 1 12 2 13 3 14 4 15 5 16 6 17 7 18 8 19 9 20 10 10 11
REMARK SMILES IDX 9 12 8 13 7 14 6 15 5 16 4 17 3 18 2 19 1 20
REMARK H PARENT
REMARK Flexibility Score: inf
ROOT
ATOM      1  C   UNL     1      23.323   2.362  27.355  1.00  0.00     0.027 C 
ENDROOT
BRANCH   1   2
ATOM      2  C   UNL     1      22.531   3.617  27.753  1.00  0.00     0.004 C 
BRANCH   2   3
ATOM      3  C   UNL     1      21.663   4.144  26.601  1.00  0.00     0.000 C 
BRANCH   3   4
ATOM      4  C   UNL     1      22.187   3.644  25.246  1.00  0.00     0.000 C 
BRANCH   4   5
ATOM      5  C   UNL     1      22.572   4.791  24.299  1.00  0.00     0.000 C 
BRANCH   5   6
ATOM      6  C   UNL     1      24.093   4.950  24.149  1.00  0.00     0.006 C 
BRANCH   6   7
ATOM      7  C   UNL     1      24.680   3.824  23.293  1.00  0.00     0.053 C 
BRANCH   7   8
ATOM      8  C   UNL     1      25.622   4.379  22.272  1.00  0.00     0.041 C 
ATOM      9  O   UNL     1      26.356   3.605  21.602  1.00  0.00    -0.550 OA
ATOM     10  O   UNL     1      25.726   5.752  22.094  1.00  0.00    -0.550 OA
ENDBRANCH   7   8
ENDBRANCH   6   7
ENDBRANCH   5   6
ENDBRANCH   4   5
ENDBRANCH   3   4
ENDBRANCH   2   3
ENDBRANCH   1   2
BRANCH   1  11
ATOM     11  C   UNL     1      22.943   1.159  28.178  1.00  0.00    -0.031 C 
ATOM     12  C   UNL     1      23.799   0.146  28.381  1.00  0.00    -0.027 C 
BRANCH  12  13
ATOM     13  C   UNL     1      23.416  -1.050  29.207  1.00  0.00     0.054 C 
BRANCH  13  14
ATOM     14  C   UNL     1      21.925  -1.232  29.240  1.00  0.00    -0.027 C 
ATOM     15  C   UNL     1      21.361  -2.432  29.034  1.00  0.00    -0.031 C 
BRANCH  15  16
ATOM     16  C   UNL     1      19.870  -2.620  29.080  1.00  0.00     0.027 C 
BRANCH  16  17
ATOM     17  C   UNL     1      19.363  -3.353  27.832  1.00  0.00     0.004 C 
BRANCH  17  18
ATOM     18  C   UNL     1      19.517  -4.873  27.987  1.00  0.00     0.000 C 
BRANCH  18  19
ATOM     19  C   UNL     1      18.201  -5.628  27.744  1.00  0.00    -0.003 C 
ATOM     20  C   UNL     1      16.990  -4.911  28.340  1.00  0.00     0.004 C 
ENDBRANCH  18  19
ENDBRANCH  17  18
ENDBRANCH  16  17
ENDBRANCH  15  16
ENDBRANCH  13  14
ENDBRANCH  12  13
ENDBRANCH   1  11
TORSDOF 14
ENDMDL
MODEL 3
REMARK VINA RESULT:    -4.115      2.176      2.544
REMARK INTER + INTRA:          -8.950
REMARK INTER:                  -7.246
REMARK INTRA:                  -1.704
REMARK UNBOUND:                -1.466
REMARK SMILES CCCCCC=CCC=CCCCCCCCC(=O)[O-]
REMARK SMILES IDX 11 1 12 2 13 3 14 4 15 5 16 6 17 7 18 8 19 9 20 10 10 11
REMARK SMILES IDX 9 12 8 13 7 14 6 15 5 16 4 17 3 18 2 19 1 20
REMARK H PARENT
REMARK Flexibility Score: inf
ROOT
ATOM      1  C   UNL     1      17.160  -6.701  27.893  1.00  0.00     0.027 C 
ENDROOT
BRANCH   1   2
ATOM      2  C   UNL     1      18.529  -7.118  28.450  1.00  0.00     0.004 C 
BRANCH   2   3
ATOM      3  C   UNL     1      19.524  -5.949  28.476  1.00  0.00     0.000 C 
BRANCH   3   4
ATOM      4  C   UNL     1      19.074  -4.824  27.532  1.00  0.00     0.000 C 
BRANCH   4   5
ATOM      5  C   UNL     1      19.500  -3.431  28.023  1.00  0.00     0.000 C 
BRANCH   5   6
ATOM      6  C   UNL     1      18.320  -2.605  28.557  1.00  0.00     0.006 C 
BRANCH   6   7
ATOM      7  C   UNL     1      17.805  -3.177  29.881  1.00  0.00     0.053 C 
BRANCH   7   8
ATOM      8  C   UNL     1      16.367  -3.571  29.757  1.00  0.00     0.041 C 
ATOM      9  O   UNL     1      15.755  -4.049  30.749  1.00  0.00    -0.550 OA
ATOM     10  O   UNL     1      15.717  -3.458  28.535  1.00  0.00    -0.550 OA
ENDBRANCH   7   8
ENDBRANCH   6   7
ENDBRANCH   5   6
ENDBRANCH   4   5
ENDBRANCH   3   4
ENDBRANCH   2   3
ENDBRANCH   1   2
BRANCH   1  11
ATOM     11  C   UNL     1      16.643  -7.667  26.861  1.00  0.00    -0.031 C 
ATOM     12  C   UNL     1      16.444  -7.296  25.586  1.00  0.00    -0.027 C 
BRANCH  12  13
ATOM     13  C   UNL     1      15.931  -8.266  24.558  1.00  0.00     0.054 C 
BRANCH  13  14
ATOM     14  C   UNL     1      16.647  -9.584  24.651  1.00  0.00    -0.027 C 
ATOM     15  C   UNL     1      17.134 -10.195  23.560  1.00  0.00    -0.031 C 
BRANCH  15  16
ATOM     16  C   UNL     1      17.862 -11.508  23.651  1.00  0.00     0.027 C 
BRANCH  16  17
ATOM     17  C   UNL     1      17.783 -12.091  25.067  1.00  0.00     0.004 C 
BRANCH  17  18
ATOM     18  C   UNL     1      19.180 -12.194  25.696  1.00  0.00     0.000 C 
BRANCH  18  19
ATOM     19  C   UNL     1      19.153 -12.026  27.224  1.00  0.00    -0.003 C 
ATOM     20  C   UNL     1      18.480 -10.726  27.664  1.00  0.00     0.004 C 
ENDBRANCH  18  19
ENDBRANCH  17  18
ENDBRANCH  16  17
ENDBRANCH  15  16
ENDBRANCH  13  14
ENDBRANCH  12  13
ENDBRANCH   1  11
TORSDOF 14
ENDMDL
MODEL 4
REMARK VINA RESULT:    -4.074      5.814      9.954
REMARK INTER + INTRA:          -8.875
REMARK INTER:                  -7.638
REMARK INTRA:                  -1.238
REMARK UNBOUND:                -1.466
REMARK SMILES CCCCCC=CCC=CCCCCCCCC(=O)[O-]
REMARK SMILES IDX 11 1 12 2 13 3 14 4 15 5 16 6 17 7 18 8 19 9 20 10 10 11
REMARK SMILES IDX 9 12 8 13 7 14 6 15 5 16 4 17 3 18 2 19 1 20
REMARK H PARENT
REMARK Flexibility Score: inf
ROOT
ATOM      1  C   UNL     1      16.669  -9.344  23.833  1.00  0.00     0.027 C 
ENDROOT
BRANCH   1   2
ATOM      2  C   UNL     1      15.591 -10.297  23.296  1.00  0.00     0.004 C 
BRANCH   2   3
ATOM      3  C   UNL     1      14.582  -9.578  22.389  1.00  0.00     0.000 C 
BRANCH   3   4
ATOM      4  C   UNL     1      13.145 -10.015  22.711  1.00  0.00     0.000 C 
BRANCH   4   5
ATOM      5  C   UNL     1      12.618 -11.083  21.739  1.00  0.00     0.000 C 
BRANCH   5   6
ATOM      6  C   UNL     1      12.313 -10.515  20.344  1.00  0.00     0.006 C 
BRANCH   6   7
ATOM      7  C   UNL     1      13.214 -11.155  19.284  1.00  0.00     0.053 C 
BRANCH   7   8
ATOM      8  C   UNL     1      14.191 -10.154  18.754  1.00  0.00     0.041 C 
ATOM      9  O   UNL     1      13.952  -8.921  18.854  1.00  0.00    -0.550 OA
ATOM     10  O   UNL     1      15.343 -10.581  18.107  1.00  0.00    -0.550 OA
ENDBRANCH   7   8
ENDBRANCH   6   7
ENDBRANCH   5   6
ENDBRANCH   4   5
ENDBRANCH   3   4
ENDBRANCH   2   3
ENDBRANCH   1   2
BRANCH   1  11
ATOM     11  C   UNL     1      16.270  -8.701  25.135  1.00  0.00    -0.031 C 
ATOM     12  C   UNL     1      16.310  -7.371  25.303  1.00  0.00    -0.027 C 
BRANCH  12  13
ATOM     13  C   UNL     1      15.906  -6.734  26.604  1.00  0.00     0.054 C 
BRANCH  13  14
ATOM     14  C   UNL     1      17.097  -6.166  27.323  1.00  0.00    -0.027 C 
ATOM     15  C   UNL     1      17.783  -6.888  28.223  1.00  0.00    -0.031 C 
BRANCH  15  16
ATOM     16  C   UNL     1      18.983  -6.327  28.934  1.00  0.00     0.027 C 
BRANCH  16  17
ATOM     17  C   UNL     1      19.858  -5.501  27.983  1.00  0.00     0.004 C 
BRANCH  17  18
ATOM     18  C   UNL     1      20.054  -4.075  28.518  1.00  0.00     0.000 C 
BRANCH  18  19
ATOM     19  C   UNL     1      19.048  -3.078  27.922  1.00  0.00    -0.003 C 
ATOM     20  C   UNL     1      17.955  -2.679  28.912  1.00  0.00     0.004 C 
ENDBRANCH  18  19
ENDBRANCH  17  18
ENDBRANCH  16  17
ENDBRANCH  15  16
ENDBRANCH  13  14
ENDBRANCH  12  13
ENDBRANCH   1  11
TORSDOF 14
ENDMDL
MODEL 5
REMARK VINA RESULT:    -4.073      3.049      4.853
REMARK INTER + INTRA:          -8.872
REMARK INTER:                  -7.523
REMARK INTRA:                  -1.349
REMARK UNBOUND:                -1.466
REMARK SMILES CCCCCC=CCC=CCCCCCCCC(=O)[O-]
REMARK SMILES IDX 11 1 12 2 13 3 14 4 15 5 16 6 17 7 18 8 19 9 20 10 10 11
REMARK SMILES IDX 9 12 8 13 7 14 6 15 5 16 4 17 3 18 2 19 1 20
REMARK H PARENT
REMARK Flexibility Score: inf
ROOT
ATOM      1  C   UNL     1      16.485  -6.839  26.398  1.00  0.00     0.027 C 
ENDROOT
BRANCH   1   2
ATOM      2  C   UNL     1      16.585  -7.821  27.574  1.00  0.00     0.004 C 
BRANCH   2   3
ATOM      3  C   UNL     1      17.965  -7.782  28.246  1.00  0.00     0.000 C 
BRANCH   3   4
ATOM      4  C   UNL     1      17.949  -6.868  29.480  1.00  0.00     0.000 C 
BRANCH   4   5
ATOM      5  C   UNL     1      19.190  -5.966  29.567  1.00  0.00     0.000 C 
BRANCH   5   6
ATOM      6  C   UNL     1      19.791  -5.651  28.189  1.00  0.00     0.006 C 
BRANCH   6   7
ATOM      7  C   UNL     1      19.144  -4.403  27.581  1.00  0.00     0.053 C 
BRANCH   7   8
ATOM      8  C   UNL     1      19.535  -3.182  28.352  1.00  0.00     0.041 C 
ATOM      9  O   UNL     1      20.748  -2.955  28.605  1.00  0.00    -0.550 OA
ATOM     10  O   UNL     1      18.558  -2.321  28.833  1.00  0.00    -0.550 OA
ENDBRANCH   7   8
ENDBRANCH   6   7
ENDBRANCH   5   6
ENDBRANCH   4   5
ENDBRANCH   3   4
ENDBRANCH   2   3
ENDBRANCH   1   2
BRANCH   1  11
ATOM     11  C   UNL     1      16.304  -7.541  25.078  1.00  0.00    -0.031 C 
ATOM     12  C   UNL     1      16.456  -8.869  24.961  1.00  0.00    -0.027 C 
BRANCH  12  13
ATOM     13  C   UNL     1      16.271  -9.566  23.642  1.00  0.00     0.054 C 
BRANCH  13  14
ATOM     14  C   UNL     1      14.906  -9.297  23.073  1.00  0.00    -0.027 C 
ATOM     15  C   UNL     1      14.067 -10.297  22.762  1.00  0.00    -0.031 C 
BRANCH  15  16
ATOM     16  C   UNL     1      12.695 -10.030  22.205  1.00  0.00     0.027 C 
BRANCH  16  17
ATOM     17  C   UNL     1      12.605 -10.439  20.730  1.00  0.00     0.004 C 
BRANCH  17  18
ATOM     18  C   UNL     1      12.642  -9.206  19.816  1.00  0.00     0.000 C 
BRANCH  18  19
ATOM     19  C   UNL     1      13.862  -9.201  18.881  1.00  0.00    -0.003 C 
ATOM     20  C   UNL     1      14.684 -10.485  18.976  1.00  0.00     0.004 C 
ENDBRANCH  18  19
ENDBRANCH  17  18
ENDBRANCH  16  17
ENDBRANCH  15  16
ENDBRANCH  13  14
ENDBRANCH  12  13
ENDBRANCH   1  11
TORSDOF 14
ENDMDL
MODEL 6
REMARK VINA RESULT:    -4.047      2.774      7.269
REMARK INTER + INTRA:          -8.826
REMARK INTER:                  -6.781
REMARK INTRA:                  -2.045
REMARK UNBOUND:                -1.466
REMARK SMILES CCCCCC=CCC=CCCCCCCCC(=O)[O-]
REMARK SMILES IDX 11 1 12 2 13 3 14 4 15 5 16 6 17 7 18 8 19 9 20 10 10 11
REMARK SMILES IDX 9 12 8 13 7 14 6 15 5 16 4 17 3 18 2 19 1 20
REMARK H PARENT
REMARK Flexibility Score: inf
ROOT
ATOM      1  C   UNL     1      18.610 -11.683  27.055  1.00  0.00     0.027 C 
ENDROOT
BRANCH   1   2
ATOM      2  C   UNL     1      17.988 -11.986  25.683  1.00  0.00     0.004 C 
BRANCH   2   3
ATOM      3  C   UNL     1      16.808 -11.056  25.364  1.00  0.00     0.000 C 
BRANCH   3   4
ATOM      4  C   UNL     1      17.027 -10.331  24.028  1.00  0.00     0.000 C 
BRANCH   4   5
ATOM      5  C   UNL     1      16.650  -8.842  24.091  1.00  0.00     0.000 C 
BRANCH   5   6
ATOM      6  C   UNL     1      15.967  -8.460  25.413  1.00  0.00     0.006 C 
BRANCH   6   7
ATOM      7  C   UNL     1      16.289  -7.013  25.798  1.00  0.00     0.053 C 
BRANCH   7   8
ATOM      8  C   UNL     1      15.389  -6.552  26.900  1.00  0.00     0.041 C 
ATOM      9  O   UNL     1      14.318  -7.168  27.143  1.00  0.00    -0.550 OA
ATOM     10  O   UNL     1      15.708  -5.412  27.627  1.00  0.00    -0.550 OA
ENDBRANCH   7   8
ENDBRANCH   6   7
ENDBRANCH   5   6
ENDBRANCH   4   5
ENDBRANCH   3   4
ENDBRANCH   2   3
ENDBRANCH   1   2
BRANCH   1  11
ATOM     11  C   UNL     1      18.364 -10.264  27.495  1.00  0.00    -0.031 C 
ATOM     12  C   UNL     1      17.924  -9.977  28.730  1.00  0.00    -0.027 C 
BRANCH  12  13
ATOM     13  C   UNL     1      17.684  -8.558  29.165  1.00  0.00     0.054 C 
BRANCH  13  14
ATOM     14  C   UNL     1      18.625  -7.611  28.476  1.00  0.00    -0.027 C 
ATOM     15  C   UNL     1      18.916  -6.409  28.996  1.00  0.00    -0.031 C 
BRANCH  15  16
ATOM     16  C   UNL     1      19.867  -5.465  28.315  1.00  0.00     0.027 C 
BRANCH  16  17
ATOM     17  C   UNL     1      19.120  -4.480  27.408  1.00  0.00     0.004 C 
BRANCH  17  18
ATOM     18  C   UNL     1      19.259  -3.042  27.928  1.00  0.00     0.000 C 
BRANCH  18  19
ATOM     19  C   UNL     1      18.034  -2.587  28.738  1.00  0.00    -0.003 C 
ATOM     20  C   UNL     1      18.183  -2.855  30.235  1.00  0.00     0.004 C 
ENDBRANCH  18  19
ENDBRANCH  17  18
ENDBRANCH  16  17
ENDBRANCH  15  16
ENDBRANCH  13  14
ENDBRANCH  12  13
ENDBRANCH   1  11
TORSDOF 14
ENDMDL
MODEL 7
REMARK VINA RESULT:    -3.980      3.183      7.379
REMARK INTER + INTRA:          -8.704
REMARK INTER:                  -6.655
REMARK INTRA:                  -2.050
REMARK UNBOUND:                -1.466
REMARK SMILES CCCCCC=CCC=CCCCCCCCC(=O)[O-]
REMARK SMILES IDX 11 1 12 2 13 3 14 4 15 5 16 6 17 7 18 8 19 9 20 10 10 11
REMARK SMILES IDX 9 12 8 13 7 14 6 15 5 16 4 17 3 18 2 19 1 20
REMARK H PARENT
REMARK Flexibility Score: inf
ROOT
ATOM      1  C   UNL     1      16.766  -9.326  23.771  1.00  0.00     0.027 C 
ENDROOT
BRANCH   1   2
ATOM      2  C   UNL     1      17.326 -10.740  23.988  1.00  0.00     0.004 C 
BRANCH   2   3
ATOM      3  C   UNL     1      17.098 -11.240  25.422  1.00  0.00     0.000 C 
BRANCH   3   4
ATOM      4  C   UNL     1      18.382 -11.855  25.999  1.00  0.00     0.000 C 
BRANCH   4   5
ATOM      5  C   UNL     1      18.667 -11.393  27.437  1.00  0.00     0.000 C 
BRANCH   5   6
ATOM      6  C   UNL     1      18.249  -9.936  27.685  1.00  0.00     0.006 C 
BRANCH   6   7
ATOM      7  C   UNL     1      17.871  -9.717  29.152  1.00  0.00     0.053 C 
BRANCH   7   8
ATOM      8  C   UNL     1      16.400  -9.478  29.284  1.00  0.00     0.041 C 
ATOM      9  O   UNL     1      15.592 -10.069  28.521  1.00  0.00    -0.550 OA
ATOM     10  O   UNL     1      15.925  -8.564  30.216  1.00  0.00    -0.550 OA
ENDBRANCH   7   8
ENDBRANCH   6   7
ENDBRANCH   5   6
ENDBRANCH   4   5
ENDBRANCH   3   4
ENDBRANCH   2   3
ENDBRANCH   1   2
BRANCH   1  11
ATOM     11  C   UNL     1      16.027  -8.811  24.978  1.00  0.00    -0.031 C 
ATOM     12  C   UNL     1      16.164  -7.545  25.400  1.00  0.00    -0.027 C 
BRANCH  12  13
ATOM     13  C   UNL     1      15.421  -7.035  26.603  1.00  0.00     0.054 C 
BRANCH  13  14
ATOM     14  C   UNL     1      16.291  -6.140  27.440  1.00  0.00    -0.027 C 
ATOM     15  C   UNL     1      17.606  -6.369  27.576  1.00  0.00    -0.031 C 
BRANCH  15  16
ATOM     16  C   UNL     1      18.482  -5.469  28.403  1.00  0.00     0.027 C 
BRANCH  16  17
ATOM     17  C   UNL     1      18.038  -4.005  28.291  1.00  0.00     0.004 C 
BRANCH  17  18
ATOM     18  C   UNL     1      19.212  -3.106  27.878  1.00  0.00     0.000 C 
BRANCH  18  19
ATOM     19  C   UNL     1      20.504  -3.435  28.643  1.00  0.00    -0.003 C 
ATOM     20  C   UNL     1      21.252  -2.185  29.105  1.00  0.00     0.004 C 
ENDBRANCH  18  19
ENDBRANCH  17  18
ENDBRANCH  16  17
ENDBRANCH  15  16
ENDBRANCH  13  14
ENDBRANCH  12  13
ENDBRANCH   1  11
TORSDOF 14
ENDMDL
MODEL 8
REMARK VINA RESULT:    -3.927      1.626      3.628
REMARK INTER + INTRA:          -8.608
REMARK INTER:                  -6.305
REMARK INTRA:                  -2.303
REMARK UNBOUND:                -1.466
REMARK SMILES CCCCCC=CCC=CCCCCCCCC(=O)[O-]
REMARK SMILES IDX 11 1 12 2 13 3 14 4 15 5 16 6 17 7 18 8 19 9 20 10 10 11
REMARK SMILES IDX 9 12 8 13 7 14 6 15 5 16 4 17 3 18 2 19 1 20
REMARK H PARENT
REMARK Flexibility Score: inf
ROOT
ATOM      1  C   UNL     1      15.798  -8.616  24.159  1.00  0.00     0.027 C 
ENDROOT
BRANCH   1   2
ATOM      2  C   UNL     1      16.693  -8.049  25.272  1.00  0.00     0.004 C 
BRANCH   2   3
ATOM      3  C   UNL     1      15.879  -7.345  26.367  1.00  0.00     0.000 C 
BRANCH   3   4
ATOM      4  C   UNL     1      16.749  -6.340  27.137  1.00  0.00     0.000 C 
BRANCH   4   5
ATOM      5  C   UNL     1      17.771  -7.024  28.059  1.00  0.00     0.000 C 
BRANCH   5   6
ATOM      6  C   UNL     1      18.930  -6.095  28.449  1.00  0.00     0.006 C 
BRANCH   6   7
ATOM      7  C   UNL     1      19.051  -4.927  27.466  1.00  0.00     0.053 C 
BRANCH   7   8
ATOM      8  C   UNL     1      19.191  -3.633  28.203  1.00  0.00     0.041 C 
ATOM      9  O   UNL     1      18.166  -2.978  28.532  1.00  0.00    -0.550 OA
ATOM     10  O   UNL     1      20.452  -3.125  28.485  1.00  0.00    -0.550 OA
ENDBRANCH   7   8
ENDBRANCH   6   7
ENDBRANCH   5   6
ENDBRANCH   4   5
ENDBRANCH   3   4
ENDBRANCH   2   3
ENDBRANCH   1   2
BRANCH   1  11
ATOM     11  C   UNL     1      16.159 -10.033  23.800  1.00  0.00    -0.031 C 
ATOM     12  C   UNL     1      17.437 -10.425  23.680  1.00  0.00    -0.027 C 
BRANCH  12  13
ATOM     13  C   UNL     1      17.792 -11.842  23.325  1.00  0.00     0.054 C 
BRANCH  13  14
ATOM     14  C   UNL     1      18.199 -12.622  24.543  1.00  0.00    -0.027 C 
ATOM     15  C   UNL     1      18.958 -12.075  25.505  1.00  0.00    -0.031 C 
BRANCH  15  16
ATOM     16  C   UNL     1      19.355 -12.849  26.732  1.00  0.00     0.027 C 
BRANCH  16  17
ATOM     17  C   UNL     1      19.041 -12.063  28.011  1.00  0.00     0.004 C 
BRANCH  17  18
ATOM     18  C   UNL     1      18.395 -10.711  27.679  1.00  0.00     0.000 C 
BRANCH  18  19
ATOM     19  C   UNL     1      16.976 -10.577  28.254  1.00  0.00    -0.003 C 
ATOM     20  C   UNL     1      15.901 -11.109  27.306  1.00  0.00     0.004 C 
ENDBRANCH  18  19
ENDBRANCH  17  18
ENDBRANCH  16  17
ENDBRANCH  15  16
ENDBRANCH  13  14
ENDBRANCH  12  13
ENDBRANCH   1  11
TORSDOF 14
ENDMDL
MODEL 9
REMARK VINA RESULT:    -3.923      4.585      7.715
REMARK INTER + INTRA:          -8.601
REMARK INTER:                  -5.975
REMARK INTRA:                  -2.626
REMARK UNBOUND:                -1.466
REMARK SMILES CCCCCC=CCC=CCCCCCCCC(=O)[O-]
REMARK SMILES IDX 11 1 12 2 13 3 14 4 15 5 16 6 17 7 18 8 19 9 20 10 10 11
REMARK SMILES IDX 9 12 8 13 7 14 6 15 5 16 4 17 3 18 2 19 1 20
REMARK H PARENT
REMARK Flexibility Score: inf
ROOT
ATOM      1  C   UNL     1      19.468 -12.354  23.516  1.00  0.00     0.027 C 
ENDROOT
BRANCH   1   2
ATOM      2  C   UNL     1      19.975 -12.712  24.920  1.00  0.00     0.004 C 
BRANCH   2   3
ATOM      3  C   UNL     1      18.838 -12.761  25.952  1.00  0.00     0.000 C 
BRANCH   3   4
ATOM      4  C   UNL     1      19.020 -11.673  27.021  1.00  0.00     0.000 C 
BRANCH   4   5
ATOM      5  C   UNL     1      17.799 -10.745  27.137  1.00  0.00     0.000 C 
BRANCH   5   6
ATOM      6  C   UNL     1      16.468 -11.506  27.050  1.00  0.00     0.006 C 
BRANCH   6   7
ATOM      7  C   UNL     1      15.306 -10.632  27.530  1.00  0.00     0.053 C 
BRANCH   7   8
ATOM      8  C   UNL     1      14.151 -10.729  26.584  1.00  0.00     0.041 C 
ATOM      9  O   UNL     1      13.968 -11.780  25.914  1.00  0.00    -0.550 OA
ATOM     10  O   UNL     1      13.306  -9.642  26.403  1.00  0.00    -0.550 OA
ENDBRANCH   7   8
ENDBRANCH   6   7
ENDBRANCH   5   6
ENDBRANCH   4   5
ENDBRANCH   3   4
ENDBRANCH   2   3
ENDBRANCH   1   2
BRANCH   1  11
ATOM     11  C   UNL     1      17.992 -12.052  23.499  1.00  0.00    -0.031 C 
ATOM     12  C   UNL     1      17.531 -10.805  23.317  1.00  0.00    -0.027 C 
BRANCH  12  13
ATOM     13  C   UNL     1      16.057 -10.510  23.297  1.00  0.00     0.054 C 
BRANCH  13  14
ATOM     14  C   UNL     1      15.774  -9.123  23.801  1.00  0.00    -0.027 C 
ATOM     15  C   UNL     1      16.580  -8.521  24.689  1.00  0.00    -0.031 C 
BRANCH  15  16
ATOM     16  C   UNL     1      16.307  -7.128  25.184  1.00  0.00     0.027 C 
BRANCH  16  17
ATOM     17  C   UNL     1      15.795  -7.143  26.630  1.00  0.00     0.004 C 
BRANCH  17  18
ATOM     18  C   UNL     1      16.320  -5.929  27.410  1.00  0.00     0.000 C 
BRANCH  18  19
ATOM     19  C   UNL     1      17.821  -6.032  27.721  1.00  0.00    -0.003 C 
ATOM     20  C   UNL     1      18.190  -7.335  28.430  1.00  0.00     0.004 C 
ENDBRANCH  18  19
ENDBRANCH  17  18
ENDBRANCH  16  17
ENDBRANCH  15  16
ENDBRANCH  13  14
ENDBRANCH  12  13
ENDBRANCH   1  11
TORSDOF 14
ENDMDL
