MODEL 1
REMARK VINA RESULT:     4.925      0.000      0.000
REMARK INTER + INTRA:           5.998
REMARK INTER:                   6.796
REMARK INTRA:                  -0.798
REMARK UNBOUND:                -0.798
REMARK SMILES C=C(CC[C@@H](C(=O)[O-])[C@@H]1CC[C@]2(C)C3=C(CC[C@]12C)[C@]1(C)CC[C@H](O)C(C)(C)[C@@H]1CC3)C(C)C
REMARK SMILES IDX 4 1 5 2 6 3 7 4 8 5 9 6 10 7 18 8 11 9 12 10 17 11 19 12
REMARK SMILES IDX 13 13 14 14 16 15 15 16 31 17 20 18 30 19 29 20 22 21 21 22
REMARK SMILES IDX 26 23 23 24 24 25 27 26 28 27 25 28 3 30 2 31 1 32 32 33
REMARK SMILES IDX 33 34 34 35
REMARK H PARENT 25 29
REMARK Flexibility Score: inf
ROOT
ATOM      1  C   UNL     1     100.332 113.317 117.042  1.00  0.00     0.014 C 
ENDROOT
BRANCH   1   2
ATOM      2  C   UNL     1      99.541 113.730 115.774  1.00  0.00     0.039 C 
BRANCH   2   3
ATOM      3  C   UNL     1      99.674 115.227 115.615  1.00  0.00     0.045 C 
ATOM      4  O   UNL     1     100.658 115.828 116.120  1.00  0.00    -0.550 OA
ATOM      5  O   UNL     1      98.776 115.941 114.830  1.00  0.00    -0.550 OA
ENDBRANCH   2   3
BRANCH   2   6
ATOM      6  C   UNL     1      99.950 112.900 114.503  1.00  0.00     0.004 C 
ATOM      7  C   UNL     1     100.296 113.691 113.250  1.00  0.00     0.006 C 
ATOM      8  C   UNL     1      99.045 111.699 114.032  1.00  0.00    -0.020 C 
ATOM      9  C   UNL     1     100.455 112.625 112.186  1.00  0.00     0.012 C 
ATOM     10  C   UNL     1      99.345 111.574 112.453  1.00  0.00    -0.006 C 
ATOM     11  C   UNL     1      97.527 111.881 114.316  1.00  0.00     0.012 C 
ATOM     12  C   UNL     1      99.458 110.450 114.875  1.00  0.00     0.012 C 
ATOM     13  C   UNL     1      99.871 110.160 112.064  1.00  0.00     0.017 C 
ATOM     14  C   UNL     1      98.141 111.900 111.512  1.00  0.00    -0.064 C 
ATOM     15  C   UNL     1      96.862 112.852 113.367  1.00  0.00     0.032 C 
ATOM     16  C   UNL     1      96.927 112.298 111.970  1.00  0.00    -0.064 C 
ATOM     17  C   UNL     1      98.332 111.885 110.008  1.00  0.00     0.032 C 
ATOM     18  C   UNL     1      95.706 112.389 111.024  1.00  0.00    -0.008 C 
ATOM     19  C   UNL     1      97.251 111.067 109.316  1.00  0.00     0.009 C 
ATOM     20  C   UNL     1      95.800 111.313 109.851  1.00  0.00     0.007 C 
ATOM     21  C   UNL     1      94.375 112.201 111.829  1.00  0.00     0.014 C 
ATOM     22  C   UNL     1      95.667 113.824 110.425  1.00  0.00     0.016 C 
ATOM     23  C   UNL     1      95.012 109.966 110.137  1.00  0.00    -0.006 C 
ATOM     24  C   UNL     1      93.229 111.707 110.955  1.00  0.00     0.033 C 
ATOM     25  C   UNL     1      93.490 110.280 110.449  1.00  0.00     0.120 C 
ATOM     26  C   UNL     1      95.681 109.162 111.296  1.00  0.00     0.014 C 
ATOM     27  C   UNL     1      95.023 109.055 108.875  1.00  0.00     0.014 C 
BRANCH  25  28
ATOM     28  O   UNL     1      92.947 109.366 111.372  1.00  0.00    -0.393 OA
ATOM     29  H   UNL     1      92.894 109.832 112.245  1.00  0.00     0.210 HD
ENDBRANCH  25  28
ENDBRANCH   2   6
ENDBRANCH   1   2
BRANCH   1  30
ATOM     30  C   UNL     1      99.533 113.461 118.353  1.00  0.00     0.031 C 
BRANCH  30  31
ATOM     31  C   UNL     1     100.103 112.566 119.432  1.00  0.00    -0.075 C 
ATOM     32  C   UNL     1     100.068 112.963 120.718  1.00  0.00     0.008 C 
BRANCH  31  33
ATOM     33  C   UNL     1     100.751 111.248 119.035  1.00  0.00     0.008 C 
ATOM     34  C   UNL     1     101.429 110.576 120.238  1.00  0.00     0.012 C 
ATOM     35  C   UNL     1      99.742 110.302 118.370  1.00  0.00     0.012 C 
ENDBRANCH  31  33
ENDBRANCH  30  31
ENDBRANCH   1  30
TORSDOF 7
ENDMDL
MODEL 2
REMARK VINA RESULT:     6.011      3.229      9.663
REMARK INTER + INTRA:           7.497
REMARK INTER:                   7.563
REMARK INTRA:                  -0.066
REMARK UNBOUND:                -0.798
REMARK SMILES C=C(CC[C@@H](C(=O)[O-])[C@@H]1CC[C@]2(C)C3=C(CC[C@]12C)[C@]1(C)CC[C@H](O)C(C)(C)[C@@H]1CC3)C(C)C
REMARK SMILES IDX 4 1 5 2 6 3 7 4 8 5 9 6 10 7 18 8 11 9 12 10 17 11 19 12
REMARK SMILES IDX 13 13 14 14 16 15 15 16 31 17 20 18 30 19 29 20 22 21 21 22
REMARK SMILES IDX 26 23 23 24 24 25 27 26 28 27 25 28 3 30 2 31 1 32 32 33
REMARK SMILES IDX 33 34 34 35
REMARK H PARENT 25 29
REMARK Flexibility Score: inf
ROOT
ATOM      1  C   UNL     1      99.297 113.395 114.242  1.00  0.00     0.014 C 
ENDROOT
BRANCH   1   2
ATOM      2  C   UNL     1      98.682 112.536 115.378  1.00  0.00     0.039 C 
BRANCH   2   3
ATOM      3  C   UNL     1      97.909 111.408 114.735  1.00  0.00     0.045 C 
ATOM      4  O   UNL     1      96.802 111.638 114.183  1.00  0.00    -0.550 OA
ATOM      5  O   UNL     1      98.451 110.130 114.655  1.00  0.00    -0.550 OA
ENDBRANCH   2   3
BRANCH   2   6
ATOM      6  C   UNL     1      99.748 112.074 116.439  1.00  0.00     0.004 C 
ATOM      7  C   UNL     1      99.334 110.956 117.384  1.00  0.00     0.006 C 
ATOM      8  C   UNL     1     100.486 113.151 117.321  1.00  0.00    -0.020 C 
ATOM      9  C   UNL     1     100.479 110.882 118.374  1.00  0.00     0.012 C 
ATOM     10  C   UNL     1     100.909 112.347 118.652  1.00  0.00    -0.006 C 
ATOM     11  C   UNL     1      99.636 114.409 117.654  1.00  0.00     0.012 C 
ATOM     12  C   UNL     1     101.684 113.696 116.479  1.00  0.00     0.012 C 
ATOM     13  C   UNL     1     102.446 112.392 118.904  1.00  0.00     0.017 C 
ATOM     14  C   UNL     1     100.207 112.809 119.969  1.00  0.00    -0.064 C 
ATOM     15  C   UNL     1      98.589 114.148 118.715  1.00  0.00     0.032 C 
ATOM     16  C   UNL     1      99.274 113.794 120.006  1.00  0.00    -0.064 C 
ATOM     17  C   UNL     1     100.475 112.075 121.268  1.00  0.00     0.032 C 
ATOM     18  C   UNL     1      98.774 114.372 121.352  1.00  0.00    -0.008 C 
ATOM     19  C   UNL     1     100.821 113.038 122.394  1.00  0.00     0.009 C 
ATOM     20  C   UNL     1      99.912 114.312 122.466  1.00  0.00     0.007 C 
ATOM     21  C   UNL     1      98.275 115.846 121.163  1.00  0.00     0.014 C 
ATOM     22  C   UNL     1      97.542 113.538 121.806  1.00  0.00     0.016 C 
ATOM     23  C   UNL     1     100.744 115.654 122.623  1.00  0.00    -0.006 C 
ATOM     24  C   UNL     1      98.323 116.648 122.457  1.00  0.00     0.033 C 
ATOM     25  C   UNL     1      99.771 116.868 122.923  1.00  0.00     0.120 C 
ATOM     26  C   UNL     1     101.619 115.919 121.357  1.00  0.00     0.014 C 
ATOM     27  C   UNL     1     101.709 115.554 123.839  1.00  0.00     0.014 C 
BRANCH  25  28
ATOM     28  O   UNL     1     100.247 118.070 122.366  1.00  0.00    -0.393 OA
ATOM     29  H   UNL     1      99.471 118.526 121.951  1.00  0.00     0.210 HD
ENDBRANCH  25  28
ENDBRANCH   2   6
ENDBRANCH   1   2
BRANCH   1  30
ATOM     30  C   UNL     1     100.554 112.776 113.601  1.00  0.00     0.031 C 
BRANCH  30  31
ATOM     31  C   UNL     1     100.311 112.455 112.142  1.00  0.00    -0.075 C 
ATOM     32  C   UNL     1      99.135 111.920 111.762  1.00  0.00     0.008 C 
BRANCH  31  33
ATOM     33  C   UNL     1     101.424 112.699 111.134  1.00  0.00     0.008 C 
ATOM     34  C   UNL     1     101.380 111.671 109.995  1.00  0.00     0.012 C 
ATOM     35  C   UNL     1     101.383 114.133 110.587  1.00  0.00     0.012 C 
ENDBRANCH  31  33
ENDBRANCH  30  31
ENDBRANCH   1  30
TORSDOF 7
ENDMDL
MODEL 3
REMARK VINA RESULT:     6.304      3.364      9.972
REMARK INTER + INTRA:           7.901
REMARK INTER:                   8.593
REMARK INTRA:                  -0.692
REMARK UNBOUND:                -0.798
REMARK SMILES C=C(CC[C@@H](C(=O)[O-])[C@@H]1CC[C@]2(C)C3=C(CC[C@]12C)[C@]1(C)CC[C@H](O)C(C)(C)[C@@H]1CC3)C(C)C
REMARK SMILES IDX 4 1 5 2 6 3 7 4 8 5 9 6 10 7 18 8 11 9 12 10 17 11 19 12
REMARK SMILES IDX 13 13 14 14 16 15 15 16 31 17 20 18 30 19 29 20 22 21 21 22
REMARK SMILES IDX 26 23 23 24 24 25 27 26 28 27 25 28 3 30 2 31 1 32 32 33
REMARK SMILES IDX 33 34 34 35
REMARK H PARENT 25 29
REMARK Flexibility Score: inf
ROOT
ATOM      1  C   UNL     1      99.142 111.720 114.801  1.00  0.00     0.014 C 
ENDROOT
BRANCH   1   2
ATOM      2  C   UNL     1      99.275 112.060 116.309  1.00  0.00     0.039 C 
BRANCH   2   3
ATOM      3  C   UNL     1      99.565 110.774 117.047  1.00  0.00     0.045 C 
ATOM      4  O   UNL     1      99.794 110.797 118.285  1.00  0.00    -0.550 OA
ATOM      5  O   UNL     1      99.485 109.548 116.397  1.00  0.00    -0.550 OA
ENDBRANCH   2   3
BRANCH   2   6
ATOM      6  C   UNL     1     100.303 113.217 116.585  1.00  0.00     0.004 C 
ATOM      7  C   UNL     1     101.652 112.812 117.162  1.00  0.00     0.006 C 
ATOM      8  C   UNL     1      99.844 114.493 117.385  1.00  0.00    -0.020 C 
ATOM      9  C   UNL     1     102.317 114.136 117.479  1.00  0.00     0.012 C 
ATOM     10  C   UNL     1     101.203 115.059 118.040  1.00  0.00    -0.006 C 
ATOM     11  C   UNL     1      98.755 114.226 118.462  1.00  0.00     0.012 C 
ATOM     12  C   UNL     1      99.161 115.459 116.364  1.00  0.00     0.012 C 
ATOM     13  C   UNL     1     101.493 116.531 117.617  1.00  0.00     0.017 C 
ATOM     14  C   UNL     1     101.274 115.000 119.600  1.00  0.00    -0.064 C 
ATOM     15  C   UNL     1      99.303 113.554 119.701  1.00  0.00     0.032 C 
ATOM     16  C   UNL     1     100.284 114.479 120.368  1.00  0.00    -0.064 C 
ATOM     17  C   UNL     1     102.536 115.438 120.317  1.00  0.00     0.032 C 
ATOM     18  C   UNL     1     100.294 114.646 121.907  1.00  0.00    -0.008 C 
ATOM     19  C   UNL     1     102.228 116.408 121.449  1.00  0.00     0.009 C 
ATOM     20  C   UNL     1     101.001 116.008 122.337  1.00  0.00     0.007 C 
ATOM     21  C   UNL     1      98.834 114.589 122.473  1.00  0.00     0.014 C 
ATOM     22  C   UNL     1     101.057 113.436 122.518  1.00  0.00     0.016 C 
ATOM     23  C   UNL     1      99.999 117.214 122.583  1.00  0.00    -0.006 C 
ATOM     24  C   UNL     1      98.700 115.298 123.815  1.00  0.00     0.033 C 
ATOM     25  C   UNL     1      98.917 116.812 123.669  1.00  0.00     0.120 C 
ATOM     26  C   UNL     1      99.331 117.667 121.246  1.00  0.00     0.014 C 
ATOM     27  C   UNL     1     100.762 118.442 123.158  1.00  0.00     0.014 C 
BRANCH  25  28
ATOM     28  O   UNL     1      97.675 117.425 123.419  1.00  0.00    -0.393 OA
ATOM     29  H   UNL     1      97.508 117.358 122.444  1.00  0.00     0.210 HD
ENDBRANCH  25  28
ENDBRANCH   2   6
ENDBRANCH   1   2
BRANCH   1  30
ATOM     30  C   UNL     1      99.986 112.624 113.880  1.00  0.00     0.031 C 
BRANCH  30  31
ATOM     31  C   UNL     1      99.804 112.233 112.430  1.00  0.00    -0.075 C 
ATOM     32  C   UNL     1      98.595 111.832 111.991  1.00  0.00     0.008 C 
BRANCH  31  33
ATOM     33  C   UNL     1     101.009 112.253 111.500  1.00  0.00     0.008 C 
ATOM     34  C   UNL     1     100.780 111.360 110.273  1.00  0.00     0.012 C 
ATOM     35  C   UNL     1     101.373 113.684 111.083  1.00  0.00     0.012 C 
ENDBRANCH  31  33
ENDBRANCH  30  31
ENDBRANCH   1  30
TORSDOF 7
ENDMDL
MODEL 4
REMARK VINA RESULT:     6.766      4.380      9.456
REMARK INTER + INTRA:           8.539
REMARK INTER:                   8.238
REMARK INTRA:                   0.301
REMARK UNBOUND:                -0.798
REMARK SMILES C=C(CC[C@@H](C(=O)[O-])[C@@H]1CC[C@]2(C)C3=C(CC[C@]12C)[C@]1(C)CC[C@H](O)C(C)(C)[C@@H]1CC3)C(C)C
REMARK SMILES IDX 4 1 5 2 6 3 7 4 8 5 9 6 10 7 18 8 11 9 12 10 17 11 19 12
REMARK SMILES IDX 13 13 14 14 16 15 15 16 31 17 20 18 30 19 29 20 22 21 21 22
REMARK SMILES IDX 26 23 23 24 24 25 27 26 28 27 25 28 3 30 2 31 1 32 32 33
REMARK SMILES IDX 33 34 34 35
REMARK H PARENT 25 29
REMARK Flexibility Score: inf
ROOT
ATOM      1  C   UNL     1      99.440 111.391 117.643  1.00  0.00     0.014 C 
ENDROOT
BRANCH   1   2
ATOM      2  C   UNL     1     100.012 112.054 116.363  1.00  0.00     0.039 C 
BRANCH   2   3
ATOM      3  C   UNL     1      98.866 112.262 115.401  1.00  0.00     0.045 C 
ATOM      4  O   UNL     1      97.704 111.894 115.716  1.00  0.00    -0.550 OA
ATOM      5  O   UNL     1      99.057 112.949 114.207  1.00  0.00    -0.550 OA
ENDBRANCH   2   3
BRANCH   2   6
ATOM      6  C   UNL     1     100.851 113.349 116.669  1.00  0.00     0.004 C 
ATOM      7  C   UNL     1     102.223 113.145 117.295  1.00  0.00     0.006 C 
ATOM      8  C   UNL     1     100.182 114.544 117.446  1.00  0.00    -0.020 C 
ATOM      9  C   UNL     1     102.677 114.551 117.629  1.00  0.00     0.012 C 
ATOM     10  C   UNL     1     101.421 115.302 118.146  1.00  0.00    -0.006 C 
ATOM     11  C   UNL     1      99.106 114.121 118.486  1.00  0.00     0.012 C 
ATOM     12  C   UNL     1      99.403 115.401 116.397  1.00  0.00     0.012 C 
ATOM     13  C   UNL     1     101.509 116.800 117.726  1.00  0.00     0.017 C 
ATOM     14  C   UNL     1     101.444 115.254 119.707  1.00  0.00    -0.064 C 
ATOM     15  C   UNL     1      99.703 113.536 119.747  1.00  0.00     0.032 C 
ATOM     16  C   UNL     1     100.514 114.594 120.443  1.00  0.00    -0.064 C 
ATOM     17  C   UNL     1     102.603 115.871 120.466  1.00  0.00     0.032 C 
ATOM     18  C   UNL     1     100.445 114.760 121.981  1.00  0.00    -0.008 C 
ATOM     19  C   UNL     1     102.117 116.785 121.581  1.00  0.00     0.009 C 
ATOM     20  C   UNL     1     100.931 116.211 122.428  1.00  0.00     0.007 C 
ATOM     21  C   UNL     1      98.990 114.491 122.495  1.00  0.00     0.014 C 
ATOM     22  C   UNL     1     101.355 113.674 122.624  1.00  0.00     0.016 C 
ATOM     23  C   UNL     1      99.756 117.258 122.633  1.00  0.00    -0.006 C 
ATOM     24  C   UNL     1      98.707 115.173 123.828  1.00  0.00     0.033 C 
ATOM     25  C   UNL     1      98.706 116.702 123.682  1.00  0.00     0.120 C 
ATOM     26  C   UNL     1      99.077 117.609 121.271  1.00  0.00     0.014 C 
ATOM     27  C   UNL     1     100.311 118.584 123.228  1.00  0.00     0.014 C 
BRANCH  25  28
ATOM     28  O   UNL     1      97.397 117.128 123.386  1.00  0.00    -0.393 OA
ATOM     29  H   UNL     1      97.095 116.611 122.596  1.00  0.00     0.210 HD
ENDBRANCH  25  28
ENDBRANCH   2   6
ENDBRANCH   1   2
BRANCH   1  30
ATOM     30  C   UNL     1     100.010 109.988 117.928  1.00  0.00     0.031 C 
BRANCH  30  31
ATOM     31  C   UNL     1     100.873 109.999 119.171  1.00  0.00    -0.075 C 
ATOM     32  C   UNL     1     101.020 111.139 119.873  1.00  0.00     0.008 C 
BRANCH  31  33
ATOM     33  C   UNL     1     101.600 108.727 119.580  1.00  0.00     0.008 C 
ATOM     34  C   UNL     1     103.106 108.975 119.744  1.00  0.00     0.012 C 
ATOM     35  C   UNL     1     100.998 108.119 120.854  1.00  0.00     0.012 C 
ENDBRANCH  31  33
ENDBRANCH  30  31
ENDBRANCH   1  30
TORSDOF 7
ENDMDL
MODEL 5
REMARK VINA RESULT:     6.882      3.724      7.720
REMARK INTER + INTRA:           8.700
REMARK INTER:                   9.662
REMARK INTRA:                  -0.962
REMARK UNBOUND:                -0.798
REMARK SMILES C=C(CC[C@@H](C(=O)[O-])[C@@H]1CC[C@]2(C)C3=C(CC[C@]12C)[C@]1(C)CC[C@H](O)C(C)(C)[C@@H]1CC3)C(C)C
REMARK SMILES IDX 4 1 5 2 6 3 7 4 8 5 9 6 10 7 18 8 11 9 12 10 17 11 19 12
REMARK SMILES IDX 13 13 14 14 16 15 15 16 31 17 20 18 30 19 29 20 22 21 21 22
REMARK SMILES IDX 26 23 23 24 24 25 27 26 28 27 25 28 3 30 2 31 1 32 32 33
REMARK SMILES IDX 33 34 34 35
REMARK H PARENT 25 29
REMARK Flexibility Score: inf
ROOT
ATOM      1  C   UNL     1      99.734 116.101 123.725  1.00  0.00     0.014 C 
ENDROOT
BRANCH   1   2
ATOM      2  C   UNL     1     100.236 115.779 122.293  1.00  0.00     0.039 C 
BRANCH   2   3
ATOM      3  C   UNL     1     101.603 116.401 122.132  1.00  0.00     0.045 C 
ATOM      4  O   UNL     1     102.270 116.727 123.150  1.00  0.00    -0.550 OA
ATOM      5  O   UNL     1     102.183 116.529 120.875  1.00  0.00    -0.550 OA
ENDBRANCH   2   3
BRANCH   2   6
ATOM      6  C   UNL     1     100.174 114.244 121.956  1.00  0.00     0.004 C 
ATOM      7  C   UNL     1     101.505 113.534 121.749  1.00  0.00     0.006 C 
ATOM      8  C   UNL     1      99.219 113.735 120.812  1.00  0.00    -0.020 C 
ATOM      9  C   UNL     1     101.103 112.155 121.267  1.00  0.00     0.012 C 
ATOM     10  C   UNL     1      99.899 112.362 120.311  1.00  0.00    -0.006 C 
ATOM     11  C   UNL     1      99.017 114.738 119.641  1.00  0.00     0.012 C 
ATOM     12  C   UNL     1      97.797 113.567 121.438  1.00  0.00     0.012 C 
ATOM     13  C   UNL     1      98.931 111.147 120.432  1.00  0.00     0.017 C 
ATOM     14  C   UNL     1     100.447 112.378 118.848  1.00  0.00    -0.064 C 
ATOM     15  C   UNL     1     100.210 114.809 118.715  1.00  0.00     0.032 C 
ATOM     16  C   UNL     1     100.397 113.474 118.048  1.00  0.00    -0.064 C 
ATOM     17  C   UNL     1     101.172 111.165 118.298  1.00  0.00     0.032 C 
ATOM     18  C   UNL     1     100.741 113.381 116.542  1.00  0.00    -0.008 C 
ATOM     19  C   UNL     1     100.627 110.757 116.937  1.00  0.00     0.009 C 
ATOM     20  C   UNL     1     100.373 111.947 115.951  1.00  0.00     0.007 C 
ATOM     21  C   UNL     1     100.000 114.506 115.742  1.00  0.00     0.014 C 
ATOM     22  C   UNL     1     102.265 113.647 116.379  1.00  0.00     0.016 C 
ATOM     23  C   UNL     1      98.950 111.875 115.252  1.00  0.00    -0.006 C 
ATOM     24  C   UNL     1      99.812 114.150 114.272  1.00  0.00     0.033 C 
ATOM     25  C   UNL     1      98.849 112.965 114.105  1.00  0.00     0.120 C 
ATOM     26  C   UNL     1      97.804 112.038 116.300  1.00  0.00     0.014 C 
ATOM     27  C   UNL     1      98.755 110.493 114.564  1.00  0.00     0.014 C 
BRANCH  25  28
ATOM     28  O   UNL     1      97.539 113.461 113.970  1.00  0.00    -0.393 OA
ATOM     29  H   UNL     1      97.555 114.126 113.234  1.00  0.00     0.210 HD
ENDBRANCH  25  28
ENDBRANCH   2   6
ENDBRANCH   1   2
BRANCH   1  30
ATOM     30  C   UNL     1      98.286 116.625 123.776  1.00  0.00     0.031 C 
BRANCH  30  31
ATOM     31  C   UNL     1      98.264 118.132 123.915  1.00  0.00    -0.075 C 
ATOM     32  C   UNL     1      97.299 118.722 124.648  1.00  0.00     0.008 C 
BRANCH  31  33
ATOM     33  C   UNL     1      99.309 118.959 123.182  1.00  0.00     0.008 C 
ATOM     34  C   UNL     1      98.661 120.124 122.418  1.00  0.00     0.012 C 
ATOM     35  C   UNL     1     100.399 119.463 124.137  1.00  0.00     0.012 C 
ENDBRANCH  31  33
ENDBRANCH  30  31
ENDBRANCH   1  30
TORSDOF 7
ENDMDL
MODEL 6
REMARK VINA RESULT:     7.616      3.377      5.673
REMARK INTER + INTRA:           9.711
REMARK INTER:                   9.856
REMARK INTRA:                  -0.145
REMARK UNBOUND:                -0.798
REMARK SMILES C=C(CC[C@@H](C(=O)[O-])[C@@H]1CC[C@]2(C)C3=C(CC[C@]12C)[C@]1(C)CC[C@H](O)C(C)(C)[C@@H]1CC3)C(C)C
REMARK SMILES IDX 4 1 5 2 6 3 7 4 8 5 9 6 10 7 18 8 11 9 12 10 17 11 19 12
REMARK SMILES IDX 13 13 14 14 16 15 15 16 31 17 20 18 30 19 29 20 22 21 21 22
REMARK SMILES IDX 26 23 23 24 24 25 27 26 28 27 25 28 3 30 2 31 1 32 32 33
REMARK SMILES IDX 33 34 34 35
REMARK H PARENT 25 29
REMARK Flexibility Score: inf
ROOT
ATOM      1  C   UNL     1     100.000 111.980 120.804  1.00  0.00     0.014 C 
ENDROOT
BRANCH   1   2
ATOM      2  C   UNL     1     100.595 111.850 119.377  1.00  0.00     0.039 C 
BRANCH   2   3
ATOM      3  C   UNL     1      99.926 110.674 118.704  1.00  0.00     0.045 C 
ATOM      4  O   UNL     1     100.517 109.564 118.645  1.00  0.00    -0.550 OA
ATOM      5  O   UNL     1      98.621 110.771 118.235  1.00  0.00    -0.550 OA
ENDBRANCH   2   3
BRANCH   2   6
ATOM      6  C   UNL     1     100.524 113.194 118.562  1.00  0.00     0.004 C 
ATOM      7  C   UNL     1      99.138 113.764 118.300  1.00  0.00     0.006 C 
ATOM      8  C   UNL     1     101.321 113.328 117.211  1.00  0.00    -0.020 C 
ATOM      9  C   UNL     1      99.399 114.922 117.359  1.00  0.00     0.012 C 
ATOM     10  C   UNL     1     100.508 114.446 116.382  1.00  0.00    -0.006 C 
ATOM     11  C   UNL     1     101.462 112.005 116.407  1.00  0.00     0.012 C 
ATOM     12  C   UNL     1     102.788 113.726 117.576  1.00  0.00     0.012 C 
ATOM     13  C   UNL     1     101.405 115.660 115.992  1.00  0.00     0.017 C 
ATOM     14  C   UNL     1      99.812 113.942 115.078  1.00  0.00    -0.064 C 
ATOM     15  C   UNL     1     100.185 111.606 115.700  1.00  0.00     0.032 C 
ATOM     16  C   UNL     1      99.847 112.648 114.670  1.00  0.00    -0.064 C 
ATOM     17  C   UNL     1      98.959 114.892 114.260  1.00  0.00     0.032 C 
ATOM     18  C   UNL     1      99.342 112.238 113.265  1.00  0.00    -0.008 C 
ATOM     19  C   UNL     1      99.332 114.850 112.785  1.00  0.00     0.009 C 
ATOM     20  C   UNL     1      99.556 113.412 112.208  1.00  0.00     0.007 C 
ATOM     21  C   UNL     1     100.064 110.933 112.784  1.00  0.00     0.014 C 
ATOM     22  C   UNL     1      97.829 111.895 113.379  1.00  0.00     0.016 C 
ATOM     23  C   UNL     1     100.890 113.289 111.358  1.00  0.00    -0.006 C 
ATOM     24  C   UNL     1     100.074 110.798 111.266  1.00  0.00     0.033 C 
ATOM     25  C   UNL     1     100.938 111.889 110.616  1.00  0.00     0.120 C 
ATOM     26  C   UNL     1     102.148 113.505 112.258  1.00  0.00     0.014 C 
ATOM     27  C   UNL     1     100.925 114.377 110.246  1.00  0.00     0.014 C 
BRANCH  25  28
ATOM     28  O   UNL     1     102.256 111.409 110.491  1.00  0.00    -0.393 OA
ATOM     29  H   UNL     1     102.499 111.000 111.361  1.00  0.00     0.210 HD
ENDBRANCH  25  28
ENDBRANCH   2   6
ENDBRANCH   1   2
BRANCH   1  30
ATOM     30  C   UNL     1     100.671 113.068 121.664  1.00  0.00     0.031 C 
BRANCH  30  31
ATOM     31  C   UNL     1      99.639 114.018 122.232  1.00  0.00    -0.075 C 
ATOM     32  C   UNL     1      98.329 113.790 122.015  1.00  0.00     0.008 C 
BRANCH  31  33
ATOM     33  C   UNL     1     100.104 115.246 123.000  1.00  0.00     0.008 C 
ATOM     34  C   UNL     1     101.317 115.900 122.322  1.00  0.00     0.012 C 
ATOM     35  C   UNL     1      98.965 116.257 123.189  1.00  0.00     0.012 C 
ENDBRANCH  31  33
ENDBRANCH  30  31
ENDBRANCH   1  30
TORSDOF 7
ENDMDL
