MODEL 1
REMARK VINA RESULT:    -2.126      0.000      0.000
REMARK INTER + INTRA:          -4.030
REMARK INTER:                  -2.934
REMARK INTRA:                  -1.096
REMARK UNBOUND:                -1.096
REMARK SMILES O=C([O-])[C@@H]1O[C@H](Oc2cc3oc(-c4ccccc4)cc(=O)c3c(O)c2O)[C@@H](O)[C@H](O)[C@H]1O
REMARK SMILES IDX 7 1 6 2 4 3 31 4 5 5 29 6 27 7 2 8 1 9 3 10 32 11 30 13
REMARK SMILES IDX 28 15 8 17 25 18 9 19 23 20 10 21 22 22 11 23 20 24 12 25
REMARK SMILES IDX 19 26 21 27 26 28 24 30 13 32 14 33 18 34 15 35 17 36 16 37
REMARK H PARENT 32 12 30 14 28 16 26 29 24 31
REMARK Flexibility Score: inf
ROOT
ATOM      1  O   UNL     1     -40.406  22.248  10.692  1.00  0.00    -0.458 OA
ENDROOT
BRANCH   1   2
ATOM      2  C   UNL     1     -39.226  21.996  11.460  1.00  0.00     0.339 C 
ATOM      3  C   UNL     1     -39.947  21.106  13.576  1.00  0.00     0.199 C 
ATOM      4  C   UNL     1     -40.682  20.044  12.722  1.00  0.00     0.180 C 
ATOM      5  O   UNL     1     -39.482  22.233  12.841  1.00  0.00    -0.328 OA
ATOM      6  C   UNL     1     -39.756  19.514  11.602  1.00  0.00     0.181 C 
ATOM      7  C   UNL     1     -38.714  20.573  11.168  1.00  0.00     0.214 C 
BRANCH   3   8
ATOM      8  C   UNL     1     -40.848  21.600  14.669  1.00  0.00     0.073 C 
ATOM      9  O   UNL     1     -42.071  21.799  14.441  1.00  0.00    -0.547 OA
ATOM     10  O   UNL     1     -40.343  21.813  15.945  1.00  0.00    -0.547 OA
ENDBRANCH   3   8
BRANCH   4  11
ATOM     11  O   UNL     1     -41.095  18.981  13.544  1.00  0.00    -0.387 OA
ATOM     12  H   UNL     1     -42.075  18.888  13.422  1.00  0.00     0.211 HD
ENDBRANCH   4  11
BRANCH   6  13
ATOM     13  O   UNL     1     -40.529  19.145  10.487  1.00  0.00    -0.387 OA
ATOM     14  H   UNL     1     -40.085  19.527   9.687  1.00  0.00     0.211 HD
ENDBRANCH   6  13
BRANCH   7  15
ATOM     15  O   UNL     1     -37.503  20.377  11.852  1.00  0.00    -0.384 OA
ATOM     16  H   UNL     1     -37.277  19.414  11.767  1.00  0.00     0.211 HD
ENDBRANCH   7  15
ENDBRANCH   1   2
BRANCH   1  17
ATOM     17  C   UNL     1     -40.534  23.129   9.604  1.00  0.00     0.172 A 
ATOM     18  C   UNL     1     -41.756  23.405   8.944  1.00  0.00     0.201 A 
ATOM     19  C   UNL     1     -39.368  23.769   9.186  1.00  0.00     0.098 A 
ATOM     20  C   UNL     1     -41.772  24.275   7.822  1.00  0.00     0.176 A 
ATOM     21  C   UNL     1     -39.377  24.661   8.117  1.00  0.00     0.146 A 
ATOM     22  C   UNL     1     -40.577  24.921   7.419  1.00  0.00     0.111 A 
ATOM     23  O   UNL     1     -38.243  25.256   7.763  1.00  0.00    -0.456 OA
ATOM     24  C   UNL     1     -40.514  25.823   6.334  1.00  0.00     0.197 A 
ATOM     25  C   UNL     1     -38.153  26.121   6.756  1.00  0.00     0.138 A 
ATOM     26  C   UNL     1     -39.298  26.421   6.001  1.00  0.00     0.100 A 
ATOM     27  O   UNL     1     -41.536  26.105   5.651  1.00  0.00    -0.289 OA
BRANCH  18  28
ATOM     28  O   UNL     1     -42.937  22.843   9.434  1.00  0.00    -0.502 OA
ATOM     29  H   UNL     1     -43.767  23.369   9.671  1.00  0.00     0.293 HD
ENDBRANCH  18  28
BRANCH  20  30
ATOM     30  O   UNL     1     -42.944  24.498   7.093  1.00  0.00    -0.504 OA
ATOM     31  H   UNL     1     -43.824  24.039   7.277  1.00  0.00     0.293 HD
ENDBRANCH  20  30
BRANCH  25  32
ATOM     32  C   UNL     1     -36.833  26.731   6.455  1.00  0.00     0.017 A 
ATOM     33  C   UNL     1     -35.756  26.646   7.360  1.00  0.00     0.012 A 
ATOM     34  C   UNL     1     -36.634  27.380   5.224  1.00  0.00     0.012 A 
ATOM     35  C   UNL     1     -34.517  27.212   7.041  1.00  0.00     0.001 A 
ATOM     36  C   UNL     1     -35.394  27.946   4.911  1.00  0.00     0.001 A 
ATOM     37  C   UNL     1     -34.337  27.863   5.820  1.00  0.00     0.000 A 
ENDBRANCH  25  32
ENDBRANCH   1  17
TORSDOF 9
ENDMDL
MODEL 2
REMARK VINA RESULT:    -0.769      1.161      1.630
REMARK INTER + INTRA:          -2.157
REMARK INTER:                  -1.662
REMARK INTRA:                  -0.495
REMARK UNBOUND:                -1.096
REMARK SMILES O=C([O-])[C@@H]1O[C@H](Oc2cc3oc(-c4ccccc4)cc(=O)c3c(O)c2O)[C@@H](O)[C@H](O)[C@H]1O
REMARK SMILES IDX 7 1 6 2 4 3 31 4 5 5 29 6 27 7 2 8 1 9 3 10 32 11 30 13
REMARK SMILES IDX 28 15 8 17 25 18 9 19 23 20 10 21 22 22 11 23 20 24 12 25
REMARK SMILES IDX 19 26 21 27 26 28 24 30 13 32 14 33 18 34 15 35 17 36 16 37
REMARK H PARENT 32 12 30 14 28 16 26 29 24 31
REMARK Flexibility Score: inf
ROOT
ATOM      1  O   UNL     1     -41.448  23.147  11.132  1.00  0.00    -0.458 OA
ENDROOT
BRANCH   1   2
ATOM      2  C   UNL     1     -40.370  23.191  12.071  1.00  0.00     0.339 C 
ATOM      3  C   UNL     1     -40.469  21.154  13.346  1.00  0.00     0.199 C 
ATOM      4  C   UNL     1     -40.405  20.451  11.968  1.00  0.00     0.180 C 
ATOM      5  O   UNL     1     -40.751  22.548  13.283  1.00  0.00    -0.328 OA
ATOM      6  C   UNL     1     -39.317  21.101  11.079  1.00  0.00     0.181 C 
ATOM      7  C   UNL     1     -39.104  22.593  11.431  1.00  0.00     0.214 C 
BRANCH   3   8
ATOM      8  C   UNL     1     -41.513  20.504  14.205  1.00  0.00     0.073 C 
ATOM      9  O   UNL     1     -41.513  19.255  14.370  1.00  0.00    -0.547 OA
ATOM     10  O   UNL     1     -42.470  21.281  14.845  1.00  0.00    -0.547 OA
ENDBRANCH   3   8
BRANCH   4  11
ATOM     11  O   UNL     1     -40.121  19.086  12.147  1.00  0.00    -0.387 OA
ATOM     12  H   UNL     1     -39.426  18.848  11.481  1.00  0.00     0.211 HD
ENDBRANCH   4  11
BRANCH   6  13
ATOM     13  O   UNL     1     -39.690  20.996   9.728  1.00  0.00    -0.387 OA
ATOM     14  H   UNL     1     -39.874  21.916   9.405  1.00  0.00     0.211 HD
ENDBRANCH   6  13
BRANCH   7  15
ATOM     15  O   UNL     1     -38.031  22.734  12.328  1.00  0.00    -0.384 OA
ATOM     16  H   UNL     1     -37.797  21.823  12.643  1.00  0.00     0.211 HD
ENDBRANCH   7  15
ENDBRANCH   1   2
BRANCH   1  17
ATOM     17  C   UNL     1     -41.530  23.831   9.907  1.00  0.00     0.172 A 
ATOM     18  C   UNL     1     -42.729  24.006   9.173  1.00  0.00     0.201 A 
ATOM     19  C   UNL     1     -40.342  24.375   9.420  1.00  0.00     0.098 A 
ATOM     20  C   UNL     1     -42.698  24.672   7.919  1.00  0.00     0.176 A 
ATOM     21  C   UNL     1     -40.306  25.071   8.215  1.00  0.00     0.146 A 
ATOM     22  C   UNL     1     -41.481  25.224   7.447  1.00  0.00     0.111 A 
ATOM     23  O   UNL     1     -39.152  25.582   7.799  1.00  0.00    -0.456 OA
ATOM     24  C   UNL     1     -41.373  25.926   6.227  1.00  0.00     0.197 A 
ATOM     25  C   UNL     1     -39.019  26.261   6.663  1.00  0.00     0.138 A 
ATOM     26  C   UNL     1     -40.137  26.442   5.834  1.00  0.00     0.100 A 
ATOM     27  O   UNL     1     -42.370  26.100   5.476  1.00  0.00    -0.289 OA
BRANCH  18  28
ATOM     28  O   UNL     1     -43.933  23.552   9.716  1.00  0.00    -0.502 OA
ATOM     29  H   UNL     1     -44.126  22.590   9.959  1.00  0.00     0.293 HD
ENDBRANCH  18  28
BRANCH  20  30
ATOM     30  O   UNL     1     -43.846  24.782   7.128  1.00  0.00    -0.504 OA
ATOM     31  H   UNL     1     -44.494  25.554   7.171  1.00  0.00     0.293 HD
ENDBRANCH  20  30
BRANCH  25  32
ATOM     32  C   UNL     1     -37.681  26.793   6.303  1.00  0.00     0.017 A 
ATOM     33  C   UNL     1     -37.492  27.622   5.178  1.00  0.00     0.012 A 
ATOM     34  C   UNL     1     -36.575  26.497   7.120  1.00  0.00     0.012 A 
ATOM     35  C   UNL     1     -36.222  28.125   4.875  1.00  0.00     0.001 A 
ATOM     36  C   UNL     1     -35.307  27.001   6.811  1.00  0.00     0.001 A 
ATOM     37  C   UNL     1     -35.131  27.813   5.689  1.00  0.00     0.000 A 
ENDBRANCH  25  32
ENDBRANCH   1  17
TORSDOF 9
ENDMDL
MODEL 3
REMARK VINA RESULT:    -0.117      2.768      8.076
REMARK INTER + INTRA:          -1.257
REMARK INTER:                  -0.233
REMARK INTRA:                  -1.025
REMARK UNBOUND:                -1.096
REMARK SMILES O=C([O-])[C@@H]1O[C@H](Oc2cc3oc(-c4ccccc4)cc(=O)c3c(O)c2O)[C@@H](O)[C@H](O)[C@H]1O
REMARK SMILES IDX 7 1 6 2 4 3 31 4 5 5 29 6 27 7 2 8 1 9 3 10 32 11 30 13
REMARK SMILES IDX 28 15 8 17 25 18 9 19 23 20 10 21 22 22 11 23 20 24 12 25
REMARK SMILES IDX 19 26 21 27 26 28 24 30 13 32 14 33 18 34 15 35 17 36 16 37
REMARK H PARENT 32 12 30 14 28 16 26 29 24 31
REMARK Flexibility Score: inf
ROOT
ATOM      1  O   UNL     1     -39.645  26.405   8.057  1.00  0.00    -0.458 OA
ENDROOT
BRANCH   1   2
ATOM      2  C   UNL     1     -39.093  25.463   7.134  1.00  0.00     0.339 C 
ATOM      3  C   UNL     1     -40.941  24.243   6.192  1.00  0.00     0.199 C 
ATOM      4  C   UNL     1     -41.484  25.639   5.802  1.00  0.00     0.180 C 
ATOM      5  O   UNL     1     -39.871  24.269   7.131  1.00  0.00    -0.328 OA
ATOM      6  C   UNL     1     -40.357  26.508   5.192  1.00  0.00     0.181 C 
ATOM      7  C   UNL     1     -38.966  26.114   5.745  1.00  0.00     0.214 C 
BRANCH   3   8
ATOM      8  C   UNL     1     -42.045  23.405   6.766  1.00  0.00     0.073 C 
ATOM      9  O   UNL     1     -42.806  23.878   7.652  1.00  0.00    -0.547 OA
ATOM     10  O   UNL     1     -42.251  22.112   6.301  1.00  0.00    -0.547 OA
ENDBRANCH   3   8
BRANCH   4  11
ATOM     11  O   UNL     1     -42.531  25.497   4.875  1.00  0.00    -0.387 OA
ATOM     12  H   UNL     1     -43.378  25.606   5.380  1.00  0.00     0.211 HD
ENDBRANCH   4  11
BRANCH   6  13
ATOM     13  O   UNL     1     -40.600  27.862   5.478  1.00  0.00    -0.387 OA
ATOM     14  H   UNL     1     -40.599  28.346   4.612  1.00  0.00     0.211 HD
ENDBRANCH   6  13
BRANCH   7  15
ATOM     15  O   UNL     1     -38.333  25.211   4.875  1.00  0.00    -0.384 OA
ATOM     16  H   UNL     1     -38.540  24.299   5.206  1.00  0.00     0.211 HD
ENDBRANCH   7  15
ENDBRANCH   1   2
BRANCH   1  17
ATOM     17  C   UNL     1     -40.571  26.143   9.080  1.00  0.00     0.172 A 
ATOM     18  C   UNL     1     -41.695  26.958   9.364  1.00  0.00     0.201 A 
ATOM     19  C   UNL     1     -40.351  24.991   9.834  1.00  0.00     0.098 A 
ATOM     20  C   UNL     1     -42.546  26.633  10.453  1.00  0.00     0.176 A 
ATOM     21  C   UNL     1     -41.205  24.635  10.875  1.00  0.00     0.146 A 
ATOM     22  C   UNL     1     -42.309  25.453  11.201  1.00  0.00     0.111 A 
ATOM     23  O   UNL     1     -40.961  23.521  11.557  1.00  0.00    -0.456 OA
ATOM     24  C   UNL     1     -43.125  25.043  12.278  1.00  0.00     0.197 A 
ATOM     25  C   UNL     1     -41.718  23.099  12.567  1.00  0.00     0.138 A 
ATOM     26  C   UNL     1     -42.825  23.865  12.963  1.00  0.00     0.100 A 
ATOM     27  O   UNL     1     -44.124  25.719  12.641  1.00  0.00    -0.289 OA
BRANCH  18  28
ATOM     28  O   UNL     1     -41.969  28.051   8.539  1.00  0.00    -0.502 OA
ATOM     29  H   UNL     1     -41.314  28.455   7.884  1.00  0.00     0.293 HD
ENDBRANCH  18  28
BRANCH  20  30
ATOM     30  O   UNL     1     -43.610  27.464  10.816  1.00  0.00    -0.504 OA
ATOM     31  H   UNL     1     -43.763  28.389  10.441  1.00  0.00     0.293 HD
ENDBRANCH  20  30
BRANCH  25  32
ATOM     32  C   UNL     1     -41.353  21.834  13.251  1.00  0.00     0.017 A 
ATOM     33  C   UNL     1     -41.870  21.503  14.520  1.00  0.00     0.012 A 
ATOM     34  C   UNL     1     -40.498  20.920  12.609  1.00  0.00     0.012 A 
ATOM     35  C   UNL     1     -41.525  20.293  15.132  1.00  0.00     0.001 A 
ATOM     36  C   UNL     1     -40.155  19.713  13.226  1.00  0.00     0.001 A 
ATOM     37  C   UNL     1     -40.667  19.401  14.487  1.00  0.00     0.000 A 
ENDBRANCH  25  32
ENDBRANCH   1  17
TORSDOF 9
ENDMDL
MODEL 4
REMARK VINA RESULT:     0.134      1.861      2.571
REMARK INTER + INTRA:          -0.911
REMARK INTER:                   0.391
REMARK INTRA:                  -1.302
REMARK UNBOUND:                -1.096
REMARK SMILES O=C([O-])[C@@H]1O[C@H](Oc2cc3oc(-c4ccccc4)cc(=O)c3c(O)c2O)[C@@H](O)[C@H](O)[C@H]1O
REMARK SMILES IDX 7 1 6 2 4 3 31 4 5 5 29 6 27 7 2 8 1 9 3 10 32 11 30 13
REMARK SMILES IDX 28 15 8 17 25 18 9 19 23 20 10 21 22 22 11 23 20 24 12 25
REMARK SMILES IDX 19 26 21 27 26 28 24 30 13 32 14 33 18 34 15 35 17 36 16 37
REMARK H PARENT 32 12 30 14 28 16 26 29 24 31
REMARK Flexibility Score: inf
ROOT
ATOM      1  O   UNL     1     -40.741  21.724  11.480  1.00  0.00    -0.458 OA
ENDROOT
BRANCH   1   2
ATOM      2  C   UNL     1     -39.559  21.342  12.188  1.00  0.00     0.339 C 
ATOM      3  C   UNL     1     -40.256  20.619  14.374  1.00  0.00     0.199 C 
ATOM      4  C   UNL     1     -41.174  19.638  13.605  1.00  0.00     0.180 C 
ATOM      5  O   UNL     1     -39.696  21.653  13.571  1.00  0.00    -0.328 OA
ATOM      6  C   UNL     1     -40.395  18.956  12.454  1.00  0.00     0.181 C 
ATOM      7  C   UNL     1     -39.254  19.857  11.921  1.00  0.00     0.214 C 
BRANCH   3   8
ATOM      8  C   UNL     1     -41.016  21.259  15.497  1.00  0.00     0.073 C 
ATOM      9  O   UNL     1     -40.406  21.690  16.512  1.00  0.00    -0.547 OA
ATOM     10  O   UNL     1     -42.395  21.405  15.411  1.00  0.00    -0.547 OA
ENDBRANCH   3   8
BRANCH   4  11
ATOM     11  O   UNL     1     -41.669  18.663  14.489  1.00  0.00    -0.387 OA
ATOM     12  H   UNL     1     -40.986  18.548  15.200  1.00  0.00     0.211 HD
ENDBRANCH   4  11
BRANCH   6  13
ATOM     13  O   UNL     1     -41.277  18.659  11.401  1.00  0.00    -0.387 OA
ATOM     14  H   UNL     1     -42.159  19.043  11.643  1.00  0.00     0.211 HD
ENDBRANCH   6  13
BRANCH   7  15
ATOM     15  O   UNL     1     -38.039  19.523  12.541  1.00  0.00    -0.384 OA
ATOM     16  H   UNL     1     -37.456  19.130  11.840  1.00  0.00     0.211 HD
ENDBRANCH   7  15
ENDBRANCH   1   2
BRANCH   1  17
ATOM     17  C   UNL     1     -41.097  23.018  11.065  1.00  0.00     0.172 A 
ATOM     18  C   UNL     1     -42.159  23.769  11.627  1.00  0.00     0.201 A 
ATOM     19  C   UNL     1     -40.326  23.577  10.047  1.00  0.00     0.098 A 
ATOM     20  C   UNL     1     -42.470  25.052  11.104  1.00  0.00     0.176 A 
ATOM     21  C   UNL     1     -40.590  24.852   9.556  1.00  0.00     0.146 A 
ATOM     22  C   UNL     1     -41.668  25.604  10.074  1.00  0.00     0.111 A 
ATOM     23  O   UNL     1     -39.820  25.346   8.594  1.00  0.00    -0.456 OA
ATOM     24  C   UNL     1     -41.892  26.884   9.521  1.00  0.00     0.197 A 
ATOM     25  C   UNL     1     -39.995  26.554   8.062  1.00  0.00     0.138 A 
ATOM     26  C   UNL     1     -41.054  27.356   8.510  1.00  0.00     0.100 A 
ATOM     27  O   UNL     1     -42.838  27.616   9.919  1.00  0.00    -0.289 OA
BRANCH  18  28
ATOM     28  O   UNL     1     -42.860  23.248  12.717  1.00  0.00    -0.502 OA
ATOM     29  H   UNL     1     -43.807  23.499  12.963  1.00  0.00     0.293 HD
ENDBRANCH  18  28
BRANCH  20  30
ATOM     30  O   UNL     1     -43.567  25.781  11.575  1.00  0.00    -0.504 OA
ATOM     31  H   UNL     1     -43.763  26.739  11.325  1.00  0.00     0.293 HD
ENDBRANCH  20  30
BRANCH  25  32
ATOM     32  C   UNL     1     -39.065  27.004   6.995  1.00  0.00     0.017 A 
ATOM     33  C   UNL     1     -39.526  27.694   5.856  1.00  0.00     0.012 A 
ATOM     34  C   UNL     1     -37.685  26.772   7.135  1.00  0.00     0.012 A 
ATOM     35  C   UNL     1     -38.624  28.125   4.877  1.00  0.00     0.001 A 
ATOM     36  C   UNL     1     -36.789  27.203   6.152  1.00  0.00     0.001 A 
ATOM     37  C   UNL     1     -37.258  27.877   5.024  1.00  0.00     0.000 A 
ENDBRANCH  25  32
ENDBRANCH   1  17
TORSDOF 9
ENDMDL
MODEL 5
REMARK VINA RESULT:     0.587      2.727      8.741
REMARK INTER + INTRA:          -0.285
REMARK INTER:                   0.158
REMARK INTRA:                  -0.444
REMARK UNBOUND:                -1.096
REMARK SMILES O=C([O-])[C@@H]1O[C@H](Oc2cc3oc(-c4ccccc4)cc(=O)c3c(O)c2O)[C@@H](O)[C@H](O)[C@H]1O
REMARK SMILES IDX 7 1 6 2 4 3 31 4 5 5 29 6 27 7 2 8 1 9 3 10 32 11 30 13
REMARK SMILES IDX 28 15 8 17 25 18 9 19 23 20 10 21 22 22 11 23 20 24 12 25
REMARK SMILES IDX 19 26 21 27 26 28 24 30 13 32 14 33 18 34 15 35 17 36 16 37
REMARK H PARENT 32 12 30 14 28 16 26 29 24 31
REMARK Flexibility Score: inf
ROOT
ATOM      1  O   UNL     1     -41.009  25.829   8.029  1.00  0.00    -0.458 OA
ENDROOT
BRANCH   1   2
ATOM      2  C   UNL     1     -40.960  26.939   7.130  1.00  0.00     0.339 C 
ATOM      3  C   UNL     1     -38.732  27.007   6.222  1.00  0.00     0.199 C 
ATOM      4  C   UNL     1     -39.011  25.545   5.797  1.00  0.00     0.180 C 
ATOM      5  O   UNL     1     -39.666  27.535   7.159  1.00  0.00    -0.328 OA
ATOM      6  C   UNL     1     -40.418  25.423   5.163  1.00  0.00     0.181 C 
ATOM      7  C   UNL     1     -41.394  26.485   5.724  1.00  0.00     0.214 C 
BRANCH   3   8
ATOM      8  C   UNL     1     -37.360  27.115   6.818  1.00  0.00     0.073 C 
ATOM      9  O   UNL     1     -36.594  28.056   6.479  1.00  0.00    -0.547 OA
ATOM     10  O   UNL     1     -36.939  26.194   7.769  1.00  0.00    -0.547 OA
ENDBRANCH   3   8
BRANCH   4  11
ATOM     11  O   UNL     1     -38.035  25.127   4.875  1.00  0.00    -0.387 OA
ATOM     12  H   UNL     1     -37.158  25.430   5.229  1.00  0.00     0.211 HD
ENDBRANCH   4  11
BRANCH   6  13
ATOM     13  O   UNL     1     -40.938  24.142   5.414  1.00  0.00    -0.387 OA
ATOM     14  H   UNL     1     -41.587  23.946   4.691  1.00  0.00     0.211 HD
ENDBRANCH   6  13
BRANCH   7  15
ATOM     15  O   UNL     1     -41.436  27.605   4.877  1.00  0.00    -0.384 OA
ATOM     16  H   UNL     1     -42.358  27.969   4.926  1.00  0.00     0.211 HD
ENDBRANCH   7  15
ENDBRANCH   1   2
BRANCH   1  17
ATOM     17  C   UNL     1     -41.651  25.780   9.278  1.00  0.00     0.172 A 
ATOM     18  C   UNL     1     -42.522  26.786   9.764  1.00  0.00     0.201 A 
ATOM     19  C   UNL     1     -41.406  24.649  10.057  1.00  0.00     0.098 A 
ATOM     20  C   UNL     1     -43.084  26.666  11.063  1.00  0.00     0.176 A 
ATOM     21  C   UNL     1     -41.987  24.497  11.312  1.00  0.00     0.146 A 
ATOM     22  C   UNL     1     -42.828  25.505  11.833  1.00  0.00     0.111 A 
ATOM     23  O   UNL     1     -41.734  23.396  12.011  1.00  0.00    -0.456 OA
ATOM     24  C   UNL     1     -43.372  25.295  13.120  1.00  0.00     0.197 A 
ATOM     25  C   UNL     1     -42.241  23.162  13.219  1.00  0.00     0.138 A 
ATOM     26  C   UNL     1     -43.074  24.122  13.814  1.00  0.00     0.100 A 
ATOM     27  O   UNL     1     -44.125  26.148  13.663  1.00  0.00    -0.289 OA
BRANCH  18  28
ATOM     28  O   UNL     1     -42.847  27.863   8.937  1.00  0.00    -0.502 OA
ATOM     29  H   UNL     1     -43.779  28.237   8.820  1.00  0.00     0.293 HD
ENDBRANCH  18  28
BRANCH  20  30
ATOM     30  O   UNL     1     -43.875  27.682  11.607  1.00  0.00    -0.504 OA
ATOM     31  H   UNL     1     -43.550  28.356  12.284  1.00  0.00     0.293 HD
ENDBRANCH  20  30
BRANCH  25  32
ATOM     32  C   UNL     1     -41.894  21.891  13.904  1.00  0.00     0.017 A 
ATOM     33  C   UNL     1     -42.672  21.386  14.966  1.00  0.00     0.012 A 
ATOM     34  C   UNL     1     -40.783  21.148  13.465  1.00  0.00     0.012 A 
ATOM     35  C   UNL     1     -42.332  20.176  15.579  1.00  0.00     0.001 A 
ATOM     36  C   UNL     1     -40.447  19.940  14.083  1.00  0.00     0.001 A 
ATOM     37  C   UNL     1     -41.220  19.455  15.139  1.00  0.00     0.000 A 
ENDBRANCH  25  32
ENDBRANCH   1  17
TORSDOF 9
ENDMDL
MODEL 6
REMARK VINA RESULT:     0.660      2.396      8.505
REMARK INTER + INTRA:          -0.185
REMARK INTER:                   0.256
REMARK INTRA:                  -0.441
REMARK UNBOUND:                -1.096
REMARK SMILES O=C([O-])[C@@H]1O[C@H](Oc2cc3oc(-c4ccccc4)cc(=O)c3c(O)c2O)[C@@H](O)[C@H](O)[C@H]1O
REMARK SMILES IDX 7 1 6 2 4 3 31 4 5 5 29 6 27 7 2 8 1 9 3 10 32 11 30 13
REMARK SMILES IDX 28 15 8 17 25 18 9 19 23 20 10 21 22 22 11 23 20 24 12 25
REMARK SMILES IDX 19 26 21 27 26 28 24 30 13 32 14 33 18 34 15 35 17 36 16 37
REMARK H PARENT 32 12 30 14 28 16 26 29 24 31
REMARK Flexibility Score: inf
ROOT
ATOM      1  O   UNL     1     -39.549  25.875   7.740  1.00  0.00    -0.458 OA
ENDROOT
BRANCH   1   2
ATOM      2  C   UNL     1     -39.313  27.097   7.037  1.00  0.00     0.339 C 
ATOM      3  C   UNL     1     -36.989  27.108   6.414  1.00  0.00     0.199 C 
ATOM      4  C   UNL     1     -37.307  25.753   5.736  1.00  0.00     0.180 C 
ATOM      5  O   UNL     1     -37.997  27.570   7.307  1.00  0.00    -0.328 OA
ATOM      6  C   UNL     1     -38.627  25.845   4.934  1.00  0.00     0.181 C 
ATOM      7  C   UNL     1     -39.594  26.893   5.537  1.00  0.00     0.214 C 
BRANCH   3   8
ATOM      8  C   UNL     1     -35.700  27.011   7.174  1.00  0.00     0.073 C 
ATOM      9  O   UNL     1     -35.596  26.220   8.149  1.00  0.00    -0.547 OA
ATOM     10  O   UNL     1     -34.605  27.774   6.789  1.00  0.00    -0.547 OA
ENDBRANCH   3   8
BRANCH   4  11
ATOM     11  O   UNL     1     -36.252  25.394   4.880  1.00  0.00    -0.387 OA
ATOM     12  H   UNL     1     -36.619  25.391   3.958  1.00  0.00     0.211 HD
ENDBRANCH   4  11
BRANCH   6  13
ATOM     13  O   UNL     1     -39.259  24.590   4.920  1.00  0.00    -0.387 OA
ATOM     14  H   UNL     1     -40.189  24.736   4.608  1.00  0.00     0.211 HD
ENDBRANCH   6  13
BRANCH   7  15
ATOM     15  O   UNL     1     -39.454  28.124   4.876  1.00  0.00    -0.384 OA
ATOM     16  H   UNL     1     -39.078  27.929   3.979  1.00  0.00     0.211 HD
ENDBRANCH   7  15
ENDBRANCH   1   2
BRANCH   1  17
ATOM     17  C   UNL     1     -40.482  25.658   8.769  1.00  0.00     0.172 A 
ATOM     18  C   UNL     1     -41.642  26.446   8.969  1.00  0.00     0.201 A 
ATOM     19  C   UNL     1     -40.229  24.581   9.617  1.00  0.00     0.098 A 
ATOM     20  C   UNL     1     -42.498  26.175  10.069  1.00  0.00     0.176 A 
ATOM     21  C   UNL     1     -41.085  24.275  10.672  1.00  0.00     0.146 A 
ATOM     22  C   UNL     1     -42.226  25.071  10.914  1.00  0.00     0.111 A 
ATOM     23  O   UNL     1     -40.808  23.231  11.445  1.00  0.00    -0.456 OA
ATOM     24  C   UNL     1     -43.043  24.716  12.010  1.00  0.00     0.197 A 
ATOM     25  C   UNL     1     -41.565  22.862  12.476  1.00  0.00     0.138 A 
ATOM     26  C   UNL     1     -42.708  23.611  12.793  1.00  0.00     0.100 A 
ATOM     27  O   UNL     1     -44.076  25.377  12.303  1.00  0.00    -0.289 OA
BRANCH  18  28
ATOM     28  O   UNL     1     -41.946  27.456   8.054  1.00  0.00    -0.502 OA
ATOM     29  H   UNL     1     -42.672  27.396   7.354  1.00  0.00     0.293 HD
ENDBRANCH  18  28
BRANCH  20  30
ATOM     30  O   UNL     1     -43.601  26.988  10.348  1.00  0.00    -0.504 OA
ATOM     31  H   UNL     1     -44.560  26.719  10.188  1.00  0.00     0.293 HD
ENDBRANCH  20  30
BRANCH  25  32
ATOM     32  C   UNL     1     -41.161  21.672  13.266  1.00  0.00     0.017 A 
ATOM     33  C   UNL     1     -41.458  21.561  14.640  1.00  0.00     0.012 A 
ATOM     34  C   UNL     1     -40.497  20.609  12.628  1.00  0.00     0.012 A 
ATOM     35  C   UNL     1     -41.083  20.418  15.355  1.00  0.00     0.001 A 
ATOM     36  C   UNL     1     -40.122  19.470  13.349  1.00  0.00     0.001 A 
ATOM     37  C   UNL     1     -40.414  19.376  14.710  1.00  0.00     0.000 A 
ENDBRANCH  25  32
ENDBRANCH   1  17
TORSDOF 9
ENDMDL
