MODEL 1
REMARK VINA RESULT:    -4.855      0.000      0.000
REMARK INTER + INTRA:          -9.845
REMARK INTER:                  -7.409
REMARK INTRA:                  -2.436
REMARK UNBOUND:                -2.436
REMARK SMILES COc1cc(C=CC(=O)CC(=O)C=Cc2ccc(O)c(OC)c2)ccc1O
REMARK SMILES IDX 10 1 8 2 9 3 7 4 6 5 5 6 3 7 26 8 4 9 25 10 24 11 2 12 1 13
REMARK SMILES IDX 27 14 11 16 12 17 13 18 14 19 15 20 23 21 16 22 20 23 17 24
REMARK SMILES IDX 18 25 21 26 22 27 19 28
REMARK H PARENT 27 15 19 29
REMARK Flexibility Score: inf
ROOT
ATOM      1  C   UNL     1     102.529 116.129  92.371  1.00  0.00     0.160 C 
ENDROOT
BRANCH   1   2
ATOM      2  C   UNL     1     103.185 114.808  92.070  1.00  0.00     0.163 C 
ATOM      3  O   UNL     1     104.400 114.641  92.368  1.00  0.00    -0.294 OA
BRANCH   2   4
ATOM      4  C   UNL     1     102.395 113.699  91.490  1.00  0.00     0.048 C 
ATOM      5  C   UNL     1     102.615 113.123  90.297  1.00  0.00     0.012 C 
BRANCH   5   6
ATOM      6  C   UNL     1     103.576 113.590  89.271  1.00  0.00    -0.022 A 
ATOM      7  C   UNL     1     104.136 114.943  87.310  1.00  0.00     0.161 A 
ATOM      8  C   UNL     1     105.417 114.358  87.286  1.00  0.00     0.157 A 
ATOM      9  C   UNL     1     103.212 114.536  88.294  1.00  0.00     0.058 A 
ATOM     10  C   UNL     1     105.756 113.379  88.224  1.00  0.00     0.051 A 
ATOM     11  C   UNL     1     104.842 112.992  89.205  1.00  0.00     0.012 A 
BRANCH   7  12
ATOM     12  O   UNL     1     103.814 115.910  86.345  1.00  0.00    -0.493 OA
ATOM     13  C   UNL     1     103.176 117.152  86.626  1.00  0.00     0.278 C 
ENDBRANCH   7  12
BRANCH   8  14
ATOM     14  O   UNL     1     106.363 114.734  86.332  1.00  0.00    -0.504 OA
ATOM     15  H   UNL     1     107.201 115.250  86.577  1.00  0.00     0.293 HD
ENDBRANCH   8  14
ENDBRANCH   5   6
ENDBRANCH   2   4
ENDBRANCH   1   2
BRANCH   1  16
ATOM     16  C   UNL     1     101.697 116.639  91.217  1.00  0.00     0.163 C 
ATOM     17  O   UNL     1     102.258 116.968  90.135  1.00  0.00    -0.294 OA
BRANCH  16  18
ATOM     18  C   UNL     1     100.270 116.978  91.385  1.00  0.00     0.048 C 
ATOM     19  C   UNL     1      99.230 116.264  90.930  1.00  0.00     0.012 C 
BRANCH  19  20
ATOM     20  C   UNL     1      99.303 115.110  90.005  1.00  0.00    -0.022 A 
ATOM     21  C   UNL     1      99.080 113.819  90.510  1.00  0.00     0.058 A 
ATOM     22  C   UNL     1      99.494 115.284  88.624  1.00  0.00     0.012 A 
ATOM     23  C   UNL     1      99.098 112.701  89.652  1.00  0.00     0.161 A 
ATOM     24  C   UNL     1      99.528 114.178  87.772  1.00  0.00     0.051 A 
ATOM     25  C   UNL     1      99.338 112.888  88.283  1.00  0.00     0.157 A 
BRANCH  23  26
ATOM     26  O   UNL     1      98.875 111.395  90.121  1.00  0.00    -0.493 OA
ATOM     27  C   UNL     1      99.777 110.669  90.950  1.00  0.00     0.278 C 
ENDBRANCH  23  26
BRANCH  25  28
ATOM     28  O   UNL     1      99.376 111.786  87.430  1.00  0.00    -0.504 OA
ATOM     29  H   UNL     1      98.607 111.130  87.377  1.00  0.00     0.293 HD
ENDBRANCH  25  28
ENDBRANCH  19  20
ENDBRANCH  16  18
ENDBRANCH   1  16
TORSDOF 10
ENDMDL
MODEL 2
REMARK VINA RESULT:    -4.815      5.026      9.141
REMARK INTER + INTRA:          -9.785
REMARK INTER:                  -8.773
REMARK INTRA:                  -1.011
REMARK UNBOUND:                -2.436
REMARK SMILES COc1cc(C=CC(=O)CC(=O)C=Cc2ccc(O)c(OC)c2)ccc1O
REMARK SMILES IDX 10 1 8 2 9 3 7 4 6 5 5 6 3 7 26 8 4 9 25 10 24 11 2 12 1 13
REMARK SMILES IDX 27 14 11 16 12 17 13 18 14 19 15 20 23 21 16 22 20 23 17 24
REMARK SMILES IDX 18 25 21 26 22 27 19 28
REMARK H PARENT 27 15 19 29
REMARK Flexibility Score: inf
ROOT
ATOM      1  C   UNL     1     103.584 114.485  83.969  1.00  0.00     0.160 C 
ENDROOT
BRANCH   1   2
ATOM      2  C   UNL     1     102.477 115.138  84.754  1.00  0.00     0.163 C 
ATOM      3  O   UNL     1     101.521 114.432  85.176  1.00  0.00    -0.294 OA
BRANCH   2   4
ATOM      4  C   UNL     1     102.546 116.580  85.079  1.00  0.00     0.048 C 
ATOM      5  C   UNL     1     103.027 117.102  86.220  1.00  0.00     0.012 C 
BRANCH   5   6
ATOM      6  C   UNL     1     103.422 116.338  87.425  1.00  0.00    -0.022 A 
ATOM      7  C   UNL     1     103.152 115.765  89.790  1.00  0.00     0.161 A 
ATOM      8  C   UNL     1     104.287 114.935  89.707  1.00  0.00     0.157 A 
ATOM      9  C   UNL     1     102.738 116.482  88.648  1.00  0.00     0.058 A 
ATOM     10  C   UNL     1     104.996 114.837  88.506  1.00  0.00     0.051 A 
ATOM     11  C   UNL     1     104.571 115.538  87.376  1.00  0.00     0.012 A 
BRANCH   7  12
ATOM     12  O   UNL     1     102.470 115.860  91.012  1.00  0.00    -0.493 OA
ATOM     13  C   UNL     1     101.645 116.956  91.397  1.00  0.00     0.278 C 
ENDBRANCH   7  12
BRANCH   8  14
ATOM     14  O   UNL     1     104.729 114.205  90.811  1.00  0.00    -0.504 OA
ATOM     15  H   UNL     1     104.794 113.194  90.798  1.00  0.00     0.293 HD
ENDBRANCH   8  14
ENDBRANCH   5   6
ENDBRANCH   2   4
ENDBRANCH   1   2
BRANCH   1  16
ATOM     16  C   UNL     1     103.199 114.228  82.531  1.00  0.00     0.163 C 
ATOM     17  O   UNL     1     103.427 113.100  82.011  1.00  0.00    -0.294 OA
BRANCH  16  18
ATOM     18  C   UNL     1     102.768 115.323  81.640  1.00  0.00     0.048 C 
ATOM     19  C   UNL     1     103.549 116.002  80.787  1.00  0.00     0.012 C 
BRANCH  19  20
ATOM     20  C   UNL     1     105.026 115.930  80.712  1.00  0.00    -0.022 A 
ATOM     21  C   UNL     1     105.628 115.577  79.494  1.00  0.00     0.058 A 
ATOM     22  C   UNL     1     105.837 116.296  81.799  1.00  0.00     0.012 A 
ATOM     23  C   UNL     1     107.031 115.540  79.372  1.00  0.00     0.161 A 
ATOM     24  C   UNL     1     107.228 116.245  81.688  1.00  0.00     0.051 A 
ATOM     25  C   UNL     1     107.827 115.862  80.481  1.00  0.00     0.157 A 
BRANCH  23  26
ATOM     26  O   UNL     1     107.668 115.197  78.168  1.00  0.00    -0.493 OA
ATOM     27  C   UNL     1     107.905 116.100  77.092  1.00  0.00     0.278 C 
ENDBRANCH  23  26
BRANCH  25  28
ATOM     28  O   UNL     1     109.216 115.810  80.375  1.00  0.00    -0.504 OA
ATOM     29  H   UNL     1     109.735 114.977  80.625  1.00  0.00     0.293 HD
ENDBRANCH  25  28
ENDBRANCH  19  20
ENDBRANCH  16  18
ENDBRANCH   1  16
TORSDOF 10
ENDMDL
MODEL 3
REMARK VINA RESULT:    -4.761      2.140      5.062
REMARK INTER + INTRA:          -9.702
REMARK INTER:                  -7.163
REMARK INTRA:                  -2.539
REMARK UNBOUND:                -2.436
REMARK SMILES COc1cc(C=CC(=O)CC(=O)C=Cc2ccc(O)c(OC)c2)ccc1O
REMARK SMILES IDX 10 1 8 2 9 3 7 4 6 5 5 6 3 7 26 8 4 9 25 10 24 11 2 12 1 13
REMARK SMILES IDX 27 14 11 16 12 17 13 18 14 19 15 20 23 21 16 22 20 23 17 24
REMARK SMILES IDX 18 25 21 26 22 27 19 28
REMARK H PARENT 27 15 19 29
REMARK Flexibility Score: inf
ROOT
ATOM      1  C   UNL     1      98.972 113.897  90.493  1.00  0.00     0.160 C 
ENDROOT
BRANCH   1   2
ATOM      2  C   UNL     1      99.230 115.290  89.980  1.00  0.00     0.163 C 
ATOM      3  O   UNL     1      99.137 115.517  88.743  1.00  0.00    -0.294 OA
BRANCH   2   4
ATOM      4  C   UNL     1      99.527 116.388  90.926  1.00  0.00     0.048 C 
ATOM      5  C   UNL     1     100.754 116.800  91.285  1.00  0.00     0.012 C 
BRANCH   5   6
ATOM      6  C   UNL     1     102.030 116.133  90.938  1.00  0.00    -0.022 A 
ATOM      7  C   UNL     1     103.875 114.614  91.468  1.00  0.00     0.161 A 
ATOM      8  C   UNL     1     104.507 114.980  90.264  1.00  0.00     0.157 A 
ATOM      9  C   UNL     1     102.644 115.213  91.809  1.00  0.00     0.058 A 
ATOM     10  C   UNL     1     103.921 115.934  89.428  1.00  0.00     0.051 A 
ATOM     11  C   UNL     1     102.696 116.512  89.764  1.00  0.00     0.012 A 
BRANCH   7  12
ATOM     12  O   UNL     1     104.493 113.667  92.299  1.00  0.00    -0.493 OA
ATOM     13  C   UNL     1     104.677 113.819  93.703  1.00  0.00     0.278 C 
ENDBRANCH   7  12
BRANCH   8  14
ATOM     14  O   UNL     1     105.723 114.408  89.887  1.00  0.00    -0.504 OA
ATOM     15  H   UNL     1     105.963 114.243  88.916  1.00  0.00     0.293 HD
ENDBRANCH   8  14
ENDBRANCH   5   6
ENDBRANCH   2   4
ENDBRANCH   1   2
BRANCH   1  16
ATOM     16  C   UNL     1      99.622 112.835  89.638  1.00  0.00     0.163 C 
ATOM     17  O   UNL     1      98.905 112.016  88.999  1.00  0.00    -0.294 OA
BRANCH  16  18
ATOM     18  C   UNL     1     101.075 112.578  89.697  1.00  0.00     0.048 C 
ATOM     19  C   UNL     1     101.962 112.830  88.723  1.00  0.00     0.012 C 
BRANCH  19  20
ATOM     20  C   UNL     1     101.641 113.223  87.332  1.00  0.00    -0.022 A 
ATOM     21  C   UNL     1     101.880 114.547  86.928  1.00  0.00     0.058 A 
ATOM     22  C   UNL     1     101.195 112.286  86.386  1.00  0.00     0.012 A 
ATOM     23  C   UNL     1     101.629 114.947  85.601  1.00  0.00     0.161 A 
ATOM     24  C   UNL     1     100.929 112.681  85.074  1.00  0.00     0.051 A 
ATOM     25  C   UNL     1     101.138 114.010  84.680  1.00  0.00     0.157 A 
BRANCH  23  26
ATOM     26  O   UNL     1     101.860 116.261  85.160  1.00  0.00    -0.493 OA
ATOM     27  C   UNL     1     102.707 117.198  85.819  1.00  0.00     0.278 C 
ENDBRANCH  23  26
BRANCH  25  28
ATOM     28  O   UNL     1     100.867 114.402  83.371  1.00  0.00    -0.504 OA
ATOM     29  H   UNL     1     101.570 114.849  82.796  1.00  0.00     0.293 HD
ENDBRANCH  25  28
ENDBRANCH  19  20
ENDBRANCH  16  18
ENDBRANCH   1  16
TORSDOF 10
ENDMDL
MODEL 4
REMARK VINA RESULT:    -4.737      2.166      5.966
REMARK INTER + INTRA:          -9.665
REMARK INTER:                  -6.987
REMARK INTRA:                  -2.678
REMARK UNBOUND:                -2.436
REMARK SMILES COc1cc(C=CC(=O)CC(=O)C=Cc2ccc(O)c(OC)c2)ccc1O
REMARK SMILES IDX 10 1 8 2 9 3 7 4 6 5 5 6 3 7 26 8 4 9 25 10 24 11 2 12 1 13
REMARK SMILES IDX 27 14 11 16 12 17 13 18 14 19 15 20 23 21 16 22 20 23 17 24
REMARK SMILES IDX 18 25 21 26 22 27 19 28
REMARK H PARENT 27 15 19 29
REMARK Flexibility Score: inf
ROOT
ATOM      1  C   UNL     1     101.918 114.006  85.966  1.00  0.00     0.160 C 
ENDROOT
BRANCH   1   2
ATOM      2  C   UNL     1     101.897 112.800  86.867  1.00  0.00     0.163 C 
ATOM      3  O   UNL     1     102.849 112.617  87.673  1.00  0.00    -0.294 OA
BRANCH   2   4
ATOM      4  C   UNL     1     100.740 111.877  86.849  1.00  0.00     0.048 C 
ATOM      5  C   UNL     1      99.806 111.776  87.810  1.00  0.00     0.012 C 
BRANCH   5   6
ATOM      6  C   UNL     1      99.846 112.439  89.133  1.00  0.00    -0.022 A 
ATOM      7  C   UNL     1     100.647 112.583  91.442  1.00  0.00     0.161 A 
ATOM      8  C   UNL     1      99.797 113.686  91.656  1.00  0.00     0.157 A 
ATOM      9  C   UNL     1     100.649 111.950  90.181  1.00  0.00     0.058 A 
ATOM     10  C   UNL     1      98.962 114.135  90.629  1.00  0.00     0.051 A 
ATOM     11  C   UNL     1      98.980 113.513  89.380  1.00  0.00     0.012 A 
BRANCH   7  12
ATOM     12  O   UNL     1     101.463 112.141  92.494  1.00  0.00    -0.493 OA
ATOM     13  C   UNL     1     102.448 111.120  92.381  1.00  0.00     0.278 C 
ENDBRANCH   7  12
BRANCH   8  14
ATOM     14  O   UNL     1      99.767 114.344  92.887  1.00  0.00    -0.504 OA
ATOM     15  H   UNL     1      99.821 113.845  93.767  1.00  0.00     0.293 HD
ENDBRANCH   8  14
ENDBRANCH   5   6
ENDBRANCH   2   4
ENDBRANCH   1   2
BRANCH   1  16
ATOM     16  C   UNL     1     101.635 115.290  86.710  1.00  0.00     0.163 C 
ATOM     17  O   UNL     1     100.481 115.506  87.174  1.00  0.00    -0.294 OA
BRANCH  16  18
ATOM     18  C   UNL     1     102.603 116.405  86.720  1.00  0.00     0.048 C 
ATOM     19  C   UNL     1     103.394 116.755  87.746  1.00  0.00     0.012 C 
BRANCH  19  20
ATOM     20  C   UNL     1     103.315 116.227  89.127  1.00  0.00    -0.022 A 
ATOM     21  C   UNL     1     102.376 116.780  90.013  1.00  0.00     0.058 A 
ATOM     22  C   UNL     1     104.086 115.128  89.540  1.00  0.00     0.012 A 
ATOM     23  C   UNL     1     102.241 116.274  91.321  1.00  0.00     0.161 A 
ATOM     24  C   UNL     1     103.967 114.633  90.841  1.00  0.00     0.051 A 
ATOM     25  C   UNL     1     103.053 115.207  91.734  1.00  0.00     0.157 A 
BRANCH  23  26
ATOM     26  O   UNL     1     101.311 116.799  92.233  1.00  0.00    -0.493 OA
ATOM     27  C   UNL     1     101.346 118.125  92.752  1.00  0.00     0.278 C 
ENDBRANCH  23  26
BRANCH  25  28
ATOM     28  O   UNL     1     102.940 114.714  93.032  1.00  0.00    -0.504 OA
ATOM     29  H   UNL     1     102.314 115.135  93.706  1.00  0.00     0.293 HD
ENDBRANCH  25  28
ENDBRANCH  19  20
ENDBRANCH  16  18
ENDBRANCH   1  16
TORSDOF 10
ENDMDL
MODEL 5
REMARK VINA RESULT:    -4.734      5.311      8.543
REMARK INTER + INTRA:          -9.661
REMARK INTER:                  -7.767
REMARK INTRA:                  -1.894
REMARK UNBOUND:                -2.436
REMARK SMILES COc1cc(C=CC(=O)CC(=O)C=Cc2ccc(O)c(OC)c2)ccc1O
REMARK SMILES IDX 10 1 8 2 9 3 7 4 6 5 5 6 3 7 26 8 4 9 25 10 24 11 2 12 1 13
REMARK SMILES IDX 27 14 11 16 12 17 13 18 14 19 15 20 23 21 16 22 20 23 17 24
REMARK SMILES IDX 18 25 21 26 22 27 19 28
REMARK H PARENT 27 15 19 29
REMARK Flexibility Score: inf
ROOT
ATOM      1  C   UNL     1     101.446 114.826  81.940  1.00  0.00     0.160 C 
ENDROOT
BRANCH   1   2
ATOM      2  C   UNL     1     101.717 114.698  80.464  1.00  0.00     0.163 C 
ATOM      3  O   UNL     1     101.849 113.550  79.959  1.00  0.00    -0.294 OA
BRANCH   2   4
ATOM      4  C   UNL     1     101.764 115.904  79.609  1.00  0.00     0.048 C 
ATOM      5  C   UNL     1     102.864 116.625  79.333  1.00  0.00     0.012 C 
BRANCH   5   6
ATOM      6  C   UNL     1     104.195 116.450  79.958  1.00  0.00    -0.022 A 
ATOM      7  C   UNL     1     106.431 115.454  80.010  1.00  0.00     0.161 A 
ATOM      8  C   UNL     1     106.668 116.078  81.250  1.00  0.00     0.157 A 
ATOM      9  C   UNL     1     105.181 115.627  79.380  1.00  0.00     0.058 A 
ATOM     10  C   UNL     1     105.667 116.850  81.848  1.00  0.00     0.051 A 
ATOM     11  C   UNL     1     104.438 117.030  81.211  1.00  0.00     0.012 A 
BRANCH   7  12
ATOM     12  O   UNL     1     107.445 114.669  79.441  1.00  0.00    -0.493 OA
ATOM     13  C   UNL     1     108.458 115.163  78.570  1.00  0.00     0.278 C 
ENDBRANCH   7  12
BRANCH   8  14
ATOM     14  O   UNL     1     107.892 115.936  81.906  1.00  0.00    -0.504 OA
ATOM     15  H   UNL     1     108.418 116.734  82.243  1.00  0.00     0.293 HD
ENDBRANCH   8  14
ENDBRANCH   5   6
ENDBRANCH   2   4
ENDBRANCH   1   2
BRANCH   1  16
ATOM     16  C   UNL     1     102.189 113.793  82.756  1.00  0.00     0.163 C 
ATOM     17  O   UNL     1     101.574 113.125  83.633  1.00  0.00    -0.294 OA
BRANCH  16  18
ATOM     18  C   UNL     1     103.661 113.693  82.719  1.00  0.00     0.048 C 
ATOM     19  C   UNL     1     104.506 114.121  83.669  1.00  0.00     0.012 C 
BRANCH  19  20
ATOM     20  C   UNL     1     104.150 114.950  84.843  1.00  0.00    -0.022 A 
ATOM     21  C   UNL     1     104.688 114.620  86.097  1.00  0.00     0.058 A 
ATOM     22  C   UNL     1     103.368 116.110  84.715  1.00  0.00     0.012 A 
ATOM     23  C   UNL     1     104.408 115.411  87.228  1.00  0.00     0.161 A 
ATOM     24  C   UNL     1     103.074 116.889  85.836  1.00  0.00     0.051 A 
ATOM     25  C   UNL     1     103.585 116.540  87.092  1.00  0.00     0.157 A 
BRANCH  23  26
ATOM     26  O   UNL     1     104.932 115.114  88.497  1.00  0.00    -0.493 OA
ATOM     27  C   UNL     1     104.414 114.118  89.373  1.00  0.00     0.278 C 
ENDBRANCH  23  26
BRANCH  25  28
ATOM     28  O   UNL     1     103.287 117.317  88.209  1.00  0.00    -0.504 OA
ATOM     29  H   UNL     1     103.009 118.286  88.122  1.00  0.00     0.293 HD
ENDBRANCH  25  28
ENDBRANCH  19  20
ENDBRANCH  16  18
ENDBRANCH   1  16
TORSDOF 10
ENDMDL
MODEL 6
REMARK VINA RESULT:    -4.694      1.881      4.637
REMARK INTER + INTRA:          -9.600
REMARK INTER:                  -7.175
REMARK INTRA:                  -2.426
REMARK UNBOUND:                -2.436
REMARK SMILES COc1cc(C=CC(=O)CC(=O)C=Cc2ccc(O)c(OC)c2)ccc1O
REMARK SMILES IDX 10 1 8 2 9 3 7 4 6 5 5 6 3 7 26 8 4 9 25 10 24 11 2 12 1 13
REMARK SMILES IDX 27 14 11 16 12 17 13 18 14 19 15 20 23 21 16 22 20 23 17 24
REMARK SMILES IDX 18 25 21 26 22 27 19 28
REMARK H PARENT 27 15 19 29
REMARK Flexibility Score: inf
ROOT
ATOM      1  C   UNL     1     101.050 115.389  87.120  1.00  0.00     0.160 C 
ENDROOT
BRANCH   1   2
ATOM      2  C   UNL     1     102.375 116.105  87.086  1.00  0.00     0.163 C 
ATOM      3  O   UNL     1     102.940 116.303  85.976  1.00  0.00    -0.294 OA
BRANCH   2   4
ATOM      4  C   UNL     1     102.971 116.625  88.336  1.00  0.00     0.048 C 
ATOM      5  C   UNL     1     104.027 116.096  88.978  1.00  0.00     0.012 C 
BRANCH   5   6
ATOM      6  C   UNL     1     104.685 114.810  88.653  1.00  0.00    -0.022 A 
ATOM      7  C   UNL     1     105.274 112.498  89.202  1.00  0.00     0.161 A 
ATOM      8  C   UNL     1     106.045 112.426  88.025  1.00  0.00     0.157 A 
ATOM      9  C   UNL     1     104.614 113.703  89.520  1.00  0.00     0.058 A 
ATOM     10  C   UNL     1     106.158 113.545  87.194  1.00  0.00     0.051 A 
ATOM     11  C   UNL     1     105.489 114.729  87.507  1.00  0.00     0.012 A 
BRANCH   7  12
ATOM     12  O   UNL     1     105.191 111.367  90.028  1.00  0.00    -0.493 OA
ATOM     13  C   UNL     1     105.953 111.175  91.216  1.00  0.00     0.278 C 
ENDBRANCH   7  12
BRANCH   8  14
ATOM     14  O   UNL     1     106.711 111.252  87.670  1.00  0.00    -0.504 OA
ATOM     15  H   UNL     1     106.302 110.336  87.813  1.00  0.00     0.293 HD
ENDBRANCH   8  14
ENDBRANCH   5   6
ENDBRANCH   2   4
ENDBRANCH   1   2
BRANCH   1  16
ATOM     16  C   UNL     1     101.184 113.945  87.545  1.00  0.00     0.163 C 
ATOM     17  O   UNL     1     102.118 113.236  87.079  1.00  0.00    -0.294 OA
BRANCH  16  18
ATOM     18  C   UNL     1     100.124 113.267  88.318  1.00  0.00     0.048 C 
ATOM     19  C   UNL     1      99.664 113.638  89.522  1.00  0.00     0.012 C 
BRANCH  19  20
ATOM     20  C   UNL     1     100.258 114.673  90.401  1.00  0.00    -0.022 A 
ATOM     21  C   UNL     1     101.450 114.382  91.083  1.00  0.00     0.058 A 
ATOM     22  C   UNL     1      99.710 115.963  90.492  1.00  0.00     0.012 A 
ATOM     23  C   UNL     1     102.068 115.356  91.892  1.00  0.00     0.161 A 
ATOM     24  C   UNL     1     100.310 116.926  91.306  1.00  0.00     0.051 A 
ATOM     25  C   UNL     1     101.482 116.625  92.011  1.00  0.00     0.157 A 
BRANCH  23  26
ATOM     26  O   UNL     1     103.264 115.103  92.585  1.00  0.00    -0.493 OA
ATOM     27  C   UNL     1     103.602 113.857  93.186  1.00  0.00     0.278 C 
ENDBRANCH  23  26
BRANCH  25  28
ATOM     28  O   UNL     1     102.076 117.588  92.825  1.00  0.00    -0.504 OA
ATOM     29  H   UNL     1     101.526 118.168  93.447  1.00  0.00     0.293 HD
ENDBRANCH  25  28
ENDBRANCH  19  20
ENDBRANCH  16  18
ENDBRANCH   1  16
TORSDOF 10
ENDMDL
MODEL 7
REMARK VINA RESULT:    -4.665      1.997      4.950
REMARK INTER + INTRA:          -9.556
REMARK INTER:                  -7.158
REMARK INTRA:                  -2.398
REMARK UNBOUND:                -2.436
REMARK SMILES COc1cc(C=CC(=O)CC(=O)C=Cc2ccc(O)c(OC)c2)ccc1O
REMARK SMILES IDX 10 1 8 2 9 3 7 4 6 5 5 6 3 7 26 8 4 9 25 10 24 11 2 12 1 13
REMARK SMILES IDX 27 14 11 16 12 17 13 18 14 19 15 20 23 21 16 22 20 23 17 24
REMARK SMILES IDX 18 25 21 26 22 27 19 28
REMARK H PARENT 27 15 19 29
REMARK Flexibility Score: inf
ROOT
ATOM      1  C   UNL     1      99.655 113.776  90.814  1.00  0.00     0.160 C 
ENDROOT
BRANCH   1   2
ATOM      2  C   UNL     1      99.849 115.261  90.654  1.00  0.00     0.163 C 
ATOM      3  O   UNL     1      99.287 115.856  89.694  1.00  0.00    -0.294 OA
BRANCH   2   4
ATOM      4  C   UNL     1     100.639 116.020  91.648  1.00  0.00     0.048 C 
ATOM      5  C   UNL     1     101.891 116.474  91.470  1.00  0.00     0.012 C 
BRANCH   5   6
ATOM      6  C   UNL     1     102.773 116.162  90.322  1.00  0.00    -0.022 A 
ATOM      7  C   UNL     1     103.496 116.515  88.010  1.00  0.00     0.161 A 
ATOM      8  C   UNL     1     104.407 115.450  88.144  1.00  0.00     0.157 A 
ATOM      9  C   UNL     1     102.664 116.850  89.098  1.00  0.00     0.058 A 
ATOM     10  C   UNL     1     104.474 114.733  89.342  1.00  0.00     0.051 A 
ATOM     11  C   UNL     1     103.659 115.081  90.421  1.00  0.00     0.012 A 
BRANCH   7  12
ATOM     12  O   UNL     1     103.436 117.206  86.790  1.00  0.00    -0.493 OA
ATOM     13  C   UNL     1     102.484 116.954  85.762  1.00  0.00     0.278 C 
ENDBRANCH   7  12
BRANCH   8  14
ATOM     14  O   UNL     1     105.252 115.087  87.094  1.00  0.00    -0.504 OA
ATOM     15  H   UNL     1     105.771 115.772  86.557  1.00  0.00     0.293 HD
ENDBRANCH   8  14
ENDBRANCH   5   6
ENDBRANCH   2   4
ENDBRANCH   1   2
BRANCH   1  16
ATOM     16  C   UNL     1     100.665 112.972  90.030  1.00  0.00     0.163 C 
ATOM     17  O   UNL     1     101.185 113.459  88.989  1.00  0.00    -0.294 OA
BRANCH  16  18
ATOM     18  C   UNL     1     100.902 111.542  90.316  1.00  0.00     0.048 C 
ATOM     19  C   UNL     1     101.727 111.050  91.252  1.00  0.00     0.012 C 
BRANCH  19  20
ATOM     20  C   UNL     1     102.708 111.826  92.045  1.00  0.00    -0.022 A 
ATOM     21  C   UNL     1     104.069 111.744  91.710  1.00  0.00     0.058 A 
ATOM     22  C   UNL     1     102.301 112.711  93.057  1.00  0.00     0.012 A 
ATOM     23  C   UNL     1     105.027 112.501  92.413  1.00  0.00     0.161 A 
ATOM     24  C   UNL     1     103.247 113.452  93.767  1.00  0.00     0.051 A 
ATOM     25  C   UNL     1     104.609 113.344  93.454  1.00  0.00     0.157 A 
BRANCH  23  26
ATOM     26  O   UNL     1     106.396 112.448  92.103  1.00  0.00    -0.493 OA
ATOM     27  C   UNL     1     106.946 111.762  90.983  1.00  0.00     0.278 C 
ENDBRANCH  23  26
BRANCH  25  28
ATOM     28  O   UNL     1     105.551 114.082  94.167  1.00  0.00    -0.504 OA
ATOM     29  H   UNL     1     106.252 113.631  94.741  1.00  0.00     0.293 HD
ENDBRANCH  25  28
ENDBRANCH  19  20
ENDBRANCH  16  18
ENDBRANCH   1  16
TORSDOF 10
ENDMDL
MODEL 8
REMARK VINA RESULT:    -4.652      1.638      5.358
REMARK INTER + INTRA:          -9.535
REMARK INTER:                  -7.485
REMARK INTRA:                  -2.049
REMARK UNBOUND:                -2.436
REMARK SMILES COc1cc(C=CC(=O)CC(=O)C=Cc2ccc(O)c(OC)c2)ccc1O
REMARK SMILES IDX 10 1 8 2 9 3 7 4 6 5 5 6 3 7 26 8 4 9 25 10 24 11 2 12 1 13
REMARK SMILES IDX 27 14 11 16 12 17 13 18 14 19 15 20 23 21 16 22 20 23 17 24
REMARK SMILES IDX 18 25 21 26 22 27 19 28
REMARK H PARENT 27 15 19 29
REMARK Flexibility Score: inf
ROOT
ATOM      1  C   UNL     1     102.657 115.585  91.967  1.00  0.00     0.160 C 
ENDROOT
BRANCH   1   2
ATOM      2  C   UNL     1     101.797 116.708  91.448  1.00  0.00     0.163 C 
ATOM      3  O   UNL     1     102.224 117.424  90.501  1.00  0.00    -0.294 OA
BRANCH   2   4
ATOM      4  C   UNL     1     100.443 116.926  92.003  1.00  0.00     0.048 C 
ATOM      5  C   UNL     1      99.339 116.242  91.659  1.00  0.00     0.012 C 
BRANCH   5   6
ATOM      6  C   UNL     1      99.232 115.264  90.553  1.00  0.00    -0.022 A 
ATOM      7  C   UNL     1      99.157 112.965  89.717  1.00  0.00     0.161 A 
ATOM      8  C   UNL     1      99.133 113.457  88.398  1.00  0.00     0.157 A 
ATOM      9  C   UNL     1      99.229 113.876  90.790  1.00  0.00     0.058 A 
ATOM     10  C   UNL     1      99.192 114.833  88.163  1.00  0.00     0.051 A 
ATOM     11  C   UNL     1      99.248 115.730  89.231  1.00  0.00     0.012 A 
BRANCH   7  12
ATOM     12  O   UNL     1      99.115 111.577  89.924  1.00  0.00    -0.493 OA
ATOM     13  C   UNL     1      98.880 110.953  91.182  1.00  0.00     0.278 C 
ENDBRANCH   7  12
BRANCH   8  14
ATOM     14  O   UNL     1      99.058 112.590  87.306  1.00  0.00    -0.504 OA
ATOM     15  H   UNL     1      98.264 112.585  86.675  1.00  0.00     0.293 HD
ENDBRANCH   8  14
ENDBRANCH   5   6
ENDBRANCH   2   4
ENDBRANCH   1   2
BRANCH   1  16
ATOM     16  C   UNL     1     103.112 114.651  90.871  1.00  0.00     0.163 C 
ATOM     17  O   UNL     1     102.390 113.669  90.541  1.00  0.00    -0.294 OA
BRANCH  16  18
ATOM     18  C   UNL     1     104.481 114.716  90.321  1.00  0.00     0.048 C 
ATOM     19  C   UNL     1     104.819 115.126  89.090  1.00  0.00     0.012 C 
BRANCH  19  20
ATOM     20  C   UNL     1     103.883 115.404  87.976  1.00  0.00    -0.022 A 
ATOM     21  C   UNL     1     103.169 114.338  87.406  1.00  0.00     0.058 A 
ATOM     22  C   UNL     1     103.624 116.715  87.543  1.00  0.00     0.012 A 
ATOM     23  C   UNL     1     102.238 114.569  86.375  1.00  0.00     0.161 A 
ATOM     24  C   UNL     1     102.713 116.948  86.510  1.00  0.00     0.051 A 
ATOM     25  C   UNL     1     102.025 115.880  85.921  1.00  0.00     0.157 A 
BRANCH  23  26
ATOM     26  O   UNL     1     101.502 113.529  85.785  1.00  0.00    -0.493 OA
ATOM     27  C   UNL     1     102.005 112.649  84.785  1.00  0.00     0.278 C 
ENDBRANCH  23  26
BRANCH  25  28
ATOM     28  O   UNL     1     101.120 116.116  84.888  1.00  0.00    -0.504 OA
ATOM     29  H   UNL     1     101.326 115.852  83.932  1.00  0.00     0.293 HD
ENDBRANCH  25  28
ENDBRANCH  19  20
ENDBRANCH  16  18
ENDBRANCH   1  16
TORSDOF 10
ENDMDL
MODEL 9
REMARK VINA RESULT:    -4.628      1.778      5.977
REMARK INTER + INTRA:          -9.498
REMARK INTER:                  -7.283
REMARK INTRA:                  -2.215
REMARK UNBOUND:                -2.436
REMARK SMILES COc1cc(C=CC(=O)CC(=O)C=Cc2ccc(O)c(OC)c2)ccc1O
REMARK SMILES IDX 10 1 8 2 9 3 7 4 6 5 5 6 3 7 26 8 4 9 25 10 24 11 2 12 1 13
REMARK SMILES IDX 27 14 11 16 12 17 13 18 14 19 15 20 23 21 16 22 20 23 17 24
REMARK SMILES IDX 18 25 21 26 22 27 19 28
REMARK H PARENT 27 15 19 29
REMARK Flexibility Score: inf
ROOT
ATOM      1  C   UNL     1     102.604 116.608  90.022  1.00  0.00     0.160 C 
ENDROOT
BRANCH   1   2
ATOM      2  C   UNL     1     101.960 116.533  91.381  1.00  0.00     0.163 C 
ATOM      3  O   UNL     1     102.590 115.997  92.333  1.00  0.00    -0.294 OA
BRANCH   2   4
ATOM      4  C   UNL     1     100.629 117.138  91.608  1.00  0.00     0.048 C 
ATOM      5  C   UNL     1      99.452 116.592  91.258  1.00  0.00     0.012 C 
BRANCH   5   6
ATOM      6  C   UNL     1      99.270 115.373  90.439  1.00  0.00    -0.022 A 
ATOM      7  C   UNL     1      99.083 112.942  90.215  1.00  0.00     0.161 A 
ATOM      8  C   UNL     1      99.027 113.086  88.815  1.00  0.00     0.157 A 
ATOM      9  C   UNL     1      99.227 114.091  91.020  1.00  0.00     0.058 A 
ATOM     10  C   UNL     1      99.125 114.356  88.238  1.00  0.00     0.051 A 
ATOM     11  C   UNL     1      99.252 115.489  89.042  1.00  0.00     0.012 A 
BRANCH   7  12
ATOM     12  O   UNL     1      99.001 111.655  90.768  1.00  0.00    -0.493 OA
ATOM     13  C   UNL     1      99.672 111.238  91.952  1.00  0.00     0.278 C 
ENDBRANCH   7  12
BRANCH   8  14
ATOM     14  O   UNL     1      98.880 111.976  87.982  1.00  0.00    -0.504 OA
ATOM     15  H   UNL     1      98.733 111.043  88.347  1.00  0.00     0.293 HD
ENDBRANCH   8  14
ENDBRANCH   5   6
ENDBRANCH   2   4
ENDBRANCH   1   2
BRANCH   1  16
ATOM     16  C   UNL     1     103.389 115.361  89.684  1.00  0.00     0.163 C 
ATOM     17  O   UNL     1     104.640 115.429  89.527  1.00  0.00    -0.294 OA
BRANCH  16  18
ATOM     18  C   UNL     1     102.714 114.102  89.310  1.00  0.00     0.048 C 
ATOM     19  C   UNL     1     102.574 113.621  88.066  1.00  0.00     0.012 C 
BRANCH  19  20
ATOM     20  C   UNL     1     102.886 114.343  86.811  1.00  0.00    -0.022 A 
ATOM     21  C   UNL     1     104.066 114.025  86.120  1.00  0.00     0.058 A 
ATOM     22  C   UNL     1     101.988 115.266  86.250  1.00  0.00     0.012 A 
ATOM     23  C   UNL     1     104.376 114.659  84.901  1.00  0.00     0.161 A 
ATOM     24  C   UNL     1     102.297 115.909  85.050  1.00  0.00     0.051 A 
ATOM     25  C   UNL     1     103.490 115.614  84.377  1.00  0.00     0.157 A 
BRANCH  23  26
ATOM     26  O   UNL     1     105.544 114.363  84.179  1.00  0.00    -0.493 OA
ATOM     27  C   UNL     1     105.770 113.150  83.469  1.00  0.00     0.278 C 
ENDBRANCH  23  26
BRANCH  25  28
ATOM     28  O   UNL     1     103.798 116.260  83.182  1.00  0.00    -0.504 OA
ATOM     29  H   UNL     1     104.146 117.210  83.168  1.00  0.00     0.293 HD
ENDBRANCH  25  28
ENDBRANCH  19  20
ENDBRANCH  16  18
ENDBRANCH   1  16
TORSDOF 10
ENDMDL
