MODEL 1
REMARK VINA RESULT:    -4.085      0.000      0.000
REMARK INTER + INTRA:          -8.961
REMARK INTER:                  -6.951
REMARK INTRA:                  -2.010
REMARK UNBOUND:                -2.010
REMARK SMILES CCCCCCCCCCCCCC(=O)[O-]
REMARK SMILES IDX 8 1 9 2 10 3 11 4 12 5 13 6 14 7 15 8 16 9 7 10 6 11 5 12
REMARK SMILES IDX 4 13 3 14 2 15 1 16
REMARK H PARENT
REMARK Flexibility Score: inf
ROOT
ATOM      1  C   UNL     1     -36.474  20.122 -29.183  1.00  0.00     0.000 C 
ENDROOT
BRANCH   1   2
ATOM      2  C   UNL     1     -37.345  19.125 -29.966  1.00  0.00     0.000 C 
BRANCH   2   3
ATOM      3  C   UNL     1     -38.694  18.855 -29.279  1.00  0.00     0.000 C 
BRANCH   3   4
ATOM      4  C   UNL     1     -39.859  18.768 -30.281  1.00  0.00     0.000 C 
BRANCH   4   5
ATOM      5  C   UNL     1     -40.924  19.850 -30.042  1.00  0.00     0.006 C 
BRANCH   5   6
ATOM      6  C   UNL     1     -40.691  20.629 -28.740  1.00  0.00     0.053 C 
BRANCH   6   7
ATOM      7  C   UNL     1     -41.870  21.499 -28.435  1.00  0.00     0.041 C 
ATOM      8  O   UNL     1     -42.829  21.051 -27.755  1.00  0.00    -0.550 OA
ATOM      9  O   UNL     1     -41.885  22.822 -28.859  1.00  0.00    -0.550 OA
ENDBRANCH   6   7
ENDBRANCH   5   6
ENDBRANCH   4   5
ENDBRANCH   3   4
ENDBRANCH   2   3
ENDBRANCH   1   2
BRANCH   1  10
ATOM     10  C   UNL     1     -37.046  20.448 -27.794  1.00  0.00     0.000 C 
BRANCH  10  11
ATOM     11  C   UNL     1     -37.104  21.961 -27.519  1.00  0.00    -0.000 C 
BRANCH  11  12
ATOM     12  C   UNL     1     -36.396  22.784 -28.607  1.00  0.00    -0.000 C 
BRANCH  12  13
ATOM     13  C   UNL     1     -37.224  23.997 -29.068  1.00  0.00    -0.000 C 
BRANCH  13  14
ATOM     14  C   UNL     1     -38.575  23.578 -29.687  1.00  0.00    -0.000 C 
BRANCH  14  15
ATOM     15  C   UNL     1     -38.432  22.638 -30.896  1.00  0.00    -0.003 C 
ATOM     16  C   UNL     1     -39.619  22.714 -31.854  1.00  0.00     0.004 C 
ENDBRANCH  14  15
ENDBRANCH  13  14
ENDBRANCH  12  13
ENDBRANCH  11  12
ENDBRANCH  10  11
ENDBRANCH   1  10
TORSDOF 12
ENDMDL
MODEL 2
REMARK VINA RESULT:    -4.080      2.657      4.484
REMARK INTER + INTRA:          -8.953
REMARK INTER:                  -6.901
REMARK INTRA:                  -2.052
REMARK UNBOUND:                -2.010
REMARK SMILES CCCCCCCCCCCCCC(=O)[O-]
REMARK SMILES IDX 8 1 9 2 10 3 11 4 12 5 13 6 14 7 15 8 16 9 7 10 6 11 5 12
REMARK SMILES IDX 4 13 3 14 2 15 1 16
REMARK H PARENT
REMARK Flexibility Score: inf
ROOT
ATOM      1  C   UNL     1     -41.010  23.151 -30.068  1.00  0.00     0.000 C 
ENDROOT
BRANCH   1   2
ATOM      2  C   UNL     1     -41.492  22.388 -28.822  1.00  0.00     0.000 C 
BRANCH   2   3
ATOM      3  C   UNL     1     -40.977  20.941 -28.782  1.00  0.00     0.000 C 
BRANCH   3   4
ATOM      4  C   UNL     1     -39.937  20.715 -27.670  1.00  0.00     0.000 C 
BRANCH   4   5
ATOM      5  C   UNL     1     -38.948  19.587 -28.006  1.00  0.00     0.006 C 
BRANCH   5   6
ATOM      6  C   UNL     1     -38.890  19.283 -29.509  1.00  0.00     0.053 C 
BRANCH   6   7
ATOM      7  C   UNL     1     -37.486  18.978 -29.926  1.00  0.00     0.041 C 
ATOM      8  O   UNL     1     -36.527  19.649 -29.463  1.00  0.00    -0.550 OA
ATOM      9  O   UNL     1     -37.232  17.918 -30.787  1.00  0.00    -0.550 OA
ENDBRANCH   6   7
ENDBRANCH   5   6
ENDBRANCH   4   5
ENDBRANCH   3   4
ENDBRANCH   2   3
ENDBRANCH   1   2
BRANCH   1  10
ATOM     10  C   UNL     1     -40.462  22.219 -31.161  1.00  0.00     0.000 C 
BRANCH  10  11
ATOM     11  C   UNL     1     -39.081  22.660 -31.675  1.00  0.00    -0.000 C 
BRANCH  11  12
ATOM     12  C   UNL     1     -38.380  23.636 -30.715  1.00  0.00    -0.000 C 
BRANCH  12  13
ATOM     13  C   UNL     1     -37.294  22.955 -29.863  1.00  0.00    -0.000 C 
BRANCH  13  14
ATOM     14  C   UNL     1     -37.435  23.295 -28.363  1.00  0.00    -0.000 C 
BRANCH  14  15
ATOM     15  C   UNL     1     -38.298  24.538 -28.093  1.00  0.00    -0.003 C 
ATOM     16  C   UNL     1     -37.521  25.670 -27.425  1.00  0.00     0.004 C 
ENDBRANCH  14  15
ENDBRANCH  13  14
ENDBRANCH  12  13
ENDBRANCH  11  12
ENDBRANCH  10  11
ENDBRANCH   1  10
TORSDOF 12
ENDMDL
MODEL 3
REMARK VINA RESULT:    -4.054      1.108      3.434
REMARK INTER + INTRA:          -8.908
REMARK INTER:                  -7.114
REMARK INTRA:                  -1.794
REMARK UNBOUND:                -2.010
REMARK SMILES CCCCCCCCCCCCCC(=O)[O-]
REMARK SMILES IDX 8 1 9 2 10 3 11 4 12 5 13 6 14 7 15 8 16 9 7 10 6 11 5 12
REMARK SMILES IDX 4 13 3 14 2 15 1 16
REMARK H PARENT
REMARK Flexibility Score: inf
ROOT
ATOM      1  C   UNL     1     -36.482  23.789 -29.891  1.00  0.00     0.000 C 
ENDROOT
BRANCH   1   2
ATOM      2  C   UNL     1     -37.956  24.070 -30.230  1.00  0.00     0.000 C 
BRANCH   2   3
ATOM      3  C   UNL     1     -38.543  23.040 -31.208  1.00  0.00     0.000 C 
BRANCH   3   4
ATOM      4  C   UNL     1     -39.975  22.620 -30.832  1.00  0.00     0.000 C 
BRANCH   4   5
ATOM      5  C   UNL     1     -40.270  22.805 -29.334  1.00  0.00     0.006 C 
BRANCH   5   6
ATOM      6  C   UNL     1     -41.754  22.607 -28.998  1.00  0.00     0.053 C 
BRANCH   6   7
ATOM      7  C   UNL     1     -41.931  21.433 -28.087  1.00  0.00     0.041 C 
ATOM      8  O   UNL     1     -43.080  20.975 -27.859  1.00  0.00    -0.550 OA
ATOM      9  O   UNL     1     -40.819  20.813 -27.531  1.00  0.00    -0.550 OA
ENDBRANCH   6   7
ENDBRANCH   5   6
ENDBRANCH   4   5
ENDBRANCH   3   4
ENDBRANCH   2   3
ENDBRANCH   1   2
BRANCH   1  10
ATOM     10  C   UNL     1     -36.207  22.299 -29.628  1.00  0.00     0.000 C 
BRANCH  10  11
ATOM     11  C   UNL     1     -36.861  21.799 -28.328  1.00  0.00    -0.000 C 
BRANCH  11  12
ATOM     12  C   UNL     1     -37.443  20.383 -28.470  1.00  0.00    -0.000 C 
BRANCH  12  13
ATOM     13  C   UNL     1     -37.181  19.768 -29.857  1.00  0.00    -0.000 C 
BRANCH  13  14
ATOM     14  C   UNL     1     -38.161  18.619 -30.177  1.00  0.00    -0.000 C 
BRANCH  14  15
ATOM     15  C   UNL     1     -39.609  18.906 -29.744  1.00  0.00    -0.003 C 
ATOM     16  C   UNL     1     -40.591  18.912 -30.913  1.00  0.00     0.004 C 
ENDBRANCH  14  15
ENDBRANCH  13  14
ENDBRANCH  12  13
ENDBRANCH  11  12
ENDBRANCH  10  11
ENDBRANCH   1  10
TORSDOF 12
ENDMDL
MODEL 4
REMARK VINA RESULT:    -3.997      2.138      3.716
REMARK INTER + INTRA:          -8.811
REMARK INTER:                  -7.130
REMARK INTRA:                  -1.680
REMARK UNBOUND:                -2.010
REMARK SMILES CCCCCCCCCCCCCC(=O)[O-]
REMARK SMILES IDX 8 1 9 2 10 3 11 4 12 5 13 6 14 7 15 8 16 9 7 10 6 11 5 12
REMARK SMILES IDX 4 13 3 14 2 15 1 16
REMARK H PARENT
REMARK Flexibility Score: inf
ROOT
ATOM      1  C   UNL     1     -36.886  22.966 -27.302  1.00  0.00     0.000 C 
ENDROOT
BRANCH   1   2
ATOM      2  C   UNL     1     -36.412  21.537 -26.989  1.00  0.00     0.000 C 
BRANCH   2   3
ATOM      3  C   UNL     1     -37.536  20.653 -26.425  1.00  0.00     0.000 C 
BRANCH   3   4
ATOM      4  C   UNL     1     -38.562  20.249 -27.499  1.00  0.00     0.000 C 
BRANCH   4   5
ATOM      5  C   UNL     1     -37.898  19.780 -28.803  1.00  0.00     0.006 C 
BRANCH   5   6
ATOM      6  C   UNL     1     -38.835  19.889 -30.014  1.00  0.00     0.053 C 
BRANCH   6   7
ATOM      7  C   UNL     1     -39.687  18.664 -30.126  1.00  0.00     0.041 C 
ATOM      8  O   UNL     1     -40.751  18.693 -30.798  1.00  0.00    -0.550 OA
ATOM      9  O   UNL     1     -39.279  17.478 -29.532  1.00  0.00    -0.550 OA
ENDBRANCH   6   7
ENDBRANCH   5   6
ENDBRANCH   4   5
ENDBRANCH   3   4
ENDBRANCH   2   3
ENDBRANCH   1   2
BRANCH   1  10
ATOM     10  C   UNL     1     -36.679  23.351 -28.776  1.00  0.00     0.000 C 
BRANCH  10  11
ATOM     11  C   UNL     1     -37.891  24.092 -29.368  1.00  0.00    -0.000 C 
BRANCH  11  12
ATOM     12  C   UNL     1     -38.781  24.723 -28.286  1.00  0.00    -0.000 C 
BRANCH  12  13
ATOM     13  C   UNL     1     -40.268  24.363 -28.454  1.00  0.00    -0.000 C 
BRANCH  13  14
ATOM     14  C   UNL     1     -40.469  22.872 -28.803  1.00  0.00    -0.000 C 
BRANCH  14  15
ATOM     15  C   UNL     1     -41.942  22.433 -28.805  1.00  0.00    -0.003 C 
ATOM     16  C   UNL     1     -42.168  21.100 -28.095  1.00  0.00     0.004 C 
ENDBRANCH  14  15
ENDBRANCH  13  14
ENDBRANCH  12  13
ENDBRANCH  11  12
ENDBRANCH  10  11
ENDBRANCH   1  10
TORSDOF 12
ENDMDL
MODEL 5
REMARK VINA RESULT:    -3.970      2.229      5.198
REMARK INTER + INTRA:          -8.764
REMARK INTER:                  -7.275
REMARK INTRA:                  -1.489
REMARK UNBOUND:                -2.010
REMARK SMILES CCCCCCCCCCCCCC(=O)[O-]
REMARK SMILES IDX 8 1 9 2 10 3 11 4 12 5 13 6 14 7 15 8 16 9 7 10 6 11 5 12
REMARK SMILES IDX 4 13 3 14 2 15 1 16
REMARK H PARENT
REMARK Flexibility Score: inf
ROOT
ATOM      1  C   UNL     1     -41.460  23.141 -29.296  1.00  0.00     0.000 C 
ENDROOT
BRANCH   1   2
ATOM      2  C   UNL     1     -40.678  24.148 -28.436  1.00  0.00     0.000 C 
BRANCH   2   3
ATOM      3  C   UNL     1     -39.308  24.499 -29.039  1.00  0.00     0.000 C 
BRANCH   3   4
ATOM      4  C   UNL     1     -38.266  23.388 -28.820  1.00  0.00     0.000 C 
BRANCH   4   5
ATOM      5  C   UNL     1     -37.401  23.136 -30.065  1.00  0.00     0.006 C 
BRANCH   5   6
ATOM      6  C   UNL     1     -37.702  24.123 -31.201  1.00  0.00     0.053 C 
BRANCH   6   7
ATOM      7  C   UNL     1     -38.421  23.432 -32.317  1.00  0.00     0.041 C 
ATOM      8  O   UNL     1     -39.390  22.669 -32.069  1.00  0.00    -0.550 OA
ATOM      9  O   UNL     1     -38.052  23.672 -33.634  1.00  0.00    -0.550 OA
ENDBRANCH   6   7
ENDBRANCH   5   6
ENDBRANCH   4   5
ENDBRANCH   3   4
ENDBRANCH   2   3
ENDBRANCH   1   2
BRANCH   1  10
ATOM     10  C   UNL     1     -41.923  21.911 -28.497  1.00  0.00     0.000 C 
BRANCH  10  11
ATOM     11  C   UNL     1     -41.015  20.689 -28.717  1.00  0.00    -0.000 C 
BRANCH  11  12
ATOM     12  C   UNL     1     -40.024  20.477 -27.561  1.00  0.00    -0.000 C 
BRANCH  12  13
ATOM     13  C   UNL     1     -38.774  19.685 -27.987  1.00  0.00    -0.000 C 
BRANCH  13  14
ATOM     14  C   UNL     1     -38.989  18.933 -29.318  1.00  0.00    -0.000 C 
BRANCH  14  15
ATOM     15  C   UNL     1     -37.690  18.695 -30.107  1.00  0.00    -0.003 C 
ATOM     16  C   UNL     1     -36.546  19.604 -29.661  1.00  0.00     0.004 C 
ENDBRANCH  14  15
ENDBRANCH  13  14
ENDBRANCH  12  13
ENDBRANCH  11  12
ENDBRANCH  10  11
ENDBRANCH   1  10
TORSDOF 12
ENDMDL
MODEL 6
REMARK VINA RESULT:    -3.934      2.318      4.268
REMARK INTER + INTRA:          -8.703
REMARK INTER:                  -7.093
REMARK INTRA:                  -1.610
REMARK UNBOUND:                -2.010
REMARK SMILES CCCCCCCCCCCCCC(=O)[O-]
REMARK SMILES IDX 8 1 9 2 10 3 11 4 12 5 13 6 14 7 15 8 16 9 7 10 6 11 5 12
REMARK SMILES IDX 4 13 3 14 2 15 1 16
REMARK H PARENT
REMARK Flexibility Score: inf
ROOT
ATOM      1  C   UNL     1     -41.332  21.102 -28.119  1.00  0.00     0.000 C 
ENDROOT
BRANCH   1   2
ATOM      2  C   UNL     1     -40.146  20.324 -27.524  1.00  0.00     0.000 C 
BRANCH   2   3
ATOM      3  C   UNL     1     -38.855  21.157 -27.487  1.00  0.00     0.000 C 
BRANCH   3   4
ATOM      4  C   UNL     1     -37.642  20.390 -28.043  1.00  0.00     0.000 C 
BRANCH   4   5
ATOM      5  C   UNL     1     -37.648  20.310 -29.578  1.00  0.00     0.006 C 
BRANCH   5   6
ATOM      6  C   UNL     1     -37.605  18.865 -30.092  1.00  0.00     0.053 C 
BRANCH   6   7
ATOM      7  C   UNL     1     -38.957  18.232 -29.985  1.00  0.00     0.041 C 
ATOM      8  O   UNL     1     -39.946  18.749 -30.565  1.00  0.00    -0.550 OA
ATOM      9  O   UNL     1     -39.112  17.042 -29.285  1.00  0.00    -0.550 OA
ENDBRANCH   6   7
ENDBRANCH   5   6
ENDBRANCH   4   5
ENDBRANCH   3   4
ENDBRANCH   2   3
ENDBRANCH   1   2
BRANCH   1  10
ATOM     10  C   UNL     1     -40.909  22.070 -29.236  1.00  0.00     0.000 C 
BRANCH  10  11
ATOM     11  C   UNL     1     -41.291  23.528 -28.930  1.00  0.00    -0.000 C 
BRANCH  11  12
ATOM     12  C   UNL     1     -40.079  24.379 -28.515  1.00  0.00    -0.000 C 
BRANCH  12  13
ATOM     13  C   UNL     1     -38.930  24.316 -29.538  1.00  0.00    -0.000 C 
BRANCH  13  14
ATOM     14  C   UNL     1     -37.550  24.209 -28.854  1.00  0.00    -0.000 C 
BRANCH  14  15
ATOM     15  C   UNL     1     -37.508  24.838 -27.451  1.00  0.00    -0.003 C 
ATOM     16  C   UNL     1     -37.016  26.284 -27.460  1.00  0.00     0.004 C 
ENDBRANCH  14  15
ENDBRANCH  13  14
ENDBRANCH  12  13
ENDBRANCH  11  12
ENDBRANCH  10  11
ENDBRANCH   1  10
TORSDOF 12
ENDMDL
MODEL 7
REMARK VINA RESULT:    -3.923      2.341      4.826
REMARK INTER + INTRA:          -8.685
REMARK INTER:                  -6.812
REMARK INTRA:                  -1.873
REMARK UNBOUND:                -2.010
REMARK SMILES CCCCCCCCCCCCCC(=O)[O-]
REMARK SMILES IDX 8 1 9 2 10 3 11 4 12 5 13 6 14 7 15 8 16 9 7 10 6 11 5 12
REMARK SMILES IDX 4 13 3 14 2 15 1 16
REMARK H PARENT
REMARK Flexibility Score: inf
ROOT
ATOM      1  C   UNL     1     -40.538  22.953 -29.427  1.00  0.00     0.000 C 
ENDROOT
BRANCH   1   2
ATOM      2  C   UNL     1     -40.106  22.544 -30.846  1.00  0.00     0.000 C 
BRANCH   2   3
ATOM      3  C   UNL     1     -38.833  23.272 -31.307  1.00  0.00     0.000 C 
BRANCH   3   4
ATOM      4  C   UNL     1     -37.553  22.478 -30.993  1.00  0.00     0.000 C 
BRANCH   4   5
ATOM      5  C   UNL     1     -36.945  22.853 -29.632  1.00  0.00     0.006 C 
BRANCH   5   6
ATOM      6  C   UNL     1     -37.109  24.343 -29.304  1.00  0.00     0.053 C 
BRANCH   6   7
ATOM      7  C   UNL     1     -37.444  24.526 -27.857  1.00  0.00     0.041 C 
ATOM      8  O   UNL     1     -38.299  25.380 -27.508  1.00  0.00    -0.550 OA
ATOM      9  O   UNL     1     -36.849  23.715 -26.899  1.00  0.00    -0.550 OA
ENDBRANCH   6   7
ENDBRANCH   5   6
ENDBRANCH   4   5
ENDBRANCH   3   4
ENDBRANCH   2   3
ENDBRANCH   1   2
BRANCH   1  10
ATOM     10  C   UNL     1     -41.652  22.056 -28.864  1.00  0.00     0.000 C 
BRANCH  10  11
ATOM     11  C   UNL     1     -41.111  20.944 -27.949  1.00  0.00    -0.000 C 
BRANCH  11  12
ATOM     12  C   UNL     1     -39.585  21.018 -27.775  1.00  0.00    -0.000 C 
BRANCH  12  13
ATOM     13  C   UNL     1     -38.891  19.666 -28.024  1.00  0.00    -0.000 C 
BRANCH  13  14
ATOM     14  C   UNL     1     -38.684  19.390 -29.529  1.00  0.00    -0.000 C 
BRANCH  14  15
ATOM     15  C   UNL     1     -39.606  18.293 -30.087  1.00  0.00    -0.003 C 
ATOM     16  C   UNL     1     -40.756  18.849 -30.924  1.00  0.00     0.004 C 
ENDBRANCH  14  15
ENDBRANCH  13  14
ENDBRANCH  12  13
ENDBRANCH  11  12
ENDBRANCH  10  11
ENDBRANCH   1  10
TORSDOF 12
ENDMDL
MODEL 8
REMARK VINA RESULT:    -3.877      1.476      3.389
REMARK INTER + INTRA:          -8.606
REMARK INTER:                  -6.954
REMARK INTRA:                  -1.652
REMARK UNBOUND:                -2.010
REMARK SMILES CCCCCCCCCCCCCC(=O)[O-]
REMARK SMILES IDX 8 1 9 2 10 3 11 4 12 5 13 6 14 7 15 8 16 9 7 10 6 11 5 12
REMARK SMILES IDX 4 13 3 14 2 15 1 16
REMARK H PARENT
REMARK Flexibility Score: inf
ROOT
ATOM      1  C   UNL     1     -35.875  22.463 -29.544  1.00  0.00     0.000 C 
ENDROOT
BRANCH   1   2
ATOM      2  C   UNL     1     -36.843  22.281 -30.725  1.00  0.00     0.000 C 
BRANCH   2   3
ATOM      3  C   UNL     1     -38.150  23.071 -30.543  1.00  0.00     0.000 C 
BRANCH   3   4
ATOM      4  C   UNL     1     -39.171  22.785 -31.658  1.00  0.00     0.000 C 
BRANCH   4   5
ATOM      5  C   UNL     1     -40.578  22.499 -31.110  1.00  0.00     0.006 C 
BRANCH   5   6
ATOM      6  C   UNL     1     -40.621  22.484 -29.576  1.00  0.00     0.053 C 
BRANCH   6   7
ATOM      7  C   UNL     1     -41.508  23.577 -29.068  1.00  0.00     0.041 C 
ATOM      8  O   UNL     1     -41.063  24.425 -28.252  1.00  0.00    -0.550 OA
ATOM      9  O   UNL     1     -42.812  23.687 -29.536  1.00  0.00    -0.550 OA
ENDBRANCH   6   7
ENDBRANCH   5   6
ENDBRANCH   4   5
ENDBRANCH   3   4
ENDBRANCH   2   3
ENDBRANCH   1   2
BRANCH   1  10
ATOM     10  C   UNL     1     -36.554  22.251 -28.181  1.00  0.00     0.000 C 
BRANCH  10  11
ATOM     11  C   UNL     1     -36.746  20.763 -27.842  1.00  0.00    -0.000 C 
BRANCH  11  12
ATOM     12  C   UNL     1     -38.020  20.508 -27.019  1.00  0.00    -0.000 C 
BRANCH  12  13
ATOM     13  C   UNL     1     -39.002  19.555 -27.725  1.00  0.00    -0.000 C 
BRANCH  13  14
ATOM     14  C   UNL     1     -38.771  19.508 -29.250  1.00  0.00    -0.000 C 
BRANCH  14  15
ATOM     15  C   UNL     1     -39.515  18.358 -29.951  1.00  0.00    -0.003 C 
ATOM     16  C   UNL     1     -40.674  18.841 -30.821  1.00  0.00     0.004 C 
ENDBRANCH  14  15
ENDBRANCH  13  14
ENDBRANCH  12  13
ENDBRANCH  11  12
ENDBRANCH  10  11
ENDBRANCH   1  10
TORSDOF 12
ENDMDL
MODEL 9
REMARK VINA RESULT:    -3.848      1.444      2.209
REMARK INTER + INTRA:          -8.558
REMARK INTER:                  -6.539
REMARK INTRA:                  -2.018
REMARK UNBOUND:                -2.010
REMARK SMILES CCCCCCCCCCCCCC(=O)[O-]
REMARK SMILES IDX 8 1 9 2 10 3 11 4 12 5 13 6 14 7 15 8 16 9 7 10 6 11 5 12
REMARK SMILES IDX 4 13 3 14 2 15 1 16
REMARK H PARENT
REMARK Flexibility Score: inf
ROOT
ATOM      1  C   UNL     1     -38.724  19.403 -28.389  1.00  0.00     0.000 C 
ENDROOT
BRANCH   1   2
ATOM      2  C   UNL     1     -39.219  19.002 -29.790  1.00  0.00     0.000 C 
BRANCH   2   3
ATOM      3  C   UNL     1     -40.374  19.889 -30.282  1.00  0.00     0.000 C 
BRANCH   3   4
ATOM      4  C   UNL     1     -39.899  20.996 -31.241  1.00  0.00     0.000 C 
BRANCH   4   5
ATOM      5  C   UNL     1     -40.383  22.392 -30.816  1.00  0.00     0.006 C 
BRANCH   5   6
ATOM      6  C   UNL     1     -40.482  22.543 -29.292  1.00  0.00     0.053 C 
BRANCH   6   7
ATOM      7  C   UNL     1     -41.911  22.699 -28.875  1.00  0.00     0.041 C 
ATOM      8  O   UNL     1     -42.571  23.704 -29.243  1.00  0.00    -0.550 OA
ATOM      9  O   UNL     1     -42.526  21.707 -28.122  1.00  0.00    -0.550 OA
ENDBRANCH   6   7
ENDBRANCH   5   6
ENDBRANCH   4   5
ENDBRANCH   3   4
ENDBRANCH   2   3
ENDBRANCH   1   2
BRANCH   1  10
ATOM     10  C   UNL     1     -37.375  20.140 -28.425  1.00  0.00     0.000 C 
BRANCH  10  11
ATOM     11  C   UNL     1     -36.618  19.924 -29.747  1.00  0.00    -0.000 C 
BRANCH  11  12
ATOM     12  C   UNL     1     -36.135  21.243 -30.371  1.00  0.00    -0.000 C 
BRANCH  12  13
ATOM     13  C   UNL     1     -36.712  22.482 -29.662  1.00  0.00    -0.000 C 
BRANCH  13  14
ATOM     14  C   UNL     1     -36.936  23.657 -30.638  1.00  0.00    -0.000 C 
BRANCH  14  15
ATOM     15  C   UNL     1     -36.608  23.314 -32.101  1.00  0.00    -0.003 C 
ATOM     16  C   UNL     1     -37.754  23.627 -33.060  1.00  0.00     0.004 C 
ENDBRANCH  14  15
ENDBRANCH  13  14
ENDBRANCH  12  13
ENDBRANCH  11  12
ENDBRANCH  10  11
ENDBRANCH   1  10
TORSDOF 12
ENDMDL
