MODEL 1
REMARK VINA RESULT:    -3.595      0.000      0.000
REMARK INTER + INTRA:         -14.241
REMARK INTER:                  -9.060
REMARK INTRA:                  -5.181
REMARK UNBOUND:                -5.181
REMARK SMILES CCCCCCCCCCCCCCCCCCCCCCCCCCCC(=O)[O-]
REMARK SMILES IDX 15 1 16 2 17 3 18 4 19 5 20 6 21 7 22 8 23 9 24 10 25 11
REMARK SMILES IDX 26 12 27 13 28 14 29 15 30 16 14 17 13 18 12 19 11 20 10 21
REMARK SMILES IDX 9 22 8 23 7 24 6 25 5 26 4 27 3 28 2 29 1 30
REMARK H PARENT
REMARK Flexibility Score: inf
ROOT
ATOM      1  C   UNL     1      17.925  -7.293  32.409  1.00  0.00     0.000 C 
ENDROOT
BRANCH   1   2
ATOM      2  C   UNL     1      18.191  -5.933  31.732  1.00  0.00     0.000 C 
BRANCH   2   3
ATOM      3  C   UNL     1      19.668  -5.642  31.406  1.00  0.00     0.000 C 
BRANCH   3   4
ATOM      4  C   UNL     1      19.919  -5.389  29.914  1.00  0.00     0.000 C 
BRANCH   4   5
ATOM      5  C   UNL     1      21.031  -6.310  29.389  1.00  0.00     0.000 C 
BRANCH   5   6
ATOM      6  C   UNL     1      20.549  -7.251  28.275  1.00  0.00     0.000 C 
BRANCH   6   7
ATOM      7  C   UNL     1      19.039  -7.140  28.015  1.00  0.00     0.000 C 
BRANCH   7   8
ATOM      8  C   UNL     1      18.419  -8.532  27.809  1.00  0.00     0.000 C 
BRANCH   8   9
ATOM      9  C   UNL     1      19.429  -9.555  27.264  1.00  0.00     0.000 C 
BRANCH   9  10
ATOM     10  C   UNL     1      18.753 -10.823  26.721  1.00  0.00     0.000 C 
BRANCH  10  11
ATOM     11  C   UNL     1      18.335 -10.633  25.258  1.00  0.00     0.000 C 
BRANCH  11  12
ATOM     12  C   UNL     1      16.813 -10.492  25.131  1.00  0.00     0.006 C 
BRANCH  12  13
ATOM     13  C   UNL     1      16.091 -11.442  26.092  1.00  0.00     0.053 C 
BRANCH  13  14
ATOM     14  C   UNL     1      14.942 -10.753  26.758  1.00  0.00     0.041 C 
ATOM     15  O   UNL     1      15.149  -9.966  27.719  1.00  0.00    -0.550 OA
ATOM     16  O   UNL     1      13.647 -10.960  26.301  1.00  0.00    -0.550 OA
ENDBRANCH  13  14
ENDBRANCH  12  13
ENDBRANCH  11  12
ENDBRANCH  10  11
ENDBRANCH   9  10
ENDBRANCH   8   9
ENDBRANCH   7   8
ENDBRANCH   6   7
ENDBRANCH   5   6
ENDBRANCH   4   5
ENDBRANCH   3   4
ENDBRANCH   2   3
ENDBRANCH   1   2
BRANCH   1  17
ATOM     17  C   UNL     1      17.278  -8.367  31.513  1.00  0.00     0.000 C 
BRANCH  17  18
ATOM     18  C   UNL     1      18.182  -9.584  31.227  1.00  0.00     0.000 C 
BRANCH  18  19
ATOM     19  C   UNL     1      19.575  -9.461  31.873  1.00  0.00     0.000 C 
BRANCH  19  20
ATOM     20  C   UNL     1      20.721  -9.779  30.898  1.00  0.00     0.000 C 
BRANCH  20  21
ATOM     21  C   UNL     1      20.571 -11.144  30.191  1.00  0.00     0.000 C 
BRANCH  21  22
ATOM     22  C   UNL     1      21.486 -12.217  30.804  1.00  0.00    -0.000 C 
BRANCH  22  23
ATOM     23  C   UNL     1      20.726 -13.206  31.704  1.00  0.00    -0.000 C 
BRANCH  23  24
ATOM     24  C   UNL     1      20.718 -12.782  33.182  1.00  0.00    -0.000 C 
BRANCH  24  25
ATOM     25  C   UNL     1      19.312 -12.824  33.805  1.00  0.00    -0.000 C 
BRANCH  25  26
ATOM     26  C   UNL     1      18.177 -12.935  32.764  1.00  0.00    -0.000 C 
BRANCH  26  27
ATOM     27  C   UNL     1      16.787 -12.938  33.424  1.00  0.00    -0.000 C 
BRANCH  27  28
ATOM     28  C   UNL     1      15.870 -11.826  32.869  1.00  0.00    -0.000 C 
BRANCH  28  29
ATOM     29  C   UNL     1      15.366 -10.850  33.946  1.00  0.00    -0.003 C 
ATOM     30  C   UNL     1      16.496 -10.212  34.752  1.00  0.00     0.004 C 
ENDBRANCH  28  29
ENDBRANCH  27  28
ENDBRANCH  26  27
ENDBRANCH  25  26
ENDBRANCH  24  25
ENDBRANCH  23  24
ENDBRANCH  22  23
ENDBRANCH  21  22
ENDBRANCH  20  21
ENDBRANCH  19  20
ENDBRANCH  18  19
ENDBRANCH  17  18
ENDBRANCH   1  17
TORSDOF 26
ENDMDL
MODEL 2
REMARK VINA RESULT:    -3.568      9.418     13.898
REMARK INTER + INTRA:         -14.174
REMARK INTER:                  -9.844
REMARK INTRA:                  -4.329
REMARK UNBOUND:                -5.181
REMARK SMILES CCCCCCCCCCCCCCCCCCCCCCCCCCCC(=O)[O-]
REMARK SMILES IDX 15 1 16 2 17 3 18 4 19 5 20 6 21 7 22 8 23 9 24 10 25 11
REMARK SMILES IDX 26 12 27 13 28 14 29 15 30 16 14 17 13 18 12 19 11 20 10 21
REMARK SMILES IDX 9 22 8 23 7 24 6 25 5 26 4 27 3 28 2 29 1 30
REMARK H PARENT
REMARK Flexibility Score: inf
ROOT
ATOM      1  C   UNL     1      16.361 -20.771  24.234  1.00  0.00     0.000 C 
ENDROOT
BRANCH   1   2
ATOM      2  C   UNL     1      14.879 -21.091  24.511  1.00  0.00     0.000 C 
BRANCH   2   3
ATOM      3  C   UNL     1      13.885 -19.981  24.118  1.00  0.00     0.000 C 
BRANCH   3   4
ATOM      4  C   UNL     1      12.840 -20.441  23.094  1.00  0.00     0.000 C 
BRANCH   4   5
ATOM      5  C   UNL     1      11.972 -19.257  22.640  1.00  0.00     0.000 C 
BRANCH   5   6
ATOM      6  C   UNL     1      10.834 -19.679  21.698  1.00  0.00     0.000 C 
BRANCH   6   7
ATOM      7  C   UNL     1      10.482 -18.595  20.669  1.00  0.00     0.000 C 
BRANCH   7   8
ATOM      8  C   UNL     1      11.207 -17.278  20.995  1.00  0.00     0.000 C 
BRANCH   8   9
ATOM      9  C   UNL     1      11.131 -16.260  19.846  1.00  0.00     0.000 C 
BRANCH   9  10
ATOM     10  C   UNL     1      10.686 -14.868  20.317  1.00  0.00     0.000 C 
BRANCH  10  11
ATOM     11  C   UNL     1      10.770 -14.757  21.845  1.00  0.00     0.000 C 
BRANCH  11  12
ATOM     12  C   UNL     1      10.946 -13.298  22.285  1.00  0.00     0.006 C 
BRANCH  12  13
ATOM     13  C   UNL     1      11.063 -13.195  23.809  1.00  0.00     0.053 C 
BRANCH  13  14
ATOM     14  C   UNL     1      10.887 -11.780  24.262  1.00  0.00     0.041 C 
ATOM     15  O   UNL     1      10.864 -10.845  23.417  1.00  0.00    -0.550 OA
ATOM     16  O   UNL     1      10.721 -11.496  25.611  1.00  0.00    -0.550 OA
ENDBRANCH  13  14
ENDBRANCH  12  13
ENDBRANCH  11  12
ENDBRANCH  10  11
ENDBRANCH   9  10
ENDBRANCH   8   9
ENDBRANCH   7   8
ENDBRANCH   6   7
ENDBRANCH   5   6
ENDBRANCH   4   5
ENDBRANCH   3   4
ENDBRANCH   2   3
ENDBRANCH   1   2
BRANCH   1  17
ATOM     17  C   UNL     1      16.985 -21.497  23.026  1.00  0.00     0.000 C 
BRANCH  17  18
ATOM     18  C   UNL     1      16.133 -21.441  21.741  1.00  0.00     0.000 C 
BRANCH  18  19
ATOM     19  C   UNL     1      15.316 -22.726  21.508  1.00  0.00     0.000 C 
BRANCH  19  20
ATOM     20  C   UNL     1      14.233 -22.563  20.427  1.00  0.00     0.000 C 
BRANCH  20  21
ATOM     21  C   UNL     1      14.565 -21.481  19.376  1.00  0.00     0.000 C 
BRANCH  21  22
ATOM     22  C   UNL     1      13.531 -20.342  19.372  1.00  0.00    -0.000 C 
BRANCH  22  23
ATOM     23  C   UNL     1      14.175 -18.954  19.217  1.00  0.00    -0.000 C 
BRANCH  23  24
ATOM     24  C   UNL     1      14.674 -18.375  20.552  1.00  0.00    -0.000 C 
BRANCH  24  25
ATOM     25  C   UNL     1      15.786 -17.330  20.368  1.00  0.00    -0.000 C 
BRANCH  25  26
ATOM     26  C   UNL     1      15.498 -15.989  21.079  1.00  0.00    -0.000 C 
BRANCH  26  27
ATOM     27  C   UNL     1      14.858 -14.959  20.131  1.00  0.00    -0.000 C 
BRANCH  27  28
ATOM     28  C   UNL     1      14.168 -13.807  20.893  1.00  0.00    -0.000 C 
BRANCH  28  29
ATOM     29  C   UNL     1      15.153 -12.847  21.582  1.00  0.00    -0.003 C 
ATOM     30  C   UNL     1      14.558 -12.160  22.810  1.00  0.00     0.004 C 
ENDBRANCH  28  29
ENDBRANCH  27  28
ENDBRANCH  26  27
ENDBRANCH  25  26
ENDBRANCH  24  25
ENDBRANCH  23  24
ENDBRANCH  22  23
ENDBRANCH  21  22
ENDBRANCH  20  21
ENDBRANCH  19  20
ENDBRANCH  18  19
ENDBRANCH  17  18
ENDBRANCH   1  17
TORSDOF 26
ENDMDL
MODEL 3
REMARK VINA RESULT:    -3.562      2.847      6.638
REMARK INTER + INTRA:         -14.157
REMARK INTER:                  -8.120
REMARK INTRA:                  -6.036
REMARK UNBOUND:                -5.181
REMARK SMILES CCCCCCCCCCCCCCCCCCCCCCCCCCCC(=O)[O-]
REMARK SMILES IDX 15 1 16 2 17 3 18 4 19 5 20 6 21 7 22 8 23 9 24 10 25 11
REMARK SMILES IDX 26 12 27 13 28 14 29 15 30 16 14 17 13 18 12 19 11 20 10 21
REMARK SMILES IDX 9 22 8 23 7 24 6 25 5 26 4 27 3 28 2 29 1 30
REMARK H PARENT
REMARK Flexibility Score: inf
ROOT
ATOM      1  C   UNL     1      19.239  -5.847  27.522  1.00  0.00     0.000 C 
ENDROOT
BRANCH   1   2
ATOM      2  C   UNL     1      20.540  -6.606  27.853  1.00  0.00     0.000 C 
BRANCH   2   3
ATOM      3  C   UNL     1      21.040  -6.448  29.301  1.00  0.00     0.000 C 
BRANCH   3   4
ATOM      4  C   UNL     1      20.083  -5.638  30.186  1.00  0.00     0.000 C 
BRANCH   4   5
ATOM      5  C   UNL     1      19.971  -6.273  31.581  1.00  0.00     0.000 C 
BRANCH   5   6
ATOM      6  C   UNL     1      20.667  -7.639  31.672  1.00  0.00     0.000 C 
BRANCH   6   7
ATOM      7  C   UNL     1      19.881  -8.651  32.518  1.00  0.00     0.000 C 
BRANCH   7   8
ATOM      8  C   UNL     1      18.812  -7.939  33.365  1.00  0.00     0.000 C 
BRANCH   8   9
ATOM      9  C   UNL     1      17.556  -8.799  33.577  1.00  0.00     0.000 C 
BRANCH   9  10
ATOM     10  C   UNL     1      17.887 -10.278  33.829  1.00  0.00     0.000 C 
BRANCH  10  11
ATOM     11  C   UNL     1      17.330 -11.160  32.705  1.00  0.00     0.000 C 
BRANCH  11  12
ATOM     12  C   UNL     1      18.070 -12.503  32.637  1.00  0.00     0.006 C 
BRANCH  12  13
ATOM     13  C   UNL     1      19.405 -12.357  31.898  1.00  0.00     0.053 C 
BRANCH  13  14
ATOM     14  C   UNL     1      20.546 -12.756  32.778  1.00  0.00     0.041 C 
ATOM     15  O   UNL     1      20.324 -13.244  33.918  1.00  0.00    -0.550 OA
ATOM     16  O   UNL     1      21.853 -12.614  32.331  1.00  0.00    -0.550 OA
ENDBRANCH  13  14
ENDBRANCH  12  13
ENDBRANCH  11  12
ENDBRANCH  10  11
ENDBRANCH   9  10
ENDBRANCH   8   9
ENDBRANCH   7   8
ENDBRANCH   6   7
ENDBRANCH   5   6
ENDBRANCH   4   5
ENDBRANCH   3   4
ENDBRANCH   2   3
ENDBRANCH   1   2
BRANCH   1  17
ATOM     17  C   UNL     1      18.291  -6.552  26.533  1.00  0.00     0.000 C 
BRANCH  17  18
ATOM     18  C   UNL     1      16.834  -6.044  26.578  1.00  0.00     0.000 C 
BRANCH  18  19
ATOM     19  C   UNL     1      16.627  -4.910  27.600  1.00  0.00     0.000 C 
BRANCH  19  20
ATOM     20  C   UNL     1      15.690  -5.305  28.755  1.00  0.00     0.000 C 
BRANCH  20  21
ATOM     21  C   UNL     1      16.404  -5.417  30.120  1.00  0.00     0.000 C 
BRANCH  21  22
ATOM     22  C   UNL     1      16.485  -6.872  30.612  1.00  0.00    -0.000 C 
BRANCH  22  23
ATOM     23  C   UNL     1      15.695  -7.848  29.725  1.00  0.00    -0.000 C 
BRANCH  23  24
ATOM     24  C   UNL     1      16.577  -8.951  29.117  1.00  0.00    -0.000 C 
BRANCH  24  25
ATOM     25  C   UNL     1      18.054  -8.824  29.525  1.00  0.00    -0.000 C 
BRANCH  25  26
ATOM     26  C   UNL     1      18.945  -9.963  28.985  1.00  0.00    -0.000 C 
BRANCH  26  27
ATOM     27  C   UNL     1      19.025  -9.954  27.448  1.00  0.00    -0.000 C 
BRANCH  27  28
ATOM     28  C   UNL     1      18.708 -11.335  26.833  1.00  0.00    -0.000 C 
BRANCH  28  29
ATOM     29  C   UNL     1      17.457 -11.337  25.938  1.00  0.00    -0.003 C 
ATOM     30  C   UNL     1      16.981  -9.932  25.573  1.00  0.00     0.004 C 
ENDBRANCH  28  29
ENDBRANCH  27  28
ENDBRANCH  26  27
ENDBRANCH  25  26
ENDBRANCH  24  25
ENDBRANCH  23  24
ENDBRANCH  22  23
ENDBRANCH  21  22
ENDBRANCH  20  21
ENDBRANCH  19  20
ENDBRANCH  18  19
ENDBRANCH  17  18
ENDBRANCH   1  17
TORSDOF 26
ENDMDL
MODEL 4
REMARK VINA RESULT:    -3.561      2.549      6.430
REMARK INTER + INTRA:         -14.156
REMARK INTER:                  -8.226
REMARK INTRA:                  -5.930
REMARK UNBOUND:                -5.181
REMARK SMILES CCCCCCCCCCCCCCCCCCCCCCCCCCCC(=O)[O-]
REMARK SMILES IDX 15 1 16 2 17 3 18 4 19 5 20 6 21 7 22 8 23 9 24 10 25 11
REMARK SMILES IDX 26 12 27 13 28 14 29 15 30 16 14 17 13 18 12 19 11 20 10 21
REMARK SMILES IDX 9 22 8 23 7 24 6 25 5 26 4 27 3 28 2 29 1 30
REMARK H PARENT
REMARK Flexibility Score: inf
ROOT
ATOM      1  C   UNL     1      16.008  -6.797  28.800  1.00  0.00     0.000 C 
ENDROOT
BRANCH   1   2
ATOM      2  C   UNL     1      16.139  -5.438  29.514  1.00  0.00     0.000 C 
BRANCH   2   3
ATOM      3  C   UNL     1      17.578  -5.029  29.884  1.00  0.00     0.000 C 
BRANCH   3   4
ATOM      4  C   UNL     1      17.905  -5.244  31.367  1.00  0.00     0.000 C 
BRANCH   4   5
ATOM      5  C   UNL     1      16.618  -5.277  32.205  1.00  0.00     0.000 C 
BRANCH   5   6
ATOM      6  C   UNL     1      16.465  -6.576  33.011  1.00  0.00     0.000 C 
BRANCH   6   7
ATOM      7  C   UNL     1      17.665  -6.850  33.929  1.00  0.00     0.000 C 
BRANCH   7   8
ATOM      8  C   UNL     1      17.628  -8.295  34.456  1.00  0.00     0.000 C 
BRANCH   8   9
ATOM      9  C   UNL     1      16.760  -9.219  33.587  1.00  0.00     0.000 C 
BRANCH   9  10
ATOM     10  C   UNL     1      16.694 -10.653  34.132  1.00  0.00     0.000 C 
BRANCH  10  11
ATOM     11  C   UNL     1      16.206 -11.626  33.051  1.00  0.00     0.000 C 
BRANCH  11  12
ATOM     12  C   UNL     1      17.119 -12.855  32.959  1.00  0.00     0.006 C 
BRANCH  12  13
ATOM     13  C   UNL     1      18.375 -12.672  33.819  1.00  0.00     0.053 C 
BRANCH  13  14
ATOM     14  C   UNL     1      19.602 -13.053  33.054  1.00  0.00     0.041 C 
ATOM     15  O   UNL     1      20.697 -13.215  33.656  1.00  0.00    -0.550 OA
ATOM     16  O   UNL     1      19.533 -13.255  31.681  1.00  0.00    -0.550 OA
ENDBRANCH  13  14
ENDBRANCH  12  13
ENDBRANCH  11  12
ENDBRANCH  10  11
ENDBRANCH   9  10
ENDBRANCH   8   9
ENDBRANCH   7   8
ENDBRANCH   6   7
ENDBRANCH   5   6
ENDBRANCH   4   5
ENDBRANCH   3   4
ENDBRANCH   2   3
ENDBRANCH   1   2
BRANCH   1  17
ATOM     17  C   UNL     1      15.313  -7.910  29.608  1.00  0.00     0.000 C 
BRANCH  17  18
ATOM     18  C   UNL     1      16.198  -9.144  29.883  1.00  0.00     0.000 C 
BRANCH  18  19
ATOM     19  C   UNL     1      17.650  -8.772  30.238  1.00  0.00     0.000 C 
BRANCH  19  20
ATOM     20  C   UNL     1      18.586  -9.991  30.300  1.00  0.00     0.000 C 
BRANCH  20  21
ATOM     21  C   UNL     1      19.784  -9.803  31.256  1.00  0.00     0.000 C 
BRANCH  21  22
ATOM     22  C   UNL     1      20.059  -8.320  31.554  1.00  0.00    -0.000 C 
BRANCH  22  23
ATOM     23  C   UNL     1      21.318  -7.792  30.846  1.00  0.00    -0.000 C 
BRANCH  23  24
ATOM     24  C   UNL     1      20.995  -6.810  29.707  1.00  0.00    -0.000 C 
BRANCH  24  25
ATOM     25  C   UNL     1      20.743  -7.517  28.366  1.00  0.00    -0.000 C 
BRANCH  25  26
ATOM     26  C   UNL     1      19.439  -7.074  27.668  1.00  0.00    -0.000 C 
BRANCH  26  27
ATOM     27  C   UNL     1      19.249  -7.765  26.305  1.00  0.00    -0.000 C 
BRANCH  27  28
ATOM     28  C   UNL     1      18.177  -8.875  26.353  1.00  0.00    -0.000 C 
BRANCH  28  29
ATOM     29  C   UNL     1      18.670 -10.230  25.817  1.00  0.00    -0.003 C 
ATOM     30  C   UNL     1      18.357 -11.394  26.757  1.00  0.00     0.004 C 
ENDBRANCH  28  29
ENDBRANCH  27  28
ENDBRANCH  26  27
ENDBRANCH  25  26
ENDBRANCH  24  25
ENDBRANCH  23  24
ENDBRANCH  22  23
ENDBRANCH  21  22
ENDBRANCH  20  21
ENDBRANCH  19  20
ENDBRANCH  18  19
ENDBRANCH  17  18
ENDBRANCH   1  17
TORSDOF 26
ENDMDL
MODEL 5
REMARK VINA RESULT:    -3.561      2.846      7.003
REMARK INTER + INTRA:         -14.156
REMARK INTER:                  -8.475
REMARK INTRA:                  -5.680
REMARK UNBOUND:                -5.181
REMARK SMILES CCCCCCCCCCCCCCCCCCCCCCCCCCCC(=O)[O-]
REMARK SMILES IDX 15 1 16 2 17 3 18 4 19 5 20 6 21 7 22 8 23 9 24 10 25 11
REMARK SMILES IDX 26 12 27 13 28 14 29 15 30 16 14 17 13 18 12 19 11 20 10 21
REMARK SMILES IDX 9 22 8 23 7 24 6 25 5 26 4 27 3 28 2 29 1 30
REMARK H PARENT
REMARK Flexibility Score: inf
ROOT
ATOM      1  C   UNL     1      17.875  -9.149  29.682  1.00  0.00     0.000 C 
ENDROOT
BRANCH   1   2
ATOM      2  C   UNL     1      19.023 -10.005  29.114  1.00  0.00     0.000 C 
BRANCH   2   3
ATOM      3  C   UNL     1      20.369  -9.869  29.851  1.00  0.00     0.000 C 
BRANCH   3   4
ATOM      4  C   UNL     1      20.766  -8.412  30.119  1.00  0.00     0.000 C 
BRANCH   4   5
ATOM      5  C   UNL     1      20.889  -8.154  31.629  1.00  0.00     0.000 C 
BRANCH   5   6
ATOM      6  C   UNL     1      19.763  -7.263  32.175  1.00  0.00     0.000 C 
BRANCH   6   7
ATOM      7  C   UNL     1      18.925  -7.959  33.257  1.00  0.00     0.000 C 
BRANCH   7   8
ATOM      8  C   UNL     1      19.326  -9.439  33.387  1.00  0.00     0.000 C 
BRANCH   8   9
ATOM      9  C   UNL     1      18.610 -10.145  34.550  1.00  0.00     0.000 C 
BRANCH   9  10
ATOM     10  C   UNL     1      17.315 -10.843  34.109  1.00  0.00     0.000 C 
BRANCH  10  11
ATOM     11  C   UNL     1      17.451 -11.398  32.686  1.00  0.00     0.000 C 
BRANCH  11  12
ATOM     12  C   UNL     1      18.003 -12.830  32.700  1.00  0.00     0.006 C 
BRANCH  12  13
ATOM     13  C   UNL     1      19.316 -12.920  31.915  1.00  0.00     0.053 C 
BRANCH  13  14
ATOM     14  C   UNL     1      20.489 -12.935  32.842  1.00  0.00     0.041 C 
ATOM     15  O   UNL     1      20.343 -13.298  34.040  1.00  0.00    -0.550 OA
ATOM     16  O   UNL     1      21.748 -12.576  32.378  1.00  0.00    -0.550 OA
ENDBRANCH  13  14
ENDBRANCH  12  13
ENDBRANCH  11  12
ENDBRANCH  10  11
ENDBRANCH   9  10
ENDBRANCH   8   9
ENDBRANCH   7   8
ENDBRANCH   6   7
ENDBRANCH   5   6
ENDBRANCH   4   5
ENDBRANCH   3   4
ENDBRANCH   2   3
ENDBRANCH   1   2
BRANCH   1  17
ATOM     17  C   UNL     1      16.750  -8.799  28.688  1.00  0.00     0.000 C 
BRANCH  17  18
ATOM     18  C   UNL     1      16.096  -7.421  28.927  1.00  0.00     0.000 C 
BRANCH  18  19
ATOM     19  C   UNL     1      16.295  -6.906  30.365  1.00  0.00     0.000 C 
BRANCH  19  20
ATOM     20  C   UNL     1      17.018  -5.549  30.423  1.00  0.00     0.000 C 
BRANCH  20  21
ATOM     21  C   UNL     1      17.701  -5.153  29.095  1.00  0.00     0.000 C 
BRANCH  21  22
ATOM     22  C   UNL     1      19.235  -5.179  29.203  1.00  0.00    -0.000 C 
BRANCH  22  23
ATOM     23  C   UNL     1      19.916  -5.649  27.908  1.00  0.00    -0.000 C 
BRANCH  23  24
ATOM     24  C   UNL     1      18.914  -6.152  26.855  1.00  0.00    -0.000 C 
BRANCH  24  25
ATOM     25  C   UNL     1      19.223  -7.579  26.373  1.00  0.00    -0.000 C 
BRANCH  25  26
ATOM     26  C   UNL     1      18.367  -8.025  25.168  1.00  0.00    -0.000 C 
BRANCH  26  27
ATOM     27  C   UNL     1      18.188  -9.553  25.120  1.00  0.00    -0.000 C 
BRANCH  27  28
ATOM     28  C   UNL     1      16.704  -9.973  25.174  1.00  0.00    -0.000 C 
BRANCH  28  29
ATOM     29  C   UNL     1      16.461 -11.278  25.951  1.00  0.00    -0.003 C 
ATOM     30  C   UNL     1      17.756 -11.970  26.377  1.00  0.00     0.004 C 
ENDBRANCH  28  29
ENDBRANCH  27  28
ENDBRANCH  26  27
ENDBRANCH  25  26
ENDBRANCH  24  25
ENDBRANCH  23  24
ENDBRANCH  22  23
ENDBRANCH  21  22
ENDBRANCH  20  21
ENDBRANCH  19  20
ENDBRANCH  18  19
ENDBRANCH  17  18
ENDBRANCH   1  17
TORSDOF 26
ENDMDL
MODEL 6
REMARK VINA RESULT:    -3.545      1.769      3.153
REMARK INTER + INTRA:         -14.115
REMARK INTER:                  -8.836
REMARK INTRA:                  -5.279
REMARK UNBOUND:                -5.181
REMARK SMILES CCCCCCCCCCCCCCCCCCCCCCCCCCCC(=O)[O-]
REMARK SMILES IDX 15 1 16 2 17 3 18 4 19 5 20 6 21 7 22 8 23 9 24 10 25 11
REMARK SMILES IDX 26 12 27 13 28 14 29 15 30 16 14 17 13 18 12 19 11 20 10 21
REMARK SMILES IDX 9 22 8 23 7 24 6 25 5 26 4 27 3 28 2 29 1 30
REMARK H PARENT
REMARK Flexibility Score: inf
ROOT
ATOM      1  C   UNL     1      21.060  -6.596  29.626  1.00  0.00     0.000 C 
ENDROOT
BRANCH   1   2
ATOM      2  C   UNL     1      20.764  -6.853  28.136  1.00  0.00     0.000 C 
BRANCH   2   3
ATOM      3  C   UNL     1      19.688  -5.942  27.515  1.00  0.00     0.000 C 
BRANCH   3   4
ATOM      4  C   UNL     1      18.927  -5.110  28.556  1.00  0.00     0.000 C 
BRANCH   4   5
ATOM      5  C   UNL     1      17.418  -5.129  28.265  1.00  0.00     0.000 C 
BRANCH   5   6
ATOM      6  C   UNL     1      16.588  -5.629  29.458  1.00  0.00     0.000 C 
BRANCH   6   7
ATOM      7  C   UNL     1      17.307  -6.716  30.269  1.00  0.00     0.000 C 
BRANCH   7   8
ATOM      8  C   UNL     1      16.602  -8.073  30.105  1.00  0.00     0.000 C 
BRANCH   8   9
ATOM      9  C   UNL     1      17.430  -9.075  29.284  1.00  0.00     0.000 C 
BRANCH   9  10
ATOM     10  C   UNL     1      17.253  -8.887  27.770  1.00  0.00     0.000 C 
BRANCH  10  11
ATOM     11  C   UNL     1      18.450  -9.466  27.005  1.00  0.00     0.000 C 
BRANCH  11  12
ATOM     12  C   UNL     1      18.284 -10.973  26.775  1.00  0.00     0.006 C 
BRANCH  12  13
ATOM     13  C   UNL     1      16.934 -11.282  26.117  1.00  0.00     0.053 C 
BRANCH  13  14
ATOM     14  C   UNL     1      16.961 -10.937  24.662  1.00  0.00     0.041 C 
ATOM     15  O   UNL     1      16.311  -9.945  24.235  1.00  0.00    -0.550 OA
ATOM     16  O   UNL     1      17.725 -11.691  23.780  1.00  0.00    -0.550 OA
ENDBRANCH  13  14
ENDBRANCH  12  13
ENDBRANCH  11  12
ENDBRANCH  10  11
ENDBRANCH   9  10
ENDBRANCH   8   9
ENDBRANCH   7   8
ENDBRANCH   6   7
ENDBRANCH   5   6
ENDBRANCH   4   5
ENDBRANCH   3   4
ENDBRANCH   2   3
ENDBRANCH   1   2
BRANCH   1  17
ATOM     17  C   UNL     1      20.848  -7.801  30.564  1.00  0.00     0.000 C 
BRANCH  17  18
ATOM     18  C   UNL     1      20.783  -9.164  29.844  1.00  0.00     0.000 C 
BRANCH  18  19
ATOM     19  C   UNL     1      20.673 -10.351  30.819  1.00  0.00     0.000 C 
BRANCH  19  20
ATOM     20  C   UNL     1      21.186 -11.672  30.220  1.00  0.00     0.000 C 
BRANCH  20  21
ATOM     21  C   UNL     1      21.517 -12.745  31.280  1.00  0.00     0.000 C 
BRANCH  21  22
ATOM     22  C   UNL     1      21.078 -12.319  32.691  1.00  0.00    -0.000 C 
BRANCH  22  23
ATOM     23  C   UNL     1      19.947 -13.196  33.254  1.00  0.00    -0.000 C 
BRANCH  23  24
ATOM     24  C   UNL     1      18.649 -13.093  32.436  1.00  0.00    -0.000 C 
BRANCH  24  25
ATOM     25  C   UNL     1      17.571 -12.245  33.132  1.00  0.00    -0.000 C 
BRANCH  25  26
ATOM     26  C   UNL     1      17.413 -10.832  32.531  1.00  0.00    -0.000 C 
BRANCH  26  27
ATOM     27  C   UNL     1      17.525  -9.733  33.603  1.00  0.00    -0.000 C 
BRANCH  27  28
ATOM     28  C   UNL     1      18.704  -8.771  33.339  1.00  0.00    -0.000 C 
BRANCH  28  29
ATOM     29  C   UNL     1      18.509  -7.375  33.956  1.00  0.00    -0.003 C 
ATOM     30  C   UNL     1      17.065  -6.882  33.876  1.00  0.00     0.004 C 
ENDBRANCH  28  29
ENDBRANCH  27  28
ENDBRANCH  26  27
ENDBRANCH  25  26
ENDBRANCH  24  25
ENDBRANCH  23  24
ENDBRANCH  22  23
ENDBRANCH  21  22
ENDBRANCH  20  21
ENDBRANCH  19  20
ENDBRANCH  18  19
ENDBRANCH  17  18
ENDBRANCH   1  17
TORSDOF 26
ENDMDL
MODEL 7
REMARK VINA RESULT:    -3.500      1.862      3.657
REMARK INTER + INTRA:         -14.000
REMARK INTER:                  -8.186
REMARK INTRA:                  -5.814
REMARK UNBOUND:                -5.181
REMARK SMILES CCCCCCCCCCCCCCCCCCCCCCCCCCCC(=O)[O-]
REMARK SMILES IDX 15 1 16 2 17 3 18 4 19 5 20 6 21 7 22 8 23 9 24 10 25 11
REMARK SMILES IDX 26 12 27 13 28 14 29 15 30 16 14 17 13 18 12 19 11 20 10 21
REMARK SMILES IDX 9 22 8 23 7 24 6 25 5 26 4 27 3 28 2 29 1 30
REMARK H PARENT
REMARK Flexibility Score: inf
ROOT
ATOM      1  C   UNL     1      20.688  -9.495  29.832  1.00  0.00     0.000 C 
ENDROOT
BRANCH   1   2
ATOM      2  C   UNL     1      20.770  -8.815  28.451  1.00  0.00     0.000 C 
BRANCH   2   3
ATOM      3  C   UNL     1      20.546  -7.290  28.458  1.00  0.00     0.000 C 
BRANCH   3   4
ATOM      4  C   UNL     1      20.958  -6.625  29.778  1.00  0.00     0.000 C 
BRANCH   4   5
ATOM      5  C   UNL     1      20.209  -5.297  29.970  1.00  0.00     0.000 C 
BRANCH   5   6
ATOM      6  C   UNL     1      19.525  -5.191  31.341  1.00  0.00     0.000 C 
BRANCH   6   7
ATOM      7  C   UNL     1      18.000  -5.044  31.235  1.00  0.00     0.000 C 
BRANCH   7   8
ATOM      8  C   UNL     1      17.555  -5.044  29.762  1.00  0.00     0.000 C 
BRANCH   8   9
ATOM      9  C   UNL     1      16.205  -5.749  29.553  1.00  0.00     0.000 C 
BRANCH   9  10
ATOM     10  C   UNL     1      16.365  -7.211  29.110  1.00  0.00     0.000 C 
BRANCH  10  11
ATOM     11  C   UNL     1      16.939  -7.292  27.691  1.00  0.00     0.000 C 
BRANCH  11  12
ATOM     12  C   UNL     1      17.191  -8.748  27.277  1.00  0.00     0.006 C 
BRANCH  12  13
ATOM     13  C   UNL     1      18.026  -8.817  25.994  1.00  0.00     0.053 C 
BRANCH  13  14
ATOM     14  C   UNL     1      18.595 -10.187  25.803  1.00  0.00     0.041 C 
ATOM     15  O   UNL     1      19.241 -10.463  24.757  1.00  0.00    -0.550 OA
ATOM     16  O   UNL     1      18.434 -11.152  26.789  1.00  0.00    -0.550 OA
ENDBRANCH  13  14
ENDBRANCH  12  13
ENDBRANCH  11  12
ENDBRANCH  10  11
ENDBRANCH   9  10
ENDBRANCH   8   9
ENDBRANCH   7   8
ENDBRANCH   6   7
ENDBRANCH   5   6
ENDBRANCH   4   5
ENDBRANCH   3   4
ENDBRANCH   2   3
ENDBRANCH   1   2
BRANCH   1  17
ATOM     17  C   UNL     1      19.552 -10.522  30.001  1.00  0.00     0.000 C 
BRANCH  17  18
ATOM     18  C   UNL     1      18.247  -9.937  30.581  1.00  0.00     0.000 C 
BRANCH  18  19
ATOM     19  C   UNL     1      18.483  -8.672  31.429  1.00  0.00     0.000 C 
BRANCH  19  20
ATOM     20  C   UNL     1      17.375  -8.428  32.468  1.00  0.00     0.000 C 
BRANCH  20  21
ATOM     21  C   UNL     1      17.900  -7.896  33.819  1.00  0.00     0.000 C 
BRANCH  21  22
ATOM     22  C   UNL     1      19.396  -8.192  34.016  1.00  0.00    -0.000 C 
BRANCH  22  23
ATOM     23  C   UNL     1      19.649  -9.468  34.836  1.00  0.00    -0.000 C 
BRANCH  23  24
ATOM     24  C   UNL     1      19.970 -10.688  33.958  1.00  0.00    -0.000 C 
BRANCH  24  25
ATOM     25  C   UNL     1      19.590 -12.019  34.626  1.00  0.00    -0.000 C 
BRANCH  25  26
ATOM     26  C   UNL     1      19.496 -13.203  33.639  1.00  0.00    -0.000 C 
BRANCH  26  27
ATOM     27  C   UNL     1      18.444 -12.958  32.542  1.00  0.00    -0.000 C 
BRANCH  27  28
ATOM     28  C   UNL     1      17.000 -13.114  33.066  1.00  0.00    -0.000 C 
BRANCH  28  29
ATOM     29  C   UNL     1      16.211 -11.794  33.100  1.00  0.00    -0.003 C 
ATOM     30  C   UNL     1      15.931 -11.302  34.519  1.00  0.00     0.004 C 
ENDBRANCH  28  29
ENDBRANCH  27  28
ENDBRANCH  26  27
ENDBRANCH  25  26
ENDBRANCH  24  25
ENDBRANCH  23  24
ENDBRANCH  22  23
ENDBRANCH  21  22
ENDBRANCH  20  21
ENDBRANCH  19  20
ENDBRANCH  18  19
ENDBRANCH  17  18
ENDBRANCH   1  17
TORSDOF 26
ENDMDL
MODEL 8
REMARK VINA RESULT:    -3.475      2.385      5.816
REMARK INTER + INTRA:         -13.937
REMARK INTER:                  -8.429
REMARK INTRA:                  -5.508
REMARK UNBOUND:                -5.181
REMARK SMILES CCCCCCCCCCCCCCCCCCCCCCCCCCCC(=O)[O-]
REMARK SMILES IDX 15 1 16 2 17 3 18 4 19 5 20 6 21 7 22 8 23 9 24 10 25 11
REMARK SMILES IDX 26 12 27 13 28 14 29 15 30 16 14 17 13 18 12 19 11 20 10 21
REMARK SMILES IDX 9 22 8 23 7 24 6 25 5 26 4 27 3 28 2 29 1 30
REMARK H PARENT
REMARK Flexibility Score: inf
ROOT
ATOM      1  C   UNL     1      19.238 -10.612  28.030  1.00  0.00     0.000 C 
ENDROOT
BRANCH   1   2
ATOM      2  C   UNL     1      18.724 -11.296  26.748  1.00  0.00     0.000 C 
BRANCH   2   3
ATOM      3  C   UNL     1      18.869 -10.463  25.459  1.00  0.00     0.000 C 
BRANCH   3   4
ATOM      4  C   UNL     1      17.816 -10.804  24.397  1.00  0.00     0.000 C 
BRANCH   4   5
ATOM      5  C   UNL     1      17.007  -9.554  24.018  1.00  0.00     0.000 C 
BRANCH   5   6
ATOM      6  C   UNL     1      15.587  -9.563  24.603  1.00  0.00     0.000 C 
BRANCH   6   7
ATOM      7  C   UNL     1      15.247 -10.879  25.318  1.00  0.00     0.000 C 
BRANCH   7   8
ATOM      8  C   UNL     1      14.887 -10.621  26.791  1.00  0.00     0.000 C 
BRANCH   8   9
ATOM      9  C   UNL     1      15.182  -9.177  27.228  1.00  0.00     0.000 C 
BRANCH   9  10
ATOM     10  C   UNL     1      15.908  -9.104  28.579  1.00  0.00     0.000 C 
BRANCH  10  11
ATOM     11  C   UNL     1      16.931  -7.962  28.589  1.00  0.00     0.000 C 
BRANCH  11  12
ATOM     12  C   UNL     1      17.293  -7.530  27.162  1.00  0.00     0.006 C 
BRANCH  12  13
ATOM     13  C   UNL     1      17.153  -6.013  26.995  1.00  0.00     0.053 C 
BRANCH  13  14
ATOM     14  C   UNL     1      17.974  -5.526  25.843  1.00  0.00     0.041 C 
ATOM     15  O   UNL     1      17.553  -5.665  24.664  1.00  0.00    -0.550 OA
ATOM     16  O   UNL     1      19.190  -4.896  26.072  1.00  0.00    -0.550 OA
ENDBRANCH  13  14
ENDBRANCH  12  13
ENDBRANCH  11  12
ENDBRANCH  10  11
ENDBRANCH   9  10
ENDBRANCH   8   9
ENDBRANCH   7   8
ENDBRANCH   6   7
ENDBRANCH   5   6
ENDBRANCH   4   5
ENDBRANCH   3   4
ENDBRANCH   2   3
ENDBRANCH   1   2
BRANCH   1  17
ATOM     17  C   UNL     1      20.601  -9.904  27.907  1.00  0.00     0.000 C 
BRANCH  17  18
ATOM     18  C   UNL     1      20.776  -8.693  28.847  1.00  0.00     0.000 C 
BRANCH  18  19
ATOM     19  C   UNL     1      20.730  -7.346  28.103  1.00  0.00     0.000 C 
BRANCH  19  20
ATOM     20  C   UNL     1      21.084  -6.149  29.001  1.00  0.00     0.000 C 
BRANCH  20  21
ATOM     21  C   UNL     1      19.851  -5.385  29.530  1.00  0.00     0.000 C 
BRANCH  21  22
ATOM     22  C   UNL     1      20.069  -4.847  30.954  1.00  0.00    -0.000 C 
BRANCH  22  23
ATOM     23  C   UNL     1      19.095  -5.454  31.977  1.00  0.00    -0.000 C 
BRANCH  23  24
ATOM     24  C   UNL     1      18.695  -6.900  31.636  1.00  0.00    -0.000 C 
BRANCH  24  25
ATOM     25  C   UNL     1      19.681  -7.938  32.197  1.00  0.00    -0.000 C 
BRANCH  25  26
ATOM     26  C   UNL     1      18.995  -9.210  32.743  1.00  0.00    -0.000 C 
BRANCH  26  27
ATOM     27  C   UNL     1      18.537 -10.149  31.612  1.00  0.00    -0.000 C 
BRANCH  27  28
ATOM     28  C   UNL     1      19.277 -11.504  31.638  1.00  0.00    -0.000 C 
BRANCH  28  29
ATOM     29  C   UNL     1      20.783 -11.390  31.347  1.00  0.00    -0.003 C 
ATOM     30  C   UNL     1      21.550 -12.674  31.654  1.00  0.00     0.004 C 
ENDBRANCH  28  29
ENDBRANCH  27  28
ENDBRANCH  26  27
ENDBRANCH  25  26
ENDBRANCH  24  25
ENDBRANCH  23  24
ENDBRANCH  22  23
ENDBRANCH  21  22
ENDBRANCH  20  21
ENDBRANCH  19  20
ENDBRANCH  18  19
ENDBRANCH  17  18
ENDBRANCH   1  17
TORSDOF 26
ENDMDL
MODEL 9
REMARK VINA RESULT:    -3.459      2.758      6.898
REMARK INTER + INTRA:         -13.899
REMARK INTER:                  -7.846
REMARK INTRA:                  -6.052
REMARK UNBOUND:                -5.181
REMARK SMILES CCCCCCCCCCCCCCCCCCCCCCCCCCCC(=O)[O-]
REMARK SMILES IDX 15 1 16 2 17 3 18 4 19 5 20 6 21 7 22 8 23 9 24 10 25 11
REMARK SMILES IDX 26 12 27 13 28 14 29 15 30 16 14 17 13 18 12 19 11 20 10 21
REMARK SMILES IDX 9 22 8 23 7 24 6 25 5 26 4 27 3 28 2 29 1 30
REMARK H PARENT
REMARK Flexibility Score: inf
ROOT
ATOM      1  C   UNL     1      15.322  -9.804  27.177  1.00  0.00     0.000 C 
ENDROOT
BRANCH   1   2
ATOM      2  C   UNL     1      15.499  -9.167  28.570  1.00  0.00     0.000 C 
BRANCH   2   3
ATOM      3  C   UNL     1      16.157  -7.774  28.574  1.00  0.00     0.000 C 
BRANCH   3   4
ATOM      4  C   UNL     1      16.325  -7.190  29.983  1.00  0.00     0.000 C 
BRANCH   4   5
ATOM      5  C   UNL     1      16.949  -5.788  29.915  1.00  0.00     0.000 C 
BRANCH   5   6
ATOM      6  C   UNL     1      17.504  -5.316  31.268  1.00  0.00     0.000 C 
BRANCH   6   7
ATOM      7  C   UNL     1      19.017  -5.059  31.233  1.00  0.00     0.000 C 
BRANCH   7   8
ATOM      8  C   UNL     1      19.747  -5.966  32.238  1.00  0.00     0.000 C 
BRANCH   8   9
ATOM      9  C   UNL     1      18.926  -7.209  32.616  1.00  0.00     0.000 C 
BRANCH   9  10
ATOM     10  C   UNL     1      19.538  -8.510  32.075  1.00  0.00     0.000 C 
BRANCH  10  11
ATOM     11  C   UNL     1      18.441  -9.512  31.694  1.00  0.00     0.000 C 
BRANCH  11  12
ATOM     12  C   UNL     1      18.952 -10.955  31.788  1.00  0.00     0.006 C 
BRANCH  12  13
ATOM     13  C   UNL     1      20.470 -10.987  31.997  1.00  0.00     0.053 C 
BRANCH  13  14
ATOM     14  C   UNL     1      21.082 -12.143  31.271  1.00  0.00     0.041 C 
ATOM     15  O   UNL     1      21.134 -13.277  31.819  1.00  0.00    -0.550 OA
ATOM     16  O   UNL     1      21.571 -11.976  29.982  1.00  0.00    -0.550 OA
ENDBRANCH  13  14
ENDBRANCH  12  13
ENDBRANCH  11  12
ENDBRANCH  10  11
ENDBRANCH   9  10
ENDBRANCH   8   9
ENDBRANCH   7   8
ENDBRANCH   6   7
ENDBRANCH   5   6
ENDBRANCH   4   5
ENDBRANCH   3   4
ENDBRANCH   2   3
ENDBRANCH   1   2
BRANCH   1  17
ATOM     17  C   UNL     1      15.840  -8.966  25.992  1.00  0.00     0.000 C 
BRANCH  17  18
ATOM     18  C   UNL     1      16.835  -9.708  25.075  1.00  0.00     0.000 C 
BRANCH  18  19
ATOM     19  C   UNL     1      18.273  -9.705  25.627  1.00  0.00     0.000 C 
BRANCH  19  20
ATOM     20  C   UNL     1      18.708 -11.072  26.181  1.00  0.00     0.000 C 
BRANCH  20  21
ATOM     21  C   UNL     1      19.447 -10.985  27.535  1.00  0.00     0.000 C 
BRANCH  21  22
ATOM     22  C   UNL     1      19.233  -9.627  28.224  1.00  0.00    -0.000 C 
BRANCH  22  23
ATOM     23  C   UNL     1      20.554  -8.939  28.608  1.00  0.00    -0.000 C 
BRANCH  23  24
ATOM     24  C   UNL     1      20.429  -7.408  28.686  1.00  0.00    -0.000 C 
BRANCH  24  25
ATOM     25  C   UNL     1      19.771  -6.800  27.436  1.00  0.00    -0.000 C 
BRANCH  25  26
ATOM     26  C   UNL     1      19.634  -5.264  27.494  1.00  0.00    -0.000 C 
BRANCH  26  27
ATOM     27  C   UNL     1      18.714  -4.724  26.384  1.00  0.00    -0.000 C 
BRANCH  27  28
ATOM     28  C   UNL     1      17.787  -5.815  25.805  1.00  0.00    -0.000 C 
BRANCH  28  29
ATOM     29  C   UNL     1      16.345  -5.336  25.567  1.00  0.00    -0.003 C 
ATOM     30  C   UNL     1      15.789  -4.514  26.728  1.00  0.00     0.004 C 
ENDBRANCH  28  29
ENDBRANCH  27  28
ENDBRANCH  26  27
ENDBRANCH  25  26
ENDBRANCH  24  25
ENDBRANCH  23  24
ENDBRANCH  22  23
ENDBRANCH  21  22
ENDBRANCH  20  21
ENDBRANCH  19  20
ENDBRANCH  18  19
ENDBRANCH  17  18
ENDBRANCH   1  17
TORSDOF 26
ENDMDL
