MODEL 1
REMARK VINA RESULT:    -3.781      0.000      0.000
REMARK INTER + INTRA:          -6.558
REMARK INTER:                  -5.880
REMARK INTRA:                  -0.677
REMARK UNBOUND:                -0.677
REMARK SMILES COc1cc(CNC(=O)CCCCC=CC(C)C)ccc1O
REMARK SMILES IDX 11 1 12 2 13 3 14 4 15 5 16 6 17 7 18 8 10 9 8 10 9 11 7 12
REMARK SMILES IDX 6 14 5 15 4 16 19 17 3 18 20 19 21 20 2 21 1 22 22 23
REMARK H PARENT 7 13 22 24
REMARK Flexibility Score: inf
ROOT
ATOM      1  C   UNL     1      19.990  26.118  26.059  1.00  0.00     0.010 C 
ENDROOT
BRANCH   1   2
ATOM      2  C   UNL     1      18.485  25.808  26.051  1.00  0.00     0.005 C 
BRANCH   2   3
ATOM      3  C   UNL     1      18.150  24.545  25.245  1.00  0.00     0.027 C 
BRANCH   3   4
ATOM      4  C   UNL     1      19.062  24.395  24.058  1.00  0.00    -0.031 C 
ATOM      5  C   UNL     1      18.682  24.771  22.824  1.00  0.00    -0.028 C 
BRANCH   5   6
ATOM      6  C   UNL     1      19.582  24.644  21.616  1.00  0.00     0.005 C 
ATOM      7  C   UNL     1      20.857  25.484  21.776  1.00  0.00     0.012 C 
ATOM      8  C   UNL     1      18.836  24.999  20.325  1.00  0.00     0.012 C 
ENDBRANCH   5   6
ENDBRANCH   3   4
ENDBRANCH   2   3
ENDBRANCH   1   2
BRANCH   1   9
ATOM      9  C   UNL     1      20.726  25.430  27.216  1.00  0.00     0.100 C 
BRANCH   9  10
ATOM     10  C   UNL     1      21.479  26.441  28.027  1.00  0.00     0.220 C 
ATOM     11  O   UNL     1      20.874  27.092  28.922  1.00  0.00    -0.275 OA
ATOM     12  N   UNL     1      22.860  26.703  27.747  1.00  0.00    -0.352 N 
ATOM     13  H   UNL     1      23.329  26.181  26.973  1.00  0.00     0.163 HD
BRANCH  12  14
ATOM     14  C   UNL     1      23.633  27.709  28.475  1.00  0.00     0.151 C 
BRANCH  14  15
ATOM     15  C   UNL     1      25.083  27.310  28.542  1.00  0.00    -0.025 A 
ATOM     16  C   UNL     1      26.095  28.283  28.505  1.00  0.00     0.056 A 
ATOM     17  C   UNL     1      25.431  25.957  28.666  1.00  0.00     0.009 A 
ATOM     18  C   UNL     1      27.451  27.909  28.581  1.00  0.00     0.160 A 
ATOM     19  C   UNL     1      26.773  25.580  28.740  1.00  0.00     0.050 A 
ATOM     20  C   UNL     1      27.783  26.551  28.697  1.00  0.00     0.157 A 
BRANCH  18  21
ATOM     21  O   UNL     1      28.491  28.851  28.547  1.00  0.00    -0.493 OA
ATOM     22  C   UNL     1      28.715  29.770  27.479  1.00  0.00     0.278 C 
ENDBRANCH  18  21
BRANCH  20  23
ATOM     23  O   UNL     1      29.123  26.174  28.769  1.00  0.00    -0.504 OA
ATOM     24  H   UNL     1      29.653  25.928  27.940  1.00  0.00     0.293 HD
ENDBRANCH  20  23
ENDBRANCH  14  15
ENDBRANCH  12  14
ENDBRANCH   9  10
ENDBRANCH   1   9
TORSDOF 10
ENDMDL
MODEL 2
REMARK VINA RESULT:    -3.780      2.223      3.590
REMARK INTER + INTRA:          -6.557
REMARK INTER:                  -5.845
REMARK INTRA:                  -0.713
REMARK UNBOUND:                -0.677
REMARK SMILES COc1cc(CNC(=O)CCCCC=CC(C)C)ccc1O
REMARK SMILES IDX 11 1 12 2 13 3 14 4 15 5 16 6 17 7 18 8 10 9 8 10 9 11 7 12
REMARK SMILES IDX 6 14 5 15 4 16 19 17 3 18 20 19 21 20 2 21 1 22 22 23
REMARK H PARENT 7 13 22 24
REMARK Flexibility Score: inf
ROOT
ATOM      1  C   UNL     1      22.799  28.179  27.995  1.00  0.00     0.010 C 
ENDROOT
BRANCH   1   2
ATOM      2  C   UNL     1      21.628  27.412  28.626  1.00  0.00     0.005 C 
BRANCH   2   3
ATOM      3  C   UNL     1      21.430  26.023  28.003  1.00  0.00     0.027 C 
BRANCH   3   4
ATOM      4  C   UNL     1      20.496  26.079  26.826  1.00  0.00    -0.031 C 
ATOM      5  C   UNL     1      20.181  24.978  26.122  1.00  0.00    -0.028 C 
BRANCH   5   6
ATOM      6  C   UNL     1      19.235  25.004  24.942  1.00  0.00     0.005 C 
ATOM      7  C   UNL     1      19.763  24.151  23.781  1.00  0.00     0.012 C 
ATOM      8  C   UNL     1      18.942  26.441  24.494  1.00  0.00     0.012 C 
ENDBRANCH   5   6
ENDBRANCH   3   4
ENDBRANCH   2   3
ENDBRANCH   1   2
BRANCH   1   9
ATOM      9  C   UNL     1      23.541  29.060  29.009  1.00  0.00     0.100 C 
BRANCH   9  10
ATOM     10  C   UNL     1      24.814  28.398  29.440  1.00  0.00     0.220 C 
ATOM     11  O   UNL     1      25.722  29.089  29.977  1.00  0.00    -0.275 OA
ATOM     12  N   UNL     1      25.018  27.001  29.189  1.00  0.00    -0.352 N 
ATOM     13  H   UNL     1      24.269  26.458  28.704  1.00  0.00     0.163 HD
BRANCH  12  14
ATOM     14  C   UNL     1      26.257  26.310  29.546  1.00  0.00     0.151 C 
BRANCH  14  15
ATOM     15  C   UNL     1      26.977  25.850  28.306  1.00  0.00    -0.025 A 
ATOM     16  C   UNL     1      27.612  26.776  27.462  1.00  0.00     0.056 A 
ATOM     17  C   UNL     1      27.036  24.483  27.998  1.00  0.00     0.009 A 
ATOM     18  C   UNL     1      28.296  26.343  26.310  1.00  0.00     0.160 A 
ATOM     19  C   UNL     1      27.712  24.048  26.857  1.00  0.00     0.050 A 
ATOM     20  C   UNL     1      28.339  24.973  26.012  1.00  0.00     0.157 A 
BRANCH  18  21
ATOM     21  O   UNL     1      28.942  27.237  25.442  1.00  0.00    -0.493 OA
ATOM     22  C   UNL     1      28.671  28.636  25.374  1.00  0.00     0.278 C 
ENDBRANCH  18  21
BRANCH  20  23
ATOM     23  O   UNL     1      29.012  24.538  24.871  1.00  0.00    -0.504 OA
ATOM     24  H   UNL     1      29.227  25.169  24.107  1.00  0.00     0.293 HD
ENDBRANCH  20  23
ENDBRANCH  14  15
ENDBRANCH  12  14
ENDBRANCH   9  10
ENDBRANCH   1   9
TORSDOF 10
ENDMDL
MODEL 3
REMARK VINA RESULT:    -3.649      1.838      2.041
REMARK INTER + INTRA:          -6.353
REMARK INTER:                  -5.723
REMARK INTRA:                  -0.630
REMARK UNBOUND:                -0.677
REMARK SMILES COc1cc(CNC(=O)CCCCC=CC(C)C)ccc1O
REMARK SMILES IDX 11 1 12 2 13 3 14 4 15 5 16 6 17 7 18 8 10 9 8 10 9 11 7 12
REMARK SMILES IDX 6 14 5 15 4 16 19 17 3 18 20 19 21 20 2 21 1 22 22 23
REMARK H PARENT 7 13 22 24
REMARK Flexibility Score: inf
ROOT
ATOM      1  C   UNL     1      21.123  25.784  27.190  1.00  0.00     0.010 C 
ENDROOT
BRANCH   1   2
ATOM      2  C   UNL     1      19.940  26.366  26.402  1.00  0.00     0.005 C 
BRANCH   2   3
ATOM      3  C   UNL     1      18.916  25.294  26.002  1.00  0.00     0.027 C 
BRANCH   3   4
ATOM      4  C   UNL     1      19.286  24.645  24.696  1.00  0.00    -0.031 C 
ATOM      5  C   UNL     1      19.120  25.278  23.522  1.00  0.00    -0.028 C 
BRANCH   5   6
ATOM      6  C   UNL     1      19.495  24.654  22.196  1.00  0.00     0.005 C 
ATOM      7  C   UNL     1      20.145  25.680  21.258  1.00  0.00     0.012 C 
ATOM      8  C   UNL     1      18.287  23.980  21.536  1.00  0.00     0.012 C 
ENDBRANCH   5   6
ENDBRANCH   3   4
ENDBRANCH   2   3
ENDBRANCH   1   2
BRANCH   1   9
ATOM      9  C   UNL     1      21.418  26.570  28.475  1.00  0.00     0.100 C 
BRANCH   9  10
ATOM     10  C   UNL     1      22.678  27.366  28.319  1.00  0.00     0.220 C 
ATOM     11  O   UNL     1      22.635  28.488  27.746  1.00  0.00    -0.275 OA
ATOM     12  N   UNL     1      23.929  26.827  28.766  1.00  0.00    -0.352 N 
ATOM     13  H   UNL     1      23.946  25.877  29.200  1.00  0.00     0.163 HD
BRANCH  12  14
ATOM     14  C   UNL     1      25.196  27.538  28.600  1.00  0.00     0.151 C 
BRANCH  14  15
ATOM     15  C   UNL     1      26.139  26.737  27.742  1.00  0.00    -0.025 A 
ATOM     16  C   UNL     1      27.182  27.369  27.044  1.00  0.00     0.056 A 
ATOM     17  C   UNL     1      25.993  25.345  27.651  1.00  0.00     0.009 A 
ATOM     18  C   UNL     1      28.071  26.617  26.251  1.00  0.00     0.160 A 
ATOM     19  C   UNL     1      26.870  24.595  26.867  1.00  0.00     0.050 A 
ATOM     20  C   UNL     1      27.906  25.226  26.165  1.00  0.00     0.157 A 
BRANCH  18  21
ATOM     21  O   UNL     1      29.125  27.210  25.539  1.00  0.00    -0.493 OA
ATOM     22  C   UNL     1      29.106  28.542  25.028  1.00  0.00     0.278 C 
ENDBRANCH  18  21
BRANCH  20  23
ATOM     23  O   UNL     1      28.781  24.477  25.380  1.00  0.00    -0.504 OA
ATOM     24  H   UNL     1      29.221  24.867  24.554  1.00  0.00     0.293 HD
ENDBRANCH  20  23
ENDBRANCH  14  15
ENDBRANCH  12  14
ENDBRANCH   9  10
ENDBRANCH   1   9
TORSDOF 10
ENDMDL
MODEL 4
REMARK VINA RESULT:    -3.607      1.526      2.193
REMARK INTER + INTRA:          -6.287
REMARK INTER:                  -5.732
REMARK INTRA:                  -0.555
REMARK UNBOUND:                -0.677
REMARK SMILES COc1cc(CNC(=O)CCCCC=CC(C)C)ccc1O
REMARK SMILES IDX 11 1 12 2 13 3 14 4 15 5 16 6 17 7 18 8 10 9 8 10 9 11 7 12
REMARK SMILES IDX 6 14 5 15 4 16 19 17 3 18 20 19 21 20 2 21 1 22 22 23
REMARK H PARENT 7 13 22 24
REMARK Flexibility Score: inf
ROOT
ATOM      1  C   UNL     1      20.458  25.542  26.727  1.00  0.00     0.010 C 
ENDROOT
BRANCH   1   2
ATOM      2  C   UNL     1      19.067  26.165  26.533  1.00  0.00     0.005 C 
BRANCH   2   3
ATOM      3  C   UNL     1      18.165  25.317  25.625  1.00  0.00     0.027 C 
BRANCH   3   4
ATOM      4  C   UNL     1      18.920  24.805  24.429  1.00  0.00    -0.031 C 
ATOM      5  C   UNL     1      19.199  25.597  23.379  1.00  0.00    -0.028 C 
BRANCH   5   6
ATOM      6  C   UNL     1      19.967  25.113  22.169  1.00  0.00     0.005 C 
ATOM      7  C   UNL     1      19.031  24.830  20.987  1.00  0.00     0.012 C 
ATOM      8  C   UNL     1      20.826  23.889  22.509  1.00  0.00     0.012 C 
ENDBRANCH   5   6
ENDBRANCH   3   4
ENDBRANCH   2   3
ENDBRANCH   1   2
BRANCH   1   9
ATOM      9  C   UNL     1      21.326  26.336  27.712  1.00  0.00     0.100 C 
BRANCH   9  10
ATOM     10  C   UNL     1      22.686  25.716  27.823  1.00  0.00     0.220 C 
ATOM     11  O   UNL     1      22.842  24.504  27.510  1.00  0.00    -0.275 OA
ATOM     12  N   UNL     1      23.785  26.481  28.335  1.00  0.00    -0.352 N 
ATOM     13  H   UNL     1      23.623  27.470  28.627  1.00  0.00     0.163 HD
BRANCH  12  14
ATOM     14  C   UNL     1      25.123  25.916  28.508  1.00  0.00     0.151 C 
BRANCH  14  15
ATOM     15  C   UNL     1      26.170  26.984  28.335  1.00  0.00    -0.025 A 
ATOM     16  C   UNL     1      27.107  26.905  27.291  1.00  0.00     0.056 A 
ATOM     17  C   UNL     1      26.202  28.081  29.208  1.00  0.00     0.009 A 
ATOM     18  C   UNL     1      28.078  27.912  27.122  1.00  0.00     0.160 A 
ATOM     19  C   UNL     1      27.162  29.081  29.047  1.00  0.00     0.050 A 
ATOM     20  C   UNL     1      28.101  28.999  28.009  1.00  0.00     0.157 A 
BRANCH  18  21
ATOM     21  O   UNL     1      29.030  27.869  26.093  1.00  0.00    -0.493 OA
ATOM     22  C   UNL     1      28.884  28.518  24.830  1.00  0.00     0.278 C 
ENDBRANCH  18  21
BRANCH  20  23
ATOM     23  O   UNL     1      29.061  29.997  27.850  1.00  0.00    -0.504 OA
ATOM     24  H   UNL     1      29.449  30.221  26.940  1.00  0.00     0.293 HD
ENDBRANCH  20  23
ENDBRANCH  14  15
ENDBRANCH  12  14
ENDBRANCH   9  10
ENDBRANCH   1   9
TORSDOF 10
ENDMDL
MODEL 5
REMARK VINA RESULT:    -3.024      2.511      4.578
REMARK INTER + INTRA:          -5.381
REMARK INTER:                  -4.418
REMARK INTRA:                  -0.963
REMARK UNBOUND:                -0.677
REMARK SMILES COc1cc(CNC(=O)CCCCC=CC(C)C)ccc1O
REMARK SMILES IDX 11 1 12 2 13 3 14 4 15 5 16 6 17 7 18 8 10 9 8 10 9 11 7 12
REMARK SMILES IDX 6 14 5 15 4 16 19 17 3 18 20 19 21 20 2 21 1 22 22 23
REMARK H PARENT 7 13 22 24
REMARK Flexibility Score: inf
ROOT
ATOM      1  C   UNL     1      23.263  28.847  28.481  1.00  0.00     0.010 C 
ENDROOT
BRANCH   1   2
ATOM      2  C   UNL     1      22.949  27.349  28.356  1.00  0.00     0.005 C 
BRANCH   2   3
ATOM      3  C   UNL     1      21.442  27.057  28.423  1.00  0.00     0.027 C 
BRANCH   3   4
ATOM      4  C   UNL     1      21.064  25.923  27.509  1.00  0.00    -0.031 C 
ATOM      5  C   UNL     1      20.113  26.062  26.569  1.00  0.00    -0.028 C 
BRANCH   5   6
ATOM      6  C   UNL     1      19.722  24.944  25.629  1.00  0.00     0.005 C 
ATOM      7  C   UNL     1      20.950  24.153  25.157  1.00  0.00     0.012 C 
ATOM      8  C   UNL     1      18.907  25.472  24.444  1.00  0.00     0.012 C 
ENDBRANCH   5   6
ENDBRANCH   3   4
ENDBRANCH   2   3
ENDBRANCH   1   2
BRANCH   1   9
ATOM      9  C   UNL     1      24.116  29.168  29.716  1.00  0.00     0.100 C 
BRANCH   9  10
ATOM     10  C   UNL     1      25.439  28.470  29.629  1.00  0.00     0.220 C 
ATOM     11  O   UNL     1      25.789  27.687  30.554  1.00  0.00    -0.275 OA
ATOM     12  N   UNL     1      26.322  28.735  28.531  1.00  0.00    -0.352 N 
ATOM     13  H   UNL     1      26.028  29.420  27.798  1.00  0.00     0.163 HD
BRANCH  12  14
ATOM     14  C   UNL     1      27.643  28.119  28.416  1.00  0.00     0.151 C 
BRANCH  14  15
ATOM     15  C   UNL     1      27.617  27.007  27.400  1.00  0.00    -0.025 A 
ATOM     16  C   UNL     1      26.680  25.965  27.505  1.00  0.00     0.056 A 
ATOM     17  C   UNL     1      28.519  27.018  26.327  1.00  0.00     0.009 A 
ATOM     18  C   UNL     1      26.648  24.932  26.547  1.00  0.00     0.160 A 
ATOM     19  C   UNL     1      28.493  25.997  25.376  1.00  0.00     0.050 A 
ATOM     20  C   UNL     1      27.563  24.955  25.484  1.00  0.00     0.157 A 
BRANCH  18  21
ATOM     21  O   UNL     1      25.728  23.875  26.617  1.00  0.00    -0.493 OA
ATOM     22  C   UNL     1      24.482  23.932  27.308  1.00  0.00     0.278 C 
ENDBRANCH  18  21
BRANCH  20  23
ATOM     23  O   UNL     1      27.538  23.934  24.534  1.00  0.00    -0.504 OA
ATOM     24  H   UNL     1      27.200  23.005  24.761  1.00  0.00     0.293 HD
ENDBRANCH  20  23
ENDBRANCH  14  15
ENDBRANCH  12  14
ENDBRANCH   9  10
ENDBRANCH   1   9
TORSDOF 10
ENDMDL
MODEL 6
REMARK VINA RESULT:    -2.866      2.414      8.533
REMARK INTER + INTRA:          -5.135
REMARK INTER:                  -4.329
REMARK INTRA:                  -0.806
REMARK UNBOUND:                -0.677
REMARK SMILES COc1cc(CNC(=O)CCCCC=CC(C)C)ccc1O
REMARK SMILES IDX 11 1 12 2 13 3 14 4 15 5 16 6 17 7 18 8 10 9 8 10 9 11 7 12
REMARK SMILES IDX 6 14 5 15 4 16 19 17 3 18 20 19 21 20 2 21 1 22 22 23
REMARK H PARENT 7 13 22 24
REMARK Flexibility Score: inf
ROOT
ATOM      1  C   UNL     1      25.231  27.116  28.964  1.00  0.00     0.010 C 
ENDROOT
BRANCH   1   2
ATOM      2  C   UNL     1      26.156  28.342  28.961  1.00  0.00     0.005 C 
BRANCH   2   3
ATOM      3  C   UNL     1      27.643  27.956  28.963  1.00  0.00     0.027 C 
BRANCH   3   4
ATOM      4  C   UNL     1      28.358  28.530  27.771  1.00  0.00    -0.031 C 
ATOM      5  C   UNL     1      27.695  28.899  26.661  1.00  0.00    -0.028 C 
BRANCH   5   6
ATOM      6  C   UNL     1      28.387  29.491  25.453  1.00  0.00     0.005 C 
ATOM      7  C   UNL     1      29.055  30.830  25.790  1.00  0.00     0.012 C 
ATOM      8  C   UNL     1      27.420  29.629  24.271  1.00  0.00     0.012 C 
ENDBRANCH   5   6
ENDBRANCH   3   4
ENDBRANCH   2   3
ENDBRANCH   1   2
BRANCH   1   9
ATOM      9  C   UNL     1      26.007  25.792  28.972  1.00  0.00     0.100 C 
BRANCH   9  10
ATOM     10  C   UNL     1      25.384  24.819  28.017  1.00  0.00     0.220 C 
ATOM     11  O   UNL     1      26.125  24.079  27.315  1.00  0.00    -0.275 OA
ATOM     12  N   UNL     1      23.959  24.774  27.863  1.00  0.00    -0.352 N 
ATOM     13  H   UNL     1      23.368  25.427  28.425  1.00  0.00     0.163 HD
BRANCH  12  14
ATOM     14  C   UNL     1      23.298  23.878  26.915  1.00  0.00     0.151 C 
BRANCH  14  15
ATOM     15  C   UNL     1      21.959  24.437  26.512  1.00  0.00    -0.025 A 
ATOM     16  C   UNL     1      21.286  23.935  25.385  1.00  0.00     0.056 A 
ATOM     17  C   UNL     1      21.364  25.451  27.276  1.00  0.00     0.009 A 
ATOM     18  C   UNL     1      20.027  24.450  25.016  1.00  0.00     0.160 A 
ATOM     19  C   UNL     1      20.119  25.965  26.915  1.00  0.00     0.050 A 
ATOM     20  C   UNL     1      19.450  25.470  25.787  1.00  0.00     0.157 A 
BRANCH  18  21
ATOM     21  O   UNL     1      19.323  23.976  23.899  1.00  0.00    -0.493 OA
ATOM     22  C   UNL     1      19.430  24.522  22.585  1.00  0.00     0.278 C 
ENDBRANCH  18  21
BRANCH  20  23
ATOM     23  O   UNL     1      18.206  25.985  25.426  1.00  0.00    -0.504 OA
ATOM     24  H   UNL     1      18.002  26.263  24.472  1.00  0.00     0.293 HD
ENDBRANCH  20  23
ENDBRANCH  14  15
ENDBRANCH  12  14
ENDBRANCH   9  10
ENDBRANCH   1   9
TORSDOF 10
ENDMDL
MODEL 7
REMARK VINA RESULT:    -2.524      2.569      8.407
REMARK INTER + INTRA:          -4.602
REMARK INTER:                  -3.883
REMARK INTRA:                  -0.720
REMARK UNBOUND:                -0.677
REMARK SMILES COc1cc(CNC(=O)CCCCC=CC(C)C)ccc1O
REMARK SMILES IDX 11 1 12 2 13 3 14 4 15 5 16 6 17 7 18 8 10 9 8 10 9 11 7 12
REMARK SMILES IDX 6 14 5 15 4 16 19 17 3 18 20 19 21 20 2 21 1 22 22 23
REMARK H PARENT 7 13 22 24
REMARK Flexibility Score: inf
ROOT
ATOM      1  C   UNL     1      25.564  26.416  29.406  1.00  0.00     0.010 C 
ENDROOT
BRANCH   1   2
ATOM      2  C   UNL     1      26.888  26.966  28.854  1.00  0.00     0.005 C 
BRANCH   2   3
ATOM      3  C   UNL     1      27.235  26.387  27.475  1.00  0.00     0.027 C 
BRANCH   3   4
ATOM      4  C   UNL     1      28.047  27.360  26.663  1.00  0.00    -0.031 C 
ATOM      5  C   UNL     1      27.469  28.369  25.988  1.00  0.00    -0.028 C 
BRANCH   5   6
ATOM      6  C   UNL     1      28.261  29.368  25.174  1.00  0.00     0.005 C 
ATOM      7  C   UNL     1      28.980  30.380  26.075  1.00  0.00     0.012 C 
ATOM      8  C   UNL     1      27.374  30.071  24.140  1.00  0.00     0.012 C 
ENDBRANCH   5   6
ENDBRANCH   3   4
ENDBRANCH   2   3
ENDBRANCH   1   2
BRANCH   1   9
ATOM      9  C   UNL     1      24.698  25.765  28.319  1.00  0.00     0.100 C 
BRANCH   9  10
ATOM     10  C   UNL     1      23.388  26.482  28.200  1.00  0.00     0.220 C 
ATOM     11  O   UNL     1      23.313  27.697  28.531  1.00  0.00    -0.275 OA
ATOM     12  N   UNL     1      22.218  25.775  27.767  1.00  0.00    -0.352 N 
ATOM     13  H   UNL     1      22.296  24.758  27.539  1.00  0.00     0.163 HD
BRANCH  12  14
ATOM     14  C   UNL     1      20.904  26.410  27.674  1.00  0.00     0.151 C 
BRANCH  14  15
ATOM     15  C   UNL     1      20.117  25.824  26.532  1.00  0.00    -0.025 A 
ATOM     16  C   UNL     1      20.767  25.132  25.497  1.00  0.00     0.056 A 
ATOM     17  C   UNL     1      18.721  25.948  26.508  1.00  0.00     0.009 A 
ATOM     18  C   UNL     1      20.029  24.573  24.435  1.00  0.00     0.160 A 
ATOM     19  C   UNL     1      17.984  25.397  25.459  1.00  0.00     0.050 A 
ATOM     20  C   UNL     1      18.633  24.713  24.422  1.00  0.00     0.157 A 
BRANCH  18  21
ATOM     21  O   UNL     1      20.641  23.875  23.383  1.00  0.00    -0.493 OA
ATOM     22  C   UNL     1      22.043  23.879  23.118  1.00  0.00     0.278 C 
ENDBRANCH  18  21
BRANCH  20  23
ATOM     23  O   UNL     1      17.897  24.165  23.373  1.00  0.00    -0.504 OA
ATOM     24  H   UNL     1      17.679  24.700  22.539  1.00  0.00     0.293 HD
ENDBRANCH  20  23
ENDBRANCH  14  15
ENDBRANCH  12  14
ENDBRANCH   9  10
ENDBRANCH   1   9
TORSDOF 10
ENDMDL
MODEL 8
REMARK VINA RESULT:    -2.514      1.926      2.196
REMARK INTER + INTRA:          -4.587
REMARK INTER:                  -4.076
REMARK INTRA:                  -0.512
REMARK UNBOUND:                -0.677
REMARK SMILES COc1cc(CNC(=O)CCCCC=CC(C)C)ccc1O
REMARK SMILES IDX 11 1 12 2 13 3 14 4 15 5 16 6 17 7 18 8 10 9 8 10 9 11 7 12
REMARK SMILES IDX 6 14 5 15 4 16 19 17 3 18 20 19 21 20 2 21 1 22 22 23
REMARK H PARENT 7 13 22 24
REMARK Flexibility Score: inf
ROOT
ATOM      1  C   UNL     1      20.219  26.440  26.341  1.00  0.00     0.010 C 
ENDROOT
BRANCH   1   2
ATOM      2  C   UNL     1      19.213  25.559  25.585  1.00  0.00     0.005 C 
BRANCH   2   3
ATOM      3  C   UNL     1      19.858  24.286  25.016  1.00  0.00     0.027 C 
BRANCH   3   4
ATOM      4  C   UNL     1      19.266  23.924  23.681  1.00  0.00    -0.031 C 
ATOM      5  C   UNL     1      19.582  24.600  22.563  1.00  0.00    -0.028 C 
BRANCH   5   6
ATOM      6  C   UNL     1      19.012  24.251  21.206  1.00  0.00     0.005 C 
ATOM      7  C   UNL     1      19.238  25.382  20.195  1.00  0.00     0.012 C 
ATOM      8  C   UNL     1      17.529  23.875  21.305  1.00  0.00     0.012 C 
ENDBRANCH   5   6
ENDBRANCH   3   4
ENDBRANCH   2   3
ENDBRANCH   1   2
BRANCH   1   9
ATOM      9  C   UNL     1      20.804  25.740  27.575  1.00  0.00     0.100 C 
BRANCH   9  10
ATOM     10  C   UNL     1      21.887  26.579  28.183  1.00  0.00     0.220 C 
ATOM     11  O   UNL     1      21.578  27.528  28.953  1.00  0.00    -0.275 OA
ATOM     12  N   UNL     1      23.259  26.337  27.844  1.00  0.00    -0.352 N 
ATOM     13  H   UNL     1      23.488  25.572  27.170  1.00  0.00     0.163 HD
BRANCH  12  14
ATOM     14  C   UNL     1      24.354  27.151  28.370  1.00  0.00     0.151 C 
BRANCH  14  15
ATOM     15  C   UNL     1      25.558  26.291  28.653  1.00  0.00    -0.025 A 
ATOM     16  C   UNL     1      26.216  25.617  27.611  1.00  0.00     0.056 A 
ATOM     17  C   UNL     1      26.044  26.177  29.963  1.00  0.00     0.009 A 
ATOM     18  C   UNL     1      27.349  24.823  27.875  1.00  0.00     0.160 A 
ATOM     19  C   UNL     1      27.165  25.391  30.231  1.00  0.00     0.050 A 
ATOM     20  C   UNL     1      27.818  24.713  29.193  1.00  0.00     0.157 A 
BRANCH  18  21
ATOM     21  O   UNL     1      28.033  24.134  26.862  1.00  0.00    -0.493 OA
ATOM     22  C   UNL     1      28.229  24.629  25.539  1.00  0.00     0.278 C 
ENDBRANCH  18  21
BRANCH  20  23
ATOM     23  O   UNL     1      28.937  23.926  29.461  1.00  0.00    -0.504 OA
ATOM     24  H   UNL     1      29.866  24.203  29.162  1.00  0.00     0.293 HD
ENDBRANCH  20  23
ENDBRANCH  14  15
ENDBRANCH  12  14
ENDBRANCH   9  10
ENDBRANCH   1   9
TORSDOF 10
ENDMDL
MODEL 9
REMARK VINA RESULT:    -2.489      2.029      2.603
REMARK INTER + INTRA:          -4.548
REMARK INTER:                  -3.930
REMARK INTRA:                  -0.618
REMARK UNBOUND:                -0.677
REMARK SMILES COc1cc(CNC(=O)CCCCC=CC(C)C)ccc1O
REMARK SMILES IDX 11 1 12 2 13 3 14 4 15 5 16 6 17 7 18 8 10 9 8 10 9 11 7 12
REMARK SMILES IDX 6 14 5 15 4 16 19 17 3 18 20 19 21 20 2 21 1 22 22 23
REMARK H PARENT 7 13 22 24
REMARK Flexibility Score: inf
ROOT
ATOM      1  C   UNL     1      20.955  24.493  26.391  1.00  0.00     0.010 C 
ENDROOT
BRANCH   1   2
ATOM      2  C   UNL     1      20.123  25.779  26.266  1.00  0.00     0.005 C 
BRANCH   2   3
ATOM      3  C   UNL     1      18.678  25.504  25.827  1.00  0.00     0.027 C 
BRANCH   3   4
ATOM      4  C   UNL     1      18.636  24.785  24.507  1.00  0.00    -0.031 C 
ATOM      5  C   UNL     1      19.291  25.249  23.429  1.00  0.00    -0.028 C 
BRANCH   5   6
ATOM      6  C   UNL     1      19.276  24.540  22.093  1.00  0.00     0.005 C 
ATOM      7  C   UNL     1      19.666  25.487  20.951  1.00  0.00     0.012 C 
ATOM      8  C   UNL     1      17.920  23.875  21.831  1.00  0.00     0.012 C 
ENDBRANCH   5   6
ENDBRANCH   3   4
ENDBRANCH   2   3
ENDBRANCH   1   2
BRANCH   1   9
ATOM      9  C   UNL     1      21.972  24.559  27.538  1.00  0.00     0.100 C 
BRANCH   9  10
ATOM     10  C   UNL     1      23.345  24.231  27.034  1.00  0.00     0.220 C 
ATOM     11  O   UNL     1      23.498  23.886  25.831  1.00  0.00    -0.275 OA
ATOM     12  N   UNL     1      24.464  24.256  27.929  1.00  0.00    -0.352 N 
ATOM     13  H   UNL     1      24.307  24.504  28.931  1.00  0.00     0.163 HD
BRANCH  12  14
ATOM     14  C   UNL     1      25.819  23.902  27.505  1.00  0.00     0.151 C 
BRANCH  14  15
ATOM     15  C   UNL     1      26.623  25.144  27.227  1.00  0.00    -0.025 A 
ATOM     16  C   UNL     1      26.559  26.247  28.095  1.00  0.00     0.056 A 
ATOM     17  C   UNL     1      27.462  25.198  26.105  1.00  0.00     0.009 A 
ATOM     18  C   UNL     1      27.322  27.403  27.841  1.00  0.00     0.160 A 
ATOM     19  C   UNL     1      28.219  26.341  25.847  1.00  0.00     0.050 A 
ATOM     20  C   UNL     1      28.150  27.444  26.709  1.00  0.00     0.157 A 
BRANCH  18  21
ATOM     21  O   UNL     1      27.285  28.525  28.683  1.00  0.00    -0.493 OA
ATOM     22  C   UNL     1      26.184  28.871  29.521  1.00  0.00     0.278 C 
ENDBRANCH  18  21
BRANCH  20  23
ATOM     23  O   UNL     1      28.905  28.586  26.450  1.00  0.00    -0.504 OA
ATOM     24  H   UNL     1      29.919  28.576  26.493  1.00  0.00     0.293 HD
ENDBRANCH  20  23
ENDBRANCH  14  15
ENDBRANCH  12  14
ENDBRANCH   9  10
ENDBRANCH   1   9
TORSDOF 10
ENDMDL
