MODEL 1
REMARK VINA RESULT:    -4.326      0.000      0.000
REMARK INTER + INTRA:          -9.767
REMARK INTER:                  -8.120
REMARK INTRA:                  -1.647
REMARK UNBOUND:                -1.647
REMARK SMILES CCCCCCCCC=CCCCCCCCC(=O)[O-]
REMARK SMILES IDX 10 1 9 2 11 3 12 4 13 5 14 6 15 7 16 8 17 9 18 10 19 11
REMARK SMILES IDX 20 12 8 13 7 14 6 15 5 16 4 17 3 18 2 19 1 20
REMARK H PARENT
REMARK Flexibility Score: inf
ROOT
ATOM      1  C   UNL     1     -35.439  -9.671   4.992  1.00  0.00    -0.031 C 
ATOM      2  C   UNL     1     -35.440  -8.686   4.075  1.00  0.00    -0.031 C 
ENDROOT
BRANCH   1   3
ATOM      3  C   UNL     1     -34.376  -9.889   6.041  1.00  0.00     0.027 C 
BRANCH   3   4
ATOM      4  C   UNL     1     -34.553  -8.936   7.233  1.00  0.00     0.004 C 
BRANCH   4   5
ATOM      5  C   UNL     1     -36.003  -8.889   7.737  1.00  0.00     0.000 C 
BRANCH   5   6
ATOM      6  C   UNL     1     -36.553  -7.456   7.686  1.00  0.00     0.000 C 
BRANCH   6   7
ATOM      7  C   UNL     1     -35.531  -6.444   7.146  1.00  0.00     0.000 C 
BRANCH   7   8
ATOM      8  C   UNL     1     -36.194  -5.255   6.434  1.00  0.00     0.006 C 
BRANCH   8   9
ATOM      9  C   UNL     1     -37.059  -4.447   7.405  1.00  0.00     0.053 C 
BRANCH   9  10
ATOM     10  C   UNL     1     -36.290  -3.284   7.951  1.00  0.00     0.041 C 
ATOM     11  O   UNL     1     -35.088  -3.106   7.618  1.00  0.00    -0.550 OA
ATOM     12  O   UNL     1     -36.915  -2.371   8.791  1.00  0.00    -0.550 OA
ENDBRANCH   9  10
ENDBRANCH   8   9
ENDBRANCH   7   8
ENDBRANCH   6   7
ENDBRANCH   5   6
ENDBRANCH   4   5
ENDBRANCH   3   4
ENDBRANCH   1   3
BRANCH   2  13
ATOM     13  C   UNL     1     -34.356  -7.648   3.902  1.00  0.00     0.027 C 
BRANCH  13  14
ATOM     14  C   UNL     1     -33.952  -7.419   2.434  1.00  0.00     0.004 C 
BRANCH  14  15
ATOM     15  C   UNL     1     -32.928  -8.432   1.882  1.00  0.00     0.000 C 
BRANCH  15  16
ATOM     16  C   UNL     1     -33.502  -9.454   0.885  1.00  0.00     0.000 C 
BRANCH  16  17
ATOM     17  C   UNL     1     -34.819  -8.988   0.244  1.00  0.00    -0.000 C 
BRANCH  17  18
ATOM     18  C   UNL     1     -34.625  -8.694  -1.251  1.00  0.00    -0.000 C 
BRANCH  18  19
ATOM     19  C   UNL     1     -35.539  -7.566  -1.752  1.00  0.00    -0.003 C 
ATOM     20  C   UNL     1     -35.008  -6.897  -3.020  1.00  0.00     0.004 C 
ENDBRANCH  18  19
ENDBRANCH  17  18
ENDBRANCH  16  17
ENDBRANCH  15  16
ENDBRANCH  14  15
ENDBRANCH  13  14
ENDBRANCH   2  13
TORSDOF 15
ENDMDL
MODEL 2
REMARK VINA RESULT:    -4.325      0.938      1.749
REMARK INTER + INTRA:          -9.765
REMARK INTER:                  -7.945
REMARK INTRA:                  -1.820
REMARK UNBOUND:                -1.647
REMARK SMILES CCCCCCCCC=CCCCCCCCC(=O)[O-]
REMARK SMILES IDX 10 1 9 2 11 3 12 4 13 5 14 6 15 7 16 8 17 9 18 10 19 11
REMARK SMILES IDX 20 12 8 13 7 14 6 15 5 16 4 17 3 18 2 19 1 20
REMARK H PARENT
REMARK Flexibility Score: inf
ROOT
ATOM      1  C   UNL     1     -35.256  -7.772   3.968  1.00  0.00    -0.031 C 
ATOM      2  C   UNL     1     -34.305  -7.359   3.110  1.00  0.00    -0.031 C 
ENDROOT
BRANCH   1   3
ATOM      3  C   UNL     1     -35.509  -9.204   4.371  1.00  0.00     0.027 C 
BRANCH   3   4
ATOM      4  C   UNL     1     -34.570  -9.649   5.503  1.00  0.00     0.004 C 
BRANCH   4   5
ATOM      5  C   UNL     1     -34.502  -8.624   6.645  1.00  0.00     0.000 C 
BRANCH   5   6
ATOM      6  C   UNL     1     -35.732  -8.739   7.558  1.00  0.00     0.000 C 
BRANCH   6   7
ATOM      7  C   UNL     1     -36.485  -7.409   7.713  1.00  0.00     0.000 C 
BRANCH   7   8
ATOM      8  C   UNL     1     -35.715  -6.220   7.119  1.00  0.00     0.006 C 
BRANCH   8   9
ATOM      9  C   UNL     1     -36.579  -4.955   7.111  1.00  0.00     0.053 C 
BRANCH   9  10
ATOM     10  C   UNL     1     -35.782  -3.772   7.563  1.00  0.00     0.041 C 
ATOM     11  O   UNL     1     -34.533  -3.751   7.407  1.00  0.00    -0.550 OA
ATOM     12  O   UNL     1     -36.426  -2.671   8.116  1.00  0.00    -0.550 OA
ENDBRANCH   9  10
ENDBRANCH   8   9
ENDBRANCH   7   8
ENDBRANCH   6   7
ENDBRANCH   5   6
ENDBRANCH   4   5
ENDBRANCH   3   4
ENDBRANCH   1   3
BRANCH   2  13
ATOM     13  C   UNL     1     -33.348  -8.259   2.362  1.00  0.00     0.027 C 
BRANCH  13  14
ATOM     14  C   UNL     1     -33.668  -8.384   0.861  1.00  0.00     0.004 C 
BRANCH  14  15
ATOM     15  C   UNL     1     -34.619  -9.543   0.500  1.00  0.00     0.000 C 
BRANCH  15  16
ATOM     16  C   UNL     1     -36.113  -9.174   0.490  1.00  0.00     0.000 C 
BRANCH  16  17
ATOM     17  C   UNL     1     -36.465  -8.135  -0.587  1.00  0.00    -0.000 C 
BRANCH  17  18
ATOM     18  C   UNL     1     -36.753  -8.819  -1.932  1.00  0.00    -0.000 C 
BRANCH  18  19
ATOM     19  C   UNL     1     -36.046  -8.126  -3.107  1.00  0.00    -0.003 C 
ATOM     20  C   UNL     1     -35.020  -7.089  -2.648  1.00  0.00     0.004 C 
ENDBRANCH  18  19
ENDBRANCH  17  18
ENDBRANCH  16  17
ENDBRANCH  15  16
ENDBRANCH  14  15
ENDBRANCH  13  14
ENDBRANCH   2  13
TORSDOF 15
ENDMDL
MODEL 3
REMARK VINA RESULT:    -4.319      3.987      8.543
REMARK INTER + INTRA:          -9.753
REMARK INTER:                  -8.347
REMARK INTRA:                  -1.407
REMARK UNBOUND:                -1.647
REMARK SMILES CCCCCCCCC=CCCCCCCCC(=O)[O-]
REMARK SMILES IDX 10 1 9 2 11 3 12 4 13 5 14 6 15 7 16 8 17 9 18 10 19 11
REMARK SMILES IDX 20 12 8 13 7 14 6 15 5 16 4 17 3 18 2 19 1 20
REMARK H PARENT
REMARK Flexibility Score: inf
ROOT
ATOM      1  C   UNL     1     -34.112  -7.092   2.533  1.00  0.00    -0.031 C 
ATOM      2  C   UNL     1     -34.686  -7.075   3.750  1.00  0.00    -0.031 C 
ENDROOT
BRANCH   1   3
ATOM      3  C   UNL     1     -33.154  -8.147   2.033  1.00  0.00     0.027 C 
BRANCH   3   4
ATOM      4  C   UNL     1     -33.720  -8.895   0.817  1.00  0.00     0.004 C 
BRANCH   4   5
ATOM      5  C   UNL     1     -34.806  -9.909   1.204  1.00  0.00     0.000 C 
BRANCH   5   6
ATOM      6  C   UNL     1     -36.169  -9.498   0.627  1.00  0.00     0.000 C 
BRANCH   6   7
ATOM      7  C   UNL     1     -36.076  -8.291  -0.318  1.00  0.00     0.000 C 
BRANCH   7   8
ATOM      8  C   UNL     1     -36.439  -8.644  -1.768  1.00  0.00     0.006 C 
BRANCH   8   9
ATOM      9  C   UNL     1     -35.277  -8.330  -2.716  1.00  0.00     0.053 C 
BRANCH   9  10
ATOM     10  C   UNL     1     -35.582  -7.116  -3.536  1.00  0.00     0.041 C 
ATOM     11  O   UNL     1     -35.056  -6.008  -3.249  1.00  0.00    -0.550 OA
ATOM     12  O   UNL     1     -36.414  -7.217  -4.645  1.00  0.00    -0.550 OA
ENDBRANCH   9  10
ENDBRANCH   8   9
ENDBRANCH   7   8
ENDBRANCH   6   7
ENDBRANCH   5   6
ENDBRANCH   4   5
ENDBRANCH   3   4
ENDBRANCH   1   3
BRANCH   2  13
ATOM     13  C   UNL     1     -34.443  -8.082   4.849  1.00  0.00     0.027 C 
BRANCH  13  14
ATOM     14  C   UNL     1     -35.620  -8.214   5.834  1.00  0.00     0.004 C 
BRANCH  14  15
ATOM     15  C   UNL     1     -35.446  -7.433   7.153  1.00  0.00     0.000 C 
BRANCH  15  16
ATOM     16  C   UNL     1     -36.094  -6.037   7.168  1.00  0.00     0.000 C 
BRANCH  16  17
ATOM     17  C   UNL     1     -35.112  -4.918   6.786  1.00  0.00    -0.000 C 
BRANCH  17  18
ATOM     18  C   UNL     1     -35.772  -3.538   6.932  1.00  0.00    -0.000 C 
BRANCH  18  19
ATOM     19  C   UNL     1     -36.878  -3.525   7.998  1.00  0.00    -0.003 C 
ATOM     20  C   UNL     1     -36.783  -2.316   8.929  1.00  0.00     0.004 C 
ENDBRANCH  18  19
ENDBRANCH  17  18
ENDBRANCH  16  17
ENDBRANCH  15  16
ENDBRANCH  14  15
ENDBRANCH  13  14
ENDBRANCH   2  13
TORSDOF 15
ENDMDL
MODEL 4
REMARK VINA RESULT:    -4.225      4.329      8.769
REMARK INTER + INTRA:          -9.577
REMARK INTER:                  -8.376
REMARK INTRA:                  -1.201
REMARK UNBOUND:                -1.647
REMARK SMILES CCCCCCCCC=CCCCCCCCC(=O)[O-]
REMARK SMILES IDX 10 1 9 2 11 3 12 4 13 5 14 6 15 7 16 8 17 9 18 10 19 11
REMARK SMILES IDX 20 12 8 13 7 14 6 15 5 16 4 17 3 18 2 19 1 20
REMARK H PARENT
REMARK Flexibility Score: inf
ROOT
ATOM      1  C   UNL     1     -33.298  -7.791   1.708  1.00  0.00    -0.031 C 
ATOM      2  C   UNL     1     -34.088  -7.425   2.734  1.00  0.00    -0.031 C 
ENDROOT
BRANCH   1   3
ATOM      3  C   UNL     1     -32.385  -8.993   1.694  1.00  0.00     0.027 C 
BRANCH   3   4
ATOM      4  C   UNL     1     -32.949 -10.124   0.821  1.00  0.00     0.004 C 
BRANCH   4   5
ATOM      5  C   UNL     1     -32.602  -9.948  -0.664  1.00  0.00     0.000 C 
BRANCH   5   6
ATOM      6  C   UNL     1     -33.875  -9.842  -1.516  1.00  0.00     0.000 C 
BRANCH   6   7
ATOM      7  C   UNL     1     -35.139  -9.618  -0.671  1.00  0.00     0.000 C 
BRANCH   7   8
ATOM      8  C   UNL     1     -35.846  -8.295  -1.002  1.00  0.00     0.006 C 
BRANCH   8   9
ATOM      9  C   UNL     1     -35.166  -7.588  -2.179  1.00  0.00     0.053 C 
BRANCH   9  10
ATOM     10  C   UNL     1     -36.038  -7.636  -3.394  1.00  0.00     0.041 C 
ATOM     11  O   UNL     1     -36.888  -8.556  -3.529  1.00  0.00    -0.550 OA
ATOM     12  O   UNL     1     -35.942  -6.639  -4.357  1.00  0.00    -0.550 OA
ENDBRANCH   9  10
ENDBRANCH   8   9
ENDBRANCH   7   8
ENDBRANCH   6   7
ENDBRANCH   5   6
ENDBRANCH   4   5
ENDBRANCH   3   4
ENDBRANCH   1   3
BRANCH   2  13
ATOM     13  C   UNL     1     -34.171  -8.123   4.071  1.00  0.00     0.027 C 
BRANCH  13  14
ATOM     14  C   UNL     1     -34.363  -7.160   5.257  1.00  0.00     0.004 C 
BRANCH  14  15
ATOM     15  C   UNL     1     -35.297  -7.684   6.367  1.00  0.00     0.000 C 
BRANCH  15  16
ATOM     16  C   UNL     1     -35.930  -6.592   7.248  1.00  0.00     0.000 C 
BRANCH  16  17
ATOM     17  C   UNL     1     -35.504  -5.173   6.838  1.00  0.00    -0.000 C 
BRANCH  17  18
ATOM     18  C   UNL     1     -36.601  -4.153   7.182  1.00  0.00    -0.000 C 
BRANCH  18  19
ATOM     19  C   UNL     1     -36.039  -2.886   7.843  1.00  0.00    -0.003 C 
ATOM     20  C   UNL     1     -36.909  -2.389   8.998  1.00  0.00     0.004 C 
ENDBRANCH  18  19
ENDBRANCH  17  18
ENDBRANCH  16  17
ENDBRANCH  15  16
ENDBRANCH  14  15
ENDBRANCH  13  14
ENDBRANCH   2  13
TORSDOF 15
ENDMDL
MODEL 5
REMARK VINA RESULT:    -4.162      3.933      8.124
REMARK INTER + INTRA:          -9.460
REMARK INTER:                  -7.910
REMARK INTRA:                  -1.549
REMARK UNBOUND:                -1.647
REMARK SMILES CCCCCCCCC=CCCCCCCCC(=O)[O-]
REMARK SMILES IDX 10 1 9 2 11 3 12 4 13 5 14 6 15 7 16 8 17 9 18 10 19 11
REMARK SMILES IDX 20 12 8 13 7 14 6 15 5 16 4 17 3 18 2 19 1 20
REMARK H PARENT
REMARK Flexibility Score: inf
ROOT
ATOM      1  C   UNL     1     -35.458  -9.310   4.009  1.00  0.00    -0.031 C 
ATOM      2  C   UNL     1     -35.577  -9.969   5.176  1.00  0.00    -0.031 C 
ENDROOT
BRANCH   1   3
ATOM      3  C   UNL     1     -34.204  -8.633   3.511  1.00  0.00     0.027 C 
BRANCH   3   4
ATOM      4  C   UNL     1     -34.517  -7.585   2.432  1.00  0.00     0.004 C 
BRANCH   4   5
ATOM      5  C   UNL     1     -33.823  -7.891   1.097  1.00  0.00     0.000 C 
BRANCH   5   6
ATOM      6  C   UNL     1     -34.362  -9.193   0.486  1.00  0.00     0.000 C 
BRANCH   6   7
ATOM      7  C   UNL     1     -35.799  -9.053  -0.038  1.00  0.00     0.000 C 
BRANCH   7   8
ATOM      8  C   UNL     1     -35.965  -7.873  -1.007  1.00  0.00     0.006 C 
BRANCH   8   9
ATOM      9  C   UNL     1     -36.138  -8.365  -2.447  1.00  0.00     0.053 C 
BRANCH   9  10
ATOM     10  C   UNL     1     -35.733  -7.301  -3.418  1.00  0.00     0.041 C 
ATOM     11  O   UNL     1     -34.913  -6.408  -3.075  1.00  0.00    -0.550 OA
ATOM     12  O   UNL     1     -36.228  -7.321  -4.716  1.00  0.00    -0.550 OA
ENDBRANCH   9  10
ENDBRANCH   8   9
ENDBRANCH   7   8
ENDBRANCH   6   7
ENDBRANCH   5   6
ENDBRANCH   4   5
ENDBRANCH   3   4
ENDBRANCH   1   3
BRANCH   2  13
ATOM     13  C   UNL     1     -34.492 -10.112   6.217  1.00  0.00     0.027 C 
BRANCH  13  14
ATOM     14  C   UNL     1     -34.517  -9.005   7.288  1.00  0.00     0.004 C 
BRANCH  14  15
ATOM     15  C   UNL     1     -35.910  -8.397   7.551  1.00  0.00     0.000 C 
BRANCH  15  16
ATOM     16  C   UNL     1     -36.008  -6.880   7.312  1.00  0.00     0.000 C 
BRANCH  16  17
ATOM     17  C   UNL     1     -35.100  -6.395   6.172  1.00  0.00    -0.000 C 
BRANCH  17  18
ATOM     18  C   UNL     1     -35.196  -4.870   6.006  1.00  0.00    -0.000 C 
BRANCH  18  19
ATOM     19  C   UNL     1     -36.242  -4.242   6.939  1.00  0.00    -0.003 C 
ATOM     20  C   UNL     1     -35.669  -3.104   7.784  1.00  0.00     0.004 C 
ENDBRANCH  18  19
ENDBRANCH  17  18
ENDBRANCH  16  17
ENDBRANCH  15  16
ENDBRANCH  14  15
ENDBRANCH  13  14
ENDBRANCH   2  13
TORSDOF 15
ENDMDL
MODEL 6
REMARK VINA RESULT:    -3.724      4.122      7.813
REMARK INTER + INTRA:          -8.636
REMARK INTER:                  -7.072
REMARK INTRA:                  -1.565
REMARK UNBOUND:                -1.647
REMARK SMILES CCCCCCCCC=CCCCCCCCC(=O)[O-]
REMARK SMILES IDX 10 1 9 2 11 3 12 4 13 5 14 6 15 7 16 8 17 9 18 10 19 11
REMARK SMILES IDX 20 12 8 13 7 14 6 15 5 16 4 17 3 18 2 19 1 20
REMARK H PARENT
REMARK Flexibility Score: inf
ROOT
ATOM      1  C   UNL     1     -34.287  -5.404   5.259  1.00  0.00    -0.031 C 
ATOM      2  C   UNL     1     -34.909  -4.678   6.206  1.00  0.00    -0.031 C 
ENDROOT
BRANCH   1   3
ATOM      3  C   UNL     1     -34.965  -6.349   4.297  1.00  0.00     0.027 C 
BRANCH   3   4
ATOM      4  C   UNL     1     -34.167  -6.499   2.993  1.00  0.00     0.004 C 
BRANCH   4   5
ATOM      5  C   UNL     1     -33.832  -7.964   2.675  1.00  0.00     0.000 C 
BRANCH   5   6
ATOM      6  C   UNL     1     -34.307  -8.340   1.264  1.00  0.00     0.000 C 
BRANCH   6   7
ATOM      7  C   UNL     1     -35.718  -8.947   1.253  1.00  0.00     0.000 C 
BRANCH   7   8
ATOM      8  C   UNL     1     -36.373  -8.899  -0.136  1.00  0.00     0.006 C 
BRANCH   8   9
ATOM      9  C   UNL     1     -35.805  -7.748  -0.971  1.00  0.00     0.053 C 
BRANCH   9  10
ATOM     10  C   UNL     1     -35.426  -8.228  -2.337  1.00  0.00     0.041 C 
ATOM     11  O   UNL     1     -36.126  -7.914  -3.336  1.00  0.00    -0.550 OA
ATOM     12  O   UNL     1     -34.274  -8.985  -2.513  1.00  0.00    -0.550 OA
ENDBRANCH   9  10
ENDBRANCH   8   9
ENDBRANCH   7   8
ENDBRANCH   6   7
ENDBRANCH   5   6
ENDBRANCH   4   5
ENDBRANCH   3   4
ENDBRANCH   1   3
BRANCH   2  13
ATOM     13  C   UNL     1     -36.389  -4.712   6.507  1.00  0.00     0.027 C 
BRANCH  13  14
ATOM     14  C   UNL     1     -36.770  -5.724   7.604  1.00  0.00     0.004 C 
BRANCH  14  15
ATOM     15  C   UNL     1     -35.960  -7.036   7.579  1.00  0.00     0.000 C 
BRANCH  15  16
ATOM     16  C   UNL     1     -36.734  -8.283   8.042  1.00  0.00     0.000 C 
BRANCH  16  17
ATOM     17  C   UNL     1     -35.950  -9.587   7.826  1.00  0.00    -0.000 C 
BRANCH  17  18
ATOM     18  C   UNL     1     -34.636  -9.317   7.077  1.00  0.00    -0.000 C 
BRANCH  18  19
ATOM     19  C   UNL     1     -34.598  -9.988   5.696  1.00  0.00    -0.003 C 
ATOM     20  C   UNL     1     -35.932  -9.887   4.955  1.00  0.00     0.004 C 
ENDBRANCH  18  19
ENDBRANCH  17  18
ENDBRANCH  16  17
ENDBRANCH  15  16
ENDBRANCH  14  15
ENDBRANCH  13  14
ENDBRANCH   2  13
TORSDOF 15
ENDMDL
MODEL 7
REMARK VINA RESULT:    -3.683      3.950      8.488
REMARK INTER + INTRA:          -8.561
REMARK INTER:                  -7.594
REMARK INTRA:                  -0.967
REMARK UNBOUND:                -1.647
REMARK SMILES CCCCCCCCC=CCCCCCCCC(=O)[O-]
REMARK SMILES IDX 10 1 9 2 11 3 12 4 13 5 14 6 15 7 16 8 17 9 18 10 19 11
REMARK SMILES IDX 20 12 8 13 7 14 6 15 5 16 4 17 3 18 2 19 1 20
REMARK H PARENT
REMARK Flexibility Score: inf
ROOT
ATOM      1  C   UNL     1     -34.373  -8.539   3.485  1.00  0.00    -0.031 C 
ATOM      2  C   UNL     1     -34.070  -7.502   4.288  1.00  0.00    -0.031 C 
ENDROOT
BRANCH   1   3
ATOM      3  C   UNL     1     -35.343  -8.495   2.329  1.00  0.00     0.027 C 
BRANCH   3   4
ATOM      4  C   UNL     1     -34.631  -8.188   1.003  1.00  0.00     0.004 C 
BRANCH   4   5
ATOM      5  C   UNL     1     -33.358  -9.026   0.813  1.00  0.00     0.000 C 
BRANCH   5   6
ATOM      6  C   UNL     1     -33.377  -9.749  -0.542  1.00  0.00     0.000 C 
BRANCH   6   7
ATOM      7  C   UNL     1     -34.800 -10.024  -1.050  1.00  0.00     0.000 C 
BRANCH   7   8
ATOM      8  C   UNL     1     -34.999  -9.603  -2.515  1.00  0.00     0.006 C 
BRANCH   8   9
ATOM      9  C   UNL     1     -36.154  -8.606  -2.647  1.00  0.00     0.053 C 
BRANCH   9  10
ATOM     10  C   UNL     1     -35.716  -7.392  -3.405  1.00  0.00     0.041 C 
ATOM     11  O   UNL     1     -36.201  -7.144  -4.541  1.00  0.00    -0.550 OA
ATOM     12  O   UNL     1     -34.805  -6.511  -2.837  1.00  0.00    -0.550 OA
ENDBRANCH   9  10
ENDBRANCH   8   9
ENDBRANCH   7   8
ENDBRANCH   6   7
ENDBRANCH   5   6
ENDBRANCH   4   5
ENDBRANCH   3   4
ENDBRANCH   1   3
BRANCH   2  13
ATOM     13  C   UNL     1     -34.677  -6.122   4.205  1.00  0.00     0.027 C 
BRANCH  13  14
ATOM     14  C   UNL     1     -34.488  -5.288   5.486  1.00  0.00     0.004 C 
BRANCH  14  15
ATOM     15  C   UNL     1     -35.799  -4.868   6.180  1.00  0.00     0.000 C 
BRANCH  15  16
ATOM     16  C   UNL     1     -36.363  -5.898   7.175  1.00  0.00     0.000 C 
BRANCH  16  17
ATOM     17  C   UNL     1     -35.652  -7.258   7.093  1.00  0.00    -0.000 C 
BRANCH  17  18
ATOM     18  C   UNL     1     -36.321  -8.281   8.024  1.00  0.00    -0.000 C 
BRANCH  18  19
ATOM     19  C   UNL     1     -35.709  -9.684   7.892  1.00  0.00    -0.003 C 
ATOM     20  C   UNL     1     -34.262  -9.651   7.401  1.00  0.00     0.004 C 
ENDBRANCH  18  19
ENDBRANCH  17  18
ENDBRANCH  16  17
ENDBRANCH  15  16
ENDBRANCH  14  15
ENDBRANCH  13  14
ENDBRANCH   2  13
TORSDOF 15
ENDMDL
MODEL 8
REMARK VINA RESULT:    -3.615      2.667      4.013
REMARK INTER + INTRA:          -8.432
REMARK INTER:                  -7.558
REMARK INTRA:                  -0.874
REMARK UNBOUND:                -1.647
REMARK SMILES CCCCCCCCC=CCCCCCCCC(=O)[O-]
REMARK SMILES IDX 10 1 9 2 11 3 12 4 13 5 14 6 15 7 16 8 17 9 18 10 19 11
REMARK SMILES IDX 20 12 8 13 7 14 6 15 5 16 4 17 3 18 2 19 1 20
REMARK H PARENT
REMARK Flexibility Score: inf
ROOT
ATOM      1  C   UNL     1     -34.093  -7.152   4.406  1.00  0.00    -0.031 C 
ATOM      2  C   UNL     1     -34.108  -8.011   3.371  1.00  0.00    -0.031 C 
ENDROOT
BRANCH   1   3
ATOM      3  C   UNL     1     -34.949  -5.914   4.528  1.00  0.00     0.027 C 
BRANCH   3   4
ATOM      4  C   UNL     1     -34.429  -4.971   5.623  1.00  0.00     0.004 C 
BRANCH   4   5
ATOM      5  C   UNL     1     -35.560  -4.402   6.493  1.00  0.00     0.000 C 
BRANCH   5   6
ATOM      6  C   UNL     1     -36.496  -5.521   6.975  1.00  0.00     0.000 C 
BRANCH   6   7
ATOM      7  C   UNL     1     -35.736  -6.757   7.478  1.00  0.00     0.000 C 
BRANCH   7   8
ATOM      8  C   UNL     1     -36.674  -7.894   7.911  1.00  0.00     0.006 C 
BRANCH   8   9
ATOM      9  C   UNL     1     -35.896  -9.196   8.126  1.00  0.00     0.053 C 
BRANCH   9  10
ATOM     10  C   UNL     1     -35.252  -9.639   6.850  1.00  0.00     0.041 C 
ATOM     11  O   UNL     1     -34.004  -9.797   6.790  1.00  0.00    -0.550 OA
ATOM     12  O   UNL     1     -36.037  -9.922   5.739  1.00  0.00    -0.550 OA
ENDBRANCH   9  10
ENDBRANCH   8   9
ENDBRANCH   7   8
ENDBRANCH   6   7
ENDBRANCH   5   6
ENDBRANCH   4   5
ENDBRANCH   3   4
ENDBRANCH   1   3
BRANCH   2  13
ATOM     13  C   UNL     1     -34.951  -7.870   2.126  1.00  0.00     0.027 C 
BRANCH  13  14
ATOM     14  C   UNL     1     -35.562  -9.198   1.643  1.00  0.00     0.004 C 
BRANCH  14  15
ATOM     15  C   UNL     1     -36.196  -9.142   0.238  1.00  0.00     0.000 C 
BRANCH  15  16
ATOM     16  C   UNL     1     -35.288  -8.554  -0.857  1.00  0.00     0.000 C 
BRANCH  16  17
ATOM     17  C   UNL     1     -35.984  -7.466  -1.689  1.00  0.00    -0.000 C 
BRANCH  17  18
ATOM     18  C   UNL     1     -35.133  -7.082  -2.909  1.00  0.00    -0.000 C 
BRANCH  18  19
ATOM     19  C   UNL     1     -35.930  -7.134  -4.221  1.00  0.00    -0.003 C 
ATOM     20  C   UNL     1     -36.894  -8.320  -4.279  1.00  0.00     0.004 C 
ENDBRANCH  18  19
ENDBRANCH  17  18
ENDBRANCH  16  17
ENDBRANCH  15  16
ENDBRANCH  14  15
ENDBRANCH  13  14
ENDBRANCH   2  13
TORSDOF 15
ENDMDL
