MODEL 1
REMARK VINA RESULT:    -3.907      0.000      0.000
REMARK INTER + INTRA:          -5.858
REMARK INTER:                  -5.277
REMARK INTRA:                  -0.581
REMARK UNBOUND:                -0.581
REMARK SMILES CCCCCCCC(=O)[O-]
REMARK SMILES IDX 5 1 6 2 7 3 8 4 9 5 10 6 4 7 3 8 2 9 1 10
REMARK H PARENT
REMARK Flexibility Score: inf
ROOT
ATOM      1  C   UNL     1     -12.462  -3.099 -25.817  1.00  0.00     0.000 C 
ENDROOT
BRANCH   1   2
ATOM      2  C   UNL     1     -12.050  -1.938 -26.734  1.00  0.00     0.006 C 
BRANCH   2   3
ATOM      3  C   UNL     1     -10.855  -1.154 -26.176  1.00  0.00     0.053 C 
BRANCH   3   4
ATOM      4  C   UNL     1     -11.217   0.267 -25.870  1.00  0.00     0.041 C 
ATOM      5  O   UNL     1     -10.347   1.174 -25.945  1.00  0.00    -0.550 OA
ATOM      6  O   UNL     1     -12.509   0.585 -25.470  1.00  0.00    -0.550 OA
ENDBRANCH   3   4
ENDBRANCH   2   3
ENDBRANCH   1   2
BRANCH   1   7
ATOM      7  C   UNL     1     -11.954  -2.877 -24.384  1.00  0.00     0.000 C 
BRANCH   7   8
ATOM      8  C   UNL     1     -13.063  -2.358 -23.446  1.00  0.00    -0.000 C 
BRANCH   8   9
ATOM      9  C   UNL     1     -12.557  -1.361 -22.389  1.00  0.00    -0.003 C 
ATOM     10  C   UNL     1     -11.039  -1.204 -22.391  1.00  0.00     0.004 C 
ENDBRANCH   8   9
ENDBRANCH   7   8
ENDBRANCH   1   7
TORSDOF 6
ENDMDL
MODEL 2
REMARK VINA RESULT:    -3.865      3.142      4.968
REMARK INTER + INTRA:          -5.802
REMARK INTER:                  -5.621
REMARK INTRA:                  -0.181
REMARK UNBOUND:                -0.581
REMARK SMILES CCCCCCCC(=O)[O-]
REMARK SMILES IDX 5 1 6 2 7 3 8 4 9 5 10 6 4 7 3 8 2 9 1 10
REMARK H PARENT
REMARK Flexibility Score: inf
ROOT
ATOM      1  C   UNL     1     -12.434  -2.347 -22.471  1.00  0.00     0.000 C 
ENDROOT
BRANCH   1   2
ATOM      2  C   UNL     1     -12.547  -0.974 -21.790  1.00  0.00     0.006 C 
BRANCH   2   3
ATOM      3  C   UNL     1     -11.524  -0.801 -20.660  1.00  0.00     0.053 C 
BRANCH   3   4
ATOM      4  C   UNL     1     -11.936   0.270 -19.697  1.00  0.00     0.041 C 
ATOM      5  O   UNL     1     -12.783   1.138 -20.038  1.00  0.00    -0.550 OA
ATOM      6  O   UNL     1     -11.362   0.329 -18.434  1.00  0.00    -0.550 OA
ENDBRANCH   3   4
ENDBRANCH   2   3
ENDBRANCH   1   2
BRANCH   1   7
ATOM      7  C   UNL     1     -12.962  -2.292 -23.913  1.00  0.00     0.000 C 
BRANCH   7   8
ATOM      8  C   UNL     1     -11.861  -1.909 -24.924  1.00  0.00    -0.000 C 
BRANCH   8   9
ATOM      9  C   UNL     1     -12.105  -2.462 -26.338  1.00  0.00    -0.003 C 
ATOM     10  C   UNL     1     -12.913  -3.757 -26.344  1.00  0.00     0.004 C 
ENDBRANCH   8   9
ENDBRANCH   7   8
ENDBRANCH   1   7
TORSDOF 6
ENDMDL
MODEL 3
REMARK VINA RESULT:    -3.863      1.379      2.160
REMARK INTER + INTRA:          -5.800
REMARK INTER:                  -5.533
REMARK INTRA:                  -0.267
REMARK UNBOUND:                -0.581
REMARK SMILES CCCCCCCC(=O)[O-]
REMARK SMILES IDX 5 1 6 2 7 3 8 4 9 5 10 6 4 7 3 8 2 9 1 10
REMARK H PARENT
REMARK Flexibility Score: inf
ROOT
ATOM      1  C   UNL     1     -12.109  -2.601 -23.999  1.00  0.00     0.000 C 
ENDROOT
BRANCH   1   2
ATOM      2  C   UNL     1     -12.998  -2.872 -25.222  1.00  0.00     0.006 C 
BRANCH   2   3
ATOM      3  C   UNL     1     -12.252  -2.643 -26.544  1.00  0.00     0.053 C 
BRANCH   3   4
ATOM      4  C   UNL     1     -11.686  -1.258 -26.628  1.00  0.00     0.041 C 
ATOM      5  O   UNL     1     -12.445  -0.257 -26.558  1.00  0.00    -0.550 OA
ATOM      6  O   UNL     1     -10.322  -1.075 -26.817  1.00  0.00    -0.550 OA
ENDBRANCH   3   4
ENDBRANCH   2   3
ENDBRANCH   1   2
BRANCH   1   7
ATOM      7  C   UNL     1     -12.958  -2.279 -22.760  1.00  0.00     0.000 C 
BRANCH   7   8
ATOM      8  C   UNL     1     -13.124  -0.760 -22.544  1.00  0.00    -0.000 C 
BRANCH   8   9
ATOM      9  C   UNL     1     -13.094  -0.342 -21.065  1.00  0.00    -0.003 C 
ATOM     10  C   UNL     1     -11.769  -0.663 -20.378  1.00  0.00     0.004 C 
ENDBRANCH   8   9
ENDBRANCH   7   8
ENDBRANCH   1   7
TORSDOF 6
ENDMDL
MODEL 4
REMARK VINA RESULT:    -3.851      2.176      4.020
REMARK INTER + INTRA:          -5.782
REMARK INTER:                  -5.551
REMARK INTRA:                  -0.231
REMARK UNBOUND:                -0.581
REMARK SMILES CCCCCCCC(=O)[O-]
REMARK SMILES IDX 5 1 6 2 7 3 8 4 9 5 10 6 4 7 3 8 2 9 1 10
REMARK H PARENT
REMARK Flexibility Score: inf
ROOT
ATOM      1  C   UNL     1     -11.994  -2.961 -24.879  1.00  0.00     0.000 C 
ENDROOT
BRANCH   1   2
ATOM      2  C   UNL     1     -12.852  -2.170 -23.881  1.00  0.00     0.006 C 
BRANCH   2   3
ATOM      3  C   UNL     1     -12.483  -2.482 -22.424  1.00  0.00     0.053 C 
BRANCH   3   4
ATOM      4  C   UNL     1     -11.665  -1.386 -21.813  1.00  0.00     0.041 C 
ATOM      5  O   UNL     1     -12.070  -0.794 -20.778  1.00  0.00    -0.550 OA
ATOM      6  O   UNL     1     -10.469  -0.997 -22.404  1.00  0.00    -0.550 OA
ENDBRANCH   3   4
ENDBRANCH   2   3
ENDBRANCH   1   2
BRANCH   1   7
ATOM      7  C   UNL     1     -12.442  -2.694 -26.325  1.00  0.00     0.000 C 
BRANCH   7   8
ATOM      8  C   UNL     1     -11.696  -1.501 -26.957  1.00  0.00    -0.000 C 
BRANCH   8   9
ATOM      9  C   UNL     1     -10.409  -1.113 -26.208  1.00  0.00    -0.003 C 
ATOM     10  C   UNL     1      -9.261  -0.741 -27.142  1.00  0.00     0.004 C 
ENDBRANCH   8   9
ENDBRANCH   7   8
ENDBRANCH   1   7
TORSDOF 6
ENDMDL
MODEL 5
REMARK VINA RESULT:    -3.740     18.765     19.580
REMARK INTER + INTRA:          -5.633
REMARK INTER:                  -5.245
REMARK INTRA:                  -0.387
REMARK UNBOUND:                -0.581
REMARK SMILES CCCCCCCC(=O)[O-]
REMARK SMILES IDX 5 1 6 2 7 3 8 4 9 5 10 6 4 7 3 8 2 9 1 10
REMARK H PARENT
REMARK Flexibility Score: inf
ROOT
ATOM      1  C   UNL     1       5.942   7.604 -25.088  1.00  0.00     0.000 C 
ENDROOT
BRANCH   1   2
ATOM      2  C   UNL     1       6.410   7.359 -26.531  1.00  0.00     0.006 C 
BRANCH   2   3
ATOM      3  C   UNL     1       5.569   6.289 -27.240  1.00  0.00     0.053 C 
BRANCH   3   4
ATOM      4  C   UNL     1       5.945   4.907 -26.800  1.00  0.00     0.041 C 
ATOM      5  O   UNL     1       6.841   4.268 -27.411  1.00  0.00    -0.550 OA
ATOM      6  O   UNL     1       5.283   4.312 -25.734  1.00  0.00    -0.550 OA
ENDBRANCH   3   4
ENDBRANCH   2   3
ENDBRANCH   1   2
BRANCH   1   7
ATOM      7  C   UNL     1       7.125   7.556 -24.109  1.00  0.00     0.000 C 
BRANCH   7   8
ATOM      8  C   UNL     1       7.081   6.310 -23.201  1.00  0.00    -0.000 C 
BRANCH   8   9
ATOM      9  C   UNL     1       5.679   5.998 -22.651  1.00  0.00    -0.003 C 
ATOM     10  C   UNL     1       5.621   5.992 -21.126  1.00  0.00     0.004 C 
ENDBRANCH   8   9
ENDBRANCH   7   8
ENDBRANCH   1   7
TORSDOF 6
ENDMDL
MODEL 6
REMARK VINA RESULT:    -3.706     14.604     16.130
REMARK INTER + INTRA:          -5.586
REMARK INTER:                  -5.252
REMARK INTRA:                  -0.334
REMARK UNBOUND:                -0.581
REMARK SMILES CCCCCCCC(=O)[O-]
REMARK SMILES IDX 5 1 6 2 7 3 8 4 9 5 10 6 4 7 3 8 2 9 1 10
REMARK H PARENT
REMARK Flexibility Score: inf
ROOT
ATOM      1  C   UNL     1     -13.095   5.884 -10.375  1.00  0.00     0.000 C 
ENDROOT
BRANCH   1   2
ATOM      2  C   UNL     1     -12.394   4.877  -9.450  1.00  0.00     0.006 C 
BRANCH   2   3
ATOM      3  C   UNL     1     -12.931   3.451  -9.631  1.00  0.00     0.053 C 
BRANCH   3   4
ATOM      4  C   UNL     1     -12.343   2.785 -10.837  1.00  0.00     0.041 C 
ATOM      5  O   UNL     1     -13.075   2.112 -11.610  1.00  0.00    -0.550 OA
ATOM      6  O   UNL     1     -10.981   2.881 -11.090  1.00  0.00    -0.550 OA
ENDBRANCH   3   4
ENDBRANCH   2   3
ENDBRANCH   1   2
BRANCH   1   7
ATOM      7  C   UNL     1     -12.090   6.548 -11.329  1.00  0.00     0.000 C 
BRANCH   7   8
ATOM      8  C   UNL     1     -10.708   6.749 -10.674  1.00  0.00    -0.000 C 
BRANCH   8   9
ATOM      9  C   UNL     1      -9.892   7.894 -11.299  1.00  0.00    -0.003 C 
ATOM     10  C   UNL     1      -9.142   8.729 -10.266  1.00  0.00     0.004 C 
ENDBRANCH   8   9
ENDBRANCH   7   8
ENDBRANCH   1   7
TORSDOF 6
ENDMDL
MODEL 7
REMARK VINA RESULT:    -3.703      1.543      3.357
REMARK INTER + INTRA:          -5.582
REMARK INTER:                  -5.083
REMARK INTRA:                  -0.499
REMARK UNBOUND:                -0.581
REMARK SMILES CCCCCCCC(=O)[O-]
REMARK SMILES IDX 5 1 6 2 7 3 8 4 9 5 10 6 4 7 3 8 2 9 1 10
REMARK H PARENT
REMARK Flexibility Score: inf
ROOT
ATOM      1  C   UNL     1     -11.988  -2.629 -23.730  1.00  0.00     0.000 C 
ENDROOT
BRANCH   1   2
ATOM      2  C   UNL     1     -12.527  -1.835 -22.531  1.00  0.00     0.006 C 
BRANCH   2   3
ATOM      3  C   UNL     1     -12.945  -0.410 -22.919  1.00  0.00     0.053 C 
BRANCH   3   4
ATOM      4  C   UNL     1     -11.758   0.451 -23.226  1.00  0.00     0.041 C 
ATOM      5  O   UNL     1     -11.751   1.176 -24.256  1.00  0.00    -0.550 OA
ATOM      6  O   UNL     1     -10.648   0.430 -22.392  1.00  0.00    -0.550 OA
ENDBRANCH   3   4
ENDBRANCH   2   3
ENDBRANCH   1   2
BRANCH   1   7
ATOM      7  C   UNL     1     -12.977  -2.594 -24.905  1.00  0.00     0.000 C 
BRANCH   7   8
ATOM      8  C   UNL     1     -12.274  -2.771 -26.266  1.00  0.00    -0.000 C 
BRANCH   8   9
ATOM      9  C   UNL     1     -11.842  -1.445 -26.913  1.00  0.00    -0.003 C 
ATOM     10  C   UNL     1     -10.393  -1.073 -26.607  1.00  0.00     0.004 C 
ENDBRANCH   8   9
ENDBRANCH   7   8
ENDBRANCH   1   7
TORSDOF 6
ENDMDL
MODEL 8
REMARK VINA RESULT:    -3.649     18.161     19.413
REMARK INTER + INTRA:          -5.510
REMARK INTER:                  -5.288
REMARK INTRA:                  -0.222
REMARK UNBOUND:                -0.581
REMARK SMILES CCCCCCCC(=O)[O-]
REMARK SMILES IDX 5 1 6 2 7 3 8 4 9 5 10 6 4 7 3 8 2 9 1 10
REMARK H PARENT
REMARK Flexibility Score: inf
ROOT
ATOM      1  C   UNL     1       6.896   6.052 -23.239  1.00  0.00     0.000 C 
ENDROOT
BRANCH   1   2
ATOM      2  C   UNL     1       6.907   7.374 -24.020  1.00  0.00     0.006 C 
BRANCH   2   3
ATOM      3  C   UNL     1       5.818   7.419 -25.101  1.00  0.00     0.053 C 
BRANCH   3   4
ATOM      4  C   UNL     1       6.390   7.237 -26.473  1.00  0.00     0.041 C 
ATOM      5  O   UNL     1       6.764   8.236 -27.142  1.00  0.00    -0.550 OA
ATOM      6  O   UNL     1       6.480   5.966 -27.027  1.00  0.00    -0.550 OA
ENDBRANCH   3   4
ENDBRANCH   2   3
ENDBRANCH   1   2
BRANCH   1   7
ATOM      7  C   UNL     1       5.544   5.834 -22.542  1.00  0.00     0.000 C 
BRANCH   7   8
ATOM      8  C   UNL     1       5.629   6.060 -21.018  1.00  0.00    -0.000 C 
BRANCH   8   9
ATOM      9  C   UNL     1       4.388   5.569 -20.254  1.00  0.00    -0.003 C 
ATOM     10  C   UNL     1       3.082   5.833 -20.998  1.00  0.00     0.004 C 
ENDBRANCH   8   9
ENDBRANCH   7   8
ENDBRANCH   1   7
TORSDOF 6
ENDMDL
MODEL 9
REMARK VINA RESULT:    -3.643      2.684      4.386
REMARK INTER + INTRA:          -5.502
REMARK INTER:                  -5.227
REMARK INTRA:                  -0.274
REMARK UNBOUND:                -0.581
REMARK SMILES CCCCCCCC(=O)[O-]
REMARK SMILES IDX 5 1 6 2 7 3 8 4 9 5 10 6 4 7 3 8 2 9 1 10
REMARK H PARENT
REMARK Flexibility Score: inf
ROOT
ATOM      1  C   UNL     1     -12.392  -2.518 -22.923  1.00  0.00     0.000 C 
ENDROOT
BRANCH   1   2
ATOM      2  C   UNL     1     -11.576  -1.292 -22.489  1.00  0.00     0.006 C 
BRANCH   2   3
ATOM      3  C   UNL     1     -11.681  -1.027 -20.981  1.00  0.00     0.053 C 
BRANCH   3   4
ATOM      4  C   UNL     1     -10.680  -0.011 -20.525  1.00  0.00     0.041 C 
ATOM      5  O   UNL     1     -10.569   0.266 -19.302  1.00  0.00    -0.550 OA
ATOM      6  O   UNL     1      -9.891   0.655 -21.454  1.00  0.00    -0.550 OA
ENDBRANCH   3   4
ENDBRANCH   2   3
ENDBRANCH   1   2
BRANCH   1   7
ATOM      7  C   UNL     1     -13.067  -2.280 -24.282  1.00  0.00     0.000 C 
BRANCH   7   8
ATOM      8  C   UNL     1     -12.362  -3.039 -25.425  1.00  0.00    -0.000 C 
BRANCH   8   9
ATOM      9  C   UNL     1     -11.978  -2.143 -26.614  1.00  0.00    -0.003 C 
ATOM     10  C   UNL     1     -10.890  -1.128 -26.272  1.00  0.00     0.004 C 
ENDBRANCH   8   9
ENDBRANCH   7   8
ENDBRANCH   1   7
TORSDOF 6
ENDMDL
