MODEL 1
REMARK VINA RESULT:    -5.641      0.000      0.000
REMARK INTER + INTRA:          -5.806
REMARK INTER:                  -5.806
REMARK INTRA:                   0.000
REMARK UNBOUND:                 0.000
REMARK SMILES O=c1ccc2cc(O)ccc2o1
REMARK SMILES IDX 9 1 10 2 11 3 5 4 4 5 3 6 2 7 1 8 12 9 6 10 7 11 8 12
REMARK H PARENT 8 13
REMARK Flexibility Score: inf
ROOT
ATOM      1  C   UNL     1       7.534 -28.113 -19.374  1.00  0.00     0.050 A 
ATOM      2  C   UNL     1       8.236 -29.021 -18.574  1.00  0.00     0.052 A 
ATOM      3  C   UNL     1       8.353 -30.358 -18.971  1.00  0.00     0.138 A 
ATOM      4  C   UNL     1       7.761 -30.786 -20.179  1.00  0.00     0.021 A 
ATOM      5  C   UNL     1       7.895 -32.128 -20.548  1.00  0.00     0.019 A 
ATOM      6  C   UNL     1       8.605 -32.997 -19.720  1.00  0.00     0.094 A 
ATOM      7  C   UNL     1       9.164 -32.503 -18.538  1.00  0.00     0.336 A 
ATOM      8  O   UNL     1       9.808 -33.273 -17.778  1.00  0.00    -0.246 OA
ATOM      9  O   UNL     1       9.022 -31.222 -18.209  1.00  0.00    -0.423 OA
ATOM     10  C   UNL     1       7.058 -29.872 -20.977  1.00  0.00     0.058 A 
ATOM     11  C   UNL     1       6.944 -28.533 -20.572  1.00  0.00     0.116 A 
ENDROOT
BRANCH  11  12
ATOM     12  O   UNL     1       6.250 -27.612 -21.355  1.00  0.00    -0.508 OA
ATOM     13  H   UNL     1       5.731 -26.848 -20.938  1.00  0.00     0.293 HD
ENDBRANCH  11  12
TORSDOF 1
ENDMDL
MODEL 2
REMARK VINA RESULT:    -5.576      2.378      5.420
REMARK INTER + INTRA:          -5.739
REMARK INTER:                  -5.739
REMARK INTRA:                   0.000
REMARK UNBOUND:                 0.000
REMARK SMILES O=c1ccc2cc(O)ccc2o1
REMARK SMILES IDX 9 1 10 2 11 3 5 4 4 5 3 6 2 7 1 8 12 9 6 10 7 11 8 12
REMARK H PARENT 8 13
REMARK Flexibility Score: inf
ROOT
ATOM      1  C   UNL     1      12.002 -34.251 -18.961  1.00  0.00     0.050 A 
ATOM      2  C   UNL     1      11.818 -32.958 -19.463  1.00  0.00     0.052 A 
ATOM      3  C   UNL     1      10.530 -32.498 -19.755  1.00  0.00     0.138 A 
ATOM      4  C   UNL     1       9.418 -33.342 -19.542  1.00  0.00     0.021 A 
ATOM      5  C   UNL     1       8.143 -32.854 -19.844  1.00  0.00     0.019 A 
ATOM      6  C   UNL     1       8.007 -31.558 -20.342  1.00  0.00     0.094 A 
ATOM      7  C   UNL     1       9.154 -30.779 -20.527  1.00  0.00     0.336 A 
ATOM      8  O   UNL     1       9.051 -29.606 -20.976  1.00  0.00    -0.246 OA
ATOM      9  O   UNL     1      10.356 -31.267 -20.232  1.00  0.00    -0.423 OA
ATOM     10  C   UNL     1       9.608 -34.637 -19.039  1.00  0.00     0.058 A 
ATOM     11  C   UNL     1      10.904 -35.092 -18.749  1.00  0.00     0.116 A 
ENDROOT
BRANCH  11  12
ATOM     12  O   UNL     1      11.108 -36.376 -18.248  1.00  0.00    -0.508 OA
ATOM     13  H   UNL     1      10.403 -37.098 -18.337  1.00  0.00     0.293 HD
ENDBRANCH  11  12
TORSDOF 1
ENDMDL
MODEL 3
REMARK VINA RESULT:    -5.425      8.094      9.946
REMARK INTER + INTRA:          -5.583
REMARK INTER:                  -5.583
REMARK INTRA:                   0.000
REMARK UNBOUND:                 0.000
REMARK SMILES O=c1ccc2cc(O)ccc2o1
REMARK SMILES IDX 9 1 10 2 11 3 5 4 4 5 3 6 2 7 1 8 12 9 6 10 7 11 8 12
REMARK H PARENT 8 13
REMARK Flexibility Score: inf
ROOT
ATOM      1  C   UNL     1      11.502 -26.115 -10.481  1.00  0.00     0.050 A 
ATOM      2  C   UNL     1      10.785 -26.853 -11.428  1.00  0.00     0.052 A 
ATOM      3  C   UNL     1       9.749 -26.249 -12.150  1.00  0.00     0.138 A 
ATOM      4  C   UNL     1       9.432 -24.893 -11.917  1.00  0.00     0.021 A 
ATOM      5  C   UNL     1       8.392 -24.316 -12.653  1.00  0.00     0.019 A 
ATOM      6  C   UNL     1       7.704 -25.090 -13.587  1.00  0.00     0.094 A 
ATOM      7  C   UNL     1       8.074 -26.427 -13.763  1.00  0.00     0.336 A 
ATOM      8  O   UNL     1       7.464 -27.142 -14.603  1.00  0.00    -0.246 OA
ATOM      9  O   UNL     1       9.067 -26.952 -13.051  1.00  0.00    -0.423 OA
ATOM     10  C   UNL     1      10.154 -24.157 -10.967  1.00  0.00     0.058 A 
ATOM     11  C   UNL     1      11.191 -24.771 -10.247  1.00  0.00     0.116 A 
ENDROOT
BRANCH  11  12
ATOM     12  O   UNL     1      11.918 -24.053  -9.300  1.00  0.00    -0.508 OA
ATOM     13  H   UNL     1      12.931 -24.091  -9.269  1.00  0.00     0.293 HD
ENDBRANCH  11  12
TORSDOF 1
ENDMDL
MODEL 4
REMARK VINA RESULT:    -5.235      1.658      4.701
REMARK INTER + INTRA:          -5.389
REMARK INTER:                  -5.389
REMARK INTRA:                   0.000
REMARK UNBOUND:                 0.000
REMARK SMILES O=c1ccc2cc(O)ccc2o1
REMARK SMILES IDX 9 1 10 2 11 3 5 4 4 5 3 6 2 7 1 8 12 9 6 10 7 11 8 12
REMARK H PARENT 8 13
REMARK Flexibility Score: inf
ROOT
ATOM      1  C   UNL     1       8.455 -33.368 -19.509  1.00  0.00     0.050 A 
ATOM      2  C   UNL     1       7.535 -32.323 -19.641  1.00  0.00     0.052 A 
ATOM      3  C   UNL     1       7.956 -31.074 -20.111  1.00  0.00     0.138 A 
ATOM      4  C   UNL     1       9.312 -30.873 -20.451  1.00  0.00     0.021 A 
ATOM      5  C   UNL     1       9.703 -29.615 -20.917  1.00  0.00     0.019 A 
ATOM      6  C   UNL     1       8.750 -28.602 -21.033  1.00  0.00     0.094 A 
ATOM      7  C   UNL     1       7.426 -28.874 -20.678  1.00  0.00     0.336 A 
ATOM      8  O   UNL     1       6.551 -27.973 -20.776  1.00  0.00    -0.246 OA
ATOM      9  O   UNL     1       7.079 -30.080 -20.237  1.00  0.00    -0.423 OA
ATOM     10  C   UNL     1      10.231 -31.924 -20.317  1.00  0.00     0.058 A 
ATOM     11  C   UNL     1       9.801 -33.174 -19.844  1.00  0.00     0.116 A 
ENDROOT
BRANCH  11  12
ATOM     12  O   UNL     1      10.702 -34.228 -19.706  1.00  0.00    -0.508 OA
ATOM     13  H   UNL     1      10.390 -35.192 -19.686  1.00  0.00     0.293 HD
ENDBRANCH  11  12
TORSDOF 1
ENDMDL
MODEL 5
REMARK VINA RESULT:    -5.196      2.496      5.141
REMARK INTER + INTRA:          -5.347
REMARK INTER:                  -5.347
REMARK INTRA:                   0.000
REMARK UNBOUND:                 0.000
REMARK SMILES O=c1ccc2cc(O)ccc2o1
REMARK SMILES IDX 9 1 10 2 11 3 5 4 4 5 3 6 2 7 1 8 12 9 6 10 7 11 8 12
REMARK H PARENT 8 13
REMARK Flexibility Score: inf
ROOT
ATOM      1  C   UNL     1      11.625 -34.030 -17.770  1.00  0.00     0.050 A 
ATOM      2  C   UNL     1      11.085 -32.840 -17.271  1.00  0.00     0.052 A 
ATOM      3  C   UNL     1       9.836 -32.395 -17.720  1.00  0.00     0.138 A 
ATOM      4  C   UNL     1       9.126 -33.151 -18.678  1.00  0.00     0.021 A 
ATOM      5  C   UNL     1       7.881 -32.681 -19.108  1.00  0.00     0.019 A 
ATOM      6  C   UNL     1       7.381 -31.490 -18.582  1.00  0.00     0.094 A 
ATOM      7  C   UNL     1       8.141 -30.794 -17.637  1.00  0.00     0.336 A 
ATOM      8  O   UNL     1       7.706 -29.717 -17.151  1.00  0.00    -0.246 OA
ATOM      9  O   UNL     1       9.322 -31.263 -17.245  1.00  0.00    -0.423 OA
ATOM     10  C   UNL     1       9.672 -34.344 -19.175  1.00  0.00     0.058 A 
ATOM     11  C   UNL     1      10.924 -34.782 -18.719  1.00  0.00     0.116 A 
ENDROOT
BRANCH  11  12
ATOM     12  O   UNL     1      11.480 -35.965 -19.203  1.00  0.00    -0.508 OA
ATOM     13  H   UNL     1      11.868 -36.663 -18.579  1.00  0.00     0.293 HD
ENDBRANCH  11  12
TORSDOF 1
ENDMDL
MODEL 6
REMARK VINA RESULT:    -5.156     12.373     15.266
REMARK INTER + INTRA:          -5.307
REMARK INTER:                  -5.307
REMARK INTRA:                   0.000
REMARK UNBOUND:                 0.000
REMARK SMILES O=c1ccc2cc(O)ccc2o1
REMARK SMILES IDX 9 1 10 2 11 3 5 4 4 5 3 6 2 7 1 8 12 9 6 10 7 11 8 12
REMARK H PARENT 8 13
REMARK Flexibility Score: inf
ROOT
ATOM      1  C   UNL     1      13.688 -39.945  -7.388  1.00  0.00     0.050 A 
ATOM      2  C   UNL     1      13.583 -39.366  -8.657  1.00  0.00     0.052 A 
ATOM      3  C   UNL     1      13.722 -37.982  -8.808  1.00  0.00     0.138 A 
ATOM      4  C   UNL     1      13.969 -37.174  -7.677  1.00  0.00     0.021 A 
ATOM      5  C   UNL     1      14.103 -35.794  -7.860  1.00  0.00     0.019 A 
ATOM      6  C   UNL     1      13.990 -35.261  -9.144  1.00  0.00     0.094 A 
ATOM      7  C   UNL     1      13.745 -36.122 -10.217  1.00  0.00     0.336 A 
ATOM      8  O   UNL     1      13.640 -35.659 -11.384  1.00  0.00    -0.246 OA
ATOM      9  O   UNL     1      13.621 -37.432 -10.016  1.00  0.00    -0.423 OA
ATOM     10  C   UNL     1      14.074 -37.760  -6.407  1.00  0.00     0.058 A 
ATOM     11  C   UNL     1      13.933 -39.149  -6.263  1.00  0.00     0.116 A 
ENDROOT
BRANCH  11  12
ATOM     12  O   UNL     1      14.035 -39.745  -5.008  1.00  0.00    -0.508 OA
ATOM     13  H   UNL     1      14.091 -39.191  -4.162  1.00  0.00     0.293 HD
ENDBRANCH  11  12
TORSDOF 1
ENDMDL
MODEL 7
REMARK VINA RESULT:    -5.108      8.446      9.990
REMARK INTER + INTRA:          -5.257
REMARK INTER:                  -5.257
REMARK INTRA:                   0.000
REMARK UNBOUND:                 0.000
REMARK SMILES O=c1ccc2cc(O)ccc2o1
REMARK SMILES IDX 9 1 10 2 11 3 5 4 4 5 3 6 2 7 1 8 12 9 6 10 7 11 8 12
REMARK H PARENT 8 13
REMARK Flexibility Score: inf
ROOT
ATOM      1  C   UNL     1      19.251 -31.951 -21.887  1.00  0.00     0.050 A 
ATOM      2  C   UNL     1      18.247 -31.051 -21.516  1.00  0.00     0.052 A 
ATOM      3  C   UNL     1      17.019 -31.528 -21.043  1.00  0.00     0.138 A 
ATOM      4  C   UNL     1      16.799 -32.919 -20.942  1.00  0.00     0.021 A 
ATOM      5  C   UNL     1      15.563 -33.365 -20.465  1.00  0.00     0.019 A 
ATOM      6  C   UNL     1      14.591 -32.432 -20.107  1.00  0.00     0.094 A 
ATOM      7  C   UNL     1      14.879 -31.070 -20.234  1.00  0.00     0.336 A 
ATOM      8  O   UNL     1      14.014 -30.211 -19.915  1.00  0.00    -0.246 OA
ATOM      9  O   UNL     1      16.064 -30.671 -20.690  1.00  0.00    -0.423 OA
ATOM     10  C   UNL     1      17.810 -33.817 -21.314  1.00  0.00     0.058 A 
ATOM     11  C   UNL     1      19.038 -33.331 -21.789  1.00  0.00     0.116 A 
ENDROOT
BRANCH  11  12
ATOM     12  O   UNL     1      20.052 -34.211 -22.163  1.00  0.00    -0.508 OA
ATOM     13  H   UNL     1      20.827 -34.420 -21.544  1.00  0.00     0.293 HD
ENDBRANCH  11  12
TORSDOF 1
ENDMDL
MODEL 8
REMARK VINA RESULT:    -5.102      1.799      3.057
REMARK INTER + INTRA:          -5.251
REMARK INTER:                  -5.251
REMARK INTRA:                   0.000
REMARK UNBOUND:                 0.000
REMARK SMILES O=c1ccc2cc(O)ccc2o1
REMARK SMILES IDX 9 1 10 2 11 3 5 4 4 5 3 6 2 7 1 8 12 9 6 10 7 11 8 12
REMARK H PARENT 8 13
REMARK Flexibility Score: inf
ROOT
ATOM      1  C   UNL     1       7.738 -31.239 -20.629  1.00  0.00     0.050 A 
ATOM      2  C   UNL     1       8.424 -32.458 -20.642  1.00  0.00     0.052 A 
ATOM      3  C   UNL     1       9.045 -32.924 -19.477  1.00  0.00     0.138 A 
ATOM      4  C   UNL     1       8.976 -32.160 -18.292  1.00  0.00     0.021 A 
ATOM      5  C   UNL     1       9.606 -32.651 -17.145  1.00  0.00     0.019 A 
ATOM      6  C   UNL     1      10.278 -33.872 -17.203  1.00  0.00     0.094 A 
ATOM      7  C   UNL     1      10.305 -34.574 -18.412  1.00  0.00     0.336 A 
ATOM      8  O   UNL     1      10.907 -35.678 -18.485  1.00  0.00    -0.246 OA
ATOM      9  O   UNL     1       9.697 -34.084 -19.490  1.00  0.00    -0.423 OA
ATOM     10  C   UNL     1       8.287 -30.939 -18.285  1.00  0.00     0.058 A 
ATOM     11  C   UNL     1       7.667 -30.478 -19.457  1.00  0.00     0.116 A 
ENDROOT
BRANCH  11  12
ATOM     12  O   UNL     1       6.979 -29.266 -19.465  1.00  0.00    -0.508 OA
ATOM     13  H   UNL     1       6.259 -29.071 -20.151  1.00  0.00     0.293 HD
ENDBRANCH  11  12
TORSDOF 1
ENDMDL
MODEL 9
REMARK VINA RESULT:    -5.074      9.188     10.549
REMARK INTER + INTRA:          -5.222
REMARK INTER:                  -5.222
REMARK INTRA:                   0.000
REMARK UNBOUND:                 0.000
REMARK SMILES O=c1ccc2cc(O)ccc2o1
REMARK SMILES IDX 9 1 10 2 11 3 5 4 4 5 3 6 2 7 1 8 12 9 6 10 7 11 8 12
REMARK H PARENT 8 13
REMARK Flexibility Score: inf
ROOT
ATOM      1  C   UNL     1      17.370 -33.070 -21.367  1.00  0.00     0.050 A 
ATOM      2  C   UNL     1      16.638 -32.191 -20.562  1.00  0.00     0.052 A 
ATOM      3  C   UNL     1      17.076 -30.873 -20.386  1.00  0.00     0.138 A 
ATOM      4  C   UNL     1      18.258 -30.437 -21.022  1.00  0.00     0.021 A 
ATOM      5  C   UNL     1      18.671 -29.115 -20.827  1.00  0.00     0.019 A 
ATOM      6  C   UNL     1      17.909 -28.274 -20.016  1.00  0.00     0.094 A 
ATOM      7  C   UNL     1      16.750 -28.776 -19.418  1.00  0.00     0.336 A 
ATOM      8  O   UNL     1      16.049 -28.031 -18.683  1.00  0.00    -0.246 OA
ATOM      9  O   UNL     1      16.379 -30.037 -19.620  1.00  0.00    -0.423 OA
ATOM     10  C   UNL     1      18.988 -31.322 -21.828  1.00  0.00     0.058 A 
ATOM     11  C   UNL     1      18.543 -32.642 -21.999  1.00  0.00     0.116 A 
ENDROOT
BRANCH  11  12
ATOM     12  O   UNL     1      19.257 -33.533 -22.797  1.00  0.00    -0.508 OA
ATOM     13  H   UNL     1      19.650 -34.386 -22.417  1.00  0.00     0.293 HD
ENDBRANCH  11  12
TORSDOF 1
ENDMDL
