MODEL 1
REMARK VINA RESULT:    -3.017      0.000      0.000
REMARK INTER + INTRA:          -4.940
REMARK INTER:                  -4.604
REMARK INTRA:                  -0.336
REMARK UNBOUND:                -0.336
REMARK SMILES CC1=CCC[C@@H](C)C(=O)C[C@@H](C(C)C)C(=O)C1
REMARK SMILES IDX 8 1 9 2 6 3 7 4 5 5 4 6 3 7 2 8 1 9 10 11 11 12 15 13 16 14
REMARK SMILES IDX 17 15 12 17 13 18 14 19
REMARK H PARENT
REMARK Flexibility Score: 70.00
ROOT
ATOM      1  C   UNL     1       1.077 -15.624   9.421  1.00  0.00     0.136 C 
ATOM      2  O   UNL     1       0.559 -16.695   9.136  1.00  0.00    -0.299 OA
ENDROOT
BRANCH   1   3
ATOM      3  C   UNL     1       2.448 -15.594  10.081  1.00  0.00     0.053 C 
ATOM      4  C   UNL     1       3.462 -16.488   9.350  1.00  0.00     0.016 C 
BRANCH   3   5
ATOM      5  C   UNL     1       2.377 -15.949  11.585  1.00  0.00     0.015 C 
BRANCH   5   6
ATOM      6  C   UNL     1       2.938 -14.856  12.527  1.00  0.00     0.028 C 
BRANCH   6   7
ATOM      7  C   UNL     1       1.839 -14.262  13.378  1.00  0.00    -0.028 C 
ATOM      8  C   UNL     1       1.255 -13.055  13.181  1.00  0.00    -0.070 CG0
ATOM      9  C   UNL     1       0.276 -12.567  14.219  1.00  0.00     0.039 C 
ATOM     10  G   UNL     1       1.534 -12.176  11.971  1.00  0.00     0.000 G0
ENDBRANCH   6   7
ENDBRANCH   5   6
ENDBRANCH   3   5
ENDBRANCH   1   3
BRANCH   1  11
ATOM     11  C   UNL     1       0.312 -14.350   9.136  1.00  0.00     0.087 C 
BRANCH  11  12
ATOM     12  C   UNL     1       1.133 -13.075   9.465  1.00  0.00     0.066 C 
BRANCH  12  13
ATOM     13  C   UNL     1       0.651 -12.411  10.752  1.00  0.00     0.140 C 
ATOM     14  O   UNL     1      -0.518 -12.065  10.832  1.00  0.00    -0.299 OA
BRANCH  13  15
ATOM     15  C   UNL     1       1.531 -12.172  11.966  1.00  0.00     0.106 CG0
ATOM     16  G   UNL     1       1.223 -13.027  13.186  1.00  0.00     0.000 G0
ENDBRANCH  13  15
ENDBRANCH  12  13
BRANCH  12  17
ATOM     17  C   UNL     1       1.204 -12.044   8.294  1.00  0.00    -0.006 C 
ATOM     18  C   UNL     1       2.627 -11.942   7.718  1.00  0.00     0.008 C 
ATOM     19  C   UNL     1       0.201 -12.302   7.156  1.00  0.00     0.008 C 
ENDBRANCH  12  17
ENDBRANCH  11  12
ENDBRANCH   1  11
TORSDOF 1
ENDMDL
MODEL 2
REMARK VINA RESULT:    -2.842      2.302      4.648
REMARK INTER + INTRA:          -4.674
REMARK INTER:                  -4.728
REMARK INTRA:                   0.054
REMARK UNBOUND:                -0.336
REMARK SMILES CC1=CCC[C@@H](C)C(=O)C[C@@H](C(C)C)C(=O)C1
REMARK SMILES IDX 8 1 9 2 6 3 7 4 5 5 4 6 3 7 2 8 1 9 10 11 11 12 15 13 16 14
REMARK SMILES IDX 17 15 12 17 13 18 14 19
REMARK H PARENT
REMARK Flexibility Score: 70.00
ROOT
ATOM      1  C   UNL     1       1.818 -16.127  10.033  1.00  0.00     0.136 C 
ATOM      2  O   UNL     1       2.700 -16.437   9.245  1.00  0.00    -0.299 OA
ENDROOT
BRANCH   1   3
ATOM      3  C   UNL     1       0.631 -15.301   9.559  1.00  0.00     0.053 C 
ATOM      4  C   UNL     1      -0.206 -16.042   8.504  1.00  0.00     0.016 C 
BRANCH   3   5
ATOM      5  C   UNL     1       1.059 -13.906   9.047  1.00  0.00     0.015 C 
BRANCH   5   6
ATOM      6  C   UNL     1       1.709 -13.002  10.123  1.00  0.00     0.028 C 
BRANCH   6   7
ATOM      7  C   UNL     1       3.205 -12.919   9.927  1.00  0.00    -0.028 C 
ATOM      8  C   UNL     1       4.134 -12.998  10.911  1.00  0.00    -0.070 CG0
ATOM      9  C   UNL     1       5.575 -12.749  10.542  1.00  0.00     0.039 C 
ATOM     10  G   UNL     1       3.798 -13.326  12.357  1.00  0.00     0.000 G0
ENDBRANCH   6   7
ENDBRANCH   5   6
ENDBRANCH   3   5
ENDBRANCH   1   3
BRANCH   1  11
ATOM     11  C   UNL     1       1.956 -16.550  11.479  1.00  0.00     0.087 C 
BRANCH  11  12
ATOM     12  C   UNL     1       1.986 -15.342  12.454  1.00  0.00     0.066 C 
BRANCH  12  13
ATOM     13  C   UNL     1       3.398 -14.790  12.624  1.00  0.00     0.140 C 
ATOM     14  O   UNL     1       4.288 -15.552  12.971  1.00  0.00    -0.299 OA
BRANCH  13  15
ATOM     15  C   UNL     1       3.783 -13.344  12.364  1.00  0.00     0.106 CG0
ATOM     16  G   UNL     1       4.135 -13.003  10.924  1.00  0.00     0.000 G0
ENDBRANCH  13  15
ENDBRANCH  12  13
BRANCH  12  17
ATOM     17  C   UNL     1       1.322 -15.626  13.838  1.00  0.00    -0.006 C 
ATOM     18  C   UNL     1       1.713 -17.013  14.378  1.00  0.00     0.008 C 
ATOM     19  C   UNL     1       1.597 -14.556  14.909  1.00  0.00     0.008 C 
ENDBRANCH  12  17
ENDBRANCH  11  12
ENDBRANCH   1  11
TORSDOF 1
ENDMDL
MODEL 3
REMARK VINA RESULT:    -2.744     14.454     16.188
REMARK INTER + INTRA:          -4.524
REMARK INTER:                  -4.167
REMARK INTRA:                  -0.357
REMARK UNBOUND:                -0.336
REMARK SMILES CC1=CCC[C@@H](C)C(=O)C[C@@H](C(C)C)C(=O)C1
REMARK SMILES IDX 8 1 9 2 6 3 7 4 5 5 4 6 3 7 2 8 1 9 10 11 11 12 15 13 16 14
REMARK SMILES IDX 17 15 12 17 13 18 14 19
REMARK H PARENT
REMARK Flexibility Score: 70.00
ROOT
ATOM      1  C   UNL     1       1.162 -27.816  10.415  1.00  0.00     0.136 C 
ATOM      2  O   UNL     1       1.032 -26.858   9.665  1.00  0.00    -0.299 OA
ENDROOT
BRANCH   1   3
ATOM      3  C   UNL     1       1.555 -29.174   9.852  1.00  0.00     0.053 C 
ATOM      4  C   UNL     1       2.899 -29.126   9.108  1.00  0.00     0.016 C 
BRANCH   3   5
ATOM      5  C   UNL     1       0.447 -29.776   8.957  1.00  0.00     0.015 C 
BRANCH   5   6
ATOM      6  C   UNL     1      -0.493 -30.769   9.685  1.00  0.00     0.028 C 
BRANCH   6   7
ATOM      7  C   UNL     1      -1.913 -30.252   9.702  1.00  0.00    -0.028 C 
ATOM      8  C   UNL     1      -2.643 -29.990  10.814  1.00  0.00    -0.070 CG0
ATOM      9  C   UNL     1      -4.093 -29.619  10.636  1.00  0.00     0.039 C 
ATOM     10  G   UNL     1      -2.074 -30.049  12.223  1.00  0.00     0.000 G0
ENDBRANCH   6   7
ENDBRANCH   5   6
ENDBRANCH   3   5
ENDBRANCH   1   3
BRANCH   1  11
ATOM     11  C   UNL     1       0.889 -27.623  11.890  1.00  0.00     0.087 C 
BRANCH  11  12
ATOM     12  C   UNL     1       0.341 -28.907  12.568  1.00  0.00     0.066 C 
BRANCH  12  13
ATOM     13  C   UNL     1      -1.182 -28.889  12.663  1.00  0.00     0.140 C 
ATOM     14  O   UNL     1      -1.732 -27.876  13.070  1.00  0.00    -0.299 OA
BRANCH  13  15
ATOM     15  C   UNL     1      -2.074 -30.048  12.255  1.00  0.00     0.106 CG0
ATOM     16  G   UNL     1      -2.632 -29.989  10.842  1.00  0.00     0.000 G0
ENDBRANCH  13  15
ENDBRANCH  12  13
BRANCH  12  17
ATOM     17  C   UNL     1       0.987 -29.219  13.955  1.00  0.00    -0.006 C 
ATOM     18  C   UNL     1       1.228 -30.727  14.141  1.00  0.00     0.008 C 
ATOM     19  C   UNL     1       2.287 -28.447  14.241  1.00  0.00     0.008 C 
ENDBRANCH  12  17
ENDBRANCH  11  12
ENDBRANCH   1  11
TORSDOF 1
ENDMDL
MODEL 4
REMARK VINA RESULT:    -2.698      5.046      6.568
REMARK INTER + INTRA:          -4.454
REMARK INTER:                  -3.942
REMARK INTRA:                  -0.512
REMARK UNBOUND:                -0.336
REMARK SMILES CC1=CCC[C@@H](C)C(=O)C[C@@H](C(C)C)C(=O)C1
REMARK SMILES IDX 8 1 9 2 6 3 7 4 5 5 4 6 3 7 2 8 1 9 10 11 11 12 15 13 16 14
REMARK SMILES IDX 17 15 12 17 13 18 14 19
REMARK H PARENT
REMARK Flexibility Score: 70.00
ROOT
ATOM      1  C   UNL     1       2.937 -19.602  14.577  1.00  0.00     0.136 C 
ATOM      2  O   UNL     1       3.275 -20.629  14.004  1.00  0.00    -0.299 OA
ENDROOT
BRANCH   1   3
ATOM      3  C   UNL     1       3.370 -19.358  16.016  1.00  0.00     0.053 C 
ATOM      4  C   UNL     1       4.882 -19.558  16.208  1.00  0.00     0.016 C 
BRANCH   3   5
ATOM      5  C   UNL     1       2.564 -20.214  17.020  1.00  0.00     0.015 C 
BRANCH   5   6
ATOM      6  C   UNL     1       1.031 -20.007  16.951  1.00  0.00     0.028 C 
BRANCH   6   7
ATOM      7  C   UNL     1       0.616 -18.783  17.733  1.00  0.00    -0.028 C 
ATOM      8  C   UNL     1       0.214 -17.604  17.196  1.00  0.00    -0.070 CG0
ATOM      9  C   UNL     1      -0.022 -16.447  18.133  1.00  0.00     0.039 C 
ATOM     10  G   UNL     1      -0.011 -17.394  15.707  1.00  0.00     0.000 G0
ENDBRANCH   6   7
ENDBRANCH   5   6
ENDBRANCH   3   5
ENDBRANCH   1   3
BRANCH   1  11
ATOM     11  C   UNL     1       2.061 -18.615  13.839  1.00  0.00     0.087 C 
BRANCH  11  12
ATOM     12  C   UNL     1       2.279 -17.153  14.313  1.00  0.00     0.066 C 
BRANCH  12  13
ATOM     13  C   UNL     1       1.020 -16.573  14.951  1.00  0.00     0.140 C 
ATOM     14  O   UNL     1       0.815 -15.373  14.859  1.00  0.00    -0.299 OA
BRANCH  13  15
ATOM     15  C   UNL     1      -0.023 -17.403  15.680  1.00  0.00     0.106 CG0
ATOM     16  G   UNL     1       0.211 -17.599  17.170  1.00  0.00     0.000 G0
ENDBRANCH  13  15
ENDBRANCH  12  13
BRANCH  12  17
ATOM     17  C   UNL     1       2.837 -16.203  13.207  1.00  0.00    -0.006 C 
ATOM     18  C   UNL     1       4.371 -16.276  13.121  1.00  0.00     0.008 C 
ATOM     19  C   UNL     1       2.228 -16.422  11.810  1.00  0.00     0.008 C 
ENDBRANCH  12  17
ENDBRANCH  11  12
ENDBRANCH   1  11
TORSDOF 1
ENDMDL
MODEL 5
REMARK VINA RESULT:    -2.694      2.701      4.977
REMARK INTER + INTRA:          -4.448
REMARK INTER:                  -3.914
REMARK INTRA:                  -0.534
REMARK UNBOUND:                -0.336
REMARK SMILES CC1=CCC[C@@H](C)C(=O)C[C@@H](C(C)C)C(=O)C1
REMARK SMILES IDX 8 1 9 2 6 3 7 4 5 5 4 6 3 7 2 8 1 9 10 11 11 12 15 13 16 14
REMARK SMILES IDX 17 15 12 17 13 18 14 19
REMARK H PARENT
REMARK Flexibility Score: 70.00
ROOT
ATOM      1  C   UNL     1       1.509 -15.915  10.385  1.00  0.00     0.136 C 
ATOM      2  O   UNL     1       1.149 -16.651   9.476  1.00  0.00    -0.299 OA
ENDROOT
BRANCH   1   3
ATOM      3  C   UNL     1       1.625 -14.416  10.148  1.00  0.00     0.053 C 
ATOM      4  C   UNL     1       0.250 -13.745   9.998  1.00  0.00     0.016 C 
BRANCH   3   5
ATOM      5  C   UNL     1       2.538 -14.086   8.944  1.00  0.00     0.015 C 
BRANCH   5   6
ATOM      6  C   UNL     1       3.982 -14.632   9.069  1.00  0.00     0.028 C 
BRANCH   6   7
ATOM      7  C   UNL     1       4.795 -13.794  10.027  1.00  0.00    -0.028 C 
ATOM      8  C   UNL     1       5.239 -14.195  11.244  1.00  0.00    -0.070 CG0
ATOM      9  C   UNL     1       5.912 -13.172  12.123  1.00  0.00     0.039 C 
ATOM     10  G   UNL     1       5.095 -15.618  11.761  1.00  0.00     0.000 G0
ENDBRANCH   6   7
ENDBRANCH   5   6
ENDBRANCH   3   5
ENDBRANCH   1   3
BRANCH   1  11
ATOM     11  C   UNL     1       1.863 -16.532  11.719  1.00  0.00     0.087 C 
BRANCH  11  12
ATOM     12  C   UNL     1       2.583 -15.534  12.665  1.00  0.00     0.066 C 
BRANCH  12  13
ATOM     13  C   UNL     1       4.061 -15.878  12.830  1.00  0.00     0.140 C 
ATOM     14  O   UNL     1       4.428 -16.401  13.871  1.00  0.00    -0.299 OA
BRANCH  13  15
ATOM     15  C   UNL     1       5.114 -15.636  11.764  1.00  0.00     0.106 CG0
ATOM     16  G   UNL     1       5.222 -14.207  11.253  1.00  0.00     0.000 G0
ENDBRANCH  13  15
ENDBRANCH  12  13
BRANCH  12  17
ATOM     17  C   UNL     1       1.888 -15.359  14.053  1.00  0.00    -0.006 C 
ATOM     18  C   UNL     1       1.112 -14.034  14.133  1.00  0.00     0.008 C 
ATOM     19  C   UNL     1       0.968 -16.525  14.457  1.00  0.00     0.008 C 
ENDBRANCH  12  17
ENDBRANCH  11  12
ENDBRANCH   1  11
TORSDOF 1
ENDMDL
MODEL 6
REMARK VINA RESULT:    -2.672      5.685      8.000
REMARK INTER + INTRA:          -4.414
REMARK INTER:                  -4.044
REMARK INTRA:                  -0.370
REMARK UNBOUND:                -0.336
REMARK SMILES CC1=CCC[C@@H](C)C(=O)C[C@@H](C(C)C)C(=O)C1
REMARK SMILES IDX 8 1 9 2 6 3 7 4 5 5 4 6 3 7 2 8 1 9 10 11 11 12 15 13 16 14
REMARK SMILES IDX 17 15 12 17 13 18 14 19
REMARK H PARENT
REMARK Flexibility Score: 70.00
ROOT
ATOM      1  C   UNL     1       3.712 -17.320  13.880  1.00  0.00     0.136 C 
ATOM      2  O   UNL     1       4.592 -16.756  13.244  1.00  0.00    -0.299 OA
ENDROOT
BRANCH   1   3
ATOM      3  C   UNL     1       2.265 -17.236  13.416  1.00  0.00     0.053 C 
ATOM      4  C   UNL     1       2.132 -16.523  12.060  1.00  0.00     0.016 C 
BRANCH   3   5
ATOM      5  C   UNL     1       1.350 -16.584  14.478  1.00  0.00     0.015 C 
BRANCH   5   6
ATOM      6  C   UNL     1       0.215 -17.503  14.995  1.00  0.00     0.028 C 
BRANCH   6   7
ATOM      7  C   UNL     1       0.194 -17.535  16.506  1.00  0.00    -0.028 C 
ATOM      8  C   UNL     1       0.604 -18.572  17.278  1.00  0.00    -0.070 CG0
ATOM      9  C   UNL     1       0.373 -18.478  18.765  1.00  0.00     0.039 C 
ATOM     10  G   UNL     1       1.283 -19.813  16.722  1.00  0.00     0.000 G0
ENDBRANCH   6   7
ENDBRANCH   5   6
ENDBRANCH   3   5
ENDBRANCH   1   3
BRANCH   1  11
ATOM     11  C   UNL     1       4.093 -18.062  15.142  1.00  0.00     0.087 C 
BRANCH  11  12
ATOM     12  C   UNL     1       3.476 -19.485  15.206  1.00  0.00     0.066 C 
BRANCH  12  13
ATOM     13  C   UNL     1       2.800 -19.747  16.549  1.00  0.00     0.140 C 
ATOM     14  O   UNL     1       3.500 -19.871  17.543  1.00  0.00    -0.299 OA
BRANCH  13  15
ATOM     15  C   UNL     1       1.297 -19.839  16.742  1.00  0.00     0.106 CG0
ATOM     16  G   UNL     1       0.621 -18.589  17.282  1.00  0.00     0.000 G0
ENDBRANCH  13  15
ENDBRANCH  12  13
BRANCH  12  17
ATOM     17  C   UNL     1       4.477 -20.629  14.847  1.00  0.00    -0.006 C 
ATOM     18  C   UNL     1       3.900 -21.569  13.775  1.00  0.00     0.008 C 
ATOM     19  C   UNL     1       5.872 -20.143  14.416  1.00  0.00     0.008 C 
ENDBRANCH  12  17
ENDBRANCH  11  12
ENDBRANCH   1  11
TORSDOF 1
ENDMDL
MODEL 7
REMARK VINA RESULT:    -2.487      2.776      4.043
REMARK INTER + INTRA:          -4.131
REMARK INTER:                  -4.471
REMARK INTRA:                   0.340
REMARK UNBOUND:                -0.336
REMARK SMILES CC1=CCC[C@@H](C)C(=O)C[C@@H](C(C)C)C(=O)C1
REMARK SMILES IDX 8 1 9 2 6 3 7 4 5 5 4 6 3 7 2 8 1 9 10 11 11 12 15 13 16 14
REMARK SMILES IDX 17 15 12 17 13 18 14 19
REMARK H PARENT
REMARK Flexibility Score: 70.00
ROOT
ATOM      1  C   UNL     1       1.672 -15.501  12.955  1.00  0.00     0.136 C 
ATOM      2  O   UNL     1       0.956 -15.647  13.936  1.00  0.00    -0.299 OA
ENDROOT
BRANCH   1   3
ATOM      3  C   UNL     1       2.880 -16.404  12.755  1.00  0.00     0.053 C 
ATOM      4  C   UNL     1       2.869 -17.607  13.712  1.00  0.00     0.016 C 
BRANCH   3   5
ATOM      5  C   UNL     1       4.212 -15.625  12.857  1.00  0.00     0.015 C 
BRANCH   5   6
ATOM      6  C   UNL     1       5.189 -15.872  11.681  1.00  0.00     0.028 C 
BRANCH   6   7
ATOM      7  C   UNL     1       5.795 -14.573  11.202  1.00  0.00    -0.028 C 
ATOM      8  C   UNL     1       5.371 -13.852  10.135  1.00  0.00    -0.070 CG0
ATOM      9  C   UNL     1       6.190 -12.656   9.721  1.00  0.00     0.039 C 
ATOM     10  G   UNL     1       4.116 -14.185   9.343  1.00  0.00     0.000 G0
ENDBRANCH   6   7
ENDBRANCH   5   6
ENDBRANCH   3   5
ENDBRANCH   1   3
BRANCH   1  11
ATOM     11  C   UNL     1       1.348 -14.390  11.980  1.00  0.00     0.087 C 
BRANCH  11  12
ATOM     12  C   UNL     1       1.744 -14.743  10.521  1.00  0.00     0.066 C 
BRANCH  12  13
ATOM     13  C   UNL     1       2.778 -13.767   9.966  1.00  0.00     0.140 C 
ATOM     14  O   UNL     1       2.557 -12.568  10.048  1.00  0.00    -0.299 OA
BRANCH  13  15
ATOM     15  C   UNL     1       4.093 -14.190   9.335  1.00  0.00     0.106 CG0
ATOM     16  G   UNL     1       5.347 -13.847  10.124  1.00  0.00     0.000 G0
ENDBRANCH  13  15
ENDBRANCH  12  13
BRANCH  12  17
ATOM     17  C   UNL     1       0.530 -14.888   9.550  1.00  0.00    -0.006 C 
ATOM     18  C   UNL     1       0.554 -13.813   8.450  1.00  0.00     0.008 C 
ATOM     19  C   UNL     1       0.387 -16.281   8.911  1.00  0.00     0.008 C 
ENDBRANCH  12  17
ENDBRANCH  11  12
ENDBRANCH   1  11
TORSDOF 1
ENDMDL
MODEL 8
REMARK VINA RESULT:    -2.457      2.818      4.246
REMARK INTER + INTRA:          -4.086
REMARK INTER:                  -3.764
REMARK INTRA:                  -0.321
REMARK UNBOUND:                -0.336
REMARK SMILES CC1=CCC[C@@H](C)C(=O)C[C@@H](C(C)C)C(=O)C1
REMARK SMILES IDX 8 1 9 2 6 3 7 4 5 5 4 6 3 7 2 8 1 9 10 11 11 12 15 13 16 14
REMARK SMILES IDX 17 15 12 17 13 18 14 19
REMARK H PARENT
REMARK Flexibility Score: 70.00
ROOT
ATOM      1  C   UNL     1       4.289 -14.242   9.318  1.00  0.00     0.136 C 
ATOM      2  O   UNL     1       4.314 -14.004   8.119  1.00  0.00    -0.299 OA
ENDROOT
BRANCH   1   3
ATOM      3  C   UNL     1       5.091 -13.378  10.281  1.00  0.00     0.053 C 
ATOM      4  C   UNL     1       5.857 -12.260   9.556  1.00  0.00     0.016 C 
BRANCH   3   5
ATOM      5  C   UNL     1       6.042 -14.219  11.164  1.00  0.00     0.015 C 
BRANCH   5   6
ATOM      6  C   UNL     1       5.736 -14.148  12.681  1.00  0.00     0.028 C 
BRANCH   6   7
ATOM      7  C   UNL     1       5.685 -15.532  13.286  1.00  0.00    -0.028 C 
ATOM      8  C   UNL     1       4.560 -16.178  13.682  1.00  0.00    -0.070 CG0
ATOM      9  C   UNL     1       4.718 -17.495  14.398  1.00  0.00     0.039 C 
ATOM     10  G   UNL     1       3.157 -15.644  13.439  1.00  0.00     0.000 G0
ENDBRANCH   6   7
ENDBRANCH   5   6
ENDBRANCH   3   5
ENDBRANCH   1   3
BRANCH   1  11
ATOM     11  C   UNL     1       3.480 -15.423   9.806  1.00  0.00     0.087 C 
BRANCH  11  12
ATOM     12  C   UNL     1       2.462 -15.033  10.911  1.00  0.00     0.066 C 
BRANCH  12  13
ATOM     13  C   UNL     1       2.526 -15.988  12.100  1.00  0.00     0.140 C 
ATOM     14  O   UNL     1       2.073 -17.115  11.972  1.00  0.00    -0.299 OA
BRANCH  13  15
ATOM     15  C   UNL     1       3.147 -15.636  13.440  1.00  0.00     0.106 CG0
ATOM     16  G   UNL     1       4.552 -16.169  13.678  1.00  0.00     0.000 G0
ENDBRANCH  13  15
ENDBRANCH  12  13
BRANCH  12  17
ATOM     17  C   UNL     1       0.996 -14.874  10.396  1.00  0.00    -0.006 C 
ATOM     18  C   UNL     1       0.658 -13.403  10.100  1.00  0.00     0.008 C 
ATOM     19  C   UNL     1       0.651 -15.742   9.173  1.00  0.00     0.008 C 
ENDBRANCH  12  17
ENDBRANCH  11  12
ENDBRANCH   1  11
TORSDOF 1
ENDMDL
MODEL 9
REMARK VINA RESULT:    -2.435      2.393      5.118
REMARK INTER + INTRA:          -4.052
REMARK INTER:                  -3.707
REMARK INTRA:                  -0.345
REMARK UNBOUND:                -0.336
REMARK SMILES CC1=CCC[C@@H](C)C(=O)C[C@@H](C(C)C)C(=O)C1
REMARK SMILES IDX 8 1 9 2 6 3 7 4 5 5 4 6 3 7 2 8 1 9 10 11 11 12 15 13 16 14
REMARK SMILES IDX 17 15 12 17 13 18 14 19
REMARK H PARENT
REMARK Flexibility Score: 70.00
ROOT
ATOM      1  C   UNL     1       0.691 -14.143   9.732  1.00  0.00     0.136 C 
ATOM      2  O   UNL     1      -0.090 -14.602   8.910  1.00  0.00    -0.299 OA
ENDROOT
BRANCH   1   3
ATOM      3  C   UNL     1       0.883 -12.637   9.841  1.00  0.00     0.053 C 
ATOM      4  C   UNL     1      -0.329 -11.944  10.483  1.00  0.00     0.016 C 
BRANCH   3   5
ATOM      5  C   UNL     1       1.233 -11.995   8.479  1.00  0.00     0.015 C 
BRANCH   5   6
ATOM      6  C   UNL     1       2.290 -12.773   7.657  1.00  0.00     0.028 C 
BRANCH   6   7
ATOM      7  C   UNL     1       3.690 -12.373   8.063  1.00  0.00    -0.028 C 
ATOM      8  C   UNL     1       4.603 -13.186   8.650  1.00  0.00    -0.070 CG0
ATOM      9  C   UNL     1       5.898 -12.571   9.116  1.00  0.00     0.039 C 
ATOM     10  G   UNL     1       4.387 -14.677   8.857  1.00  0.00     0.000 G0
ENDBRANCH   6   7
ENDBRANCH   5   6
ENDBRANCH   3   5
ENDBRANCH   1   3
BRANCH   1  11
ATOM     11  C   UNL     1       1.477 -15.103  10.598  1.00  0.00     0.087 C 
BRANCH  11  12
ATOM     12  C   UNL     1       2.840 -14.516  11.053  1.00  0.00     0.066 C 
BRANCH  12  13
ATOM     13  C   UNL     1       4.002 -15.107  10.260  1.00  0.00     0.140 C 
ATOM     14  O   UNL     1       4.664 -16.000  10.766  1.00  0.00    -0.299 OA
BRANCH  13  15
ATOM     15  C   UNL     1       4.379 -14.674   8.854  1.00  0.00     0.106 CG0
ATOM     16  G   UNL     1       4.590 -13.181   8.656  1.00  0.00     0.000 G0
ENDBRANCH  13  15
ENDBRANCH  12  13
BRANCH  12  17
ATOM     17  C   UNL     1       3.097 -14.623  12.590  1.00  0.00    -0.006 C 
ATOM     18  C   UNL     1       3.746 -13.344  13.145  1.00  0.00     0.008 C 
ATOM     19  C   UNL     1       1.850 -14.976  13.422  1.00  0.00     0.008 C 
ENDBRANCH  12  17
ENDBRANCH  11  12
ENDBRANCH   1  11
TORSDOF 1
ENDMDL
