MODEL 1
REMARK VINA RESULT:    -5.956      0.000      0.000
REMARK INTER + INTRA:          -6.399
REMARK INTER:                  -6.304
REMARK INTRA:                  -0.095
REMARK UNBOUND:                -0.095
REMARK SMILES C=C(C)[C@H]1CC=C(C)C(=O)C1
REMARK SMILES IDX 8 1 7 2 6 3 5 4 4 5 11 6 9 7 10 8 2 9 1 10 3 11
REMARK H PARENT
REMARK Flexibility Score: inf
ROOT
ATOM      1  C   UNL     1     -10.819 -17.466  26.057  1.00  0.00     0.048 C 
ATOM      2  C   UNL     1     -11.543 -16.425  26.867  1.00  0.00    -0.012 C 
ATOM      3  C   UNL     1     -12.746 -15.980  26.464  1.00  0.00    -0.019 C 
ATOM      4  C   UNL     1     -13.504 -14.927  27.226  1.00  0.00     0.036 C 
ATOM      5  C   UNL     1     -13.229 -15.032  28.739  1.00  0.00     0.025 C 
ATOM      6  C   UNL     1     -11.715 -14.973  29.012  1.00  0.00     0.089 C 
ATOM      7  C   UNL     1     -10.986 -15.984  28.170  1.00  0.00     0.158 C 
ATOM      8  O   UNL     1      -9.875 -16.427  28.568  1.00  0.00    -0.295 OA
ENDROOT
BRANCH   5   9
ATOM      9  C   UNL     1     -13.983 -13.964  29.522  1.00  0.00    -0.077 C 
ATOM     10  C   UNL     1     -14.333 -12.798  28.955  1.00  0.00     0.008 C 
ATOM     11  C   UNL     1     -14.352 -14.205  30.964  1.00  0.00     0.039 C 
ENDBRANCH   5   9
TORSDOF 1
ENDMDL
MODEL 2
REMARK VINA RESULT:    -5.945      2.225      2.869
REMARK INTER + INTRA:          -6.388
REMARK INTER:                  -6.292
REMARK INTRA:                  -0.095
REMARK UNBOUND:                -0.095
REMARK SMILES C=C(C)[C@H]1CC=C(C)C(=O)C1
REMARK SMILES IDX 8 1 7 2 6 3 5 4 4 5 11 6 9 7 10 8 2 9 1 10 3 11
REMARK H PARENT
REMARK Flexibility Score: inf
ROOT
ATOM      1  C   UNL     1     -10.925 -17.288  30.152  1.00  0.00     0.048 C 
ATOM      2  C   UNL     1     -11.854 -16.113  30.009  1.00  0.00    -0.012 C 
ATOM      3  C   UNL     1     -11.852 -15.393  28.875  1.00  0.00    -0.019 C 
ATOM      4  C   UNL     1     -12.747 -14.197  28.687  1.00  0.00     0.036 C 
ATOM      5  C   UNL     1     -14.080 -14.379  29.439  1.00  0.00     0.025 C 
ATOM      6  C   UNL     1     -13.817 -14.682  30.926  1.00  0.00     0.089 C 
ATOM      7  C   UNL     1     -12.854 -15.829  31.068  1.00  0.00     0.158 C 
ATOM      8  O   UNL     1     -12.882 -16.527  32.118  1.00  0.00    -0.295 OA
ENDROOT
BRANCH   5   9
ATOM      9  C   UNL     1     -14.992 -13.172  29.265  1.00  0.00    -0.077 C 
ATOM     10  C   UNL     1     -14.497 -11.959  28.966  1.00  0.00     0.008 C 
ATOM     11  C   UNL     1     -16.484 -13.322  29.427  1.00  0.00     0.039 C 
ENDBRANCH   5   9
TORSDOF 1
ENDMDL
MODEL 3
REMARK VINA RESULT:    -5.702      2.702      4.610
REMARK INTER + INTRA:          -6.131
REMARK INTER:                  -6.035
REMARK INTRA:                  -0.096
REMARK UNBOUND:                -0.095
REMARK SMILES C=C(C)[C@H]1CC=C(C)C(=O)C1
REMARK SMILES IDX 8 1 7 2 6 3 5 4 4 5 11 6 9 7 10 8 2 9 1 10 3 11
REMARK H PARENT
REMARK Flexibility Score: inf
ROOT
ATOM      1  C   UNL     1     -14.371 -13.085  29.138  1.00  0.00     0.048 C 
ATOM      2  C   UNL     1     -13.493 -14.261  29.466  1.00  0.00    -0.012 C 
ATOM      3  C   UNL     1     -12.509 -14.617  28.622  1.00  0.00    -0.019 C 
ATOM      4  C   UNL     1     -11.614 -15.797  28.892  1.00  0.00     0.036 C 
ATOM      5  C   UNL     1     -11.389 -15.987  30.405  1.00  0.00     0.025 C 
ATOM      6  C   UNL     1     -12.740 -16.101  31.135  1.00  0.00     0.089 C 
ATOM      7  C   UNL     1     -13.634 -14.947  30.774  1.00  0.00     0.158 C 
ATOM      8  O   UNL     1     -14.534 -14.591  31.583  1.00  0.00    -0.295 OA
ENDROOT
BRANCH   5   9
ATOM      9  C   UNL     1     -10.491 -17.184  30.693  1.00  0.00    -0.077 C 
ATOM     10  C   UNL     1     -10.192 -18.080  29.737  1.00  0.00     0.008 C 
ATOM     11  C   UNL     1      -9.919 -17.384  32.073  1.00  0.00     0.039 C 
ENDBRANCH   5   9
TORSDOF 1
ENDMDL
MODEL 4
REMARK VINA RESULT:    -5.697      1.649      2.773
REMARK INTER + INTRA:          -6.125
REMARK INTER:                  -6.034
REMARK INTRA:                  -0.091
REMARK UNBOUND:                -0.095
REMARK SMILES C=C(C)[C@H]1CC=C(C)C(=O)C1
REMARK SMILES IDX 8 1 7 2 6 3 5 4 4 5 11 6 9 7 10 8 2 9 1 10 3 11
REMARK H PARENT
REMARK Flexibility Score: inf
ROOT
ATOM      1  C   UNL     1     -10.840 -17.060  30.537  1.00  0.00     0.048 C 
ATOM      2  C   UNL     1     -11.973 -16.146  30.157  1.00  0.00    -0.012 C 
ATOM      3  C   UNL     1     -12.824 -15.706  31.100  1.00  0.00    -0.019 C 
ATOM      4  C   UNL     1     -13.984 -14.805  30.771  1.00  0.00     0.036 C 
ATOM      5  C   UNL     1     -13.642 -13.868  29.597  1.00  0.00     0.025 C 
ATOM      6  C   UNL     1     -13.176 -14.686  28.378  1.00  0.00     0.089 C 
ATOM      7  C   UNL     1     -12.074 -15.632  28.768  1.00  0.00     0.158 C 
ATOM      8  O   UNL     1     -11.254 -16.014  27.889  1.00  0.00    -0.295 OA
ENDROOT
BRANCH   5   9
ATOM      9  C   UNL     1     -14.812 -12.956  29.248  1.00  0.00    -0.077 C 
ATOM     10  C   UNL     1     -14.616 -11.683  28.866  1.00  0.00     0.008 C 
ATOM     11  C   UNL     1     -16.225 -13.476  29.328  1.00  0.00     0.039 C 
ENDBRANCH   5   9
TORSDOF 1
ENDMDL
MODEL 5
REMARK VINA RESULT:    -5.633      3.342      4.280
REMARK INTER + INTRA:          -6.057
REMARK INTER:                  -5.962
REMARK INTRA:                  -0.095
REMARK UNBOUND:                -0.095
REMARK SMILES C=C(C)[C@H]1CC=C(C)C(=O)C1
REMARK SMILES IDX 8 1 7 2 6 3 5 4 4 5 11 6 9 7 10 8 2 9 1 10 3 11
REMARK H PARENT
REMARK Flexibility Score: inf
ROOT
ATOM      1  C   UNL     1     -11.833 -20.520  31.429  1.00  0.00     0.048 C 
ATOM      2  C   UNL     1     -12.160 -19.315  30.590  1.00  0.00    -0.012 C 
ATOM      3  C   UNL     1     -12.041 -18.082  31.113  1.00  0.00    -0.019 C 
ATOM      4  C   UNL     1     -12.373 -16.845  30.324  1.00  0.00     0.036 C 
ATOM      5  C   UNL     1     -12.060 -17.041  28.828  1.00  0.00     0.025 C 
ATOM      6  C   UNL     1     -12.785 -18.288  28.289  1.00  0.00     0.089 C 
ATOM      7  C   UNL     1     -12.493 -19.483  29.154  1.00  0.00     0.158 C 
ATOM      8  O   UNL     1     -12.570 -20.637  28.651  1.00  0.00    -0.295 OA
ENDROOT
BRANCH   5   9
ATOM      9  C   UNL     1     -12.400 -15.798  28.015  1.00  0.00    -0.077 C 
ATOM     10  C   UNL     1     -12.355 -14.571  28.562  1.00  0.00     0.008 C 
ATOM     11  C   UNL     1     -12.798 -15.928  26.567  1.00  0.00     0.039 C 
ENDBRANCH   5   9
TORSDOF 1
ENDMDL
MODEL 6
REMARK VINA RESULT:    -5.611      2.830      4.541
REMARK INTER + INTRA:          -6.034
REMARK INTER:                  -5.941
REMARK INTRA:                  -0.094
REMARK UNBOUND:                -0.095
REMARK SMILES C=C(C)[C@H]1CC=C(C)C(=O)C1
REMARK SMILES IDX 8 1 7 2 6 3 5 4 4 5 11 6 9 7 10 8 2 9 1 10 3 11
REMARK H PARENT
REMARK Flexibility Score: inf
ROOT
ATOM      1  C   UNL     1     -13.584 -13.856  28.600  1.00  0.00     0.048 C 
ATOM      2  C   UNL     1     -12.854 -15.066  29.116  1.00  0.00    -0.012 C 
ATOM      3  C   UNL     1     -12.859 -15.340  30.432  1.00  0.00    -0.019 C 
ATOM      4  C   UNL     1     -12.130 -16.527  31.003  1.00  0.00     0.036 C 
ATOM      5  C   UNL     1     -12.123 -17.704  30.008  1.00  0.00     0.025 C 
ATOM      6  C   UNL     1     -11.538 -17.256  28.655  1.00  0.00     0.089 C 
ATOM      7  C   UNL     1     -12.238 -16.020  28.161  1.00  0.00     0.158 C 
ATOM      8  O   UNL     1     -12.264 -15.784  26.922  1.00  0.00    -0.295 OA
ENDROOT
BRANCH   5   9
ATOM      9  C   UNL     1     -11.380 -18.910  30.570  1.00  0.00    -0.077 C 
ATOM     10  C   UNL     1     -10.042 -19.006  30.490  1.00  0.00     0.008 C 
ATOM     11  C   UNL     1     -12.145 -20.027  31.231  1.00  0.00     0.039 C 
ENDBRANCH   5   9
TORSDOF 1
ENDMDL
MODEL 7
REMARK VINA RESULT:    -5.552      2.215      4.893
REMARK INTER + INTRA:          -5.971
REMARK INTER:                  -5.875
REMARK INTRA:                  -0.097
REMARK UNBOUND:                -0.095
REMARK SMILES C=C(C)[C@H]1CC=C(C)C(=O)C1
REMARK SMILES IDX 8 1 7 2 6 3 5 4 4 5 11 6 9 7 10 8 2 9 1 10 3 11
REMARK H PARENT
REMARK Flexibility Score: inf
ROOT
ATOM      1  C   UNL     1     -14.383 -14.995  32.384  1.00  0.00     0.048 C 
ATOM      2  C   UNL     1     -13.414 -15.319  31.280  1.00  0.00    -0.012 C 
ATOM      3  C   UNL     1     -12.528 -16.318  31.439  1.00  0.00    -0.019 C 
ATOM      4  C   UNL     1     -11.525 -16.673  30.374  1.00  0.00     0.036 C 
ATOM      5  C   UNL     1     -12.097 -16.415  28.966  1.00  0.00     0.025 C 
ATOM      6  C   UNL     1     -12.585 -14.960  28.846  1.00  0.00     0.089 C 
ATOM      7  C   UNL     1     -13.520 -14.621  29.975  1.00  0.00     0.158 C 
ATOM      8  O   UNL     1     -14.374 -13.709  29.811  1.00  0.00    -0.295 OA
ENDROOT
BRANCH   5   9
ATOM      9  C   UNL     1     -11.087 -16.762  27.879  1.00  0.00    -0.077 C 
ATOM     10  C   UNL     1      -9.875 -17.255  28.182  1.00  0.00     0.008 C 
ATOM     11  C   UNL     1     -11.439 -16.551  26.428  1.00  0.00     0.039 C 
ENDBRANCH   5   9
TORSDOF 1
ENDMDL
MODEL 8
REMARK VINA RESULT:    -5.464      2.719      4.539
REMARK INTER + INTRA:          -5.878
REMARK INTER:                  -5.790
REMARK INTRA:                  -0.089
REMARK UNBOUND:                -0.095
REMARK SMILES C=C(C)[C@H]1CC=C(C)C(=O)C1
REMARK SMILES IDX 8 1 7 2 6 3 5 4 4 5 11 6 9 7 10 8 2 9 1 10 3 11
REMARK H PARENT
REMARK Flexibility Score: inf
ROOT
ATOM      1  C   UNL     1     -10.136 -16.526  32.549  1.00  0.00     0.048 C 
ATOM      2  C   UNL     1     -10.618 -16.474  31.124  1.00  0.00    -0.012 C 
ATOM      3  C   UNL     1     -10.025 -15.645  30.247  1.00  0.00    -0.019 C 
ATOM      4  C   UNL     1     -10.479 -15.541  28.816  1.00  0.00     0.036 C 
ATOM      5  C   UNL     1     -11.013 -16.892  28.304  1.00  0.00     0.025 C 
ATOM      6  C   UNL     1     -12.126 -17.413  29.232  1.00  0.00     0.089 C 
ATOM      7  C   UNL     1     -11.660 -17.424  30.662  1.00  0.00     0.158 C 
ATOM      8  O   UNL     1     -12.192 -18.227  31.475  1.00  0.00    -0.295 OA
ENDROOT
BRANCH   5   9
ATOM      9  C   UNL     1     -11.485 -16.798  26.858  1.00  0.00    -0.077 C 
ATOM     10  C   UNL     1     -10.731 -17.257  25.845  1.00  0.00     0.008 C 
ATOM     11  C   UNL     1     -12.822 -16.179  26.539  1.00  0.00     0.039 C 
ENDBRANCH   5   9
TORSDOF 1
ENDMDL
MODEL 9
REMARK VINA RESULT:    -5.431      2.609      3.223
REMARK INTER + INTRA:          -5.844
REMARK INTER:                  -5.749
REMARK INTRA:                  -0.095
REMARK UNBOUND:                -0.095
REMARK SMILES C=C(C)[C@H]1CC=C(C)C(=O)C1
REMARK SMILES IDX 8 1 7 2 6 3 5 4 4 5 11 6 9 7 10 8 2 9 1 10 3 11
REMARK H PARENT
REMARK Flexibility Score: inf
ROOT
ATOM      1  C   UNL     1     -10.990 -17.224  26.226  1.00  0.00     0.048 C 
ATOM      2  C   UNL     1     -11.130 -17.050  27.714  1.00  0.00    -0.012 C 
ATOM      3  C   UNL     1     -10.611 -15.963  28.312  1.00  0.00    -0.019 C 
ATOM      4  C   UNL     1     -10.706 -15.748  29.799  1.00  0.00     0.036 C 
ATOM      5  C   UNL     1     -12.011 -16.344  30.363  1.00  0.00     0.025 C 
ATOM      6  C   UNL     1     -12.128 -17.831  29.980  1.00  0.00     0.089 C 
ATOM      7  C   UNL     1     -11.945 -18.011  28.498  1.00  0.00     0.158 C 
ATOM      8  O   UNL     1     -12.463 -19.011  27.932  1.00  0.00    -0.295 OA
ENDROOT
BRANCH   5   9
ATOM      9  C   UNL     1     -12.115 -16.141  31.869  1.00  0.00    -0.077 C 
ATOM     10  C   UNL     1     -11.023 -16.141  32.652  1.00  0.00     0.008 C 
ATOM     11  C   UNL     1     -13.464 -15.937  32.512  1.00  0.00     0.039 C 
ENDBRANCH   5   9
TORSDOF 1
ENDMDL
