MODEL 1
REMARK VINA RESULT:    -3.536      0.000      0.000
REMARK INTER + INTRA:          -3.536
REMARK INTER:                  -3.536
REMARK INTRA:                   0.000
REMARK UNBOUND:                 0.000
REMARK SMILES CC1(C)[C@@H]2CC[C@@]1(C)C(=O)C2
REMARK SMILES IDX 1 1 2 2 4 3 5 4 6 5 7 6 9 7 10 8 11 9 8 10 3 11
REMARK H PARENT
REMARK Flexibility Score: inf
ROOT
ATOM      1  C   UNL     1       7.318   4.459   8.433  1.00  0.00     0.012 C 
ATOM      2  C   UNL     1       7.746   3.487   7.290  1.00  0.00    -0.020 C 
ATOM      3  C   UNL     1       6.880   2.207   7.206  1.00  0.00     0.003 C 
ATOM      4  C   UNL     1       7.401   1.526   5.912  1.00  0.00     0.005 C 
ATOM      5  C   UNL     1       7.713   2.728   4.986  1.00  0.00     0.015 C 
ATOM      6  C   UNL     1       7.341   3.942   5.871  1.00  0.00     0.032 C 
ATOM      7  C   UNL     1       5.838   3.892   5.981  1.00  0.00     0.139 C 
ATOM      8  O   UNL     1       5.049   4.604   5.378  1.00  0.00    -0.299 OA
ATOM      9  C   UNL     1       5.462   2.750   6.875  1.00  0.00     0.080 C 
ATOM     10  C   UNL     1       7.911   5.283   5.394  1.00  0.00     0.020 C 
ATOM     11  C   UNL     1       9.265   3.207   7.497  1.00  0.00     0.012 C 
ENDROOT
TORSDOF 0
ENDMDL
MODEL 2
REMARK VINA RESULT:    -3.498      0.968      2.824
REMARK INTER + INTRA:          -3.498
REMARK INTER:                  -3.498
REMARK INTRA:                   0.000
REMARK UNBOUND:                 0.000
REMARK SMILES CC1(C)[C@@H]2CC[C@@]1(C)C(=O)C2
REMARK SMILES IDX 1 1 2 2 4 3 5 4 6 5 7 6 9 7 10 8 11 9 8 10 3 11
REMARK H PARENT
REMARK Flexibility Score: inf
ROOT
ATOM      1  C   UNL     1       7.702   2.002   5.236  1.00  0.00     0.012 C 
ATOM      2  C   UNL     1       7.832   3.071   6.366  1.00  0.00    -0.020 C 
ATOM      3  C   UNL     1       8.350   4.441   5.867  1.00  0.00     0.003 C 
ATOM      4  C   UNL     1       8.219   5.336   7.130  1.00  0.00     0.005 C 
ATOM      5  C   UNL     1       6.928   4.804   7.801  1.00  0.00     0.015 C 
ATOM      6  C   UNL     1       6.491   3.669   6.844  1.00  0.00     0.032 C 
ATOM      7  C   UNL     1       6.038   4.375   5.591  1.00  0.00     0.139 C 
ATOM      8  O   UNL     1       4.880   4.559   5.248  1.00  0.00    -0.299 OA
ATOM      9  C   UNL     1       7.244   4.910   4.881  1.00  0.00     0.080 C 
ATOM     10  C   UNL     1       5.475   2.685   7.436  1.00  0.00     0.020 C 
ATOM     11  C   UNL     1       8.715   2.430   7.477  1.00  0.00     0.012 C 
ENDROOT
TORSDOF 0
ENDMDL
MODEL 3
REMARK VINA RESULT:    -3.469      2.258      3.560
REMARK INTER + INTRA:          -3.469
REMARK INTER:                  -3.469
REMARK INTRA:                   0.000
REMARK UNBOUND:                 0.000
REMARK SMILES CC1(C)[C@@H]2CC[C@@]1(C)C(=O)C2
REMARK SMILES IDX 1 1 2 2 4 3 5 4 6 5 7 6 9 7 10 8 11 9 8 10 3 11
REMARK H PARENT
REMARK Flexibility Score: inf
ROOT
ATOM      1  C   UNL     1      10.137   2.778   6.771  1.00  0.00     0.012 C 
ATOM      2  C   UNL     1       8.601   2.640   7.008  1.00  0.00    -0.020 C 
ATOM      3  C   UNL     1       7.747   3.005   5.770  1.00  0.00     0.003 C 
ATOM      4  C   UNL     1       6.311   2.622   6.220  1.00  0.00     0.005 C 
ATOM      5  C   UNL     1       6.543   1.358   7.086  1.00  0.00     0.015 C 
ATOM      6  C   UNL     1       8.079   1.186   7.029  1.00  0.00     0.032 C 
ATOM      7  C   UNL     1       8.368   0.766   5.610  1.00  0.00     0.139 C 
ATOM      8  O   UNL     1       8.634  -0.366   5.235  1.00  0.00    -0.299 OA
ATOM      9  C   UNL     1       8.171   1.949   4.711  1.00  0.00     0.080 C 
ATOM     10  C   UNL     1       8.663   0.266   8.108  1.00  0.00     0.020 C 
ATOM     11  C   UNL     1       8.273   3.489   8.272  1.00  0.00     0.012 C 
ENDROOT
TORSDOF 0
ENDMDL
MODEL 4
REMARK VINA RESULT:    -3.402      2.065      3.100
REMARK INTER + INTRA:          -3.402
REMARK INTER:                  -3.402
REMARK INTRA:                   0.000
REMARK UNBOUND:                 0.000
REMARK SMILES CC1(C)[C@@H]2CC[C@@]1(C)C(=O)C2
REMARK SMILES IDX 1 1 2 2 4 3 5 4 6 5 7 6 9 7 10 8 11 9 8 10 3 11
REMARK H PARENT
REMARK Flexibility Score: inf
ROOT
ATOM      1  C   UNL     1       7.041   4.397   4.987  1.00  0.00     0.012 C 
ATOM      2  C   UNL     1       7.101   3.346   6.140  1.00  0.00    -0.020 C 
ATOM      3  C   UNL     1       7.000   1.881   5.650  1.00  0.00     0.003 C 
ATOM      4  C   UNL     1       7.255   1.069   6.949  1.00  0.00     0.005 C 
ATOM      5  C   UNL     1       8.303   1.929   7.699  1.00  0.00     0.015 C 
ATOM      6  C   UNL     1       8.507   3.126   6.740  1.00  0.00     0.032 C 
ATOM      7  C   UNL     1       9.230   2.548   5.550  1.00  0.00     0.139 C 
ATOM      8  O   UNL     1      10.421   2.670   5.303  1.00  0.00    -0.299 OA
ATOM      9  C   UNL     1       8.268   1.706   4.768  1.00  0.00     0.080 C 
ATOM     10  C   UNL     1       9.178   4.350   7.373  1.00  0.00     0.020 C 
ATOM     11  C   UNL     1       5.992   3.747   7.158  1.00  0.00     0.012 C 
ENDROOT
TORSDOF 0
ENDMDL
MODEL 5
REMARK VINA RESULT:    -3.311      1.442      2.415
REMARK INTER + INTRA:          -3.311
REMARK INTER:                  -3.311
REMARK INTRA:                   0.000
REMARK UNBOUND:                 0.000
REMARK SMILES CC1(C)[C@@H]2CC[C@@]1(C)C(=O)C2
REMARK SMILES IDX 1 1 2 2 4 3 5 4 6 5 7 6 9 7 10 8 11 9 8 10 3 11
REMARK H PARENT
REMARK Flexibility Score: inf
ROOT
ATOM      1  C   UNL     1       9.715   3.145   5.895  1.00  0.00     0.012 C 
ATOM      2  C   UNL     1       8.266   2.569   5.943  1.00  0.00    -0.020 C 
ATOM      3  C   UNL     1       7.916   1.879   7.284  1.00  0.00     0.003 C 
ATOM      4  C   UNL     1       6.404   1.563   7.121  1.00  0.00     0.005 C 
ATOM      5  C   UNL     1       5.879   2.779   6.319  1.00  0.00     0.015 C 
ATOM      6  C   UNL     1       7.156   3.629   6.116  1.00  0.00     0.032 C 
ATOM      7  C   UNL     1       7.488   4.159   7.488  1.00  0.00     0.139 C 
ATOM      8  O   UNL     1       7.285   5.296   7.887  1.00  0.00    -0.299 OA
ATOM      9  C   UNL     1       8.015   3.031   8.322  1.00  0.00     0.080 C 
ATOM     10  C   UNL     1       7.052   4.694   5.018  1.00  0.00     0.020 C 
ATOM     11  C   UNL     1       8.120   1.640   4.700  1.00  0.00     0.012 C 
ENDROOT
TORSDOF 0
ENDMDL
MODEL 6
REMARK VINA RESULT:    -3.294     16.184     17.581
REMARK INTER + INTRA:          -3.294
REMARK INTER:                  -3.294
REMARK INTRA:                   0.000
REMARK UNBOUND:                 0.000
REMARK SMILES CC1(C)[C@@H]2CC[C@@]1(C)C(=O)C2
REMARK SMILES IDX 1 1 2 2 4 3 5 4 6 5 7 6 9 7 10 8 11 9 8 10 3 11
REMARK H PARENT
REMARK Flexibility Score: inf
ROOT
ATOM      1  C   UNL     1      -1.089  -1.143  -8.858  1.00  0.00     0.012 C 
ATOM      2  C   UNL     1       0.335  -1.099  -9.495  1.00  0.00    -0.020 C 
ATOM      3  C   UNL     1       1.334  -0.205  -8.722  1.00  0.00     0.003 C 
ATOM      4  C   UNL     1       2.675  -0.478  -9.456  1.00  0.00     0.005 C 
ATOM      5  C   UNL     1       2.571  -1.978  -9.827  1.00  0.00     0.015 C 
ATOM      6  C   UNL     1       1.183  -2.370  -9.267  1.00  0.00     0.032 C 
ATOM      7  C   UNL     1       1.346  -2.331  -7.768  1.00  0.00     0.139 C 
ATOM      8  O   UNL     1       1.465  -3.299  -7.033  1.00  0.00    -0.299 OA
ATOM      9  C   UNL     1       1.444  -0.900  -7.335  1.00  0.00     0.080 C 
ATOM     10  C   UNL     1       0.613  -3.680  -9.822  1.00  0.00     0.020 C 
ATOM     11  C   UNL     1       0.138  -0.682 -10.983  1.00  0.00     0.012 C 
ENDROOT
TORSDOF 0
ENDMDL
MODEL 7
REMARK VINA RESULT:    -3.263     12.304     13.545
REMARK INTER + INTRA:          -3.263
REMARK INTER:                  -3.263
REMARK INTRA:                   0.000
REMARK UNBOUND:                 0.000
REMARK SMILES CC1(C)[C@@H]2CC[C@@]1(C)C(=O)C2
REMARK SMILES IDX 1 1 2 2 4 3 5 4 6 5 7 6 9 7 10 8 11 9 8 10 3 11
REMARK H PARENT
REMARK Flexibility Score: inf
ROOT
ATOM      1  C   UNL     1      -5.159   7.046  -1.646  1.00  0.00     0.012 C 
ATOM      2  C   UNL     1      -5.057   7.140  -0.092  1.00  0.00    -0.020 C 
ATOM      3  C   UNL     1      -5.328   5.798   0.630  1.00  0.00     0.003 C 
ATOM      4  C   UNL     1      -4.998   6.133   2.110  1.00  0.00     0.005 C 
ATOM      5  C   UNL     1      -3.807   7.116   1.987  1.00  0.00     0.015 C 
ATOM      6  C   UNL     1      -3.615   7.226   0.455  1.00  0.00     0.032 C 
ATOM      7  C   UNL     1      -3.077   5.880   0.037  1.00  0.00     0.139 C 
ATOM      8  O   UNL     1      -1.916   5.626  -0.243  1.00  0.00    -0.299 OA
ATOM      9  C   UNL     1      -4.185   4.875   0.123  1.00  0.00     0.080 C 
ATOM     10  C   UNL     1      -2.781   8.427  -0.003  1.00  0.00     0.020 C 
ATOM     11  C   UNL     1      -6.010   8.293   0.343  1.00  0.00     0.012 C 
ENDROOT
TORSDOF 0
ENDMDL
MODEL 8
REMARK VINA RESULT:    -3.235      1.531      2.741
REMARK INTER + INTRA:          -3.235
REMARK INTER:                  -3.235
REMARK INTRA:                   0.000
REMARK UNBOUND:                 0.000
REMARK SMILES CC1(C)[C@@H]2CC[C@@]1(C)C(=O)C2
REMARK SMILES IDX 1 1 2 2 4 3 5 4 6 5 7 6 9 7 10 8 11 9 8 10 3 11
REMARK H PARENT
REMARK Flexibility Score: inf
ROOT
ATOM      1  C   UNL     1       5.493   2.434   7.821  1.00  0.00     0.012 C 
ATOM      2  C   UNL     1       6.469   2.947   6.717  1.00  0.00    -0.020 C 
ATOM      3  C   UNL     1       5.868   4.060   5.825  1.00  0.00     0.003 C 
ATOM      4  C   UNL     1       7.080   4.491   4.954  1.00  0.00     0.005 C 
ATOM      5  C   UNL     1       8.275   4.363   5.932  1.00  0.00     0.015 C 
ATOM      6  C   UNL     1       7.598   3.867   7.232  1.00  0.00     0.032 C 
ATOM      7  C   UNL     1       6.795   5.046   7.722  1.00  0.00     0.139 C 
ATOM      8  O   UNL     1       7.098   5.789   8.643  1.00  0.00    -0.299 OA
ATOM      9  C   UNL     1       5.610   5.224   6.822  1.00  0.00     0.080 C 
ATOM     10  C   UNL     1       8.556   3.263   8.265  1.00  0.00     0.020 C 
ATOM     11  C   UNL     1       6.937   1.689   5.926  1.00  0.00     0.012 C 
ENDROOT
TORSDOF 0
ENDMDL
MODEL 9
REMARK VINA RESULT:    -3.180     10.223     11.779
REMARK INTER + INTRA:          -3.180
REMARK INTER:                  -3.180
REMARK INTRA:                   0.000
REMARK UNBOUND:                 0.000
REMARK SMILES CC1(C)[C@@H]2CC[C@@]1(C)C(=O)C2
REMARK SMILES IDX 1 1 2 2 4 3 5 4 6 5 7 6 9 7 10 8 11 9 8 10 3 11
REMARK H PARENT
REMARK Flexibility Score: inf
ROOT
ATOM      1  C   UNL     1      -3.150   9.406  -0.089  1.00  0.00     0.012 C 
ATOM      2  C   UNL     1      -2.637   8.877   1.287  1.00  0.00    -0.020 C 
ATOM      3  C   UNL     1      -3.492   7.724   1.867  1.00  0.00     0.003 C 
ATOM      4  C   UNL     1      -2.677   7.290   3.115  1.00  0.00     0.005 C 
ATOM      5  C   UNL     1      -1.209   7.472   2.655  1.00  0.00     0.015 C 
ATOM      6  C   UNL     1      -1.371   7.996   1.208  1.00  0.00     0.032 C 
ATOM      7  C   UNL     1      -1.899   6.818   0.428  1.00  0.00     0.139 C 
ATOM      8  O   UNL     1      -1.254   6.112  -0.331  1.00  0.00    -0.299 OA
ATOM      9  C   UNL     1      -3.327   6.588   0.819  1.00  0.00     0.080 C 
ATOM     10  C   UNL     1      -0.117   8.652   0.619  1.00  0.00     0.020 C 
ATOM     11  C   UNL     1      -2.534  10.117   2.224  1.00  0.00     0.012 C 
ENDROOT
TORSDOF 0
ENDMDL
