MODEL 1
REMARK VINA RESULT:    -5.791      0.000      0.000
REMARK INTER + INTRA:          -8.815
REMARK INTER:                  -8.499
REMARK INTRA:                  -0.317
REMARK UNBOUND:                -0.317
REMARK SMILES O=C([O-])CCCCCCCC(=O)[O-]
REMARK SMILES IDX 7 1 6 2 5 3 4 4 2 5 1 6 3 7 8 8 9 9 10 10 11 11 12 12 13 13
REMARK H PARENT
REMARK Flexibility Score: inf
ROOT
ATOM      1  C   UNL     1      -6.812 -15.382  -3.157  1.00  0.00     0.000 C 
ENDROOT
BRANCH   1   2
ATOM      2  C   UNL     1      -6.466 -13.905  -2.906  1.00  0.00     0.000 C 
BRANCH   2   3
ATOM      3  C   UNL     1      -6.872 -12.995  -4.076  1.00  0.00     0.006 C 
BRANCH   3   4
ATOM      4  C   UNL     1      -7.192 -13.822  -5.325  1.00  0.00     0.053 C 
BRANCH   4   5
ATOM      5  C   UNL     1      -8.622 -13.637  -5.722  1.00  0.00     0.041 C 
ATOM      6  O   UNL     1      -9.441 -14.586  -5.607  1.00  0.00    -0.550 OA
ATOM      7  O   UNL     1      -9.063 -12.399  -6.175  1.00  0.00    -0.550 OA
ENDBRANCH   4   5
ENDBRANCH   3   4
ENDBRANCH   2   3
ENDBRANCH   1   2
BRANCH   1   8
ATOM      8  C   UNL     1      -5.576 -16.293  -3.122  1.00  0.00     0.000 C 
BRANCH   8   9
ATOM      9  C   UNL     1      -5.111 -16.532  -1.680  1.00  0.00     0.006 C 
BRANCH   9  10
ATOM     10  C   UNL     1      -3.626 -16.195  -1.518  1.00  0.00     0.053 C 
BRANCH  10  11
ATOM     11  C   UNL     1      -2.994 -17.084  -0.495  1.00  0.00     0.041 C 
ATOM     12  O   UNL     1      -3.196 -16.883   0.731  1.00  0.00    -0.550 OA
ATOM     13  O   UNL     1      -2.223 -18.168  -0.897  1.00  0.00    -0.550 OA
ENDBRANCH  10  11
ENDBRANCH   9  10
ENDBRANCH   8   9
ENDBRANCH   1   8
TORSDOF 8
ENDMDL
MODEL 2
REMARK VINA RESULT:    -5.719      0.551      7.023
REMARK INTER + INTRA:          -8.711
REMARK INTER:                  -8.315
REMARK INTRA:                  -0.396
REMARK UNBOUND:                -0.317
REMARK SMILES O=C([O-])CCCCCCCC(=O)[O-]
REMARK SMILES IDX 7 1 6 2 5 3 4 4 2 5 1 6 3 7 8 8 9 9 10 10 11 11 12 12 13 13
REMARK H PARENT
REMARK Flexibility Score: inf
ROOT
ATOM      1  C   UNL     1      -6.578 -15.498  -2.803  1.00  0.00     0.000 C 
ENDROOT
BRANCH   1   2
ATOM      2  C   UNL     1      -5.526 -16.485  -2.273  1.00  0.00     0.000 C 
BRANCH   2   3
ATOM      3  C   UNL     1      -4.280 -15.780  -1.716  1.00  0.00     0.006 C 
BRANCH   3   4
ATOM      4  C   UNL     1      -3.076 -16.727  -1.701  1.00  0.00     0.053 C 
BRANCH   4   5
ATOM      5  C   UNL     1      -2.868 -17.288  -0.330  1.00  0.00     0.041 C 
ATOM      6  O   UNL     1      -3.521 -16.836   0.647  1.00  0.00    -0.550 OA
ATOM      7  O   UNL     1      -1.987 -18.345  -0.139  1.00  0.00    -0.550 OA
ENDBRANCH   4   5
ENDBRANCH   3   4
ENDBRANCH   2   3
ENDBRANCH   1   2
BRANCH   1   8
ATOM      8  C   UNL     1      -6.143 -14.033  -2.655  1.00  0.00     0.000 C 
BRANCH   8   9
ATOM      9  C   UNL     1      -6.820 -13.150  -3.710  1.00  0.00     0.006 C 
BRANCH   9  10
ATOM     10  C   UNL     1      -6.902 -13.869  -5.060  1.00  0.00     0.053 C 
BRANCH  10  11
ATOM     11  C   UNL     1      -8.288 -13.785  -5.616  1.00  0.00     0.041 C 
ATOM     12  O   UNL     1      -9.021 -14.809  -5.649  1.00  0.00    -0.550 OA
ATOM     13  O   UNL     1      -8.790 -12.566  -6.053  1.00  0.00    -0.550 OA
ENDBRANCH  10  11
ENDBRANCH   9  10
ENDBRANCH   8   9
ENDBRANCH   1   8
TORSDOF 8
ENDMDL
MODEL 3
REMARK VINA RESULT:    -5.668      3.107      5.733
REMARK INTER + INTRA:          -8.635
REMARK INTER:                  -7.829
REMARK INTRA:                  -0.806
REMARK UNBOUND:                -0.317
REMARK SMILES O=C([O-])CCCCCCCC(=O)[O-]
REMARK SMILES IDX 7 1 6 2 5 3 4 4 2 5 1 6 3 7 8 8 9 9 10 10 11 11 12 12 13 13
REMARK H PARENT
REMARK Flexibility Score: inf
ROOT
ATOM      1  C   UNL     1      -6.895 -14.071  -2.907  1.00  0.00     0.000 C 
ENDROOT
BRANCH   1   2
ATOM      2  C   UNL     1      -5.715 -14.978  -2.523  1.00  0.00     0.000 C 
BRANCH   2   3
ATOM      3  C   UNL     1      -5.938 -16.443  -2.930  1.00  0.00     0.006 C 
BRANCH   3   4
ATOM      4  C   UNL     1      -7.418 -16.712  -3.217  1.00  0.00     0.053 C 
BRANCH   4   5
ATOM      5  C   UNL     1      -7.565 -17.667  -4.359  1.00  0.00     0.041 C 
ATOM      6  O   UNL     1      -8.596 -18.382  -4.460  1.00  0.00    -0.550 OA
ATOM      7  O   UNL     1      -6.584 -17.732  -5.340  1.00  0.00    -0.550 OA
ENDBRANCH   4   5
ENDBRANCH   3   4
ENDBRANCH   2   3
ENDBRANCH   1   2
BRANCH   1   8
ATOM      8  C   UNL     1      -6.533 -13.063  -4.007  1.00  0.00     0.000 C 
BRANCH   8   9
ATOM      9  C   UNL     1      -6.963 -13.578  -5.387  1.00  0.00     0.006 C 
BRANCH   9  10
ATOM     10  C   UNL     1      -8.477 -13.443  -5.577  1.00  0.00     0.053 C 
BRANCH  10  11
ATOM     11  C   UNL     1      -9.091 -14.778  -5.856  1.00  0.00     0.041 C 
ATOM     12  O   UNL     1     -10.019 -15.215  -5.126  1.00  0.00    -0.550 OA
ATOM     13  O   UNL     1      -8.672 -15.521  -6.954  1.00  0.00    -0.550 OA
ENDBRANCH  10  11
ENDBRANCH   9  10
ENDBRANCH   8   9
ENDBRANCH   1   8
TORSDOF 8
ENDMDL
MODEL 4
REMARK VINA RESULT:    -5.665      1.196      1.654
REMARK INTER + INTRA:          -8.631
REMARK INTER:                  -8.219
REMARK INTRA:                  -0.412
REMARK UNBOUND:                -0.317
REMARK SMILES O=C([O-])CCCCCCCC(=O)[O-]
REMARK SMILES IDX 7 1 6 2 5 3 4 4 2 5 1 6 3 7 8 8 9 9 10 10 11 11 12 12 13 13
REMARK H PARENT
REMARK Flexibility Score: inf
ROOT
ATOM      1  C   UNL     1      -6.423 -14.148  -2.683  1.00  0.00     0.000 C 
ENDROOT
BRANCH   1   2
ATOM      2  C   UNL     1      -6.808 -13.120  -3.759  1.00  0.00     0.000 C 
BRANCH   2   3
ATOM      3  C   UNL     1      -6.914 -13.740  -5.161  1.00  0.00     0.006 C 
BRANCH   3   4
ATOM      4  C   UNL     1      -8.358 -13.697  -5.669  1.00  0.00     0.053 C 
BRANCH   4   5
ATOM      5  C   UNL     1      -8.850 -15.078  -5.966  1.00  0.00     0.041 C 
ATOM      6  O   UNL     1      -9.536 -15.705  -5.116  1.00  0.00    -0.550 OA
ATOM      7  O   UNL     1      -8.592 -15.657  -7.203  1.00  0.00    -0.550 OA
ENDBRANCH   4   5
ENDBRANCH   3   4
ENDBRANCH   2   3
ENDBRANCH   1   2
BRANCH   1   8
ATOM      8  C   UNL     1      -6.328 -15.577  -3.238  1.00  0.00     0.000 C 
BRANCH   8   9
ATOM      9  C   UNL     1      -5.598 -16.500  -2.254  1.00  0.00     0.006 C 
BRANCH   9  10
ATOM     10  C   UNL     1      -4.244 -15.912  -1.849  1.00  0.00     0.053 C 
BRANCH  10  11
ATOM     11  C   UNL     1      -3.462 -16.900  -1.044  1.00  0.00     0.041 C 
ATOM     12  O   UNL     1      -2.363 -17.341  -1.474  1.00  0.00    -0.550 OA
ATOM     13  O   UNL     1      -3.921 -17.298   0.206  1.00  0.00    -0.550 OA
ENDBRANCH  10  11
ENDBRANCH   9  10
ENDBRANCH   8   9
ENDBRANCH   1   8
TORSDOF 8
ENDMDL
MODEL 5
REMARK VINA RESULT:    -5.654      1.392      6.909
REMARK INTER + INTRA:          -8.615
REMARK INTER:                  -8.298
REMARK INTRA:                  -0.316
REMARK UNBOUND:                -0.317
REMARK SMILES O=C([O-])CCCCCCCC(=O)[O-]
REMARK SMILES IDX 7 1 6 2 5 3 4 4 2 5 1 6 3 7 8 8 9 9 10 10 11 11 12 12 13 13
REMARK H PARENT
REMARK Flexibility Score: inf
ROOT
ATOM      1  C   UNL     1      -6.196 -16.385  -3.647  1.00  0.00     0.000 C 
ENDROOT
BRANCH   1   2
ATOM      2  C   UNL     1      -5.746 -15.942  -2.246  1.00  0.00     0.000 C 
BRANCH   2   3
ATOM      3  C   UNL     1      -4.241 -16.147  -2.014  1.00  0.00     0.006 C 
BRANCH   3   4
ATOM      4  C   UNL     1      -3.991 -16.969  -0.746  1.00  0.00     0.053 C 
BRANCH   4   5
ATOM      5  C   UNL     1      -2.526 -17.211  -0.561  1.00  0.00     0.041 C 
ATOM      6  O   UNL     1      -1.685 -16.573  -1.246  1.00  0.00    -0.550 OA
ATOM      7  O   UNL     1      -2.087 -18.108   0.406  1.00  0.00    -0.550 OA
ENDBRANCH   4   5
ENDBRANCH   3   4
ENDBRANCH   2   3
ENDBRANCH   1   2
BRANCH   1   8
ATOM      8  C   UNL     1      -7.719 -16.547  -3.757  1.00  0.00     0.000 C 
BRANCH   8   9
ATOM      9  C   UNL     1      -8.287 -15.651  -4.866  1.00  0.00     0.006 C 
BRANCH   9  10
ATOM     10  C   UNL     1      -7.204 -14.735  -5.442  1.00  0.00     0.053 C 
BRANCH  10  11
ATOM     11  C   UNL     1      -7.546 -13.300  -5.199  1.00  0.00     0.041 C 
ATOM     12  O   UNL     1      -6.790 -12.577  -4.498  1.00  0.00    -0.550 OA
ATOM     13  O   UNL     1      -8.675 -12.744  -5.788  1.00  0.00    -0.550 OA
ENDBRANCH  10  11
ENDBRANCH   9  10
ENDBRANCH   8   9
ENDBRANCH   1   8
TORSDOF 8
ENDMDL
MODEL 6
REMARK VINA RESULT:    -5.633      3.222      3.923
REMARK INTER + INTRA:          -8.584
REMARK INTER:                  -7.889
REMARK INTRA:                  -0.696
REMARK UNBOUND:                -0.317
REMARK SMILES O=C([O-])CCCCCCCC(=O)[O-]
REMARK SMILES IDX 7 1 6 2 5 3 4 4 2 5 1 6 3 7 8 8 9 9 10 10 11 11 12 12 13 13
REMARK H PARENT
REMARK Flexibility Score: inf
ROOT
ATOM      1  C   UNL     1      -5.625 -14.485  -2.640  1.00  0.00     0.000 C 
ENDROOT
BRANCH   1   2
ATOM      2  C   UNL     1      -6.856 -13.621  -2.959  1.00  0.00     0.000 C 
BRANCH   2   3
ATOM      3  C   UNL     1      -6.670 -12.771  -4.225  1.00  0.00     0.006 C 
BRANCH   3   4
ATOM      4  C   UNL     1      -7.003 -13.581  -5.481  1.00  0.00     0.053 C 
BRANCH   4   5
ATOM      5  C   UNL     1      -8.479 -13.589  -5.724  1.00  0.00     0.041 C 
ATOM      6  O   UNL     1      -9.073 -12.530  -6.059  1.00  0.00    -0.550 OA
ATOM      7  O   UNL     1      -9.193 -14.777  -5.628  1.00  0.00    -0.550 OA
ENDBRANCH   4   5
ENDBRANCH   3   4
ENDBRANCH   2   3
ENDBRANCH   1   2
BRANCH   1   8
ATOM      8  C   UNL     1      -5.994 -15.933  -2.287  1.00  0.00     0.000 C 
BRANCH   8   9
ATOM      9  C   UNL     1      -7.057 -16.478  -3.249  1.00  0.00     0.006 C 
BRANCH   9  10
ATOM     10  C   UNL     1      -6.419 -16.982  -4.546  1.00  0.00     0.053 C 
BRANCH  10  11
ATOM     11  C   UNL     1      -7.307 -17.983  -5.214  1.00  0.00     0.041 C 
ATOM     12  O   UNL     1      -6.847 -18.746  -6.104  1.00  0.00    -0.550 OA
ATOM     13  O   UNL     1      -8.634 -18.108  -4.820  1.00  0.00    -0.550 OA
ENDBRANCH  10  11
ENDBRANCH   9  10
ENDBRANCH   8   9
ENDBRANCH   1   8
TORSDOF 8
ENDMDL
MODEL 7
REMARK VINA RESULT:    -5.583      1.151      6.714
REMARK INTER + INTRA:          -8.511
REMARK INTER:                  -8.115
REMARK INTRA:                  -0.395
REMARK UNBOUND:                -0.317
REMARK SMILES O=C([O-])CCCCCCCC(=O)[O-]
REMARK SMILES IDX 7 1 6 2 5 3 4 4 2 5 1 6 3 7 8 8 9 9 10 10 11 11 12 12 13 13
REMARK H PARENT
REMARK Flexibility Score: inf
ROOT
ATOM      1  C   UNL     1      -6.444 -14.142  -2.665  1.00  0.00     0.000 C 
ENDROOT
BRANCH   1   2
ATOM      2  C   UNL     1      -6.293 -15.560  -3.238  1.00  0.00     0.000 C 
BRANCH   2   3
ATOM      3  C   UNL     1      -5.601 -16.523  -2.260  1.00  0.00     0.006 C 
BRANCH   3   4
ATOM      4  C   UNL     1      -4.274 -15.940  -1.766  1.00  0.00     0.053 C 
BRANCH   4   5
ATOM      5  C   UNL     1      -3.505 -16.967  -0.997  1.00  0.00     0.041 C 
ATOM      6  O   UNL     1      -2.467 -17.483  -1.488  1.00  0.00    -0.550 OA
ATOM      7  O   UNL     1      -3.908 -17.320   0.285  1.00  0.00    -0.550 OA
ENDBRANCH   4   5
ENDBRANCH   3   4
ENDBRANCH   2   3
ENDBRANCH   1   2
BRANCH   1   8
ATOM      8  C   UNL     1      -6.802 -13.104  -3.739  1.00  0.00     0.000 C 
BRANCH   8   9
ATOM      9  C   UNL     1      -6.917 -13.762  -5.120  1.00  0.00     0.006 C 
BRANCH   9  10
ATOM     10  C   UNL     1      -8.357 -13.712  -5.635  1.00  0.00     0.053 C 
BRANCH  10  11
ATOM     11  C   UNL     1      -8.926 -15.091  -5.739  1.00  0.00     0.041 C 
ATOM     12  O   UNL     1      -8.244 -16.022  -6.243  1.00  0.00    -0.550 OA
ATOM     13  O   UNL     1     -10.192 -15.362  -5.233  1.00  0.00    -0.550 OA
ENDBRANCH  10  11
ENDBRANCH   9  10
ENDBRANCH   8   9
ENDBRANCH   1   8
TORSDOF 8
ENDMDL
MODEL 8
REMARK VINA RESULT:    -5.496     12.304     16.634
REMARK INTER + INTRA:          -8.382
REMARK INTER:                  -7.945
REMARK INTRA:                  -0.437
REMARK UNBOUND:                -0.317
REMARK SMILES O=C([O-])CCCCCCCC(=O)[O-]
REMARK SMILES IDX 7 1 6 2 5 3 4 4 2 5 1 6 3 7 8 8 9 9 10 10 11 11 12 12 13 13
REMARK H PARENT
REMARK Flexibility Score: inf
ROOT
ATOM      1  C   UNL     1     -11.357  -2.699  -8.680  1.00  0.00     0.000 C 
ENDROOT
BRANCH   1   2
ATOM      2  C   UNL     1     -10.110  -1.992  -9.235  1.00  0.00     0.000 C 
BRANCH   2   3
ATOM      3  C   UNL     1      -8.800  -2.635  -8.753  1.00  0.00     0.006 C 
BRANCH   3   4
ATOM      4  C   UNL     1      -8.369  -3.765  -9.692  1.00  0.00     0.053 C 
BRANCH   4   5
ATOM      5  C   UNL     1      -8.387  -5.077  -8.974  1.00  0.00     0.041 C 
ATOM      6  O   UNL     1      -8.799  -5.146  -7.786  1.00  0.00    -0.550 OA
ATOM      7  O   UNL     1      -7.995  -6.236  -9.633  1.00  0.00    -0.550 OA
ENDBRANCH   4   5
ENDBRANCH   3   4
ENDBRANCH   2   3
ENDBRANCH   1   2
BRANCH   1   8
ATOM      8  C   UNL     1     -12.542  -1.743  -8.483  1.00  0.00     0.000 C 
BRANCH   8   9
ATOM      9  C   UNL     1     -13.489  -1.787  -9.688  1.00  0.00     0.006 C 
BRANCH   9  10
ATOM     10  C   UNL     1     -13.804  -0.376 -10.192  1.00  0.00     0.053 C 
BRANCH  10  11
ATOM     11  C   UNL     1     -13.241  -0.170 -11.562  1.00  0.00     0.041 C 
ATOM     12  O   UNL     1     -12.038  -0.453 -11.802  1.00  0.00    -0.550 OA
ATOM     13  O   UNL     1     -14.058   0.288 -12.589  1.00  0.00    -0.550 OA
ENDBRANCH  10  11
ENDBRANCH   9  10
ENDBRANCH   8   9
ENDBRANCH   1   8
TORSDOF 8
ENDMDL
MODEL 9
REMARK VINA RESULT:    -5.414     12.337     15.477
REMARK INTER + INTRA:          -8.262
REMARK INTER:                  -7.843
REMARK INTRA:                  -0.419
REMARK UNBOUND:                -0.317
REMARK SMILES O=C([O-])CCCCCCCC(=O)[O-]
REMARK SMILES IDX 7 1 6 2 5 3 4 4 2 5 1 6 3 7 8 8 9 9 10 10 11 11 12 12 13 13
REMARK H PARENT
REMARK Flexibility Score: inf
ROOT
ATOM      1  C   UNL     1     -11.473  -2.679  -8.520  1.00  0.00     0.000 C 
ENDROOT
BRANCH   1   2
ATOM      2  C   UNL     1     -12.699  -1.752  -8.554  1.00  0.00     0.000 C 
BRANCH   2   3
ATOM      3  C   UNL     1     -13.473  -1.842  -9.878  1.00  0.00     0.006 C 
BRANCH   3   4
ATOM      4  C   UNL     1     -13.974  -0.461 -10.313  1.00  0.00     0.053 C 
BRANCH   4   5
ATOM      5  C   UNL     1     -13.343  -0.059 -11.608  1.00  0.00     0.041 C 
ATOM      6  O   UNL     1     -12.136  -0.333 -11.839  1.00  0.00    -0.550 OA
ATOM      7  O   UNL     1     -14.103   0.576 -12.583  1.00  0.00    -0.550 OA
ENDBRANCH   4   5
ENDBRANCH   3   4
ENDBRANCH   2   3
ENDBRANCH   1   2
BRANCH   1   8
ATOM      8  C   UNL     1     -10.310  -2.155  -9.376  1.00  0.00     0.000 C 
BRANCH   8   9
ATOM      9  C   UNL     1      -8.962  -2.630  -8.819  1.00  0.00     0.006 C 
BRANCH   9  10
ATOM     10  C   UNL     1      -8.362  -3.731  -9.697  1.00  0.00     0.053 C 
BRANCH  10  11
ATOM     11  C   UNL     1      -8.395  -5.046  -8.985  1.00  0.00     0.041 C 
ATOM     12  O   UNL     1      -8.869  -5.126  -7.821  1.00  0.00    -0.550 OA
ATOM     13  O   UNL     1      -7.950  -6.196  -9.626  1.00  0.00    -0.550 OA
ENDBRANCH  10  11
ENDBRANCH   9  10
ENDBRANCH   8   9
ENDBRANCH   1   8
TORSDOF 8
ENDMDL
