MODEL 1
REMARK VINA RESULT:    -3.906      0.000      0.000
REMARK INTER + INTRA:          -6.732
REMARK INTER:                  -6.189
REMARK INTRA:                  -0.543
REMARK UNBOUND:                -0.543
REMARK SMILES CCCCCCCCCCCC(=O)[O-]
REMARK SMILES IDX 7 1 8 2 9 3 10 4 11 5 12 6 13 7 14 8 6 9 5 10 4 11 3 12 2 13
REMARK SMILES IDX 1 14
REMARK H PARENT
REMARK Flexibility Score: inf
ROOT
ATOM      1  C   UNL     1      46.454  46.962  41.663  1.00  0.00     0.000 C 
ENDROOT
BRANCH   1   2
ATOM      2  C   UNL     1      47.634  46.137  42.207  1.00  0.00     0.000 C 
BRANCH   2   3
ATOM      3  C   UNL     1      48.719  46.953  42.939  1.00  0.00     0.000 C 
BRANCH   3   4
ATOM      4  C   UNL     1      49.470  46.195  44.053  1.00  0.00     0.006 C 
BRANCH   4   5
ATOM      5  C   UNL     1      50.764  46.878  44.521  1.00  0.00     0.053 C 
BRANCH   5   6
ATOM      6  C   UNL     1      50.790  47.070  46.007  1.00  0.00     0.041 C 
ATOM      7  O   UNL     1      51.888  47.177  46.613  1.00  0.00    -0.550 OA
ATOM      8  O   UNL     1      49.602  47.095  46.725  1.00  0.00    -0.550 OA
ENDBRANCH   5   6
ENDBRANCH   4   5
ENDBRANCH   3   4
ENDBRANCH   2   3
ENDBRANCH   1   2
BRANCH   1   9
ATOM      9  C   UNL     1      45.417  46.104  40.924  1.00  0.00     0.000 C 
BRANCH   9  10
ATOM     10  C   UNL     1      44.104  46.030  41.712  1.00  0.00    -0.000 C 
BRANCH  10  11
ATOM     11  C   UNL     1      42.932  46.578  40.885  1.00  0.00    -0.000 C 
BRANCH  11  12
ATOM     12  C   UNL     1      42.420  47.932  41.421  1.00  0.00    -0.000 C 
BRANCH  12  13
ATOM     13  C   UNL     1      43.371  49.106  41.131  1.00  0.00    -0.003 C 
ATOM     14  C   UNL     1      44.051  49.649  42.385  1.00  0.00     0.004 C 
ENDBRANCH  12  13
ENDBRANCH  11  12
ENDBRANCH  10  11
ENDBRANCH   9  10
ENDBRANCH   1   9
TORSDOF 10
ENDMDL
MODEL 2
REMARK VINA RESULT:    -3.820      1.104      2.100
REMARK INTER + INTRA:          -6.597
REMARK INTER:                  -6.054
REMARK INTRA:                  -0.542
REMARK UNBOUND:                -0.543
REMARK SMILES CCCCCCCCCCCC(=O)[O-]
REMARK SMILES IDX 7 1 8 2 9 3 10 4 11 5 12 6 13 7 14 8 6 9 5 10 4 11 3 12 2 13
REMARK SMILES IDX 1 14
REMARK H PARENT
REMARK Flexibility Score: inf
ROOT
ATOM      1  C   UNL     1      48.373  47.049  42.712  1.00  0.00     0.000 C 
ENDROOT
BRANCH   1   2
ATOM      2  C   UNL     1      49.830  47.109  42.219  1.00  0.00     0.000 C 
BRANCH   2   3
ATOM      3  C   UNL     1      50.737  45.966  42.720  1.00  0.00     0.000 C 
BRANCH   3   4
ATOM      4  C   UNL     1      51.870  46.397  43.673  1.00  0.00     0.006 C 
BRANCH   4   5
ATOM      5  C   UNL     1      51.764  45.810  45.089  1.00  0.00     0.053 C 
BRANCH   5   6
ATOM      6  C   UNL     1      51.039  46.731  46.023  1.00  0.00     0.041 C 
ATOM      7  O   UNL     1      49.781  46.783  46.012  1.00  0.00    -0.550 OA
ATOM      8  O   UNL     1      51.755  47.555  46.881  1.00  0.00    -0.550 OA
ENDBRANCH   5   6
ENDBRANCH   4   5
ENDBRANCH   3   4
ENDBRANCH   2   3
ENDBRANCH   1   2
BRANCH   1   9
ATOM      9  C   UNL     1      47.357  47.386  41.612  1.00  0.00     0.000 C 
BRANCH   9  10
ATOM     10  C   UNL     1      46.229  46.348  41.569  1.00  0.00    -0.000 C 
BRANCH  10  11
ATOM     11  C   UNL     1      44.879  47.012  41.263  1.00  0.00    -0.000 C 
BRANCH  11  12
ATOM     12  C   UNL     1      44.875  48.516  41.609  1.00  0.00    -0.000 C 
BRANCH  12  13
ATOM     13  C   UNL     1      43.480  49.064  41.955  1.00  0.00    -0.003 C 
ATOM     14  C   UNL     1      42.352  48.099  41.595  1.00  0.00     0.004 C 
ENDBRANCH  12  13
ENDBRANCH  11  12
ENDBRANCH  10  11
ENDBRANCH   9  10
ENDBRANCH   1   9
TORSDOF 10
ENDMDL
MODEL 3
REMARK VINA RESULT:    -3.790      3.364      7.428
REMARK INTER + INTRA:          -6.548
REMARK INTER:                  -5.971
REMARK INTRA:                  -0.577
REMARK UNBOUND:                -0.543
REMARK SMILES CCCCCCCCCCCC(=O)[O-]
REMARK SMILES IDX 7 1 8 2 9 3 10 4 11 5 12 6 13 7 14 8 6 9 5 10 4 11 3 12 2 13
REMARK SMILES IDX 1 14
REMARK H PARENT
REMARK Flexibility Score: inf
ROOT
ATOM      1  C   UNL     1      48.123  47.045  42.727  1.00  0.00     0.000 C 
ENDROOT
BRANCH   1   2
ATOM      2  C   UNL     1      47.724  45.748  42.000  1.00  0.00     0.000 C 
BRANCH   2   3
ATOM      3  C   UNL     1      46.324  45.766  41.354  1.00  0.00     0.000 C 
BRANCH   3   4
ATOM      4  C   UNL     1      45.520  47.064  41.566  1.00  0.00     0.006 C 
BRANCH   4   5
ATOM      5  C   UNL     1      43.995  46.875  41.546  1.00  0.00     0.053 C 
BRANCH   5   6
ATOM      6  C   UNL     1      43.268  48.167  41.762  1.00  0.00     0.041 C 
ATOM      7  O   UNL     1      42.063  48.282  41.415  1.00  0.00    -0.550 OA
ATOM      8  O   UNL     1      43.932  49.254  42.315  1.00  0.00    -0.550 OA
ENDBRANCH   5   6
ENDBRANCH   4   5
ENDBRANCH   3   4
ENDBRANCH   2   3
ENDBRANCH   1   2
BRANCH   1   9
ATOM      9  C   UNL     1      49.604  47.402  42.542  1.00  0.00     0.000 C 
BRANCH   9  10
ATOM     10  C   UNL     1      50.494  46.166  42.718  1.00  0.00    -0.000 C 
BRANCH  10  11
ATOM     11  C   UNL     1      51.786  46.517  43.469  1.00  0.00    -0.000 C 
BRANCH  11  12
ATOM     12  C   UNL     1      52.018  45.604  44.692  1.00  0.00    -0.000 C 
BRANCH  12  13
ATOM     13  C   UNL     1      51.070  45.898  45.867  1.00  0.00    -0.003 C 
ATOM     14  C   UNL     1      51.322  47.259  46.512  1.00  0.00     0.004 C 
ENDBRANCH  12  13
ENDBRANCH  11  12
ENDBRANCH  10  11
ENDBRANCH   9  10
ENDBRANCH   1   9
TORSDOF 10
ENDMDL
MODEL 4
REMARK VINA RESULT:    -3.362      3.595      7.612
REMARK INTER + INTRA:          -5.870
REMARK INTER:                  -5.194
REMARK INTRA:                  -0.676
REMARK UNBOUND:                -0.543
REMARK SMILES CCCCCCCCCCCC(=O)[O-]
REMARK SMILES IDX 7 1 8 2 9 3 10 4 11 5 12 6 13 7 14 8 6 9 5 10 4 11 3 12 2 13
REMARK SMILES IDX 1 14
REMARK H PARENT
REMARK Flexibility Score: inf
ROOT
ATOM      1  C   UNL     1      49.603  47.303  42.318  1.00  0.00     0.000 C 
ENDROOT
BRANCH   1   2
ATOM      2  C   UNL     1      48.371  47.384  41.399  1.00  0.00     0.000 C 
BRANCH   2   3
ATOM      3  C   UNL     1      47.021  47.106  42.091  1.00  0.00     0.000 C 
BRANCH   3   4
ATOM      4  C   UNL     1      45.784  47.187  41.172  1.00  0.00     0.006 C 
BRANCH   4   5
ATOM      5  C   UNL     1      44.766  48.265  41.575  1.00  0.00     0.053 C 
BRANCH   5   6
ATOM      6  C   UNL     1      43.391  47.697  41.753  1.00  0.00     0.041 C 
ATOM      7  O   UNL     1      42.388  48.458  41.771  1.00  0.00    -0.550 OA
ATOM      8  O   UNL     1      43.222  46.331  41.934  1.00  0.00    -0.550 OA
ENDBRANCH   5   6
ENDBRANCH   4   5
ENDBRANCH   3   4
ENDBRANCH   2   3
ENDBRANCH   1   2
BRANCH   1   9
ATOM      9  C   UNL     1      49.369  46.424  43.554  1.00  0.00     0.000 C 
BRANCH   9  10
ATOM     10  C   UNL     1      50.246  46.878  44.727  1.00  0.00    -0.000 C 
BRANCH  10  11
ATOM     11  C   UNL     1      51.056  45.706  45.298  1.00  0.00    -0.000 C 
BRANCH  11  12
ATOM     12  C   UNL     1      51.922  45.015  44.223  1.00  0.00    -0.000 C 
BRANCH  12  13
ATOM     13  C   UNL     1      53.187  45.807  43.850  1.00  0.00    -0.003 C 
ATOM     14  C   UNL     1      53.175  46.310  42.409  1.00  0.00     0.004 C 
ENDBRANCH  12  13
ENDBRANCH  11  12
ENDBRANCH  10  11
ENDBRANCH   9  10
ENDBRANCH   1   9
TORSDOF 10
ENDMDL
MODEL 5
REMARK VINA RESULT:    -3.331      3.421      7.164
REMARK INTER + INTRA:          -5.821
REMARK INTER:                  -4.755
REMARK INTRA:                  -1.067
REMARK UNBOUND:                -0.543
REMARK SMILES CCCCCCCCCCCC(=O)[O-]
REMARK SMILES IDX 7 1 8 2 9 3 10 4 11 5 12 6 13 7 14 8 6 9 5 10 4 11 3 12 2 13
REMARK SMILES IDX 1 14
REMARK H PARENT
REMARK Flexibility Score: inf
ROOT
ATOM      1  C   UNL     1      52.201  46.988  41.132  1.00  0.00     0.000 C 
ENDROOT
BRANCH   1   2
ATOM      2  C   UNL     1      50.837  47.581  41.528  1.00  0.00     0.000 C 
BRANCH   2   3
ATOM      3  C   UNL     1      49.638  46.624  41.374  1.00  0.00     0.000 C 
BRANCH   3   4
ATOM      4  C   UNL     1      48.295  47.163  41.908  1.00  0.00     0.006 C 
BRANCH   4   5
ATOM      5  C   UNL     1      47.142  46.148  41.859  1.00  0.00     0.053 C 
BRANCH   5   6
ATOM      6  C   UNL     1      45.828  46.808  41.573  1.00  0.00     0.041 C 
ATOM      7  O   UNL     1      45.752  48.062  41.492  1.00  0.00    -0.550 OA
ATOM      8  O   UNL     1      44.681  46.038  41.429  1.00  0.00    -0.550 OA
ENDBRANCH   5   6
ENDBRANCH   4   5
ENDBRANCH   3   4
ENDBRANCH   2   3
ENDBRANCH   1   2
BRANCH   1   9
ATOM      9  C   UNL     1      52.545  45.711  41.912  1.00  0.00     0.000 C 
BRANCH   9  10
ATOM     10  C   UNL     1      52.991  46.042  43.341  1.00  0.00    -0.000 C 
BRANCH  10  11
ATOM     11  C   UNL     1      52.340  45.094  44.357  1.00  0.00    -0.000 C 
BRANCH  11  12
ATOM     12  C   UNL     1      50.903  45.525  44.721  1.00  0.00    -0.000 C 
BRANCH  12  13
ATOM     13  C   UNL     1      50.799  46.987  45.188  1.00  0.00    -0.003 C 
ATOM     14  C   UNL     1      51.432  47.225  46.557  1.00  0.00     0.004 C 
ENDBRANCH  12  13
ENDBRANCH  11  12
ENDBRANCH  10  11
ENDBRANCH   9  10
ENDBRANCH   1   9
TORSDOF 10
ENDMDL
MODEL 6
REMARK VINA RESULT:    -3.307      3.594      7.104
REMARK INTER + INTRA:          -5.784
REMARK INTER:                  -4.487
REMARK INTRA:                  -1.297
REMARK UNBOUND:                -0.543
REMARK SMILES CCCCCCCCCCCC(=O)[O-]
REMARK SMILES IDX 7 1 8 2 9 3 10 4 11 5 12 6 13 7 14 8 6 9 5 10 4 11 3 12 2 13
REMARK SMILES IDX 1 14
REMARK H PARENT
REMARK Flexibility Score: inf
ROOT
ATOM      1  C   UNL     1      51.324  46.708  44.857  1.00  0.00     0.000 C 
ENDROOT
BRANCH   1   2
ATOM      2  C   UNL     1      49.829  46.751  44.492  1.00  0.00     0.000 C 
BRANCH   2   3
ATOM      3  C   UNL     1      49.260  45.440  43.913  1.00  0.00     0.000 C 
BRANCH   3   4
ATOM      4  C   UNL     1      48.405  45.601  42.639  1.00  0.00     0.006 C 
BRANCH   4   5
ATOM      5  C   UNL     1      47.781  46.995  42.469  1.00  0.00     0.053 C 
BRANCH   5   6
ATOM      6  C   UNL     1      46.490  46.940  41.711  1.00  0.00     0.041 C 
ATOM      7  O   UNL     1      45.941  48.002  41.316  1.00  0.00    -0.550 OA
ATOM      8  O   UNL     1      45.877  45.718  41.470  1.00  0.00    -0.550 OA
ENDBRANCH   5   6
ENDBRANCH   4   5
ENDBRANCH   3   4
ENDBRANCH   2   3
ENDBRANCH   1   2
BRANCH   1   9
ATOM      9  C   UNL     1      51.950  45.323  44.645  1.00  0.00     0.000 C 
BRANCH   9  10
ATOM     10  C   UNL     1      53.105  45.390  43.638  1.00  0.00    -0.000 C 
BRANCH  10  11
ATOM     11  C   UNL     1      52.578  45.486  42.199  1.00  0.00    -0.000 C 
BRANCH  11  12
ATOM     12  C   UNL     1      53.292  46.588  41.388  1.00  0.00    -0.000 C 
BRANCH  12  13
ATOM     13  C   UNL     1      52.489  47.896  41.290  1.00  0.00    -0.003 C 
ATOM     14  C   UNL     1      51.025  47.674  40.918  1.00  0.00     0.004 C 
ENDBRANCH  12  13
ENDBRANCH  11  12
ENDBRANCH  10  11
ENDBRANCH   9  10
ENDBRANCH   1   9
TORSDOF 10
ENDMDL
MODEL 7
REMARK VINA RESULT:    -3.265      1.863      2.743
REMARK INTER + INTRA:          -5.717
REMARK INTER:                  -5.337
REMARK INTRA:                  -0.380
REMARK UNBOUND:                -0.543
REMARK SMILES CCCCCCCCCCCC(=O)[O-]
REMARK SMILES IDX 7 1 8 2 9 3 10 4 11 5 12 6 13 7 14 8 6 9 5 10 4 11 3 12 2 13
REMARK SMILES IDX 1 14
REMARK H PARENT
REMARK Flexibility Score: inf
ROOT
ATOM      1  C   UNL     1      44.585  46.207  41.357  1.00  0.00     0.000 C 
ENDROOT
BRANCH   1   2
ATOM      2  C   UNL     1      45.468  44.978  41.073  1.00  0.00     0.000 C 
BRANCH   2   3
ATOM      3  C   UNL     1      46.974  45.277  40.928  1.00  0.00     0.000 C 
BRANCH   3   4
ATOM      4  C   UNL     1      47.568  46.197  42.014  1.00  0.00     0.006 C 
BRANCH   4   5
ATOM      5  C   UNL     1      48.968  45.786  42.496  1.00  0.00     0.053 C 
BRANCH   5   6
ATOM      6  C   UNL     1      49.864  46.971  42.687  1.00  0.00     0.041 C 
ATOM      7  O   UNL     1      50.410  47.180  43.803  1.00  0.00    -0.550 OA
ATOM      8  O   UNL     1      50.068  47.863  41.643  1.00  0.00    -0.550 OA
ENDBRANCH   5   6
ENDBRANCH   4   5
ENDBRANCH   3   4
ENDBRANCH   2   3
ENDBRANCH   1   2
BRANCH   1   9
ATOM      9  C   UNL     1      43.153  45.831  41.763  1.00  0.00     0.000 C 
BRANCH   9  10
ATOM     10  C   UNL     1      42.124  46.589  40.915  1.00  0.00    -0.000 C 
BRANCH  10  11
ATOM     11  C   UNL     1      42.399  48.099  40.932  1.00  0.00    -0.000 C 
BRANCH  11  12
ATOM     12  C   UNL     1      42.735  48.616  42.347  1.00  0.00    -0.000 C 
BRANCH  12  13
ATOM     13  C   UNL     1      43.891  49.631  42.373  1.00  0.00    -0.003 C 
ATOM     14  C   UNL     1      44.520  49.856  41.000  1.00  0.00     0.004 C 
ENDBRANCH  12  13
ENDBRANCH  11  12
ENDBRANCH  10  11
ENDBRANCH   9  10
ENDBRANCH   1   9
TORSDOF 10
ENDMDL
MODEL 8
REMARK VINA RESULT:    -3.254      2.126      3.045
REMARK INTER + INTRA:          -5.700
REMARK INTER:                  -5.176
REMARK INTRA:                  -0.524
REMARK UNBOUND:                -0.543
REMARK SMILES CCCCCCCCCCCC(=O)[O-]
REMARK SMILES IDX 7 1 8 2 9 3 10 4 11 5 12 6 13 7 14 8 6 9 5 10 4 11 3 12 2 13
REMARK SMILES IDX 1 14
REMARK H PARENT
REMARK Flexibility Score: inf
ROOT
ATOM      1  C   UNL     1      48.905  47.164  42.804  1.00  0.00     0.000 C 
ENDROOT
BRANCH   1   2
ATOM      2  C   UNL     1      49.251  46.598  44.193  1.00  0.00     0.000 C 
BRANCH   2   3
ATOM      3  C   UNL     1      49.748  45.138  44.198  1.00  0.00     0.000 C 
BRANCH   3   4
ATOM      4  C   UNL     1      51.054  44.893  44.981  1.00  0.00     0.006 C 
BRANCH   4   5
ATOM      5  C   UNL     1      52.112  45.993  44.807  1.00  0.00     0.053 C 
BRANCH   5   6
ATOM      6  C   UNL     1      52.942  45.781  43.578  1.00  0.00     0.041 C 
ATOM      7  O   UNL     1      53.864  44.924  43.574  1.00  0.00    -0.550 OA
ATOM      8  O   UNL     1      52.718  46.556  42.447  1.00  0.00    -0.550 OA
ENDBRANCH   5   6
ENDBRANCH   4   5
ENDBRANCH   3   4
ENDBRANCH   2   3
ENDBRANCH   1   2
BRANCH   1   9
ATOM      9  C   UNL     1      47.547  46.677  42.282  1.00  0.00     0.000 C 
BRANCH   9  10
ATOM     10  C   UNL     1      47.016  47.603  41.182  1.00  0.00    -0.000 C 
BRANCH  10  11
ATOM     11  C   UNL     1      45.513  47.866  41.358  1.00  0.00    -0.000 C 
BRANCH  11  12
ATOM     12  C   UNL     1      44.707  46.560  41.521  1.00  0.00    -0.000 C 
BRANCH  12  13
ATOM     13  C   UNL     1      43.214  46.792  41.815  1.00  0.00    -0.003 C 
ATOM     14  C   UNL     1      42.817  48.266  41.769  1.00  0.00     0.004 C 
ENDBRANCH  12  13
ENDBRANCH  11  12
ENDBRANCH  10  11
ENDBRANCH   9  10
ENDBRANCH   1   9
TORSDOF 10
ENDMDL
MODEL 9
REMARK VINA RESULT:    -3.156     21.300     23.069
REMARK INTER + INTRA:          -5.545
REMARK INTER:                  -5.240
REMARK INTRA:                  -0.305
REMARK UNBOUND:                -0.543
REMARK SMILES CCCCCCCCCCCC(=O)[O-]
REMARK SMILES IDX 7 1 8 2 9 3 10 4 11 5 12 6 13 7 14 8 6 9 5 10 4 11 3 12 2 13
REMARK SMILES IDX 1 14
REMARK H PARENT
REMARK Flexibility Score: inf
ROOT
ATOM      1  C   UNL     1      46.524  64.051  59.118  1.00  0.00     0.000 C 
ENDROOT
BRANCH   1   2
ATOM      2  C   UNL     1      47.173  63.041  60.082  1.00  0.00     0.000 C 
BRANCH   2   3
ATOM      3  C   UNL     1      48.274  63.622  60.991  1.00  0.00     0.000 C 
BRANCH   3   4
ATOM      4  C   UNL     1      48.828  64.994  60.557  1.00  0.00     0.006 C 
BRANCH   4   5
ATOM      5  C   UNL     1      50.355  65.125  60.670  1.00  0.00     0.053 C 
BRANCH   5   6
ATOM      6  C   UNL     1      51.062  64.399  59.566  1.00  0.00     0.041 C 
ATOM      7  O   UNL     1      50.752  63.211  59.288  1.00  0.00    -0.550 OA
ATOM      8  O   UNL     1      52.087  65.024  58.868  1.00  0.00    -0.550 OA
ENDBRANCH   5   6
ENDBRANCH   4   5
ENDBRANCH   3   4
ENDBRANCH   2   3
ENDBRANCH   1   2
BRANCH   1   9
ATOM      9  C   UNL     1      45.098  64.440  59.532  1.00  0.00     0.000 C 
BRANCH   9  10
ATOM     10  C   UNL     1      44.292  64.938  58.327  1.00  0.00    -0.000 C 
BRANCH  10  11
ATOM     11  C   UNL     1      44.889  64.421  57.011  1.00  0.00    -0.000 C 
BRANCH  11  12
ATOM     12  C   UNL     1      43.924  63.477  56.262  1.00  0.00    -0.000 C 
BRANCH  12  13
ATOM     13  C   UNL     1      44.560  62.789  55.042  1.00  0.00    -0.003 C 
ATOM     14  C   UNL     1      44.743  61.285  55.231  1.00  0.00     0.004 C 
ENDBRANCH  12  13
ENDBRANCH  11  12
ENDBRANCH  10  11
ENDBRANCH   9  10
ENDBRANCH   1   9
TORSDOF 10
ENDMDL
