MODEL 1
REMARK VINA RESULT:    -5.111      0.000      0.000
REMARK INTER + INTRA:          -6.276
REMARK INTER:                  -6.007
REMARK INTRA:                  -0.269
REMARK UNBOUND:                -0.269
REMARK SMILES O=c1c(O)c(-c2ccc(O)cc2)oc2cc(O)cc(O)c12
REMARK SMILES IDX 5 1 3 2 2 3 1 4 21 5 19 6 18 7 16 8 15 9 14 10 13 11 6 12
REMARK SMILES IDX 7 13 8 14 9 15 12 16 11 17 10 18 4 20 20 22 17 24
REMARK H PARENT 10 19 4 21 20 23 17 25
REMARK Flexibility Score: inf
ROOT
ATOM      1  C   UNL     1      93.404  99.591  77.599  1.00  0.00     0.180 A 
ATOM      2  C   UNL     1      94.557  99.375  76.825  1.00  0.00     0.208 A 
ATOM      3  C   UNL     1      95.748  98.999  77.468  1.00  0.00     0.238 A 
ATOM      4  O   UNL     1      96.789  98.860  76.776  1.00  0.00    -0.285 OA
ATOM      5  C   UNL     1      95.767  98.829  78.873  1.00  0.00     0.111 A 
ATOM      6  C   UNL     1      96.907  98.412  79.623  1.00  0.00     0.134 A 
ATOM      7  C   UNL     1      96.847  98.403  81.022  1.00  0.00     0.093 A 
ATOM      8  C   UNL     1      95.671  98.734  81.695  1.00  0.00     0.123 A 
ATOM      9  C   UNL     1      94.533  99.085  80.969  1.00  0.00     0.094 A 
ATOM     10  C   UNL     1      94.571  99.138  79.574  1.00  0.00     0.146 A 
ATOM     11  O   UNL     1      93.470  99.488  78.921  1.00  0.00    -0.452 OA
ENDROOT
BRANCH   1  12
ATOM     12  C   UNL     1      92.106  99.965  76.992  1.00  0.00     0.021 A 
ATOM     13  C   UNL     1      91.818 101.297  76.642  1.00  0.00     0.016 A 
ATOM     14  C   UNL     1      90.595 101.623  76.047  1.00  0.00     0.047 A 
ATOM     15  C   UNL     1      89.652 100.625  75.782  1.00  0.00     0.115 A 
ATOM     16  C   UNL     1      91.163  98.965  76.703  1.00  0.00     0.016 A 
ATOM     17  C   UNL     1      89.940  99.295  76.110  1.00  0.00     0.047 A 
BRANCH  15  18
ATOM     18  O   UNL     1      88.439 100.965  75.191  1.00  0.00    -0.508 OA
ATOM     19  H   UNL     1      87.561 100.582  75.524  1.00  0.00     0.293 HD
ENDBRANCH  15  18
ENDBRANCH   1  12
BRANCH   2  20
ATOM     20  O   UNL     1      94.523  99.570  75.441  1.00  0.00    -0.502 OA
ATOM     21  H   UNL     1      93.767 100.060  74.980  1.00  0.00     0.293 HD
ENDBRANCH   2  20
BRANCH   6  22
ATOM     22  O   UNL     1      98.102  97.974  79.047  1.00  0.00    -0.507 OA
ATOM     23  H   UNL     1      98.916  98.553  78.900  1.00  0.00     0.293 HD
ENDBRANCH   6  22
BRANCH   8  24
ATOM     24  O   UNL     1      95.644  98.699  83.087  1.00  0.00    -0.508 OA
ATOM     25  H   UNL     1      96.487  98.824  83.637  1.00  0.00     0.293 HD
ENDBRANCH   8  24
TORSDOF 5
ENDMDL
MODEL 2
REMARK VINA RESULT:    -5.042     12.124     13.315
REMARK INTER + INTRA:          -6.195
REMARK INTER:                  -5.908
REMARK INTRA:                  -0.287
REMARK UNBOUND:                -0.269
REMARK SMILES O=c1c(O)c(-c2ccc(O)cc2)oc2cc(O)cc(O)c12
REMARK SMILES IDX 5 1 3 2 2 3 1 4 21 5 19 6 18 7 16 8 15 9 14 10 13 11 6 12
REMARK SMILES IDX 7 13 8 14 9 15 12 16 11 17 10 18 4 20 20 22 17 24
REMARK H PARENT 10 19 4 21 20 23 17 25
REMARK Flexibility Score: inf
ROOT
ATOM      1  C   UNL     1      84.979  90.409  78.566  1.00  0.00     0.180 A 
ATOM      2  C   UNL     1      84.844  90.257  77.175  1.00  0.00     0.208 A 
ATOM      3  C   UNL     1      85.539  89.219  76.533  1.00  0.00     0.238 A 
ATOM      4  O   UNL     1      85.457  89.122  75.281  1.00  0.00    -0.285 OA
ATOM      5  C   UNL     1      86.347  88.338  77.291  1.00  0.00     0.111 A 
ATOM      6  C   UNL     1      87.064  87.229  76.750  1.00  0.00     0.134 A 
ATOM      7  C   UNL     1      87.935  86.503  77.571  1.00  0.00     0.093 A 
ATOM      8  C   UNL     1      88.067  86.805  78.926  1.00  0.00     0.123 A 
ATOM      9  C   UNL     1      87.325  87.849  79.479  1.00  0.00     0.094 A 
ATOM     10  C   UNL     1      86.475  88.615  78.677  1.00  0.00     0.146 A 
ATOM     11  O   UNL     1      85.796  89.608  79.239  1.00  0.00    -0.452 OA
ENDROOT
BRANCH   1  12
ATOM     12  C   UNL     1      84.259  91.463  79.317  1.00  0.00     0.021 A 
ATOM     13  C   UNL     1      82.923  91.290  79.724  1.00  0.00     0.016 A 
ATOM     14  C   UNL     1      82.272  92.289  80.454  1.00  0.00     0.047 A 
ATOM     15  C   UNL     1      82.946  93.464  80.798  1.00  0.00     0.115 A 
ATOM     16  C   UNL     1      84.938  92.636  79.686  1.00  0.00     0.016 A 
ATOM     17  C   UNL     1      84.282  93.634  80.414  1.00  0.00     0.047 A 
BRANCH  15  18
ATOM     18  O   UNL     1      82.284  94.450  81.524  1.00  0.00    -0.508 OA
ATOM     19  H   UNL     1      81.442  94.891  81.172  1.00  0.00     0.293 HD
ENDBRANCH  15  18
ENDBRANCH   1  12
BRANCH   2  20
ATOM     20  O   UNL     1      84.059  91.152  76.443  1.00  0.00    -0.502 OA
ATOM     21  H   UNL     1      83.801  90.985  75.478  1.00  0.00     0.293 HD
ENDBRANCH   2  20
BRANCH   6  22
ATOM     22  O   UNL     1      86.935  86.785  75.431  1.00  0.00    -0.507 OA
ATOM     23  H   UNL     1      86.081  86.437  75.022  1.00  0.00     0.293 HD
ENDBRANCH   6  22
BRANCH   8  24
ATOM     24  O   UNL     1      88.932  86.051  79.716  1.00  0.00    -0.508 OA
ATOM     25  H   UNL     1      89.046  86.240  80.706  1.00  0.00     0.293 HD
ENDBRANCH   8  24
TORSDOF 5
ENDMDL
MODEL 3
REMARK VINA RESULT:    -5.015      3.537      6.553
REMARK INTER + INTRA:          -6.164
REMARK INTER:                  -5.863
REMARK INTRA:                  -0.300
REMARK UNBOUND:                -0.269
REMARK SMILES O=c1c(O)c(-c2ccc(O)cc2)oc2cc(O)cc(O)c12
REMARK SMILES IDX 5 1 3 2 2 3 1 4 21 5 19 6 18 7 16 8 15 9 14 10 13 11 6 12
REMARK SMILES IDX 7 13 8 14 9 15 12 16 11 17 10 18 4 20 20 22 17 24
REMARK H PARENT 10 19 4 21 20 23 17 25
REMARK Flexibility Score: inf
ROOT
ATOM      1  C   UNL     1      97.721  97.496  76.672  1.00  0.00     0.180 A 
ATOM      2  C   UNL     1      96.719  98.395  76.268  1.00  0.00     0.208 A 
ATOM      3  C   UNL     1      95.883  98.966  77.240  1.00  0.00     0.238 A 
ATOM      4  O   UNL     1      94.953  99.727  76.866  1.00  0.00    -0.285 OA
ATOM      5  C   UNL     1      96.070  98.645  78.606  1.00  0.00     0.111 A 
ATOM      6  C   UNL     1      95.306  99.195  79.679  1.00  0.00     0.134 A 
ATOM      7  C   UNL     1      95.491  98.707  80.979  1.00  0.00     0.093 A 
ATOM      8  C   UNL     1      96.454  97.737  81.254  1.00  0.00     0.123 A 
ATOM      9  C   UNL     1      97.246  97.235  80.222  1.00  0.00     0.094 A 
ATOM     10  C   UNL     1      97.061  97.675  78.909  1.00  0.00     0.146 A 
ATOM     11  O   UNL     1      97.828  97.164  77.954  1.00  0.00    -0.452 OA
ENDROOT
BRANCH   1  12
ATOM     12  C   UNL     1      98.657  96.872  75.709  1.00  0.00     0.021 A 
ATOM     13  C   UNL     1      99.872  97.490  75.364  1.00  0.00     0.016 A 
ATOM     14  C   UNL     1     100.752  96.870  74.470  1.00  0.00     0.047 A 
ATOM     15  C   UNL     1     100.436  95.623  73.922  1.00  0.00     0.115 A 
ATOM     16  C   UNL     1      98.357  95.610  75.172  1.00  0.00     0.016 A 
ATOM     17  C   UNL     1      99.237  94.993  74.277  1.00  0.00     0.047 A 
BRANCH  15  18
ATOM     18  O   UNL     1     101.322  95.019  73.033  1.00  0.00    -0.508 OA
ATOM     19  H   UNL     1     102.292  94.857  73.280  1.00  0.00     0.293 HD
ENDBRANCH  15  18
ENDBRANCH   1  12
BRANCH   2  20
ATOM     20  O   UNL     1      96.537  98.681  74.911  1.00  0.00    -0.502 OA
ATOM     21  H   UNL     1      95.712  98.394  74.401  1.00  0.00     0.293 HD
ENDBRANCH   2  20
BRANCH   6  22
ATOM     22  O   UNL     1      94.383 100.233  79.528  1.00  0.00    -0.507 OA
ATOM     23  H   UNL     1      94.283 101.010  80.164  1.00  0.00     0.293 HD
ENDBRANCH   6  22
BRANCH   8  24
ATOM     24  O   UNL     1      96.620  97.286  82.562  1.00  0.00    -0.508 OA
ATOM     25  H   UNL     1      97.534  97.043  82.926  1.00  0.00     0.293 HD
ENDBRANCH   8  24
TORSDOF 5
ENDMDL
MODEL 4
REMARK VINA RESULT:    -4.952     12.488     13.724
REMARK INTER + INTRA:          -6.089
REMARK INTER:                  -5.792
REMARK INTRA:                  -0.298
REMARK UNBOUND:                -0.269
REMARK SMILES O=c1c(O)c(-c2ccc(O)cc2)oc2cc(O)cc(O)c12
REMARK SMILES IDX 5 1 3 2 2 3 1 4 21 5 19 6 18 7 16 8 15 9 14 10 13 11 6 12
REMARK SMILES IDX 7 13 8 14 9 15 12 16 11 17 10 18 4 20 20 22 17 24
REMARK H PARENT 10 19 4 21 20 23 17 25
REMARK Flexibility Score: inf
ROOT
ATOM      1  C   UNL     1      86.057  88.615  77.018  1.00  0.00     0.180 A 
ATOM      2  C   UNL     1      85.771  89.825  77.674  1.00  0.00     0.208 A 
ATOM      3  C   UNL     1      86.122  89.967  79.026  1.00  0.00     0.238 A 
ATOM      4  O   UNL     1      85.814  91.032  79.621  1.00  0.00    -0.285 OA
ATOM      5  C   UNL     1      86.769  88.905  79.701  1.00  0.00     0.111 A 
ATOM      6  C   UNL     1      87.205  88.954  81.059  1.00  0.00     0.134 A 
ATOM      7  C   UNL     1      87.716  87.799  81.662  1.00  0.00     0.093 A 
ATOM      8  C   UNL     1      87.867  86.615  80.941  1.00  0.00     0.123 A 
ATOM      9  C   UNL     1      87.499  86.573  79.596  1.00  0.00     0.094 A 
ATOM     10  C   UNL     1      86.952  87.699  78.975  1.00  0.00     0.146 A 
ATOM     11  O   UNL     1      86.605  87.613  77.697  1.00  0.00    -0.452 OA
ENDROOT
BRANCH   1  12
ATOM     12  C   UNL     1      85.740  88.398  75.588  1.00  0.00     0.021 A 
ATOM     13  C   UNL     1      86.636  88.781  74.573  1.00  0.00     0.016 A 
ATOM     14  C   UNL     1      86.325  88.544  73.230  1.00  0.00     0.047 A 
ATOM     15  C   UNL     1      85.128  87.912  72.885  1.00  0.00     0.115 A 
ATOM     16  C   UNL     1      84.548  87.744  75.235  1.00  0.00     0.016 A 
ATOM     17  C   UNL     1      84.241  87.510  73.891  1.00  0.00     0.047 A 
BRANCH  15  18
ATOM     18  O   UNL     1      84.833  87.684  71.544  1.00  0.00    -0.508 OA
ATOM     19  H   UNL     1      85.332  88.163  70.802  1.00  0.00     0.293 HD
ENDBRANCH  15  18
ENDBRANCH   1  12
BRANCH   2  20
ATOM     20  O   UNL     1      85.111  90.853  76.994  1.00  0.00    -0.502 OA
ATOM     21  H   UNL     1      84.179  91.158  77.242  1.00  0.00     0.293 HD
ENDBRANCH   2  20
BRANCH   6  22
ATOM     22  O   UNL     1      87.184  90.110  81.844  1.00  0.00    -0.507 OA
ATOM     23  H   UNL     1      87.980  90.484  82.338  1.00  0.00     0.293 HD
ENDBRANCH   6  22
BRANCH   8  24
ATOM     24  O   UNL     1      88.393  85.489  81.570  1.00  0.00    -0.508 OA
ATOM     25  H   UNL     1      87.928  84.590  81.523  1.00  0.00     0.293 HD
ENDBRANCH   8  24
TORSDOF 5
ENDMDL
MODEL 5
REMARK VINA RESULT:    -4.938     12.176     13.902
REMARK INTER + INTRA:          -6.073
REMARK INTER:                  -5.826
REMARK INTRA:                  -0.246
REMARK UNBOUND:                -0.269
REMARK SMILES O=c1c(O)c(-c2ccc(O)cc2)oc2cc(O)cc(O)c12
REMARK SMILES IDX 5 1 3 2 2 3 1 4 21 5 19 6 18 7 16 8 15 9 14 10 13 11 6 12
REMARK SMILES IDX 7 13 8 14 9 15 12 16 11 17 10 18 4 20 20 22 17 24
REMARK H PARENT 10 19 4 21 20 23 17 25
REMARK Flexibility Score: inf
ROOT
ATOM      1  C   UNL     1      84.791  90.367  78.503  1.00  0.00     0.180 A 
ATOM      2  C   UNL     1      85.760  89.495  79.028  1.00  0.00     0.208 A 
ATOM      3  C   UNL     1      86.339  88.533  78.186  1.00  0.00     0.238 A 
ATOM      4  O   UNL     1      87.166  87.721  78.675  1.00  0.00    -0.285 OA
ATOM      5  C   UNL     1      85.954  88.464  76.825  1.00  0.00     0.111 A 
ATOM      6  C   UNL     1      86.504  87.555  75.873  1.00  0.00     0.134 A 
ATOM      7  C   UNL     1      85.954  87.488  74.586  1.00  0.00     0.093 A 
ATOM      8  C   UNL     1      84.920  88.339  74.199  1.00  0.00     0.123 A 
ATOM      9  C   UNL     1      84.416  89.273  75.104  1.00  0.00     0.094 A 
ATOM     10  C   UNL     1      84.918  89.340  76.406  1.00  0.00     0.146 A 
ATOM     11  O   UNL     1      84.403  90.234  77.241  1.00  0.00    -0.452 OA
ENDROOT
BRANCH   1  12
ATOM     12  C   UNL     1      84.154  91.423  79.322  1.00  0.00     0.021 A 
ATOM     13  C   UNL     1      84.844  92.601  79.665  1.00  0.00     0.016 A 
ATOM     14  C   UNL     1      84.213  93.596  80.419  1.00  0.00     0.047 A 
ATOM     15  C   UNL     1      82.886  93.435  80.828  1.00  0.00     0.115 A 
ATOM     16  C   UNL     1      82.814  91.278  79.718  1.00  0.00     0.016 A 
ATOM     17  C   UNL     1      82.187  92.274  80.473  1.00  0.00     0.047 A 
BRANCH  15  18
ATOM     18  O   UNL     1      82.272  94.434  81.578  1.00  0.00    -0.508 OA
ATOM     19  H   UNL     1      82.580  94.654  82.519  1.00  0.00     0.293 HD
ENDBRANCH  15  18
ENDBRANCH   1  12
BRANCH   2  20
ATOM     20  O   UNL     1      86.111  89.565  80.380  1.00  0.00    -0.502 OA
ATOM     21  H   UNL     1      86.935  90.056  80.703  1.00  0.00     0.293 HD
ENDBRANCH   2  20
BRANCH   6  22
ATOM     22  O   UNL     1      87.598  86.724  76.128  1.00  0.00    -0.507 OA
ATOM     23  H   UNL     1      88.027  86.115  75.448  1.00  0.00     0.293 HD
ENDBRANCH   6  22
BRANCH   8  24
ATOM     24  O   UNL     1      84.409  88.254  72.906  1.00  0.00    -0.508 OA
ATOM     25  H   UNL     1      83.530  87.788  72.713  1.00  0.00     0.293 HD
ENDBRANCH   8  24
TORSDOF 5
ENDMDL
MODEL 6
REMARK VINA RESULT:    -4.936     13.284     13.691
REMARK INTER + INTRA:          -6.071
REMARK INTER:                  -5.859
REMARK INTRA:                  -0.211
REMARK UNBOUND:                -0.269
REMARK SMILES O=c1c(O)c(-c2ccc(O)cc2)oc2cc(O)cc(O)c12
REMARK SMILES IDX 5 1 3 2 2 3 1 4 21 5 19 6 18 7 16 8 15 9 14 10 13 11 6 12
REMARK SMILES IDX 7 13 8 14 9 15 12 16 11 17 10 18 4 20 20 22 17 24
REMARK H PARENT 10 19 4 21 20 23 17 25
REMARK Flexibility Score: inf
ROOT
ATOM      1  C   UNL     1      86.612  87.965  76.768  1.00  0.00     0.180 A 
ATOM      2  C   UNL     1      87.740  87.743  75.960  1.00  0.00     0.208 A 
ATOM      3  C   UNL     1      88.857  87.095  76.512  1.00  0.00     0.238 A 
ATOM      4  O   UNL     1      89.883  86.948  75.800  1.00  0.00    -0.285 OA
ATOM      5  C   UNL     1      88.826  86.664  77.860  1.00  0.00     0.111 A 
ATOM      6  C   UNL     1      89.885  85.964  78.512  1.00  0.00     0.134 A 
ATOM      7  C   UNL     1      89.797  85.702  79.884  1.00  0.00     0.093 A 
ATOM      8  C   UNL     1      88.664  86.056  80.615  1.00  0.00     0.123 A 
ATOM      9  C   UNL     1      87.597  86.688  79.976  1.00  0.00     0.094 A 
ATOM     10  C   UNL     1      87.670  86.996  78.614  1.00  0.00     0.146 A 
ATOM     11  O   UNL     1      86.638  87.608  78.046  1.00  0.00    -0.452 OA
ENDROOT
BRANCH   1  12
ATOM     12  C   UNL     1      85.388  88.618  76.250  1.00  0.00     0.021 A 
ATOM     13  C   UNL     1      84.546  87.971  75.327  1.00  0.00     0.016 A 
ATOM     14  C   UNL     1      83.383  88.598  74.871  1.00  0.00     0.047 A 
ATOM     15  C   UNL     1      83.037  89.869  75.339  1.00  0.00     0.115 A 
ATOM     16  C   UNL     1      85.023  89.886  76.733  1.00  0.00     0.016 A 
ATOM     17  C   UNL     1      83.859  90.511  76.273  1.00  0.00     0.047 A 
BRANCH  15  18
ATOM     18  O   UNL     1      81.876  90.481  74.875  1.00  0.00    -0.508 OA
ATOM     19  H   UNL     1      81.296  90.047  74.166  1.00  0.00     0.293 HD
ENDBRANCH  15  18
ENDBRANCH   1  12
BRANCH   2  20
ATOM     20  O   UNL     1      87.759  88.196  74.638  1.00  0.00    -0.502 OA
ATOM     21  H   UNL     1      87.296  87.701  73.886  1.00  0.00     0.293 HD
ENDBRANCH   2  20
BRANCH   6  22
ATOM     22  O   UNL     1      91.021  85.483  77.856  1.00  0.00    -0.507 OA
ATOM     23  H   UNL     1      91.960  85.531  78.223  1.00  0.00     0.293 HD
ENDBRANCH   6  22
BRANCH   8  24
ATOM     24  O   UNL     1      88.606  85.765  81.976  1.00  0.00    -0.508 OA
ATOM     25  H   UNL     1      88.018  85.021  82.334  1.00  0.00     0.293 HD
ENDBRANCH   8  24
TORSDOF 5
ENDMDL
MODEL 7
REMARK VINA RESULT:    -4.918      5.037      7.057
REMARK INTER + INTRA:          -6.049
REMARK INTER:                  -5.751
REMARK INTRA:                  -0.298
REMARK UNBOUND:                -0.269
REMARK SMILES O=c1c(O)c(-c2ccc(O)cc2)oc2cc(O)cc(O)c12
REMARK SMILES IDX 5 1 3 2 2 3 1 4 21 5 19 6 18 7 16 8 15 9 14 10 13 11 6 12
REMARK SMILES IDX 7 13 8 14 9 15 12 16 11 17 10 18 4 20 20 22 17 24
REMARK H PARENT 10 19 4 21 20 23 17 25
REMARK Flexibility Score: inf
ROOT
ATOM      1  C   UNL     1      98.752  96.248  76.978  1.00  0.00     0.180 A 
ATOM      2  C   UNL     1      99.074  95.088  77.704  1.00  0.00     0.208 A 
ATOM      3  C   UNL     1      98.702  95.004  79.055  1.00  0.00     0.238 A 
ATOM      4  O   UNL     1      99.041  93.987  79.713  1.00  0.00    -0.285 OA
ATOM      5  C   UNL     1      98.000  96.074  79.660  1.00  0.00     0.111 A 
ATOM      6  C   UNL     1      97.540  96.080  81.011  1.00  0.00     0.134 A 
ATOM      7  C   UNL     1      96.970  97.245  81.541  1.00  0.00     0.093 A 
ATOM      8  C   UNL     1      96.786  98.380  80.753  1.00  0.00     0.123 A 
ATOM      9  C   UNL     1      97.178  98.365  79.414  1.00  0.00     0.094 A 
ATOM     10  C   UNL     1      97.782  97.231  78.866  1.00  0.00     0.146 A 
ATOM     11  O   UNL     1      98.152  97.261  77.591  1.00  0.00    -0.452 OA
ENDROOT
BRANCH   1  12
ATOM     12  C   UNL     1      99.088  96.400  75.544  1.00  0.00     0.021 A 
ATOM     13  C   UNL     1      98.227  95.931  74.536  1.00  0.00     0.016 A 
ATOM     14  C   UNL     1      98.554  96.107  73.188  1.00  0.00     0.047 A 
ATOM     15  C   UNL     1      99.734  96.765  72.830  1.00  0.00     0.115 A 
ATOM     16  C   UNL     1     100.262  97.079  75.177  1.00  0.00     0.016 A 
ATOM     17  C   UNL     1     100.587  97.252  73.828  1.00  0.00     0.047 A 
BRANCH  15  18
ATOM     18  O   UNL     1     100.047  96.932  71.483  1.00  0.00    -0.508 OA
ATOM     19  H   UNL     1     100.961  96.692  71.118  1.00  0.00     0.293 HD
ENDBRANCH  15  18
ENDBRANCH   1  12
BRANCH   2  20
ATOM     20  O   UNL     1      99.788  94.052  77.093  1.00  0.00    -0.502 OA
ATOM     21  H   UNL     1      99.788  93.107  77.453  1.00  0.00     0.293 HD
ENDBRANCH   2  20
BRANCH   6  22
ATOM     22  O   UNL     1      97.591  94.970  81.858  1.00  0.00    -0.507 OA
ATOM     23  H   UNL     1      97.964  94.068  81.601  1.00  0.00     0.293 HD
ENDBRANCH   6  22
BRANCH   8  24
ATOM     24  O   UNL     1      96.202  99.515  81.311  1.00  0.00    -0.508 OA
ATOM     25  H   UNL     1      96.148  99.644  82.315  1.00  0.00     0.293 HD
ENDBRANCH   8  24
TORSDOF 5
ENDMDL
MODEL 8
REMARK VINA RESULT:    -4.889      1.315      3.134
REMARK INTER + INTRA:          -6.015
REMARK INTER:                  -5.718
REMARK INTRA:                  -0.298
REMARK UNBOUND:                -0.269
REMARK SMILES O=c1c(O)c(-c2ccc(O)cc2)oc2cc(O)cc(O)c12
REMARK SMILES IDX 5 1 3 2 2 3 1 4 21 5 19 6 18 7 16 8 15 9 14 10 13 11 6 12
REMARK SMILES IDX 7 13 8 14 9 15 12 16 11 17 10 18 4 20 20 22 17 24
REMARK H PARENT 10 19 4 21 20 23 17 25
REMARK Flexibility Score: inf
ROOT
ATOM      1  C   UNL     1      92.492  99.363  79.026  1.00  0.00     0.180 A 
ATOM      2  C   UNL     1      92.224  99.056  80.371  1.00  0.00     0.208 A 
ATOM      3  C   UNL     1      93.287  98.680  81.209  1.00  0.00     0.238 A 
ATOM      4  O   UNL     1      93.033  98.355  82.397  1.00  0.00    -0.285 OA
ATOM      5  C   UNL     1      94.605  98.630  80.695  1.00  0.00     0.111 A 
ATOM      6  C   UNL     1      95.762  98.300  81.463  1.00  0.00     0.134 A 
ATOM      7  C   UNL     1      96.998  98.154  80.821  1.00  0.00     0.093 A 
ATOM      8  C   UNL     1      97.132  98.389  79.453  1.00  0.00     0.123 A 
ATOM      9  C   UNL     1      96.018  98.770  78.703  1.00  0.00     0.094 A 
ATOM     10  C   UNL     1      94.764  98.889  79.308  1.00  0.00     0.146 A 
ATOM     11  O   UNL     1      93.728  99.243  78.557  1.00  0.00    -0.452 OA
ENDROOT
BRANCH   1  12
ATOM     12  C   UNL     1      91.429  99.791  78.088  1.00  0.00     0.021 A 
ATOM     13  C   UNL     1      91.048 101.141  77.980  1.00  0.00     0.016 A 
ATOM     14  C   UNL     1      90.058 101.526  77.070  1.00  0.00     0.047 A 
ATOM     15  C   UNL     1      89.448 100.573  76.249  1.00  0.00     0.115 A 
ATOM     16  C   UNL     1      90.826  98.843  77.245  1.00  0.00     0.016 A 
ATOM     17  C   UNL     1      89.836  99.231  76.337  1.00  0.00     0.047 A 
BRANCH  15  18
ATOM     18  O   UNL     1      88.463 100.971  75.348  1.00  0.00    -0.508 OA
ATOM     19  H   UNL     1      87.478 100.916  75.582  1.00  0.00     0.293 HD
ENDBRANCH  15  18
ENDBRANCH   1  12
BRANCH   2  20
ATOM     20  O   UNL     1      90.912  99.091  80.853  1.00  0.00    -0.502 OA
ATOM     21  H   UNL     1      90.169  99.581  80.372  1.00  0.00     0.293 HD
ENDBRANCH   2  20
BRANCH   6  22
ATOM     22  O   UNL     1      95.756  98.134  82.850  1.00  0.00    -0.507 OA
ATOM     23  H   UNL     1      96.188  98.767  83.506  1.00  0.00     0.293 HD
ENDBRANCH   6  22
BRANCH   8  24
ATOM     24  O   UNL     1      98.380  98.249  78.851  1.00  0.00    -0.508 OA
ATOM     25  H   UNL     1      98.675  97.370  78.441  1.00  0.00     0.293 HD
ENDBRANCH   8  24
TORSDOF 5
ENDMDL
MODEL 9
REMARK VINA RESULT:    -4.871     13.969     15.262
REMARK INTER + INTRA:          -5.993
REMARK INTER:                  -5.696
REMARK INTRA:                  -0.297
REMARK UNBOUND:                -0.269
REMARK SMILES O=c1c(O)c(-c2ccc(O)cc2)oc2cc(O)cc(O)c12
REMARK SMILES IDX 5 1 3 2 2 3 1 4 21 5 19 6 18 7 16 8 15 9 14 10 13 11 6 12
REMARK SMILES IDX 7 13 8 14 9 15 12 16 11 17 10 18 4 20 20 22 17 24
REMARK H PARENT 10 19 4 21 20 23 17 25
REMARK Flexibility Score: inf
ROOT
ATOM      1  C   UNL     1      91.545  85.389  78.000  1.00  0.00     0.180 A 
ATOM      2  C   UNL     1      90.507  85.602  77.077  1.00  0.00     0.208 A 
ATOM      3  C   UNL     1      89.249  86.009  77.549  1.00  0.00     0.238 A 
ATOM      4  O   UNL     1      88.309  86.145  76.723  1.00  0.00    -0.285 OA
ATOM      5  C   UNL     1      89.048  86.214  78.935  1.00  0.00     0.111 A 
ATOM      6  C   UNL     1      87.826  86.664  79.519  1.00  0.00     0.134 A 
ATOM      7  C   UNL     1      87.703  86.707  80.913  1.00  0.00     0.093 A 
ATOM      8  C   UNL     1      88.774  86.377  81.743  1.00  0.00     0.123 A 
ATOM      9  C   UNL     1      89.992  85.993  81.181  1.00  0.00     0.094 A 
ATOM     10  C   UNL     1      90.136  85.906  79.794  1.00  0.00     0.146 A 
ATOM     11  O   UNL     1      91.308  85.525  79.300  1.00  0.00    -0.452 OA
ENDROOT
BRANCH   1  12
ATOM     12  C   UNL     1      92.905  84.983  77.578  1.00  0.00     0.021 A 
ATOM     13  C   UNL     1      93.869  85.935  77.200  1.00  0.00     0.016 A 
ATOM     14  C   UNL     1      95.155  85.529  76.829  1.00  0.00     0.047 A 
ATOM     15  C   UNL     1      95.498  84.174  76.842  1.00  0.00     0.115 A 
ATOM     16  C   UNL     1      93.263  83.625  77.611  1.00  0.00     0.016 A 
ATOM     17  C   UNL     1      94.549  83.223  77.237  1.00  0.00     0.047 A 
BRANCH  15  18
ATOM     18  O   UNL     1      96.782  83.786  76.469  1.00  0.00    -0.508 OA
ATOM     19  H   UNL     1      97.149  82.871  76.707  1.00  0.00     0.293 HD
ENDBRANCH  15  18
ENDBRANCH   1  12
BRANCH   2  20
ATOM     20  O   UNL     1      90.720  85.372  75.715  1.00  0.00    -0.502 OA
ATOM     21  H   UNL     1      89.964  85.166  75.073  1.00  0.00     0.293 HD
ENDBRANCH   2  20
BRANCH   6  22
ATOM     22  O   UNL     1      86.724  87.104  78.781  1.00  0.00    -0.507 OA
ATOM     23  H   UNL     1      86.693  87.164  77.774  1.00  0.00     0.293 HD
ENDBRANCH   6  22
BRANCH   8  24
ATOM     24  O   UNL     1      88.619  86.446  83.125  1.00  0.00    -0.508 OA
ATOM     25  H   UNL     1      88.809  85.648  83.720  1.00  0.00     0.293 HD
ENDBRANCH   8  24
TORSDOF 5
ENDMDL
