MODEL 1
REMARK VINA RESULT:    -6.888      0.000      0.000
REMARK INTER + INTRA:          -8.800
REMARK INTER:                  -8.499
REMARK INTRA:                  -0.301
REMARK UNBOUND:                -0.301
REMARK SMILES Oc1cc(O)c2cc(O)c(-c3cc(O)c(O)c(O)c3)[o+]c2c1
REMARK SMILES IDX 10 1 20 2 21 3 22 4 2 5 3 6 4 7 6 8 7 9 8 10 11 11 12 12
REMARK SMILES IDX 13 13 19 14 15 15 17 16 14 17 16 19 18 21 9 23 1 25 5 27
REMARK H PARENT 14 18 16 20 18 22 9 24 1 26 5 28
REMARK Flexibility Score: inf
ROOT
ATOM      1  C   UNL     1     -39.567  22.639  28.945  1.00  0.00     0.402 A 
ATOM      2  O   UNL     1     -38.685  21.803  29.486  1.00  0.00    -0.202 OA
ATOM      3  C   UNL     1     -37.572  22.207  30.089  1.00  0.00     0.368 A 
ATOM      4  C   UNL     1     -36.707  21.252  30.631  1.00  0.00     0.162 A 
ATOM      5  C   UNL     1     -35.530  21.649  31.273  1.00  0.00     0.128 A 
ATOM      6  C   UNL     1     -35.217  23.007  31.374  1.00  0.00     0.093 A 
ATOM      7  C   UNL     1     -36.067  23.983  30.839  1.00  0.00     0.136 A 
ATOM      8  C   UNL     1     -37.262  23.585  30.185  1.00  0.00     0.125 A 
ATOM      9  C   UNL     1     -38.166  24.492  29.607  1.00  0.00     0.078 A 
ATOM     10  C   UNL     1     -39.321  24.023  28.974  1.00  0.00     0.223 A 
ENDROOT
BRANCH   1  11
ATOM     11  C   UNL     1     -40.776  22.066  28.311  1.00  0.00     0.091 A 
ATOM     12  C   UNL     1     -42.051  22.238  28.876  1.00  0.00     0.068 A 
ATOM     13  C   UNL     1     -43.180  21.671  28.276  1.00  0.00     0.162 A 
ATOM     14  C   UNL     1     -40.644  21.287  27.151  1.00  0.00     0.068 A 
ATOM     15  C   UNL     1     -43.044  20.910  27.102  1.00  0.00     0.200 A 
ATOM     16  C   UNL     1     -41.770  20.716  26.542  1.00  0.00     0.162 A 
BRANCH  13  17
ATOM     17  O   UNL     1     -44.429  21.870  28.864  1.00  0.00    -0.504 OA
ATOM     18  H   UNL     1     -45.284  21.523  28.446  1.00  0.00     0.293 HD
ENDBRANCH  13  17
BRANCH  15  19
ATOM     19  O   UNL     1     -44.176  20.352  26.506  1.00  0.00    -0.502 OA
ATOM     20  H   UNL     1     -44.537  19.446  26.777  1.00  0.00     0.293 HD
ENDBRANCH  15  19
BRANCH  16  21
ATOM     21  O   UNL     1     -41.625  19.955  25.382  1.00  0.00    -0.504 OA
ATOM     22  H   UNL     1     -41.066  20.279  24.602  1.00  0.00     0.293 HD
ENDBRANCH  16  21
ENDBRANCH   1  11
BRANCH  10  23
ATOM     23  O   UNL     1     -40.193  24.921  28.359  1.00  0.00    -0.500 OA
ATOM     24  H   UNL     1     -39.864  25.782  27.939  1.00  0.00     0.294 HD
ENDBRANCH  10  23
BRANCH   5  25
ATOM     25  O   UNL     1     -34.663  20.703  31.815  1.00  0.00    -0.507 OA
ATOM     26  H   UNL     1     -34.798  19.711  31.660  1.00  0.00     0.293 HD
ENDBRANCH   5  25
BRANCH   7  27
ATOM     27  O   UNL     1     -35.684  25.320  30.984  1.00  0.00    -0.507 OA
ATOM     28  H   UNL     1     -36.304  26.062  31.271  1.00  0.00     0.293 HD
ENDBRANCH   7  27
TORSDOF 7
ENDMDL
MODEL 2
REMARK VINA RESULT:    -6.867      0.163      1.802
REMARK INTER + INTRA:          -8.774
REMARK INTER:                  -8.483
REMARK INTRA:                  -0.291
REMARK UNBOUND:                -0.301
REMARK SMILES Oc1cc(O)c2cc(O)c(-c3cc(O)c(O)c(O)c3)[o+]c2c1
REMARK SMILES IDX 10 1 20 2 21 3 22 4 2 5 3 6 4 7 6 8 7 9 8 10 11 11 12 12
REMARK SMILES IDX 13 13 19 14 15 15 17 16 14 17 16 19 18 21 9 23 1 25 5 27
REMARK H PARENT 14 18 16 20 18 22 9 24 1 26 5 28
REMARK Flexibility Score: inf
ROOT
ATOM      1  C   UNL     1     -39.540  22.489  28.907  1.00  0.00     0.402 A 
ATOM      2  O   UNL     1     -38.701  21.667  29.532  1.00  0.00    -0.202 OA
ATOM      3  C   UNL     1     -37.597  22.081  30.145  1.00  0.00     0.368 A 
ATOM      4  C   UNL     1     -36.779  21.142  30.779  1.00  0.00     0.162 A 
ATOM      5  C   UNL     1     -35.612  21.550  31.434  1.00  0.00     0.128 A 
ATOM      6  C   UNL     1     -35.264  22.902  31.456  1.00  0.00     0.093 A 
ATOM      7  C   UNL     1     -36.068  23.863  30.829  1.00  0.00     0.136 A 
ATOM      8  C   UNL     1     -37.251  23.454  30.161  1.00  0.00     0.125 A 
ATOM      9  C   UNL     1     -38.109  24.344  29.495  1.00  0.00     0.078 A 
ATOM     10  C   UNL     1     -39.255  23.865  28.853  1.00  0.00     0.223 A 
ENDROOT
BRANCH   1  11
ATOM     11  C   UNL     1     -40.743  21.907  28.269  1.00  0.00     0.091 A 
ATOM     12  C   UNL     1     -40.651  21.146  27.091  1.00  0.00     0.068 A 
ATOM     13  C   UNL     1     -41.799  20.623  26.488  1.00  0.00     0.162 A 
ATOM     14  C   UNL     1     -42.009  22.167  28.816  1.00  0.00     0.068 A 
ATOM     15  C   UNL     1     -43.063  20.867  27.054  1.00  0.00     0.200 A 
ATOM     16  C   UNL     1     -43.166  21.645  28.220  1.00  0.00     0.162 A 
BRANCH  13  17
ATOM     17  O   UNL     1     -41.666  19.867  25.324  1.00  0.00    -0.504 OA
ATOM     18  H   UNL     1     -41.937  18.891  25.280  1.00  0.00     0.293 HD
ENDBRANCH  13  17
BRANCH  15  19
ATOM     19  O   UNL     1     -44.203  20.337  26.450  1.00  0.00    -0.502 OA
ATOM     20  H   UNL     1     -44.814  19.685  26.927  1.00  0.00     0.293 HD
ENDBRANCH  15  19
BRANCH  16  21
ATOM     21  O   UNL     1     -44.416  21.898  28.783  1.00  0.00    -0.504 OA
ATOM     22  H   UNL     1     -44.669  21.540  29.696  1.00  0.00     0.293 HD
ENDBRANCH  16  21
ENDBRANCH   1  11
BRANCH  10  23
ATOM     23  O   UNL     1     -40.081  24.743  28.150  1.00  0.00    -0.500 OA
ATOM     24  H   UNL     1     -39.994  24.870  27.149  1.00  0.00     0.294 HD
ENDBRANCH  10  23
BRANCH   5  25
ATOM     25  O   UNL     1     -34.791  20.619  32.067  1.00  0.00    -0.507 OA
ATOM     26  H   UNL     1     -34.470  19.785  31.589  1.00  0.00     0.293 HD
ENDBRANCH   5  25
BRANCH   7  27
ATOM     27  O   UNL     1     -35.652  25.196  30.900  1.00  0.00    -0.507 OA
ATOM     28  H   UNL     1     -35.279  25.719  30.122  1.00  0.00     0.293 HD
ENDBRANCH   7  27
TORSDOF 7
ENDMDL
MODEL 3
REMARK VINA RESULT:    -6.714     10.153     11.337
REMARK INTER + INTRA:          -8.585
REMARK INTER:                  -8.205
REMARK INTRA:                  -0.380
REMARK UNBOUND:                -0.301
REMARK SMILES Oc1cc(O)c2cc(O)c(-c3cc(O)c(O)c(O)c3)[o+]c2c1
REMARK SMILES IDX 10 1 20 2 21 3 22 4 2 5 3 6 4 7 6 8 7 9 8 10 11 11 12 12
REMARK SMILES IDX 13 13 19 14 15 15 17 16 14 17 16 19 18 21 9 23 1 25 5 27
REMARK H PARENT 14 18 16 20 18 22 9 24 1 26 5 28
REMARK Flexibility Score: inf
ROOT
ATOM      1  C   UNL     1     -36.573  22.679  18.522  1.00  0.00     0.402 A 
ATOM      2  O   UNL     1     -35.733  23.711  18.524  1.00  0.00    -0.202 OA
ATOM      3  C   UNL     1     -34.666  23.782  19.313  1.00  0.00     0.368 A 
ATOM      4  C   UNL     1     -33.840  24.906  19.240  1.00  0.00     0.162 A 
ATOM      5  C   UNL     1     -32.709  25.005  20.057  1.00  0.00     0.128 A 
ATOM      6  C   UNL     1     -32.404  23.976  20.950  1.00  0.00     0.093 A 
ATOM      7  C   UNL     1     -33.216  22.839  21.042  1.00  0.00     0.136 A 
ATOM      8  C   UNL     1     -34.366  22.734  20.216  1.00  0.00     0.125 A 
ATOM      9  C   UNL     1     -35.244  21.638  20.251  1.00  0.00     0.078 A 
ATOM     10  C   UNL     1     -36.360  21.609  19.410  1.00  0.00     0.223 A 
ENDROOT
BRANCH   1  11
ATOM     11  C   UNL     1     -37.721  22.713  17.588  1.00  0.00     0.091 A 
ATOM     12  C   UNL     1     -38.962  23.248  17.974  1.00  0.00     0.068 A 
ATOM     13  C   UNL     1     -40.043  23.251  17.087  1.00  0.00     0.162 A 
ATOM     14  C   UNL     1     -37.588  22.148  16.310  1.00  0.00     0.068 A 
ATOM     15  C   UNL     1     -39.898  22.705  15.799  1.00  0.00     0.200 A 
ATOM     16  C   UNL     1     -38.666  22.148  15.414  1.00  0.00     0.162 A 
BRANCH  13  17
ATOM     17  O   UNL     1     -41.257  23.797  17.504  1.00  0.00    -0.504 OA
ATOM     18  H   UNL     1     -42.134  23.300  17.405  1.00  0.00     0.293 HD
ENDBRANCH  13  17
BRANCH  15  19
ATOM     19  O   UNL     1     -40.980  22.717  14.919  1.00  0.00    -0.502 OA
ATOM     20  H   UNL     1     -41.355  21.869  14.512  1.00  0.00     0.293 HD
ENDBRANCH  15  19
BRANCH  16  21
ATOM     21  O   UNL     1     -38.516  21.597  14.142  1.00  0.00    -0.504 OA
ATOM     22  H   UNL     1     -39.036  21.949  13.347  1.00  0.00     0.293 HD
ENDBRANCH  16  21
ENDBRANCH   1  11
BRANCH  10  23
ATOM     23  O   UNL     1     -37.258  20.543  19.478  1.00  0.00    -0.500 OA
ATOM     24  H   UNL     1     -37.663  20.243  20.357  1.00  0.00     0.294 HD
ENDBRANCH  10  23
BRANCH   5  25
ATOM     25  O   UNL     1     -31.881  26.124  19.990  1.00  0.00    -0.507 OA
ATOM     26  H   UNL     1     -32.134  26.938  19.441  1.00  0.00     0.293 HD
ENDBRANCH   5  25
BRANCH   7  27
ATOM     27  O   UNL     1     -32.840  21.852  21.958  1.00  0.00    -0.507 OA
ATOM     28  H   UNL     1     -32.156  21.982  22.688  1.00  0.00     0.293 HD
ENDBRANCH   7  27
TORSDOF 7
ENDMDL
MODEL 4
REMARK VINA RESULT:    -6.709     10.134     13.117
REMARK INTER + INTRA:          -8.580
REMARK INTER:                  -8.255
REMARK INTRA:                  -0.325
REMARK UNBOUND:                -0.301
REMARK SMILES Oc1cc(O)c2cc(O)c(-c3cc(O)c(O)c(O)c3)[o+]c2c1
REMARK SMILES IDX 10 1 20 2 21 3 22 4 2 5 3 6 4 7 6 8 7 9 8 10 11 11 12 12
REMARK SMILES IDX 13 13 19 14 15 15 17 16 14 17 16 19 18 21 9 23 1 25 5 27
REMARK H PARENT 14 18 16 20 18 22 9 24 1 26 5 28
REMARK Flexibility Score: inf
ROOT
ATOM      1  C   UNL     1     -35.923  23.034  18.523  1.00  0.00     0.402 A 
ATOM      2  O   UNL     1     -37.094  23.647  18.675  1.00  0.00    -0.202 OA
ATOM      3  C   UNL     1     -38.121  23.473  17.849  1.00  0.00     0.368 A 
ATOM      4  C   UNL     1     -39.313  24.159  18.094  1.00  0.00     0.162 A 
ATOM      5  C   UNL     1     -40.410  23.993  17.242  1.00  0.00     0.128 A 
ATOM      6  C   UNL     1     -40.314  23.137  16.143  1.00  0.00     0.093 A 
ATOM      7  C   UNL     1     -39.130  22.439  15.876  1.00  0.00     0.136 A 
ATOM      8  C   UNL     1     -38.013  22.605  16.736  1.00  0.00     0.125 A 
ATOM      9  C   UNL     1     -36.783  21.957  16.538  1.00  0.00     0.078 A 
ATOM     10  C   UNL     1     -35.725  22.175  17.427  1.00  0.00     0.223 A 
ENDROOT
BRANCH   1  11
ATOM     11  C   UNL     1     -34.859  23.302  19.516  1.00  0.00     0.091 A 
ATOM     12  C   UNL     1     -34.482  22.334  20.464  1.00  0.00     0.068 A 
ATOM     13  C   UNL     1     -33.491  22.612  21.411  1.00  0.00     0.162 A 
ATOM     14  C   UNL     1     -34.251  24.566  19.553  1.00  0.00     0.068 A 
ATOM     15  C   UNL     1     -32.869  23.873  21.428  1.00  0.00     0.200 A 
ATOM     16  C   UNL     1     -33.255  24.852  20.498  1.00  0.00     0.162 A 
BRANCH  13  17
ATOM     17  O   UNL     1     -33.140  21.624  22.330  1.00  0.00    -0.504 OA
ATOM     18  H   UNL     1     -32.761  20.729  22.042  1.00  0.00     0.293 HD
ENDBRANCH  13  17
BRANCH  15  19
ATOM     19  O   UNL     1     -31.877  24.140  22.372  1.00  0.00    -0.502 OA
ATOM     20  H   UNL     1     -31.033  24.649  22.139  1.00  0.00     0.293 HD
ENDBRANCH  15  19
BRANCH  16  21
ATOM     21  O   UNL     1     -32.648  26.108  20.513  1.00  0.00    -0.504 OA
ATOM     22  H   UNL     1     -32.675  26.720  19.707  1.00  0.00     0.293 HD
ENDBRANCH  16  21
ENDBRANCH   1  11
BRANCH  10  23
ATOM     23  O   UNL     1     -34.489  21.569  17.203  1.00  0.00    -0.500 OA
ATOM     24  H   UNL     1     -33.656  22.112  17.005  1.00  0.00     0.294 HD
ENDBRANCH  10  23
BRANCH   5  25
ATOM     25  O   UNL     1     -41.603  24.675  17.480  1.00  0.00    -0.507 OA
ATOM     26  H   UNL     1     -42.306  24.778  16.759  1.00  0.00     0.293 HD
ENDBRANCH   5  25
BRANCH   7  27
ATOM     27  O   UNL     1     -39.116  21.600  14.758  1.00  0.00    -0.507 OA
ATOM     28  H   UNL     1     -39.862  20.969  14.509  1.00  0.00     0.293 HD
ENDBRANCH   7  27
TORSDOF 7
ENDMDL
MODEL 5
REMARK VINA RESULT:    -6.545     10.277     11.248
REMARK INTER + INTRA:          -8.377
REMARK INTER:                  -8.021
REMARK INTRA:                  -0.356
REMARK UNBOUND:                -0.301
REMARK SMILES Oc1cc(O)c2cc(O)c(-c3cc(O)c(O)c(O)c3)[o+]c2c1
REMARK SMILES IDX 10 1 20 2 21 3 22 4 2 5 3 6 4 7 6 8 7 9 8 10 11 11 12 12
REMARK SMILES IDX 13 13 19 14 15 15 17 16 14 17 16 19 18 21 9 23 1 25 5 27
REMARK H PARENT 14 18 16 20 18 22 9 24 1 26 5 28
REMARK Flexibility Score: inf
ROOT
ATOM      1  C   UNL     1     -36.403  23.918  18.302  1.00  0.00     0.402 A 
ATOM      2  O   UNL     1     -35.882  23.027  19.141  1.00  0.00    -0.202 OA
ATOM      3  C   UNL     1     -34.831  23.280  19.915  1.00  0.00     0.368 A 
ATOM      4  C   UNL     1     -34.358  22.280  20.767  1.00  0.00     0.162 A 
ATOM      5  C   UNL     1     -33.255  22.520  21.594  1.00  0.00     0.128 A 
ATOM      6  C   UNL     1     -32.625  23.766  21.567  1.00  0.00     0.093 A 
ATOM      7  C   UNL     1     -33.080  24.785  20.721  1.00  0.00     0.136 A 
ATOM      8  C   UNL     1     -34.197  24.546  19.879  1.00  0.00     0.125 A 
ATOM      9  C   UNL     1     -34.713  25.503  18.990  1.00  0.00     0.078 A 
ATOM     10  C   UNL     1     -35.815  25.191  18.187  1.00  0.00     0.223 A 
ENDROOT
BRANCH   1  11
ATOM     11  C   UNL     1     -37.581  23.519  17.501  1.00  0.00     0.091 A 
ATOM     12  C   UNL     1     -37.443  22.773  16.317  1.00  0.00     0.068 A 
ATOM     13  C   UNL     1     -38.565  22.425  15.559  1.00  0.00     0.162 A 
ATOM     14  C   UNL     1     -38.860  23.940  17.896  1.00  0.00     0.068 A 
ATOM     15  C   UNL     1     -39.846  22.830  15.972  1.00  0.00     0.200 A 
ATOM     16  C   UNL     1     -39.991  23.593  17.143  1.00  0.00     0.162 A 
BRANCH  13  17
ATOM     17  O   UNL     1     -38.387  21.678  14.394  1.00  0.00    -0.504 OA
ATOM     18  H   UNL     1     -38.148  20.694  14.416  1.00  0.00     0.293 HD
ENDBRANCH  13  17
BRANCH  15  19
ATOM     19  O   UNL     1     -40.961  22.472  15.214  1.00  0.00    -0.502 OA
ATOM     20  H   UNL     1     -40.900  21.829  14.434  1.00  0.00     0.293 HD
ENDBRANCH  15  19
BRANCH  16  21
ATOM     21  O   UNL     1     -41.258  24.006  17.556  1.00  0.00    -0.504 OA
ATOM     22  H   UNL     1     -42.098  23.679  17.096  1.00  0.00     0.293 HD
ENDBRANCH  16  21
ENDBRANCH   1  11
BRANCH  10  23
ATOM     23  O   UNL     1     -36.297  26.125  17.270  1.00  0.00    -0.500 OA
ATOM     24  H   UNL     1     -37.127  26.676  17.456  1.00  0.00     0.294 HD
ENDBRANCH  10  23
BRANCH   5  25
ATOM     25  O   UNL     1     -32.778  21.526  22.446  1.00  0.00    -0.507 OA
ATOM     26  H   UNL     1     -33.407  20.910  22.946  1.00  0.00     0.293 HD
ENDBRANCH   5  25
BRANCH   7  27
ATOM     27  O   UNL     1     -32.396  26.004  20.756  1.00  0.00    -0.507 OA
ATOM     28  H   UNL     1     -32.300  26.581  21.578  1.00  0.00     0.293 HD
ENDBRANCH   7  27
TORSDOF 7
ENDMDL
MODEL 6
REMARK VINA RESULT:    -6.521      2.017      3.189
REMARK INTER + INTRA:          -8.347
REMARK INTER:                  -7.973
REMARK INTRA:                  -0.374
REMARK UNBOUND:                -0.301
REMARK SMILES Oc1cc(O)c2cc(O)c(-c3cc(O)c(O)c(O)c3)[o+]c2c1
REMARK SMILES IDX 10 1 20 2 21 3 22 4 2 5 3 6 4 7 6 8 7 9 8 10 11 11 12 12
REMARK SMILES IDX 13 13 19 14 15 15 17 16 14 17 16 19 18 21 9 23 1 25 5 27
REMARK H PARENT 14 18 16 20 18 22 9 24 1 26 5 28
REMARK Flexibility Score: inf
ROOT
ATOM      1  C   UNL     1     -39.382  22.952  28.081  1.00  0.00     0.402 A 
ATOM      2  O   UNL     1     -39.057  23.923  28.930  1.00  0.00    -0.202 OA
ATOM      3  C   UNL     1     -37.921  23.939  29.620  1.00  0.00     0.368 A 
ATOM      4  C   UNL     1     -37.666  25.005  30.485  1.00  0.00     0.162 A 
ATOM      5  C   UNL     1     -36.478  25.048  31.222  1.00  0.00     0.128 A 
ATOM      6  C   UNL     1     -35.541  24.020  31.091  1.00  0.00     0.093 A 
ATOM      7  C   UNL     1     -35.774  22.940  30.231  1.00  0.00     0.136 A 
ATOM      8  C   UNL     1     -36.979  22.891  29.482  1.00  0.00     0.125 A 
ATOM      9  C   UNL     1     -37.302  21.841  28.606  1.00  0.00     0.078 A 
ATOM     10  C   UNL     1     -38.513  21.860  27.907  1.00  0.00     0.223 A 
ENDROOT
BRANCH   1  11
ATOM     11  C   UNL     1     -40.673  23.054  27.363  1.00  0.00     0.091 A 
ATOM     12  C   UNL     1     -40.790  23.788  26.170  1.00  0.00     0.068 A 
ATOM     13  C   UNL     1     -42.022  23.894  25.516  1.00  0.00     0.162 A 
ATOM     14  C   UNL     1     -41.817  22.454  27.911  1.00  0.00     0.068 A 
ATOM     15  C   UNL     1     -43.161  23.272  26.058  1.00  0.00     0.200 A 
ATOM     16  C   UNL     1     -43.056  22.554  27.261  1.00  0.00     0.162 A 
BRANCH  13  17
ATOM     17  O   UNL     1     -42.097  24.626  24.332  1.00  0.00    -0.504 OA
ATOM     18  H   UNL     1     -42.793  25.348  24.187  1.00  0.00     0.293 HD
ENDBRANCH  13  17
BRANCH  15  19
ATOM     19  O   UNL     1     -44.385  23.377  25.397  1.00  0.00    -0.502 OA
ATOM     20  H   UNL     1     -45.267  23.400  25.893  1.00  0.00     0.293 HD
ENDBRANCH  15  19
BRANCH  16  21
ATOM     21  O   UNL     1     -44.182  21.940  27.809  1.00  0.00    -0.504 OA
ATOM     22  H   UNL     1     -44.166  20.974  28.112  1.00  0.00     0.293 HD
ENDBRANCH  16  21
ENDBRANCH   1  11
BRANCH  10  23
ATOM     23  O   UNL     1     -38.855  20.795  27.074  1.00  0.00    -0.500 OA
ATOM     24  H   UNL     1     -38.889  19.841  27.415  1.00  0.00     0.294 HD
ENDBRANCH  10  23
BRANCH   5  25
ATOM     25  O   UNL     1     -36.217  26.108  32.088  1.00  0.00    -0.507 OA
ATOM     26  H   UNL     1     -36.528  26.093  33.052  1.00  0.00     0.293 HD
ENDBRANCH   5  25
BRANCH   7  27
ATOM     27  O   UNL     1     -34.786  21.953  30.154  1.00  0.00    -0.507 OA
ATOM     28  H   UNL     1     -34.820  21.159  29.534  1.00  0.00     0.293 HD
ENDBRANCH   7  27
TORSDOF 7
ENDMDL
MODEL 7
REMARK VINA RESULT:    -6.501      2.082      2.921
REMARK INTER + INTRA:          -8.322
REMARK INTER:                  -7.943
REMARK INTRA:                  -0.380
REMARK UNBOUND:                -0.301
REMARK SMILES Oc1cc(O)c2cc(O)c(-c3cc(O)c(O)c(O)c3)[o+]c2c1
REMARK SMILES IDX 10 1 20 2 21 3 22 4 2 5 3 6 4 7 6 8 7 9 8 10 11 11 12 12
REMARK SMILES IDX 13 13 19 14 15 15 17 16 14 17 16 19 18 21 9 23 1 25 5 27
REMARK H PARENT 14 18 16 20 18 22 9 24 1 26 5 28
REMARK Flexibility Score: inf
ROOT
ATOM      1  C   UNL     1     -39.254  23.060  28.018  1.00  0.00     0.402 A 
ATOM      2  O   UNL     1     -38.923  24.002  28.897  1.00  0.00    -0.202 OA
ATOM      3  C   UNL     1     -37.764  24.019  29.547  1.00  0.00     0.368 A 
ATOM      4  C   UNL     1     -37.506  25.053  30.450  1.00  0.00     0.162 A 
ATOM      5  C   UNL     1     -36.293  25.096  31.146  1.00  0.00     0.128 A 
ATOM      6  C   UNL     1     -35.336  24.101  30.937  1.00  0.00     0.093 A 
ATOM      7  C   UNL     1     -35.571  23.053  30.038  1.00  0.00     0.136 A 
ATOM      8  C   UNL     1     -36.801  23.004  29.330  1.00  0.00     0.125 A 
ATOM      9  C   UNL     1     -37.128  21.985  28.420  1.00  0.00     0.078 A 
ATOM     10  C   UNL     1     -38.363  22.002  27.765  1.00  0.00     0.223 A 
ENDROOT
BRANCH   1  11
ATOM     11  C   UNL     1     -40.572  23.158  27.350  1.00  0.00     0.091 A 
ATOM     12  C   UNL     1     -41.713  22.539  27.890  1.00  0.00     0.068 A 
ATOM     13  C   UNL     1     -42.946  22.622  27.234  1.00  0.00     0.162 A 
ATOM     14  C   UNL     1     -40.677  23.833  26.124  1.00  0.00     0.068 A 
ATOM     15  C   UNL     1     -43.050  23.319  26.018  1.00  0.00     0.200 A 
ATOM     16  C   UNL     1     -41.909  23.922  25.461  1.00  0.00     0.162 A 
BRANCH  13  17
ATOM     17  O   UNL     1     -44.056  22.000  27.805  1.00  0.00    -0.504 OA
ATOM     18  H   UNL     1     -45.005  22.267  27.568  1.00  0.00     0.293 HD
ENDBRANCH  13  17
BRANCH  15  19
ATOM     19  O   UNL     1     -44.284  23.402  25.373  1.00  0.00    -0.502 OA
ATOM     20  H   UNL     1     -45.039  22.754  25.566  1.00  0.00     0.293 HD
ENDBRANCH  15  19
BRANCH  16  21
ATOM     21  O   UNL     1     -42.002  24.609  24.251  1.00  0.00    -0.504 OA
ATOM     22  H   UNL     1     -41.376  24.412  23.480  1.00  0.00     0.293 HD
ENDBRANCH  16  21
ENDBRANCH   1  11
BRANCH  10  23
ATOM     23  O   UNL     1     -38.708  20.964  26.898  1.00  0.00    -0.500 OA
ATOM     24  H   UNL     1     -38.009  20.464  26.361  1.00  0.00     0.294 HD
ENDBRANCH  10  23
BRANCH   5  25
ATOM     25  O   UNL     1     -36.029  26.124  32.048  1.00  0.00    -0.507 OA
ATOM     26  H   UNL     1     -35.928  27.085  31.742  1.00  0.00     0.293 HD
ENDBRANCH   5  25
BRANCH   7  27
ATOM     27  O   UNL     1     -34.562  22.099  29.883  1.00  0.00    -0.507 OA
ATOM     28  H   UNL     1     -33.662  22.282  29.464  1.00  0.00     0.293 HD
ENDBRANCH   7  27
TORSDOF 7
ENDMDL
MODEL 8
REMARK VINA RESULT:    -6.352      1.442      2.530
REMARK INTER + INTRA:          -8.139
REMARK INTER:                  -7.898
REMARK INTRA:                  -0.240
REMARK UNBOUND:                -0.301
REMARK SMILES Oc1cc(O)c2cc(O)c(-c3cc(O)c(O)c(O)c3)[o+]c2c1
REMARK SMILES IDX 10 1 20 2 21 3 22 4 2 5 3 6 4 7 6 8 7 9 8 10 11 11 12 12
REMARK SMILES IDX 13 13 19 14 15 15 17 16 14 17 16 19 18 21 9 23 1 25 5 27
REMARK H PARENT 14 18 16 20 18 22 9 24 1 26 5 28
REMARK Flexibility Score: inf
ROOT
ATOM      1  C   UNL     1     -39.343  22.357  28.869  1.00  0.00     0.402 A 
ATOM      2  O   UNL     1     -38.612  23.249  28.204  1.00  0.00    -0.202 OA
ATOM      3  C   UNL     1     -37.463  23.737  28.661  1.00  0.00     0.368 A 
ATOM      4  C   UNL     1     -36.765  24.667  27.887  1.00  0.00     0.162 A 
ATOM      5  C   UNL     1     -35.553  25.196  28.343  1.00  0.00     0.128 A 
ATOM      6  C   UNL     1     -35.037  24.790  29.575  1.00  0.00     0.093 A 
ATOM      7  C   UNL     1     -35.718  23.858  30.369  1.00  0.00     0.136 A 
ATOM      8  C   UNL     1     -36.950  23.321  29.913  1.00  0.00     0.125 A 
ATOM      9  C   UNL     1     -37.707  22.393  30.647  1.00  0.00     0.078 A 
ATOM     10  C   UNL     1     -38.915  21.913  30.133  1.00  0.00     0.223 A 
ENDROOT
BRANCH   1  11
ATOM     11  C   UNL     1     -40.600  21.881  28.249  1.00  0.00     0.091 A 
ATOM     12  C   UNL     1     -41.853  22.185  28.811  1.00  0.00     0.068 A 
ATOM     13  C   UNL     1     -43.030  21.708  28.226  1.00  0.00     0.162 A 
ATOM     14  C   UNL     1     -40.543  21.063  27.111  1.00  0.00     0.068 A 
ATOM     15  C   UNL     1     -42.968  20.907  27.072  1.00  0.00     0.200 A 
ATOM     16  C   UNL     1     -41.718  20.582  26.517  1.00  0.00     0.162 A 
BRANCH  13  17
ATOM     17  O   UNL     1     -44.254  22.037  28.809  1.00  0.00    -0.504 OA
ATOM     18  H   UNL     1     -44.377  22.086  29.814  1.00  0.00     0.293 HD
ENDBRANCH  13  17
BRANCH  15  19
ATOM     19  O   UNL     1     -44.148  20.441  26.492  1.00  0.00    -0.502 OA
ATOM     20  H   UNL     1     -44.180  19.591  25.942  1.00  0.00     0.293 HD
ENDBRANCH  15  19
BRANCH  16  21
ATOM     21  O   UNL     1     -41.647  19.782  25.377  1.00  0.00    -0.504 OA
ATOM     22  H   UNL     1     -40.794  19.699  24.839  1.00  0.00     0.293 HD
ENDBRANCH  16  21
ENDBRANCH   1  11
BRANCH  10  23
ATOM     23  O   UNL     1     -39.691  21.029  30.883  1.00  0.00    -0.500 OA
ATOM     24  H   UNL     1     -40.546  21.324  31.339  1.00  0.00     0.294 HD
ENDBRANCH  10  23
BRANCH   5  25
ATOM     25  O   UNL     1     -34.851  26.125  27.577  1.00  0.00    -0.507 OA
ATOM     26  H   UNL     1     -34.579  27.025  27.955  1.00  0.00     0.293 HD
ENDBRANCH   5  25
BRANCH   7  27
ATOM     27  O   UNL     1     -35.133  23.502  31.588  1.00  0.00    -0.507 OA
ATOM     28  H   UNL     1     -34.353  23.983  32.009  1.00  0.00     0.293 HD
ENDBRANCH   7  27
TORSDOF 7
ENDMDL
MODEL 9
REMARK VINA RESULT:    -6.320      1.819      2.815
REMARK INTER + INTRA:          -8.099
REMARK INTER:                  -7.929
REMARK INTRA:                  -0.170
REMARK UNBOUND:                -0.301
REMARK SMILES Oc1cc(O)c2cc(O)c(-c3cc(O)c(O)c(O)c3)[o+]c2c1
REMARK SMILES IDX 10 1 20 2 21 3 22 4 2 5 3 6 4 7 6 8 7 9 8 10 11 11 12 12
REMARK SMILES IDX 13 13 19 14 15 15 17 16 14 17 16 19 18 21 9 23 1 25 5 27
REMARK H PARENT 14 18 16 20 18 22 9 24 1 26 5 28
REMARK Flexibility Score: inf
ROOT
ATOM      1  C   UNL     1     -39.194  22.051  28.260  1.00  0.00     0.402 A 
ATOM      2  O   UNL     1     -39.141  23.020  29.171  1.00  0.00    -0.202 OA
ATOM      3  C   UNL     1     -38.002  23.532  29.626  1.00  0.00     0.368 A 
ATOM      4  C   UNL     1     -38.049  24.551  30.581  1.00  0.00     0.162 A 
ATOM      5  C   UNL     1     -36.865  25.109  31.076  1.00  0.00     0.128 A 
ATOM      6  C   UNL     1     -35.632  24.646  30.613  1.00  0.00     0.093 A 
ATOM      7  C   UNL     1     -35.559  23.625  29.657  1.00  0.00     0.136 A 
ATOM      8  C   UNL     1     -36.756  23.054  29.153  1.00  0.00     0.125 A 
ATOM      9  C   UNL     1     -36.779  22.019  28.204  1.00  0.00     0.078 A 
ATOM     10  C   UNL     1     -38.000  21.503  27.758  1.00  0.00     0.223 A 
ENDROOT
BRANCH   1  11
ATOM     11  C   UNL     1     -40.525  21.572  27.825  1.00  0.00     0.091 A 
ATOM     12  C   UNL     1     -40.915  20.233  28.003  1.00  0.00     0.068 A 
ATOM     13  C   UNL     1     -42.167  19.791  27.565  1.00  0.00     0.162 A 
ATOM     14  C   UNL     1     -41.397  22.455  27.170  1.00  0.00     0.068 A 
ATOM     15  C   UNL     1     -43.046  20.686  26.929  1.00  0.00     0.200 A 
ATOM     16  C   UNL     1     -42.655  22.021  26.729  1.00  0.00     0.162 A 
BRANCH  13  17
ATOM     17  O   UNL     1     -42.520  18.457  27.765  1.00  0.00    -0.504 OA
ATOM     18  H   UNL     1     -42.656  18.068  28.691  1.00  0.00     0.293 HD
ENDBRANCH  13  17
BRANCH  15  19
ATOM     19  O   UNL     1     -44.296  20.239  26.501  1.00  0.00    -0.502 OA
ATOM     20  H   UNL     1     -44.413  19.688  25.658  1.00  0.00     0.293 HD
ENDBRANCH  15  19
BRANCH  16  21
ATOM     21  O   UNL     1     -43.517  22.913  26.092  1.00  0.00    -0.504 OA
ATOM     22  H   UNL     1     -44.521  22.863  26.219  1.00  0.00     0.293 HD
ENDBRANCH  16  21
ENDBRANCH   1  11
BRANCH  10  23
ATOM     23  O   UNL     1     -38.021  20.443  26.852  1.00  0.00    -0.500 OA
ATOM     24  H   UNL     1     -37.168  20.047  26.474  1.00  0.00     0.294 HD
ENDBRANCH  10  23
BRANCH   5  25
ATOM     25  O   UNL     1     -36.904  26.125  32.028  1.00  0.00    -0.507 OA
ATOM     26  H   UNL     1     -37.566  26.106  32.796  1.00  0.00     0.293 HD
ENDBRANCH   5  25
BRANCH   7  27
ATOM     27  O   UNL     1     -34.286  23.221  29.243  1.00  0.00    -0.507 OA
ATOM     28  H   UNL     1     -33.425  23.507  29.684  1.00  0.00     0.293 HD
ENDBRANCH   7  27
TORSDOF 7
ENDMDL
