MODEL 1
REMARK VINA RESULT:    -4.620      0.000      0.000
REMARK INTER + INTRA:          -7.028
REMARK INTER:                  -5.701
REMARK INTRA:                  -1.327
REMARK UNBOUND:                -1.327
REMARK SMILES CC(C)=CCC[C@@H](C)c1ccc(C)cc1
REMARK SMILES IDX 6 1 7 2 8 3 9 4 13 5 12 6 11 7 14 8 10 9 15 10 5 11 4 12
REMARK SMILES IDX 2 13 1 14 3 15
REMARK H PARENT
REMARK Flexibility Score: inf
ROOT
ATOM      1  C   UNL     1     127.591 146.043 120.389  1.00  0.00     0.012 C 
ENDROOT
BRANCH   1   2
ATOM      2  C   UNL     1     128.409 144.880 119.780  1.00  0.00     0.016 C 
ATOM      3  C   UNL     1     127.975 144.540 118.346  1.00  0.00     0.013 C 
BRANCH   2   4
ATOM      4  C   UNL     1     129.892 145.208 119.820  1.00  0.00    -0.045 A 
ATOM      5  C   UNL     1     134.102 146.173 119.870  1.00  0.00     0.044 C 
ATOM      6  C   UNL     1     132.640 145.838 119.883  1.00  0.00    -0.051 A 
ATOM      7  C   UNL     1     132.222 144.500 119.890  1.00  0.00     0.004 A 
ATOM      8  C   UNL     1     131.681 146.859 119.817  1.00  0.00     0.004 A 
ATOM      9  C   UNL     1     130.859 144.186 119.864  1.00  0.00     0.004 A 
ATOM     10  C   UNL     1     130.318 146.547 119.790  1.00  0.00     0.004 A 
ENDBRANCH   2   4
ENDBRANCH   1   2
BRANCH   1  11
ATOM     11  C   UNL     1     127.187 145.819 121.861  1.00  0.00     0.028 C 
BRANCH  11  12
ATOM     12  C   UNL     1     128.152 146.468 122.826  1.00  0.00    -0.028 C 
ATOM     13  C   UNL     1     129.140 145.812 123.476  1.00  0.00    -0.080 C 
ATOM     14  C   UNL     1     129.347 144.323 123.328  1.00  0.00     0.039 C 
ATOM     15  C   UNL     1     130.037 146.599 124.397  1.00  0.00     0.039 C 
ENDBRANCH  11  12
ENDBRANCH   1  11
TORSDOF 4
ENDMDL
MODEL 2
REMARK VINA RESULT:    -4.576      1.074      2.082
REMARK INTER + INTRA:          -6.973
REMARK INTER:                  -5.650
REMARK INTRA:                  -1.323
REMARK UNBOUND:                -1.327
REMARK SMILES CC(C)=CCC[C@@H](C)c1ccc(C)cc1
REMARK SMILES IDX 6 1 7 2 8 3 9 4 13 5 12 6 11 7 14 8 10 9 15 10 5 11 4 12
REMARK SMILES IDX 2 13 1 14 3 15
REMARK H PARENT
REMARK Flexibility Score: inf
ROOT
ATOM      1  C   UNL     1     128.174 143.003 120.136  1.00  0.00     0.012 C 
ENDROOT
BRANCH   1   2
ATOM      2  C   UNL     1     128.677 143.936 119.008  1.00  0.00     0.016 C 
ATOM      3  C   UNL     1     127.629 144.981 118.596  1.00  0.00     0.013 C 
BRANCH   2   4
ATOM      4  C   UNL     1     129.966 144.619 119.431  1.00  0.00    -0.045 A 
ATOM      5  C   UNL     1     133.631 146.525 120.693  1.00  0.00     0.044 C 
ATOM      6  C   UNL     1     132.368 145.866 120.226  1.00  0.00    -0.051 A 
ATOM      7  C   UNL     1     131.223 146.634 119.971  1.00  0.00     0.004 A 
ATOM      8  C   UNL     1     132.299 144.470 120.109  1.00  0.00     0.004 A 
ATOM      9  C   UNL     1     130.033 146.018 119.572  1.00  0.00     0.004 A 
ATOM     10  C   UNL     1     131.111 143.852 119.710  1.00  0.00     0.004 A 
ENDBRANCH   2   4
ENDBRANCH   1   2
BRANCH   1  11
ATOM     11  C   UNL     1     127.262 143.704 121.164  1.00  0.00     0.028 C 
BRANCH  11  12
ATOM     12  C   UNL     1     128.050 144.441 122.221  1.00  0.00    -0.028 C 
ATOM     13  C   UNL     1     127.890 145.750 122.520  1.00  0.00    -0.080 C 
ATOM     14  C   UNL     1     126.916 146.630 121.772  1.00  0.00     0.039 C 
ATOM     15  C   UNL     1     128.738 146.345 123.614  1.00  0.00     0.039 C 
ENDBRANCH  11  12
ENDBRANCH   1  11
TORSDOF 4
ENDMDL
MODEL 3
REMARK VINA RESULT:    -4.491      1.103      4.024
REMARK INTER + INTRA:          -6.868
REMARK INTER:                  -5.373
REMARK INTRA:                  -1.495
REMARK UNBOUND:                -1.327
REMARK SMILES CC(C)=CCC[C@@H](C)c1ccc(C)cc1
REMARK SMILES IDX 6 1 7 2 8 3 9 4 13 5 12 6 11 7 14 8 10 9 15 10 5 11 4 12
REMARK SMILES IDX 2 13 1 14 3 15
REMARK H PARENT
REMARK Flexibility Score: inf
ROOT
ATOM      1  C   UNL     1     127.288 145.278 119.770  1.00  0.00     0.012 C 
ENDROOT
BRANCH   1   2
ATOM      2  C   UNL     1     127.241 144.358 121.014  1.00  0.00     0.016 C 
ATOM      3  C   UNL     1     127.751 142.940 120.717  1.00  0.00     0.013 C 
BRANCH   2   4
ATOM      4  C   UNL     1     128.034 144.978 122.152  1.00  0.00    -0.045 A 
ATOM      5  C   UNL     1     130.305 146.793 125.346  1.00  0.00     0.044 C 
ATOM      6  C   UNL     1     129.498 146.150 124.258  1.00  0.00    -0.051 A 
ATOM      7  C   UNL     1     129.835 144.873 123.788  1.00  0.00     0.004 A 
ATOM      8  C   UNL     1     128.444 146.850 123.652  1.00  0.00     0.004 A 
ATOM      9  C   UNL     1     129.107 144.289 122.747  1.00  0.00     0.004 A 
ATOM     10  C   UNL     1     127.715 146.268 122.612  1.00  0.00     0.004 A 
ENDBRANCH   2   4
ENDBRANCH   1   2
BRANCH   1  11
ATOM     11  C   UNL     1     128.620 145.212 118.995  1.00  0.00     0.028 C 
BRANCH  11  12
ATOM     12  C   UNL     1     129.626 146.221 119.495  1.00  0.00    -0.028 C 
ATOM     13  C   UNL     1     130.881 145.915 119.897  1.00  0.00    -0.080 C 
ATOM     14  C   UNL     1     131.389 144.492 119.928  1.00  0.00     0.039 C 
ATOM     15  C   UNL     1     131.779 147.034 120.356  1.00  0.00     0.039 C 
ENDBRANCH  11  12
ENDBRANCH   1  11
TORSDOF 4
ENDMDL
MODEL 4
REMARK VINA RESULT:    -4.456      1.859      2.980
REMARK INTER + INTRA:          -6.826
REMARK INTER:                  -5.445
REMARK INTRA:                  -1.380
REMARK UNBOUND:                -1.327
REMARK SMILES CC(C)=CCC[C@@H](C)c1ccc(C)cc1
REMARK SMILES IDX 6 1 7 2 8 3 9 4 13 5 12 6 11 7 14 8 10 9 15 10 5 11 4 12
REMARK SMILES IDX 2 13 1 14 3 15
REMARK H PARENT
REMARK Flexibility Score: inf
ROOT
ATOM      1  C   UNL     1     127.932 144.683 118.855  1.00  0.00     0.012 C 
ENDROOT
BRANCH   1   2
ATOM      2  C   UNL     1     127.969 145.957 119.732  1.00  0.00     0.016 C 
ATOM      3  C   UNL     1     126.875 145.962 120.812  1.00  0.00     0.013 C 
BRANCH   2   4
ATOM      4  C   UNL     1     129.340 146.115 120.368  1.00  0.00    -0.045 A 
ATOM      5  C   UNL     1     133.260 146.511 122.136  1.00  0.00     0.044 C 
ATOM      6  C   UNL     1     131.895 146.403 121.526  1.00  0.00    -0.051 A 
ATOM      7  C   UNL     1     130.781 146.123 122.331  1.00  0.00     0.004 A 
ATOM      8  C   UNL     1     131.730 146.511 120.137  1.00  0.00     0.004 A 
ATOM      9  C   UNL     1     129.513 145.986 121.758  1.00  0.00     0.004 A 
ATOM     10  C   UNL     1     130.463 146.373 119.563  1.00  0.00     0.004 A 
ENDBRANCH   2   4
ENDBRANCH   1   2
BRANCH   1  11
ATOM     11  C   UNL     1     127.554 143.403 119.630  1.00  0.00     0.028 C 
BRANCH  11  12
ATOM     12  C   UNL     1     128.767 142.653 120.126  1.00  0.00    -0.028 C 
ATOM     13  C   UNL     1     128.973 142.300 121.415  1.00  0.00    -0.080 C 
ATOM     14  C   UNL     1     128.007 142.674 122.514  1.00  0.00     0.039 C 
ATOM     15  C   UNL     1     130.227 141.536 121.757  1.00  0.00     0.039 C 
ENDBRANCH  11  12
ENDBRANCH   1  11
TORSDOF 4
ENDMDL
MODEL 5
REMARK VINA RESULT:    -4.434      2.496      3.570
REMARK INTER + INTRA:          -6.798
REMARK INTER:                  -5.826
REMARK INTRA:                  -0.972
REMARK UNBOUND:                -1.327
REMARK SMILES CC(C)=CCC[C@@H](C)c1ccc(C)cc1
REMARK SMILES IDX 6 1 7 2 8 3 9 4 13 5 12 6 11 7 14 8 10 9 15 10 5 11 4 12
REMARK SMILES IDX 2 13 1 14 3 15
REMARK H PARENT
REMARK Flexibility Score: inf
ROOT
ATOM      1  C   UNL     1     127.626 144.007 120.797  1.00  0.00     0.012 C 
ENDROOT
BRANCH   1   2
ATOM      2  C   UNL     1     128.386 144.081 119.451  1.00  0.00     0.016 C 
ATOM      3  C   UNL     1     127.628 144.892 118.389  1.00  0.00     0.013 C 
BRANCH   2   4
ATOM      4  C   UNL     1     129.774 144.658 119.666  1.00  0.00    -0.045 A 
ATOM      5  C   UNL     1     133.716 146.336 120.218  1.00  0.00     0.044 C 
ATOM      6  C   UNL     1     132.344 145.752 120.057  1.00  0.00    -0.051 A 
ATOM      7  C   UNL     1     132.178 144.365 119.932  1.00  0.00     0.004 A 
ATOM      8  C   UNL     1     131.225 146.591 119.957  1.00  0.00     0.004 A 
ATOM      9  C   UNL     1     130.903 143.821 119.744  1.00  0.00     0.004 A 
ATOM     10  C   UNL     1     129.951 146.049 119.769  1.00  0.00     0.004 A 
ENDBRANCH   2   4
ENDBRANCH   1   2
BRANCH   1  11
ATOM     11  C   UNL     1     127.870 142.701 121.581  1.00  0.00     0.028 C 
BRANCH  11  12
ATOM     12  C   UNL     1     127.281 141.496 120.887  1.00  0.00    -0.028 C 
ATOM     13  C   UNL     1     128.004 140.450 120.425  1.00  0.00    -0.080 C 
ATOM     14  C   UNL     1     129.511 140.411 120.523  1.00  0.00     0.039 C 
ATOM     15  C   UNL     1     127.273 139.308 119.768  1.00  0.00     0.039 C 
ENDBRANCH  11  12
ENDBRANCH   1  11
TORSDOF 4
ENDMDL
MODEL 6
REMARK VINA RESULT:    -4.299      2.403      5.037
REMARK INTER + INTRA:          -6.631
REMARK INTER:                  -5.400
REMARK INTRA:                  -1.231
REMARK UNBOUND:                -1.327
REMARK SMILES CC(C)=CCC[C@@H](C)c1ccc(C)cc1
REMARK SMILES IDX 6 1 7 2 8 3 9 4 13 5 12 6 11 7 14 8 10 9 15 10 5 11 4 12
REMARK SMILES IDX 2 13 1 14 3 15
REMARK H PARENT
REMARK Flexibility Score: inf
ROOT
ATOM      1  C   UNL     1     129.156 146.010 121.256  1.00  0.00     0.012 C 
ENDROOT
BRANCH   1   2
ATOM      2  C   UNL     1     127.687 145.525 121.261  1.00  0.00     0.016 C 
ATOM      3  C   UNL     1     126.875 146.091 120.085  1.00  0.00     0.013 C 
BRANCH   2   4
ATOM      4  C   UNL     1     127.637 144.007 121.256  1.00  0.00    -0.045 A 
ATOM      5  C   UNL     1     127.427 139.693 121.230  1.00  0.00     0.044 C 
ATOM      6  C   UNL     1     127.528 141.189 121.228  1.00  0.00    -0.051 A 
ATOM      7  C   UNL     1     127.995 141.867 122.363  1.00  0.00     0.004 A 
ATOM      8  C   UNL     1     127.090 141.926 120.118  1.00  0.00     0.004 A 
ATOM      9  C   UNL     1     128.055 143.264 122.376  1.00  0.00     0.004 A 
ATOM     10  C   UNL     1     127.148 143.322 120.129  1.00  0.00     0.004 A 
ENDBRANCH   2   4
ENDBRANCH   1   2
BRANCH   1  11
ATOM     11  C   UNL     1     129.823 145.965 119.866  1.00  0.00     0.028 C 
BRANCH  11  12
ATOM     12  C   UNL     1     131.269 145.534 119.937  1.00  0.00    -0.028 C 
ATOM     13  C   UNL     1     131.701 144.270 119.727  1.00  0.00    -0.080 C 
ATOM     14  C   UNL     1     130.748 143.134 119.440  1.00  0.00     0.039 C 
ATOM     15  C   UNL     1     133.180 143.994 119.814  1.00  0.00     0.039 C 
ENDBRANCH  11  12
ENDBRANCH   1  11
TORSDOF 4
ENDMDL
MODEL 7
REMARK VINA RESULT:    -4.214      2.264      3.878
REMARK INTER + INTRA:          -6.527
REMARK INTER:                  -4.951
REMARK INTRA:                  -1.576
REMARK UNBOUND:                -1.327
REMARK SMILES CC(C)=CCC[C@@H](C)c1ccc(C)cc1
REMARK SMILES IDX 6 1 7 2 8 3 9 4 13 5 12 6 11 7 14 8 10 9 15 10 5 11 4 12
REMARK SMILES IDX 2 13 1 14 3 15
REMARK H PARENT
REMARK Flexibility Score: inf
ROOT
ATOM      1  C   UNL     1     127.303 146.003 120.701  1.00  0.00     0.012 C 
ENDROOT
BRANCH   1   2
ATOM      2  C   UNL     1     128.284 145.345 119.702  1.00  0.00     0.016 C 
ATOM      3  C   UNL     1     129.677 145.993 119.729  1.00  0.00     0.013 C 
BRANCH   2   4
ATOM      4  C   UNL     1     128.388 143.855 119.978  1.00  0.00    -0.045 A 
ATOM      5  C   UNL     1     128.658 139.628 120.824  1.00  0.00     0.044 C 
ATOM      6  C   UNL     1     128.561 141.089 120.501  1.00  0.00    -0.051 A 
ATOM      7  C   UNL     1     129.719 141.829 120.221  1.00  0.00     0.004 A 
ATOM      8  C   UNL     1     127.321 141.742 120.545  1.00  0.00     0.004 A 
ATOM      9  C   UNL     1     129.634 143.199 119.956  1.00  0.00     0.004 A 
ATOM     10  C   UNL     1     127.234 143.112 120.281  1.00  0.00     0.004 A 
ENDBRANCH   2   4
ENDBRANCH   1   2
BRANCH   1  11
ATOM     11  C   UNL     1     127.943 146.360 122.060  1.00  0.00     0.028 C 
BRANCH  11  12
ATOM     12  C   UNL     1     127.679 145.309 123.112  1.00  0.00    -0.028 C 
ATOM     13  C   UNL     1     128.633 144.529 123.669  1.00  0.00    -0.080 C 
ATOM     14  C   UNL     1     130.081 144.607 123.247  1.00  0.00     0.039 C 
ATOM     15  C   UNL     1     128.219 143.533 124.723  1.00  0.00     0.039 C 
ENDBRANCH  11  12
ENDBRANCH   1  11
TORSDOF 4
ENDMDL
MODEL 8
REMARK VINA RESULT:    -4.173      2.007      3.858
REMARK INTER + INTRA:          -6.476
REMARK INTER:                  -4.947
REMARK INTRA:                  -1.529
REMARK UNBOUND:                -1.327
REMARK SMILES CC(C)=CCC[C@@H](C)c1ccc(C)cc1
REMARK SMILES IDX 6 1 7 2 8 3 9 4 13 5 12 6 11 7 14 8 10 9 15 10 5 11 4 12
REMARK SMILES IDX 2 13 1 14 3 15
REMARK H PARENT
REMARK Flexibility Score: inf
ROOT
ATOM      1  C   UNL     1     128.576 144.088 119.035  1.00  0.00     0.012 C 
ENDROOT
BRANCH   1   2
ATOM      2  C   UNL     1     128.330 145.575 119.381  1.00  0.00     0.016 C 
ATOM      3  C   UNL     1     126.875 146.005 119.137  1.00  0.00     0.013 C 
BRANCH   2   4
ATOM      4  C   UNL     1     128.726 145.849 120.822  1.00  0.00    -0.045 A 
ATOM      5  C   UNL     1     129.835 146.695 124.910  1.00  0.00     0.044 C 
ATOM      6  C   UNL     1     129.443 146.373 123.499  1.00  0.00    -0.051 A 
ATOM      7  C   UNL     1     130.400 145.898 122.591  1.00  0.00     0.004 A 
ATOM      8  C   UNL     1     128.134 146.612 123.057  1.00  0.00     0.004 A 
ATOM      9  C   UNL     1     130.045 145.633 121.265  1.00  0.00     0.004 A 
ATOM     10  C   UNL     1     127.777 146.347 121.731  1.00  0.00     0.004 A 
ENDBRANCH   2   4
ENDBRANCH   1   2
BRANCH   1  11
ATOM     11  C   UNL     1     127.814 143.101 119.944  1.00  0.00     0.028 C 
BRANCH  11  12
ATOM     12  C   UNL     1     128.740 142.139 120.651  1.00  0.00    -0.028 C 
ATOM     13  C   UNL     1     128.820 142.003 121.994  1.00  0.00    -0.080 C 
ATOM     14  C   UNL     1     128.004 142.855 122.937  1.00  0.00     0.039 C 
ATOM     15  C   UNL     1     129.781 140.987 122.555  1.00  0.00     0.039 C 
ENDBRANCH  11  12
ENDBRANCH   1  11
TORSDOF 4
ENDMDL
