MODEL 1
REMARK VINA RESULT:    -6.237      0.000      0.000
REMARK INTER + INTRA:          -6.237
REMARK INTER:                  -6.237
REMARK INTRA:                   0.000
REMARK UNBOUND:                 0.000
REMARK SMILES Cc1cc2cc3c(C)cc(=O)oc3c(C)c2o1
REMARK SMILES IDX 8 1 7 2 9 3 10 4 11 5 12 6 13 7 6 8 5 9 4 10 3 11 2 12 17 13
REMARK SMILES IDX 16 14 14 15 15 16 1 17
REMARK H PARENT
REMARK Flexibility Score: inf
ROOT
ATOM      1  C   UNL     1     132.762 129.155 116.711  1.00  0.00     0.045 C 
ATOM      2  C   UNL     1     131.328 129.132 117.173  1.00  0.00    -0.033 A 
ATOM      3  C   UNL     1     131.050 129.028 118.542  1.00  0.00     0.098 A 
ATOM      4  C   UNL     1     129.724 129.009 118.978  1.00  0.00     0.336 A 
ATOM      5  O   UNL     1     129.470 128.915 120.208  1.00  0.00    -0.246 OA
ATOM      6  O   UNL     1     128.726 129.089 118.108  1.00  0.00    -0.422 OA
ATOM      7  C   UNL     1     128.917 129.188 116.795  1.00  0.00     0.145 A 
ATOM      8  C   UNL     1     130.248 129.218 116.266  1.00  0.00     0.022 A 
ATOM      9  C   UNL     1     130.441 129.336 114.868  1.00  0.00     0.024 A 
ATOM     10  C   UNL     1     129.316 129.422 114.056  1.00  0.00     0.022 A 
ATOM     11  C   UNL     1     129.208 129.552 112.691  1.00  0.00     0.054 A 
ATOM     12  C   UNL     1     127.838 129.596 112.459  1.00  0.00     0.102 A 
ATOM     13  O   UNL     1     127.167 129.498 113.593  1.00  0.00    -0.461 OA
ATOM     14  C   UNL     1     128.045 129.394 114.563  1.00  0.00     0.140 A 
ATOM     15  C   UNL     1     127.797 129.267 115.932  1.00  0.00     0.036 A 
ATOM     16  C   UNL     1     126.396 129.266 116.472  1.00  0.00     0.052 C 
ATOM     17  C   UNL     1     127.194 129.719 111.120  1.00  0.00     0.087 C 
ENDROOT
TORSDOF 0
ENDMDL
MODEL 2
REMARK VINA RESULT:    -5.957      1.549      3.351
REMARK INTER + INTRA:          -5.957
REMARK INTER:                  -5.957
REMARK INTRA:                   0.000
REMARK UNBOUND:                 0.000
REMARK SMILES Cc1cc2cc3c(C)cc(=O)oc3c(C)c2o1
REMARK SMILES IDX 8 1 7 2 9 3 10 4 11 5 12 6 13 7 6 8 5 9 4 10 3 11 2 12 17 13
REMARK SMILES IDX 16 14 14 15 15 16 1 17
REMARK H PARENT
REMARK Flexibility Score: inf
ROOT
ATOM      1  C   UNL     1     125.429 129.278 116.506  1.00  0.00     0.045 C 
ATOM      2  C   UNL     1     126.853 129.403 116.983  1.00  0.00    -0.033 A 
ATOM      3  C   UNL     1     127.101 129.660 118.338  1.00  0.00     0.098 A 
ATOM      4  C   UNL     1     128.417 129.775 118.789  1.00  0.00     0.336 A 
ATOM      5  O   UNL     1     128.644 130.006 120.005  1.00  0.00    -0.246 OA
ATOM      6  O   UNL     1     129.433 129.644 117.946  1.00  0.00    -0.422 OA
ATOM      7  C   UNL     1     129.270 129.401 116.648  1.00  0.00     0.145 A 
ATOM      8  C   UNL     1     127.952 129.265 116.106  1.00  0.00     0.022 A 
ATOM      9  C   UNL     1     127.789 128.996 114.726  1.00  0.00     0.024 A 
ATOM     10  C   UNL     1     128.931 128.868 113.943  1.00  0.00     0.022 A 
ATOM     11  C   UNL     1     129.069 128.601 112.601  1.00  0.00     0.054 A 
ATOM     12  C   UNL     1     130.443 128.586 112.395  1.00  0.00     0.102 A 
ATOM     13  O   UNL     1     131.090 128.827 113.521  1.00  0.00    -0.461 OA
ATOM     14  C   UNL     1     130.190 128.998 114.462  1.00  0.00     0.140 A 
ATOM     15  C   UNL     1     130.408 129.276 115.814  1.00  0.00     0.036 A 
ATOM     16  C   UNL     1     131.798 129.387 116.371  1.00  0.00     0.052 C 
ATOM     17  C   UNL     1     131.116 128.349 111.085  1.00  0.00     0.087 C 
ENDROOT
TORSDOF 0
ENDMDL
MODEL 3
REMARK VINA RESULT:    -5.400      1.400      2.867
REMARK INTER + INTRA:          -5.400
REMARK INTER:                  -5.400
REMARK INTRA:                   0.000
REMARK UNBOUND:                 0.000
REMARK SMILES Cc1cc2cc3c(C)cc(=O)oc3c(C)c2o1
REMARK SMILES IDX 8 1 7 2 9 3 10 4 11 5 12 6 13 7 6 8 5 9 4 10 3 11 2 12 17 13
REMARK SMILES IDX 16 14 14 15 15 16 1 17
REMARK H PARENT
REMARK Flexibility Score: inf
ROOT
ATOM      1  C   UNL     1     126.939 129.714 119.731  1.00  0.00     0.045 C 
ATOM      2  C   UNL     1     128.279 129.474 119.084  1.00  0.00    -0.033 A 
ATOM      3  C   UNL     1     129.402 129.258 119.892  1.00  0.00     0.098 A 
ATOM      4  C   UNL     1     130.646 129.033 119.300  1.00  0.00     0.336 A 
ATOM      5  O   UNL     1     131.658 128.839 120.023  1.00  0.00    -0.246 OA
ATOM      6  O   UNL     1     130.773 129.023 117.979  1.00  0.00    -0.422 OA
ATOM      7  C   UNL     1     129.750 129.222 117.152  1.00  0.00     0.145 A 
ATOM      8  C   UNL     1     128.439 129.456 117.680  1.00  0.00     0.022 A 
ATOM      9  C   UNL     1     127.354 129.656 116.792  1.00  0.00     0.024 A 
ATOM     10  C   UNL     1     127.609 129.613 115.426  1.00  0.00     0.022 A 
ATOM     11  C   UNL     1     126.760 129.759 114.353  1.00  0.00     0.054 A 
ATOM     12  C   UNL     1     127.582 129.607 113.243  1.00  0.00     0.102 A 
ATOM     13  O   UNL     1     128.832 129.389 113.610  1.00  0.00    -0.461 OA
ATOM     14  C   UNL     1     128.862 129.389 114.923  1.00  0.00     0.140 A 
ATOM     15  C   UNL     1     129.969 129.198 115.753  1.00  0.00     0.036 A 
ATOM     16  C   UNL     1     131.331 128.925 115.183  1.00  0.00     0.052 C 
ATOM     17  C   UNL     1     127.136 129.693 111.823  1.00  0.00     0.087 C 
ENDROOT
TORSDOF 0
ENDMDL
MODEL 4
REMARK VINA RESULT:    -5.237      6.548     10.504
REMARK INTER + INTRA:          -5.237
REMARK INTER:                  -5.237
REMARK INTRA:                   0.000
REMARK UNBOUND:                 0.000
REMARK SMILES Cc1cc2cc3c(C)cc(=O)oc3c(C)c2o1
REMARK SMILES IDX 8 1 7 2 9 3 10 4 11 5 12 6 13 7 6 8 5 9 4 10 3 11 2 12 17 13
REMARK SMILES IDX 16 14 14 15 15 16 1 17
REMARK H PARENT
REMARK Flexibility Score: inf
ROOT
ATOM      1  C   UNL     1     118.875 132.606 112.753  1.00  0.00     0.045 C 
ATOM      2  C   UNL     1     119.655 132.700 111.468  1.00  0.00    -0.033 A 
ATOM      3  C   UNL     1     119.005 133.120 110.300  1.00  0.00     0.098 A 
ATOM      4  C   UNL     1     119.721 133.212 109.106  1.00  0.00     0.336 A 
ATOM      5  O   UNL     1     119.140 133.588 108.054  1.00  0.00    -0.246 OA
ATOM      6  O   UNL     1     121.011 132.905 109.067  1.00  0.00    -0.422 OA
ATOM      7  C   UNL     1     121.691 132.499 110.136  1.00  0.00     0.145 A 
ATOM      8  C   UNL     1     121.030 132.382 111.402  1.00  0.00     0.022 A 
ATOM      9  C   UNL     1     121.765 131.959 112.536  1.00  0.00     0.024 A 
ATOM     10  C   UNL     1     123.116 131.675 112.374  1.00  0.00     0.022 A 
ATOM     11  C   UNL     1     124.058 131.263 113.288  1.00  0.00     0.054 A 
ATOM     12  C   UNL     1     125.228 131.154 112.546  1.00  0.00     0.102 A 
ATOM     13  O   UNL     1     125.015 131.471 111.282  1.00  0.00    -0.461 OA
ATOM     14  C   UNL     1     123.746 131.788 111.165  1.00  0.00     0.140 A 
ATOM     15  C   UNL     1     123.067 132.188 110.011  1.00  0.00     0.036 A 
ATOM     16  C   UNL     1     123.782 132.333 108.699  1.00  0.00     0.052 C 
ATOM     17  C   UNL     1     126.551 130.722 113.083  1.00  0.00     0.087 C 
ENDROOT
TORSDOF 0
ENDMDL
MODEL 5
REMARK VINA RESULT:    -5.160      3.191      5.453
REMARK INTER + INTRA:          -5.160
REMARK INTER:                  -5.160
REMARK INTRA:                   0.000
REMARK UNBOUND:                 0.000
REMARK SMILES Cc1cc2cc3c(C)cc(=O)oc3c(C)c2o1
REMARK SMILES IDX 8 1 7 2 9 3 10 4 11 5 12 6 13 7 6 8 5 9 4 10 3 11 2 12 17 13
REMARK SMILES IDX 16 14 14 15 15 16 1 17
REMARK H PARENT
REMARK Flexibility Score: inf
ROOT
ATOM      1  C   UNL     1     126.756 129.358 116.459  1.00  0.00     0.045 C 
ATOM      2  C   UNL     1     127.250 129.509 115.043  1.00  0.00    -0.033 A 
ATOM      3  C   UNL     1     128.526 129.037 114.709  1.00  0.00     0.098 A 
ATOM      4  C   UNL     1     128.990 129.171 113.399  1.00  0.00     0.336 A 
ATOM      5  O   UNL     1     130.136 128.749 113.095  1.00  0.00    -0.246 OA
ATOM      6  O   UNL     1     128.235 129.741 112.470  1.00  0.00    -0.422 OA
ATOM      7  C   UNL     1     127.015 130.212 112.718  1.00  0.00     0.145 A 
ATOM      8  C   UNL     1     126.463 130.110 114.036  1.00  0.00     0.022 A 
ATOM      9  C   UNL     1     125.160 130.604 114.287  1.00  0.00     0.024 A 
ATOM     10  C   UNL     1     124.459 131.172 113.230  1.00  0.00     0.022 A 
ATOM     11  C   UNL     1     123.195 131.713 113.184  1.00  0.00     0.054 A 
ATOM     12  C   UNL     1     123.041 132.110 111.860  1.00  0.00     0.102 A 
ATOM     13  O   UNL     1     124.126 131.835 111.158  1.00  0.00    -0.461 OA
ATOM     14  C   UNL     1     124.987 131.269 111.971  1.00  0.00     0.140 A 
ATOM     15  C   UNL     1     126.272 130.809 111.671  1.00  0.00     0.036 A 
ATOM     16  C   UNL     1     126.824 130.899 110.277  1.00  0.00     0.052 C 
ATOM     17  C   UNL     1     121.831 132.773 111.295  1.00  0.00     0.087 C 
ENDROOT
TORSDOF 0
ENDMDL
MODEL 6
REMARK VINA RESULT:    -5.103      4.822      7.617
REMARK INTER + INTRA:          -5.103
REMARK INTER:                  -5.103
REMARK INTRA:                   0.000
REMARK UNBOUND:                 0.000
REMARK SMILES Cc1cc2cc3c(C)cc(=O)oc3c(C)c2o1
REMARK SMILES IDX 8 1 7 2 9 3 10 4 11 5 12 6 13 7 6 8 5 9 4 10 3 11 2 12 17 13
REMARK SMILES IDX 16 14 14 15 15 16 1 17
REMARK H PARENT
REMARK Flexibility Score: inf
ROOT
ATOM      1  C   UNL     1     127.069 130.509 109.802  1.00  0.00     0.045 C 
ATOM      2  C   UNL     1     126.249 130.749 111.043  1.00  0.00    -0.033 A 
ATOM      3  C   UNL     1     126.736 130.314 112.282  1.00  0.00     0.098 A 
ATOM      4  C   UNL     1     125.984 130.535 113.436  1.00  0.00     0.336 A 
ATOM      5  O   UNL     1     126.419 130.145 114.552  1.00  0.00    -0.246 OA
ATOM      6  O   UNL     1     124.811 131.152 113.370  1.00  0.00    -0.422 OA
ATOM      7  C   UNL     1     124.288 131.590 112.228  1.00  0.00     0.145 A 
ATOM      8  C   UNL     1     124.999 131.406 110.998  1.00  0.00     0.022 A 
ATOM      9  C   UNL     1     124.438 131.885 109.790  1.00  0.00     0.024 A 
ATOM     10  C   UNL     1     123.206 132.526 109.847  1.00  0.00     0.022 A 
ATOM     11  C   UNL     1     122.445 133.091 108.850  1.00  0.00     0.054 A 
ATOM     12  C   UNL     1     121.327 133.586 109.511  1.00  0.00     0.102 A 
ATOM     13  O   UNL     1     121.400 133.338 110.806  1.00  0.00    -0.461 OA
ATOM     14  C   UNL     1     122.527 132.702 111.023  1.00  0.00     0.140 A 
ATOM     15  C   UNL     1     123.029 132.238 112.242  1.00  0.00     0.036 A 
ATOM     16  C   UNL     1     122.283 132.464 113.526  1.00  0.00     0.052 C 
ATOM     17  C   UNL     1     120.182 134.286 108.862  1.00  0.00     0.087 C 
ENDROOT
TORSDOF 0
ENDMDL
MODEL 7
REMARK VINA RESULT:    -5.074      7.128      9.991
REMARK INTER + INTRA:          -5.074
REMARK INTER:                  -5.074
REMARK INTRA:                   0.000
REMARK UNBOUND:                 0.000
REMARK SMILES Cc1cc2cc3c(C)cc(=O)oc3c(C)c2o1
REMARK SMILES IDX 8 1 7 2 9 3 10 4 11 5 12 6 13 7 6 8 5 9 4 10 3 11 2 12 17 13
REMARK SMILES IDX 16 14 14 15 15 16 1 17
REMARK H PARENT
REMARK Flexibility Score: inf
ROOT
ATOM      1  C   UNL     1     120.125 133.996 108.586  1.00  0.00     0.045 C 
ATOM      2  C   UNL     1     120.451 133.182 109.811  1.00  0.00    -0.033 A 
ATOM      3  C   UNL     1     119.464 132.359 110.370  1.00  0.00     0.098 A 
ATOM      4  C   UNL     1     119.759 131.600 111.503  1.00  0.00     0.336 A 
ATOM      5  O   UNL     1     118.875 130.859 112.009  1.00  0.00    -0.246 OA
ATOM      6  O   UNL     1     120.964 131.651 112.056  1.00  0.00    -0.422 OA
ATOM      7  C   UNL     1     121.947 132.410 111.579  1.00  0.00     0.145 A 
ATOM      8  C   UNL     1     121.727 133.217 110.416  1.00  0.00     0.022 A 
ATOM      9  C   UNL     1     122.782 134.014 109.910  1.00  0.00     0.024 A 
ATOM     10  C   UNL     1     124.006 133.977 110.568  1.00  0.00     0.022 A 
ATOM     11  C   UNL     1     125.187 134.628 110.296  1.00  0.00     0.054 A 
ATOM     12  C   UNL     1     126.055 134.190 111.290  1.00  0.00     0.102 A 
ATOM     13  O   UNL     1     125.450 133.344 112.103  1.00  0.00    -0.461 OA
ATOM     14  C   UNL     1     124.215 133.206 111.679  1.00  0.00     0.140 A 
ATOM     15  C   UNL     1     123.205 132.411 112.228  1.00  0.00     0.036 A 
ATOM     16  C   UNL     1     123.461 131.550 113.431  1.00  0.00     0.052 C 
ATOM     17  C   UNL     1     127.474 134.620 111.444  1.00  0.00     0.087 C 
ENDROOT
TORSDOF 0
ENDMDL
MODEL 8
REMARK VINA RESULT:    -5.047      5.691      9.742
REMARK INTER + INTRA:          -5.047
REMARK INTER:                  -5.047
REMARK INTRA:                   0.000
REMARK UNBOUND:                 0.000
REMARK SMILES Cc1cc2cc3c(C)cc(=O)oc3c(C)c2o1
REMARK SMILES IDX 8 1 7 2 9 3 10 4 11 5 12 6 13 7 6 8 5 9 4 10 3 11 2 12 17 13
REMARK SMILES IDX 16 14 14 15 15 16 1 17
REMARK H PARENT
REMARK Flexibility Score: inf
ROOT
ATOM      1  C   UNL     1     122.095 132.479 107.167  1.00  0.00     0.045 C 
ATOM      2  C   UNL     1     121.711 132.662 108.613  1.00  0.00    -0.033 A 
ATOM      3  C   UNL     1     120.463 133.216 108.926  1.00  0.00     0.098 A 
ATOM      4  C   UNL     1     120.099 133.387 110.263  1.00  0.00     0.336 A 
ATOM      5  O   UNL     1     118.979 133.885 110.549  1.00  0.00    -0.246 OA
ATOM      6  O   UNL     1     120.925 133.029 111.238  1.00  0.00    -0.422 OA
ATOM      7  C   UNL     1     122.124 132.498 111.013  1.00  0.00     0.145 A 
ATOM      8  C   UNL     1     122.571 132.286 109.669  1.00  0.00     0.022 A 
ATOM      9  C   UNL     1     123.845 131.711 109.439  1.00  0.00     0.024 A 
ATOM     10  C   UNL     1     124.617 131.366 110.543  1.00  0.00     0.022 A 
ATOM     11  C   UNL     1     125.865 130.791 110.615  1.00  0.00     0.054 A 
ATOM     12  C   UNL     1     126.111 130.680 111.979  1.00  0.00     0.102 A 
ATOM     13  O   UNL     1     125.095 131.153 112.679  1.00  0.00    -0.461 OA
ATOM     14  C   UNL     1     124.188 131.568 111.827  1.00  0.00     0.140 A 
ATOM     15  C   UNL     1     122.947 132.144 112.109  1.00  0.00     0.036 A 
ATOM     16  C   UNL     1     122.482 132.332 113.525  1.00  0.00     0.052 C 
ATOM     17  C   UNL     1     127.353 130.124 112.587  1.00  0.00     0.087 C 
ENDROOT
TORSDOF 0
ENDMDL
MODEL 9
REMARK VINA RESULT:    -4.772      6.606      8.925
REMARK INTER + INTRA:          -4.772
REMARK INTER:                  -4.772
REMARK INTRA:                   0.000
REMARK UNBOUND:                 0.000
REMARK SMILES Cc1cc2cc3c(C)cc(=O)oc3c(C)c2o1
REMARK SMILES IDX 8 1 7 2 9 3 10 4 11 5 12 6 13 7 6 8 5 9 4 10 3 11 2 12 17 13
REMARK SMILES IDX 16 14 14 15 15 16 1 17
REMARK H PARENT
REMARK Flexibility Score: inf
ROOT
ATOM      1  C   UNL     1     124.991 134.909 108.239  1.00  0.00     0.045 C 
ATOM      2  C   UNL     1     125.317 134.084 109.457  1.00  0.00    -0.033 A 
ATOM      3  C   UNL     1     126.658 133.874 109.804  1.00  0.00     0.098 A 
ATOM      4  C   UNL     1     126.967 133.113 110.932  1.00  0.00     0.336 A 
ATOM      5  O   UNL     1     128.171 132.922 111.248  1.00  0.00    -0.246 OA
ATOM      6  O   UNL     1     126.004 132.586 111.677  1.00  0.00    -0.422 OA
ATOM      7  C   UNL     1     124.711 132.744 111.405  1.00  0.00     0.145 A 
ATOM      8  C   UNL     1     124.309 133.515 110.267  1.00  0.00     0.022 A 
ATOM      9  C   UNL     1     122.930 133.686 109.992  1.00  0.00     0.024 A 
ATOM     10  C   UNL     1     122.012 133.094 110.851  1.00  0.00     0.022 A 
ATOM     11  C   UNL     1     120.636 133.104 110.833  1.00  0.00     0.054 A 
ATOM     12  C   UNL     1     120.274 132.353 111.945  1.00  0.00     0.102 A 
ATOM     13  O   UNL     1     121.344 131.917 112.586  1.00  0.00    -0.461 OA
ATOM     14  C   UNL     1     122.397 132.358 111.938  1.00  0.00     0.140 A 
ATOM     15  C   UNL     1     123.743 132.147 112.249  1.00  0.00     0.036 A 
ATOM     16  C   UNL     1     124.147 131.359 113.462  1.00  0.00     0.052 C 
ATOM     17  C   UNL     1     118.875 132.052 112.363  1.00  0.00     0.087 C 
ENDROOT
TORSDOF 0
ENDMDL
