MODEL 1
REMARK VINA RESULT:    -5.829      0.000      0.000
REMARK INTER + INTRA:         -12.844
REMARK INTER:                 -10.941
REMARK INTRA:                  -1.903
REMARK UNBOUND:                -1.903
REMARK SMILES O=C([O-])CCCCCCCCCCCCCCC(=O)[O-]
REMARK SMILES IDX 10 1 9 2 8 3 7 4 6 5 5 6 4 7 2 8 1 9 3 10 11 11 12 12 13 13
REMARK SMILES IDX 14 14 15 15 16 16 17 17 18 18 19 19 20 20
REMARK H PARENT
REMARK Flexibility Score: inf
ROOT
ATOM      1  C   UNL     1      -0.596 -32.971 -53.219  1.00  0.00     0.000 C 
ENDROOT
BRANCH   1   2
ATOM      2  C   UNL     1      -2.118 -32.885 -53.047  1.00  0.00     0.000 C 
BRANCH   2   3
ATOM      3  C   UNL     1      -2.551 -33.452 -51.690  1.00  0.00     0.000 C 
BRANCH   3   4
ATOM      4  C   UNL     1      -3.709 -32.635 -51.098  1.00  0.00     0.000 C 
BRANCH   4   5
ATOM      5  C   UNL     1      -4.877 -32.465 -52.083  1.00  0.00     0.000 C 
BRANCH   5   6
ATOM      6  C   UNL     1      -6.171 -32.004 -51.395  1.00  0.00     0.006 C 
BRANCH   6   7
ATOM      7  C   UNL     1      -5.912 -30.788 -50.501  1.00  0.00     0.053 C 
BRANCH   7   8
ATOM      8  C   UNL     1      -7.040 -30.596 -49.538  1.00  0.00     0.041 C 
ATOM      9  O   UNL     1      -7.520 -31.584 -48.920  1.00  0.00    -0.550 OA
ATOM     10  O   UNL     1      -7.595 -29.336 -49.358  1.00  0.00    -0.550 OA
ENDBRANCH   7   8
ENDBRANCH   6   7
ENDBRANCH   5   6
ENDBRANCH   4   5
ENDBRANCH   3   4
ENDBRANCH   2   3
ENDBRANCH   1   2
BRANCH   1  11
ATOM     11  C   UNL     1       0.038 -31.574 -53.200  1.00  0.00     0.000 C 
BRANCH  11  12
ATOM     12  C   UNL     1       0.399 -31.155 -51.767  1.00  0.00     0.000 C 
BRANCH  12  13
ATOM     13  C   UNL     1      -0.407 -29.937 -51.280  1.00  0.00     0.000 C 
BRANCH  13  14
ATOM     14  C   UNL     1      -1.158 -29.170 -52.387  1.00  0.00     0.000 C 
BRANCH  14  15
ATOM     15  C   UNL     1      -2.693 -29.296 -52.346  1.00  0.00     0.000 C 
BRANCH  15  16
ATOM     16  C   UNL     1      -3.461 -28.070 -52.882  1.00  0.00     0.006 C 
BRANCH  16  17
ATOM     17  C   UNL     1      -4.974 -28.288 -53.038  1.00  0.00     0.053 C 
BRANCH  17  18
ATOM     18  C   UNL     1      -5.357 -28.559 -54.459  1.00  0.00     0.041 C 
ATOM     19  O   UNL     1      -5.822 -27.636 -55.179  1.00  0.00    -0.550 OA
ATOM     20  O   UNL     1      -5.232 -29.841 -54.981  1.00  0.00    -0.550 OA
ENDBRANCH  17  18
ENDBRANCH  16  17
ENDBRANCH  15  16
ENDBRANCH  14  15
ENDBRANCH  13  14
ENDBRANCH  12  13
ENDBRANCH  11  12
ENDBRANCH   1  11
TORSDOF 15
ENDMDL
MODEL 2
REMARK VINA RESULT:    -5.661      2.458      5.767
REMARK INTER + INTRA:         -12.527
REMARK INTER:                 -11.045
REMARK INTRA:                  -1.482
REMARK UNBOUND:                -1.903
REMARK SMILES O=C([O-])CCCCCCCCCCCCCCC(=O)[O-]
REMARK SMILES IDX 10 1 9 2 8 3 7 4 6 5 5 6 4 7 2 8 1 9 3 10 11 11 12 12 13 13
REMARK SMILES IDX 14 14 15 15 16 16 17 17 18 18 19 19 20 20
REMARK H PARENT
REMARK Flexibility Score: inf
ROOT
ATOM      1  C   UNL     1      -6.128 -31.268 -49.772  1.00  0.00     0.000 C 
ENDROOT
BRANCH   1   2
ATOM      2  C   UNL     1      -7.102 -30.093 -49.624  1.00  0.00     0.000 C 
BRANCH   2   3
ATOM      3  C   UNL     1      -6.426 -28.902 -48.934  1.00  0.00     0.000 C 
BRANCH   3   4
ATOM      4  C   UNL     1      -6.380 -27.682 -49.866  1.00  0.00     0.000 C 
BRANCH   4   5
ATOM      5  C   UNL     1      -5.699 -27.989 -51.210  1.00  0.00     0.000 C 
BRANCH   5   6
ATOM      6  C   UNL     1      -5.997 -26.931 -52.282  1.00  0.00     0.006 C 
BRANCH   6   7
ATOM      7  C   UNL     1      -5.182 -27.193 -53.552  1.00  0.00     0.053 C 
BRANCH   7   8
ATOM      8  C   UNL     1      -5.975 -28.009 -54.524  1.00  0.00     0.041 C 
ATOM      9  O   UNL     1      -7.071 -27.577 -54.969  1.00  0.00    -0.550 OA
ATOM     10  O   UNL     1      -5.527 -29.269 -54.901  1.00  0.00    -0.550 OA
ENDBRANCH   7   8
ENDBRANCH   6   7
ENDBRANCH   5   6
ENDBRANCH   4   5
ENDBRANCH   3   4
ENDBRANCH   2   3
ENDBRANCH   1   2
BRANCH   1  11
ATOM     11  C   UNL     1      -5.973 -31.673 -51.243  1.00  0.00     0.000 C 
BRANCH  11  12
ATOM     12  C   UNL     1      -4.704 -32.512 -51.452  1.00  0.00     0.000 C 
BRANCH  12  13
ATOM     13  C   UNL     1      -3.733 -31.885 -52.468  1.00  0.00     0.000 C 
BRANCH  13  14
ATOM     14  C   UNL     1      -3.266 -30.456 -52.124  1.00  0.00     0.000 C 
BRANCH  14  15
ATOM     15  C   UNL     1      -1.841 -30.102 -52.593  1.00  0.00     0.000 C 
BRANCH  15  16
ATOM     16  C   UNL     1      -0.755 -30.195 -51.501  1.00  0.00     0.006 C 
BRANCH  16  17
ATOM     17  C   UNL     1       0.344 -31.231 -51.784  1.00  0.00     0.053 C 
BRANCH  17  18
ATOM     18  C   UNL     1      -0.218 -32.605 -51.970  1.00  0.00     0.041 C 
ATOM     19  O   UNL     1      -0.130 -33.181 -53.087  1.00  0.00    -0.550 OA
ATOM     20  O   UNL     1      -0.870 -33.239 -50.919  1.00  0.00    -0.550 OA
ENDBRANCH  17  18
ENDBRANCH  16  17
ENDBRANCH  15  16
ENDBRANCH  14  15
ENDBRANCH  13  14
ENDBRANCH  12  13
ENDBRANCH  11  12
ENDBRANCH   1  11
TORSDOF 15
ENDMDL
MODEL 3
REMARK VINA RESULT:    -5.590      1.130      4.872
REMARK INTER + INTRA:         -12.394
REMARK INTER:                 -10.788
REMARK INTRA:                  -1.606
REMARK UNBOUND:                -1.903
REMARK SMILES O=C([O-])CCCCCCCCCCCCCCC(=O)[O-]
REMARK SMILES IDX 10 1 9 2 8 3 7 4 6 5 5 6 4 7 2 8 1 9 3 10 11 11 12 12 13 13
REMARK SMILES IDX 14 14 15 15 16 16 17 17 18 18 19 19 20 20
REMARK H PARENT
REMARK Flexibility Score: inf
ROOT
ATOM      1  C   UNL     1      -0.265 -32.893 -52.805  1.00  0.00     0.000 C 
ENDROOT
BRANCH   1   2
ATOM      2  C   UNL     1       0.063 -31.395 -52.809  1.00  0.00     0.000 C 
BRANCH   2   3
ATOM      3  C   UNL     1       0.129 -30.842 -51.380  1.00  0.00     0.000 C 
BRANCH   3   4
ATOM      4  C   UNL     1      -0.409 -29.404 -51.322  1.00  0.00     0.000 C 
BRANCH   4   5
ATOM      5  C   UNL     1      -0.617 -28.794 -52.718  1.00  0.00     0.000 C 
BRANCH   5   6
ATOM      6  C   UNL     1      -1.970 -28.081 -52.858  1.00  0.00     0.006 C 
BRANCH   6   7
ATOM      7  C   UNL     1      -3.121 -29.005 -52.447  1.00  0.00     0.053 C 
BRANCH   7   8
ATOM      8  C   UNL     1      -4.432 -28.435 -52.887  1.00  0.00     0.041 C 
ATOM      9  O   UNL     1      -4.679 -28.286 -54.113  1.00  0.00    -0.550 OA
ATOM     10  O   UNL     1      -5.364 -28.023 -51.942  1.00  0.00    -0.550 OA
ENDBRANCH   7   8
ENDBRANCH   6   7
ENDBRANCH   5   6
ENDBRANCH   4   5
ENDBRANCH   3   4
ENDBRANCH   2   3
ENDBRANCH   1   2
BRANCH   1  11
ATOM     11  C   UNL     1      -1.780 -33.124 -52.754  1.00  0.00     0.000 C 
BRANCH  11  12
ATOM     12  C   UNL     1      -2.214 -33.626 -51.368  1.00  0.00     0.000 C 
BRANCH  12  13
ATOM     13  C   UNL     1      -3.530 -32.990 -50.887  1.00  0.00     0.000 C 
BRANCH  13  14
ATOM     14  C   UNL     1      -4.396 -32.366 -52.000  1.00  0.00     0.000 C 
BRANCH  14  15
ATOM     15  C   UNL     1      -5.866 -32.105 -51.618  1.00  0.00     0.000 C 
BRANCH  15  16
ATOM     16  C   UNL     1      -6.069 -31.132 -50.439  1.00  0.00     0.006 C 
BRANCH  16  17
ATOM     17  C   UNL     1      -7.353 -31.374 -49.630  1.00  0.00     0.053 C 
BRANCH  17  18
ATOM     18  C   UNL     1      -7.821 -30.133 -48.937  1.00  0.00     0.041 C 
ATOM     19  O   UNL     1      -7.112 -29.092 -48.952  1.00  0.00    -0.550 OA
ATOM     20  O   UNL     1      -9.027 -30.134 -48.247  1.00  0.00    -0.550 OA
ENDBRANCH  17  18
ENDBRANCH  16  17
ENDBRANCH  15  16
ENDBRANCH  14  15
ENDBRANCH  13  14
ENDBRANCH  12  13
ENDBRANCH  11  12
ENDBRANCH   1  11
TORSDOF 15
ENDMDL
MODEL 4
REMARK VINA RESULT:    -5.569      2.785      6.412
REMARK INTER + INTRA:         -12.356
REMARK INTER:                 -10.387
REMARK INTRA:                  -1.968
REMARK UNBOUND:                -1.903
REMARK SMILES O=C([O-])CCCCCCCCCCCCCCC(=O)[O-]
REMARK SMILES IDX 10 1 9 2 8 3 7 4 6 5 5 6 4 7 2 8 1 9 3 10 11 11 12 12 13 13
REMARK SMILES IDX 14 14 15 15 16 16 17 17 18 18 19 19 20 20
REMARK H PARENT
REMARK Flexibility Score: inf
ROOT
ATOM      1  C   UNL     1      -5.120 -28.233 -51.282  1.00  0.00     0.000 C 
ENDROOT
BRANCH   1   2
ATOM      2  C   UNL     1      -5.374 -28.460 -52.778  1.00  0.00     0.000 C 
BRANCH   2   3
ATOM      3  C   UNL     1      -4.087 -28.886 -53.496  1.00  0.00     0.000 C 
BRANCH   3   4
ATOM      4  C   UNL     1      -2.926 -29.031 -52.500  1.00  0.00     0.000 C 
BRANCH   4   5
ATOM      5  C   UNL     1      -1.707 -28.178 -52.885  1.00  0.00     0.000 C 
BRANCH   5   6
ATOM      6  C   UNL     1      -0.397 -28.710 -52.284  1.00  0.00     0.006 C 
BRANCH   6   7
ATOM      7  C   UNL     1      -0.665 -29.888 -51.343  1.00  0.00     0.053 C 
BRANCH   7   8
ATOM      8  C   UNL     1       0.030 -31.118 -51.833  1.00  0.00     0.041 C 
ATOM      9  O   UNL     1       0.855 -31.044 -52.782  1.00  0.00    -0.550 OA
ATOM     10  O   UNL     1      -0.269 -32.356 -51.276  1.00  0.00    -0.550 OA
ENDBRANCH   7   8
ENDBRANCH   6   7
ENDBRANCH   5   6
ENDBRANCH   4   5
ENDBRANCH   3   4
ENDBRANCH   2   3
ENDBRANCH   1   2
BRANCH   1  11
ATOM     11  C   UNL     1      -6.406 -27.801 -50.566  1.00  0.00     0.000 C 
BRANCH  11  12
ATOM     12  C   UNL     1      -6.247 -27.903 -49.042  1.00  0.00     0.000 C 
BRANCH  12  13
ATOM     13  C   UNL     1      -6.472 -29.330 -48.512  1.00  0.00     0.000 C 
BRANCH  13  14
ATOM     14  C   UNL     1      -7.644 -30.090 -49.166  1.00  0.00     0.000 C 
BRANCH  14  15
ATOM     15  C   UNL     1      -7.263 -31.415 -49.855  1.00  0.00     0.000 C 
BRANCH  15  16
ATOM     16  C   UNL     1      -5.755 -31.599 -50.123  1.00  0.00     0.006 C 
BRANCH  16  17
ATOM     17  C   UNL     1      -5.410 -31.996 -51.567  1.00  0.00     0.053 C 
BRANCH  17  18
ATOM     18  C   UNL     1      -4.038 -32.586 -51.673  1.00  0.00     0.041 C 
ATOM     19  O   UNL     1      -3.518 -33.164 -50.682  1.00  0.00    -0.550 OA
ATOM     20  O   UNL     1      -3.319 -32.467 -52.856  1.00  0.00    -0.550 OA
ENDBRANCH  17  18
ENDBRANCH  16  17
ENDBRANCH  15  16
ENDBRANCH  14  15
ENDBRANCH  13  14
ENDBRANCH  12  13
ENDBRANCH  11  12
ENDBRANCH   1  11
TORSDOF 15
ENDMDL
MODEL 5
REMARK VINA RESULT:    -5.560      1.595      3.699
REMARK INTER + INTRA:         -12.339
REMARK INTER:                 -10.490
REMARK INTRA:                  -1.849
REMARK UNBOUND:                -1.903
REMARK SMILES O=C([O-])CCCCCCCCCCCCCCC(=O)[O-]
REMARK SMILES IDX 10 1 9 2 8 3 7 4 6 5 5 6 4 7 2 8 1 9 3 10 11 11 12 12 13 13
REMARK SMILES IDX 14 14 15 15 16 16 17 17 18 18 19 19 20 20
REMARK H PARENT
REMARK Flexibility Score: inf
ROOT
ATOM      1  C   UNL     1       0.036 -30.909 -51.539  1.00  0.00     0.000 C 
ENDROOT
BRANCH   1   2
ATOM      2  C   UNL     1      -0.654 -29.540 -51.486  1.00  0.00     0.000 C 
BRANCH   2   3
ATOM      3  C   UNL     1      -1.775 -29.449 -52.529  1.00  0.00     0.000 C 
BRANCH   3   4
ATOM      4  C   UNL     1      -2.573 -28.146 -52.364  1.00  0.00     0.000 C 
BRANCH   4   5
ATOM      5  C   UNL     1      -3.727 -28.028 -53.372  1.00  0.00     0.000 C 
BRANCH   5   6
ATOM      6  C   UNL     1      -5.053 -27.624 -52.711  1.00  0.00     0.006 C 
BRANCH   6   7
ATOM      7  C   UNL     1      -5.258 -28.371 -51.390  1.00  0.00     0.053 C 
BRANCH   7   8
ATOM      8  C   UNL     1      -6.215 -27.631 -50.512  1.00  0.00     0.041 C 
ATOM      9  O   UNL     1      -6.480 -26.421 -50.742  1.00  0.00    -0.550 OA
ATOM     10  O   UNL     1      -6.778 -28.261 -49.409  1.00  0.00    -0.550 OA
ENDBRANCH   7   8
ENDBRANCH   6   7
ENDBRANCH   5   6
ENDBRANCH   4   5
ENDBRANCH   3   4
ENDBRANCH   2   3
ENDBRANCH   1   2
BRANCH   1  11
ATOM     11  C   UNL     1       0.131 -31.421 -52.982  1.00  0.00     0.000 C 
BRANCH  11  12
ATOM     12  C   UNL     1      -0.250 -32.907 -53.063  1.00  0.00     0.000 C 
BRANCH  12  13
ATOM     13  C   UNL     1      -1.761 -33.146 -52.900  1.00  0.00     0.000 C 
BRANCH  13  14
ATOM     14  C   UNL     1      -2.183 -33.731 -51.537  1.00  0.00     0.000 C 
BRANCH  14  15
ATOM     15  C   UNL     1      -3.463 -33.123 -50.930  1.00  0.00     0.000 C 
BRANCH  15  16
ATOM     16  C   UNL     1      -3.985 -31.860 -51.646  1.00  0.00     0.006 C 
BRANCH  16  17
ATOM     17  C   UNL     1      -5.312 -32.057 -52.395  1.00  0.00     0.053 C 
BRANCH  17  18
ATOM     18  C   UNL     1      -5.264 -31.484 -53.777  1.00  0.00     0.041 C 
ATOM     19  O   UNL     1      -5.992 -30.502 -54.082  1.00  0.00    -0.550 OA
ATOM     20  O   UNL     1      -4.440 -32.054 -54.739  1.00  0.00    -0.550 OA
ENDBRANCH  17  18
ENDBRANCH  16  17
ENDBRANCH  15  16
ENDBRANCH  14  15
ENDBRANCH  13  14
ENDBRANCH  12  13
ENDBRANCH  11  12
ENDBRANCH   1  11
TORSDOF 15
ENDMDL
MODEL 6
REMARK VINA RESULT:    -5.546      2.445      5.268
REMARK INTER + INTRA:         -12.311
REMARK INTER:                 -10.764
REMARK INTRA:                  -1.547
REMARK UNBOUND:                -1.903
REMARK SMILES O=C([O-])CCCCCCCCCCCCCCC(=O)[O-]
REMARK SMILES IDX 10 1 9 2 8 3 7 4 6 5 5 6 4 7 2 8 1 9 3 10 11 11 12 12 13 13
REMARK SMILES IDX 14 14 15 15 16 16 17 17 18 18 19 19 20 20
REMARK H PARENT
REMARK Flexibility Score: inf
ROOT
ATOM      1  C   UNL     1      -5.776 -31.532 -49.811  1.00  0.00     0.000 C 
ENDROOT
BRANCH   1   2
ATOM      2  C   UNL     1      -5.407 -32.309 -51.081  1.00  0.00     0.000 C 
BRANCH   2   3
ATOM      3  C   UNL     1      -5.283 -31.368 -52.285  1.00  0.00     0.000 C 
BRANCH   3   4
ATOM      4  C   UNL     1      -3.862 -31.405 -52.867  1.00  0.00     0.000 C 
BRANCH   4   5
ATOM      5  C   UNL     1      -2.899 -32.253 -52.021  1.00  0.00     0.000 C 
BRANCH   5   6
ATOM      6  C   UNL     1      -1.572 -32.539 -52.741  1.00  0.00     0.006 C 
BRANCH   6   7
ATOM      7  C   UNL     1      -0.829 -31.238 -53.059  1.00  0.00     0.053 C 
BRANCH   7   8
ATOM      8  C   UNL     1      -0.195 -30.682 -51.824  1.00  0.00     0.041 C 
ATOM      9  O   UNL     1       0.769 -31.285 -51.281  1.00  0.00    -0.550 OA
ATOM     10  O   UNL     1      -0.698 -29.524 -51.244  1.00  0.00    -0.550 OA
ENDBRANCH   7   8
ENDBRANCH   6   7
ENDBRANCH   5   6
ENDBRANCH   4   5
ENDBRANCH   3   4
ENDBRANCH   2   3
ENDBRANCH   1   2
BRANCH   1  11
ATOM     11  C   UNL     1      -7.287 -31.279 -49.741  1.00  0.00     0.000 C 
BRANCH  11  12
ATOM     12  C   UNL     1      -7.588 -29.932 -49.068  1.00  0.00     0.000 C 
BRANCH  12  13
ATOM     13  C   UNL     1      -6.348 -29.028 -48.959  1.00  0.00     0.000 C 
BRANCH  13  14
ATOM     14  C   UNL     1      -6.316 -27.845 -49.947  1.00  0.00     0.000 C 
BRANCH  14  15
ATOM     15  C   UNL     1      -5.633 -28.136 -51.297  1.00  0.00     0.000 C 
BRANCH  15  16
ATOM     16  C   UNL     1      -5.757 -27.010 -52.345  1.00  0.00     0.006 C 
BRANCH  16  17
ATOM     17  C   UNL     1      -5.060 -27.307 -53.682  1.00  0.00     0.053 C 
BRANCH  17  18
ATOM     18  C   UNL     1      -5.931 -28.104 -54.602  1.00  0.00     0.041 C 
ATOM     19  O   UNL     1      -5.545 -29.223 -55.033  1.00  0.00    -0.550 OA
ATOM     20  O   UNL     1      -7.157 -27.596 -55.013  1.00  0.00    -0.550 OA
ENDBRANCH  17  18
ENDBRANCH  16  17
ENDBRANCH  15  16
ENDBRANCH  14  15
ENDBRANCH  13  14
ENDBRANCH  12  13
ENDBRANCH  11  12
ENDBRANCH   1  11
TORSDOF 15
ENDMDL
MODEL 7
REMARK VINA RESULT:    -5.518      2.310      5.482
REMARK INTER + INTRA:         -12.259
REMARK INTER:                 -10.375
REMARK INTRA:                  -1.883
REMARK UNBOUND:                -1.903
REMARK SMILES O=C([O-])CCCCCCCCCCCCCCC(=O)[O-]
REMARK SMILES IDX 10 1 9 2 8 3 7 4 6 5 5 6 4 7 2 8 1 9 3 10 11 11 12 12 13 13
REMARK SMILES IDX 14 14 15 15 16 16 17 17 18 18 19 19 20 20
REMARK H PARENT
REMARK Flexibility Score: inf
ROOT
ATOM      1  C   UNL     1      -2.720 -27.628 -53.057  1.00  0.00     0.000 C 
ENDROOT
BRANCH   1   2
ATOM      2  C   UNL     1      -1.235 -27.990 -52.932  1.00  0.00     0.000 C 
BRANCH   2   3
ATOM      3  C   UNL     1      -1.041 -29.214 -52.030  1.00  0.00     0.000 C 
BRANCH   3   4
ATOM      4  C   UNL     1      -0.005 -30.178 -52.627  1.00  0.00     0.000 C 
BRANCH   4   5
ATOM      5  C   UNL     1      -0.653 -31.343 -53.392  1.00  0.00     0.000 C 
BRANCH   5   6
ATOM      6  C   UNL     1      -0.333 -32.712 -52.773  1.00  0.00     0.006 C 
BRANCH   6   7
ATOM      7  C   UNL     1      -1.609 -33.532 -52.565  1.00  0.00     0.053 C 
BRANCH   7   8
ATOM      8  C   UNL     1      -2.069 -33.435 -51.145  1.00  0.00     0.041 C 
ATOM      9  O   UNL     1      -1.579 -32.563 -50.378  1.00  0.00    -0.550 OA
ATOM     10  O   UNL     1      -3.003 -34.338 -50.652  1.00  0.00    -0.550 OA
ENDBRANCH   7   8
ENDBRANCH   6   7
ENDBRANCH   5   6
ENDBRANCH   4   5
ENDBRANCH   3   4
ENDBRANCH   2   3
ENDBRANCH   1   2
BRANCH   1  11
ATOM     11  C   UNL     1      -3.609 -28.840 -52.749  1.00  0.00     0.000 C 
BRANCH  11  12
ATOM     12  C   UNL     1      -4.746 -28.962 -53.774  1.00  0.00     0.000 C 
BRANCH  12  13
ATOM     13  C   UNL     1      -5.176 -30.419 -54.019  1.00  0.00     0.000 C 
BRANCH  13  14
ATOM     14  C   UNL     1      -4.565 -31.449 -53.048  1.00  0.00     0.000 C 
BRANCH  14  15
ATOM     15  C   UNL     1      -5.577 -32.178 -52.143  1.00  0.00     0.000 C 
BRANCH  15  16
ATOM     16  C   UNL     1      -5.585 -31.715 -50.671  1.00  0.00     0.006 C 
BRANCH  16  17
ATOM     17  C   UNL     1      -6.216 -30.332 -50.445  1.00  0.00     0.053 C 
BRANCH  17  18
ATOM     18  C   UNL     1      -7.159 -30.331 -49.282  1.00  0.00     0.041 C 
ATOM     19  O   UNL     1      -7.813 -31.368 -48.994  1.00  0.00    -0.550 OA
ATOM     20  O   UNL     1      -7.341 -29.174 -48.535  1.00  0.00    -0.550 OA
ENDBRANCH  17  18
ENDBRANCH  16  17
ENDBRANCH  15  16
ENDBRANCH  14  15
ENDBRANCH  13  14
ENDBRANCH  12  13
ENDBRANCH  11  12
ENDBRANCH   1  11
TORSDOF 15
ENDMDL
MODEL 8
REMARK VINA RESULT:    -5.493      2.205      4.975
REMARK INTER + INTRA:         -12.212
REMARK INTER:                 -10.590
REMARK INTRA:                  -1.622
REMARK UNBOUND:                -1.903
REMARK SMILES O=C([O-])CCCCCCCCCCCCCCC(=O)[O-]
REMARK SMILES IDX 10 1 9 2 8 3 7 4 6 5 5 6 4 7 2 8 1 9 3 10 11 11 12 12 13 13
REMARK SMILES IDX 14 14 15 15 16 16 17 17 18 18 19 19 20 20
REMARK H PARENT
REMARK Flexibility Score: inf
ROOT
ATOM      1  C   UNL     1      -4.327 -32.059 -52.102  1.00  0.00     0.000 C 
ENDROOT
BRANCH   1   2
ATOM      2  C   UNL     1      -3.820 -32.824 -50.874  1.00  0.00     0.000 C 
BRANCH   2   3
ATOM      3  C   UNL     1      -2.334 -33.176 -51.020  1.00  0.00     0.000 C 
BRANCH   3   4
ATOM      4  C   UNL     1      -1.697 -32.395 -52.179  1.00  0.00     0.000 C 
BRANCH   4   5
ATOM      5  C   UNL     1      -0.162 -32.366 -52.098  1.00  0.00     0.000 C 
BRANCH   5   6
ATOM      6  C   UNL     1       0.376 -31.049 -51.519  1.00  0.00     0.006 C 
BRANCH   6   7
ATOM      7  C   UNL     1      -0.702 -29.961 -51.537  1.00  0.00     0.053 C 
BRANCH   7   8
ATOM      8  C   UNL     1      -0.336 -28.876 -52.499  1.00  0.00     0.041 C 
ATOM      9  O   UNL     1       0.138 -29.165 -53.629  1.00  0.00    -0.550 OA
ATOM     10  O   UNL     1      -0.472 -27.543 -52.129  1.00  0.00    -0.550 OA
ENDBRANCH   7   8
ENDBRANCH   6   7
ENDBRANCH   5   6
ENDBRANCH   4   5
ENDBRANCH   3   4
ENDBRANCH   2   3
ENDBRANCH   1   2
BRANCH   1  11
ATOM     11  C   UNL     1      -5.742 -31.517 -51.866  1.00  0.00     0.000 C 
BRANCH  11  12
ATOM     12  C   UNL     1      -5.988 -31.253 -50.373  1.00  0.00     0.000 C 
BRANCH  12  13
ATOM     13  C   UNL     1      -6.522 -29.837 -50.096  1.00  0.00     0.000 C 
BRANCH  13  14
ATOM     14  C   UNL     1      -5.577 -28.693 -50.515  1.00  0.00     0.000 C 
BRANCH  14  15
ATOM     15  C   UNL     1      -6.274 -27.446 -51.095  1.00  0.00     0.000 C 
BRANCH  15  16
ATOM     16  C   UNL     1      -5.893 -27.107 -52.551  1.00  0.00     0.006 C 
BRANCH  16  17
ATOM     17  C   UNL     1      -4.978 -28.141 -53.226  1.00  0.00     0.053 C 
BRANCH  17  18
ATOM     18  C   UNL     1      -5.595 -28.711 -54.465  1.00  0.00     0.041 C 
ATOM     19  O   UNL     1      -6.529 -28.099 -55.047  1.00  0.00    -0.550 OA
ATOM     20  O   UNL     1      -5.160 -29.934 -54.959  1.00  0.00    -0.550 OA
ENDBRANCH  17  18
ENDBRANCH  16  17
ENDBRANCH  15  16
ENDBRANCH  14  15
ENDBRANCH  13  14
ENDBRANCH  12  13
ENDBRANCH  11  12
ENDBRANCH   1  11
TORSDOF 15
ENDMDL
MODEL 9
REMARK VINA RESULT:    -5.449      2.466      5.932
REMARK INTER + INTRA:         -12.130
REMARK INTER:                 -10.329
REMARK INTRA:                  -1.801
REMARK UNBOUND:                -1.903
REMARK SMILES O=C([O-])CCCCCCCCCCCCCCC(=O)[O-]
REMARK SMILES IDX 10 1 9 2 8 3 7 4 6 5 5 6 4 7 2 8 1 9 3 10 11 11 12 12 13 13
REMARK SMILES IDX 14 14 15 15 16 16 17 17 18 18 19 19 20 20
REMARK H PARENT
REMARK Flexibility Score: inf
ROOT
ATOM      1  C   UNL     1      -7.236 -31.273 -49.162  1.00  0.00     0.000 C 
ENDROOT
BRANCH   1   2
ATOM      2  C   UNL     1      -7.568 -29.783 -49.313  1.00  0.00     0.000 C 
BRANCH   2   3
ATOM      3  C   UNL     1      -6.443 -28.909 -48.746  1.00  0.00     0.000 C 
BRANCH   3   4
ATOM      4  C   UNL     1      -6.103 -27.761 -49.708  1.00  0.00     0.000 C 
BRANCH   4   5
ATOM      5  C   UNL     1      -6.086 -28.207 -51.179  1.00  0.00     0.000 C 
BRANCH   5   6
ATOM      6  C   UNL     1      -4.675 -28.552 -51.679  1.00  0.00     0.006 C 
BRANCH   6   7
ATOM      7  C   UNL     1      -4.702 -28.960 -53.155  1.00  0.00     0.053 C 
BRANCH   7   8
ATOM      8  C   UNL     1      -4.706 -27.749 -54.033  1.00  0.00     0.041 C 
ATOM      9  O   UNL     1      -5.506 -27.672 -55.003  1.00  0.00    -0.550 OA
ATOM     10  O   UNL     1      -3.792 -26.726 -53.812  1.00  0.00    -0.550 OA
ENDBRANCH   7   8
ENDBRANCH   6   7
ENDBRANCH   5   6
ENDBRANCH   4   5
ENDBRANCH   3   4
ENDBRANCH   2   3
ENDBRANCH   1   2
BRANCH   1  11
ATOM     11  C   UNL     1      -5.886 -31.604 -49.810  1.00  0.00     0.000 C 
BRANCH  11  12
ATOM     12  C   UNL     1      -6.065 -31.984 -51.288  1.00  0.00     0.000 C 
BRANCH  12  13
ATOM     13  C   UNL     1      -4.747 -32.410 -51.958  1.00  0.00     0.000 C 
BRANCH  13  14
ATOM     14  C   UNL     1      -3.636 -32.855 -50.986  1.00  0.00     0.000 C 
BRANCH  14  15
ATOM     15  C   UNL     1      -2.425 -33.544 -51.644  1.00  0.00     0.000 C 
BRANCH  15  16
ATOM     16  C   UNL     1      -2.112 -33.076 -53.081  1.00  0.00     0.006 C 
BRANCH  16  17
ATOM     17  C   UNL     1      -0.701 -32.497 -53.266  1.00  0.00     0.053 C 
BRANCH  17  18
ATOM     18  C   UNL     1      -0.500 -31.246 -52.468  1.00  0.00     0.041 C 
ATOM     19  O   UNL     1      -0.902 -30.138 -52.913  1.00  0.00    -0.550 OA
ATOM     20  O   UNL     1       0.161 -31.298 -51.247  1.00  0.00    -0.550 OA
ENDBRANCH  17  18
ENDBRANCH  16  17
ENDBRANCH  15  16
ENDBRANCH  14  15
ENDBRANCH  13  14
ENDBRANCH  12  13
ENDBRANCH  11  12
ENDBRANCH   1  11
TORSDOF 15
ENDMDL
