MODEL 1
REMARK VINA RESULT:    -6.336      0.000      0.000
REMARK INTER + INTRA:          -8.471
REMARK INTER:                  -8.003
REMARK INTRA:                  -0.468
REMARK UNBOUND:                -0.468
REMARK SMILES O=C(C=Cc1ccc(O)cc1)c1ccc(O)cc1O
REMARK SMILES IDX 4 1 3 2 5 3 6 4 7 5 8 6 11 7 10 8 9 9 2 11 1 12 12 13 18 14
REMARK SMILES IDX 13 15 17 16 14 17 15 18 19 19 16 21
REMARK H PARENT 9 10 19 20 16 22
REMARK Flexibility Score: inf
ROOT
ATOM      1  C   UNL     1      19.960  28.620  36.913  1.00  0.00     0.012 C 
ATOM      2  C   UNL     1      20.631  29.453  36.104  1.00  0.00     0.053 C 
ENDROOT
BRANCH   1   3
ATOM      3  C   UNL     1      19.432  27.303  36.482  1.00  0.00    -0.025 A 
ATOM      4  C   UNL     1      20.335  26.343  35.993  1.00  0.00     0.012 A 
ATOM      5  C   UNL     1      19.880  25.091  35.567  1.00  0.00     0.047 A 
ATOM      6  C   UNL     1      18.516  24.785  35.612  1.00  0.00     0.115 A 
ATOM      7  C   UNL     1      18.057  26.991  36.510  1.00  0.00     0.012 A 
ATOM      8  C   UNL     1      17.607  25.738  36.081  1.00  0.00     0.047 A 
BRANCH   6   9
ATOM      9  O   UNL     1      18.051  23.542  35.189  1.00  0.00    -0.508 OA
ATOM     10  H   UNL     1      17.532  22.931  35.810  1.00  0.00     0.293 HD
ENDBRANCH   6   9
ENDBRANCH   1   3
BRANCH   2  11
ATOM     11  C   UNL     1      21.132  30.766  36.564  1.00  0.00     0.189 C 
ATOM     12  O   UNL     1      22.351  30.915  36.852  1.00  0.00    -0.289 OA
BRANCH  11  13
ATOM     13  C   UNL     1      20.215  31.923  36.664  1.00  0.00     0.064 A 
ATOM     14  C   UNL     1      20.625  33.235  36.319  1.00  0.00     0.130 A 
ATOM     15  C   UNL     1      18.887  31.708  37.074  1.00  0.00     0.020 A 
ATOM     16  C   UNL     1      19.698  34.284  36.359  1.00  0.00     0.093 A 
ATOM     17  C   UNL     1      17.977  32.767  37.124  1.00  0.00     0.047 A 
ATOM     18  C   UNL     1      18.379  34.057  36.761  1.00  0.00     0.119 A 
BRANCH  14  19
ATOM     19  O   UNL     1      21.940  33.536  35.962  1.00  0.00    -0.507 OA
ATOM     20  H   UNL     1      22.356  34.448  36.095  1.00  0.00     0.293 HD
ENDBRANCH  14  19
BRANCH  18  21
ATOM     21  O   UNL     1      17.478  35.118  36.799  1.00  0.00    -0.508 OA
ATOM     22  H   UNL     1      17.650  35.939  37.369  1.00  0.00     0.293 HD
ENDBRANCH  18  21
ENDBRANCH  11  13
ENDBRANCH   2  11
TORSDOF 6
ENDMDL
MODEL 2
REMARK VINA RESULT:    -5.609     16.659     18.020
REMARK INTER + INTRA:          -7.552
REMARK INTER:                  -6.879
REMARK INTRA:                  -0.673
REMARK UNBOUND:                -0.468
REMARK SMILES O=C(C=Cc1ccc(O)cc1)c1ccc(O)cc1O
REMARK SMILES IDX 4 1 3 2 5 3 6 4 7 5 8 6 11 7 10 8 9 9 2 11 1 12 12 13 18 14
REMARK SMILES IDX 13 15 17 16 14 17 15 18 19 19 16 21
REMARK H PARENT 9 10 19 20 16 22
REMARK Flexibility Score: inf
ROOT
ATOM      1  C   UNL     1      19.098  18.248  21.472  1.00  0.00     0.012 C 
ATOM      2  C   UNL     1      18.476  19.396  21.166  1.00  0.00     0.053 C 
ENDROOT
BRANCH   1   3
ATOM      3  C   UNL     1      18.748  17.410  22.645  1.00  0.00    -0.025 A 
ATOM      4  C   UNL     1      17.390  17.213  22.949  1.00  0.00     0.012 A 
ATOM      5  C   UNL     1      17.013  16.439  24.051  1.00  0.00     0.047 A 
ATOM      6  C   UNL     1      17.989  15.861  24.871  1.00  0.00     0.115 A 
ATOM      7  C   UNL     1      19.724  16.836  23.486  1.00  0.00     0.012 A 
ATOM      8  C   UNL     1      19.342  16.064  24.587  1.00  0.00     0.047 A 
BRANCH   6   9
ATOM      9  O   UNL     1      17.626  15.088  25.972  1.00  0.00    -0.508 OA
ATOM     10  H   UNL     1      16.807  15.309  26.528  1.00  0.00     0.293 HD
ENDBRANCH   6   9
ENDBRANCH   1   3
BRANCH   2  11
ATOM     11  C   UNL     1      18.862  20.214  19.995  1.00  0.00     0.189 C 
ATOM     12  O   UNL     1      18.799  19.726  18.833  1.00  0.00    -0.289 OA
BRANCH  11  13
ATOM     13  C   UNL     1      19.296  21.617  20.172  1.00  0.00     0.064 A 
ATOM     14  C   UNL     1      18.659  22.688  19.500  1.00  0.00     0.130 A 
ATOM     15  C   UNL     1      20.344  21.899  21.066  1.00  0.00     0.020 A 
ATOM     16  C   UNL     1      19.058  24.006  19.759  1.00  0.00     0.093 A 
ATOM     17  C   UNL     1      20.742  23.216  21.304  1.00  0.00     0.047 A 
ATOM     18  C   UNL     1      20.096  24.274  20.654  1.00  0.00     0.119 A 
BRANCH  14  19
ATOM     19  O   UNL     1      17.653  22.483  18.553  1.00  0.00    -0.507 OA
ATOM     20  H   UNL     1      17.649  22.923  17.643  1.00  0.00     0.293 HD
ENDBRANCH  14  19
BRANCH  18  21
ATOM     21  O   UNL     1      20.479  25.592  20.889  1.00  0.00    -0.508 OA
ATOM     22  H   UNL     1      20.956  25.861  21.742  1.00  0.00     0.293 HD
ENDBRANCH  18  21
ENDBRANCH  11  13
ENDBRANCH   2  11
TORSDOF 6
ENDMDL
MODEL 3
REMARK VINA RESULT:    -5.593     17.322     19.489
REMARK INTER + INTRA:          -7.532
REMARK INTER:                  -6.874
REMARK INTRA:                  -0.659
REMARK UNBOUND:                -0.468
REMARK SMILES O=C(C=Cc1ccc(O)cc1)c1ccc(O)cc1O
REMARK SMILES IDX 4 1 3 2 5 3 6 4 7 5 8 6 11 7 10 8 9 9 2 11 1 12 12 13 18 14
REMARK SMILES IDX 13 15 17 16 14 17 15 18 19 19 16 21
REMARK H PARENT 9 10 19 20 16 22
REMARK Flexibility Score: inf
ROOT
ATOM      1  C   UNL     1      20.372  19.978  20.897  1.00  0.00     0.012 C 
ATOM      2  C   UNL     1      19.731  18.831  20.631  1.00  0.00     0.053 C 
ENDROOT
BRANCH   1   3
ATOM      3  C   UNL     1      19.943  21.299  20.376  1.00  0.00    -0.025 A 
ATOM      4  C   UNL     1      19.258  21.349  19.150  1.00  0.00     0.012 A 
ATOM      5  C   UNL     1      18.844  22.573  18.616  1.00  0.00     0.047 A 
ATOM      6  C   UNL     1      19.118  23.766  19.295  1.00  0.00     0.115 A 
ATOM      7  C   UNL     1      20.228  22.508  21.045  1.00  0.00     0.012 A 
ATOM      8  C   UNL     1      19.812  23.729  20.507  1.00  0.00     0.047 A 
BRANCH   6   9
ATOM      9  O   UNL     1      18.710  24.991  18.773  1.00  0.00    -0.508 OA
ATOM     10  H   UNL     1      18.759  25.187  17.779  1.00  0.00     0.293 HD
ENDBRANCH   6   9
ENDBRANCH   1   3
BRANCH   2  11
ATOM     11  C   UNL     1      20.196  17.528  21.156  1.00  0.00     0.189 C 
ATOM     12  O   UNL     1      21.147  16.920  20.594  1.00  0.00    -0.289 OA
BRANCH  11  13
ATOM     13  C   UNL     1      19.570  16.942  22.362  1.00  0.00     0.064 A 
ATOM     14  C   UNL     1      20.280  16.077  23.229  1.00  0.00     0.130 A 
ATOM     15  C   UNL     1      18.243  17.287  22.678  1.00  0.00     0.020 A 
ATOM     16  C   UNL     1      19.667  15.607  24.397  1.00  0.00     0.093 A 
ATOM     17  C   UNL     1      17.638  16.799  23.839  1.00  0.00     0.047 A 
ATOM     18  C   UNL     1      18.351  15.963  24.705  1.00  0.00     0.119 A 
BRANCH  14  19
ATOM     19  O   UNL     1      21.577  15.641  22.951  1.00  0.00    -0.507 OA
ATOM     20  H   UNL     1      22.387  16.246  22.991  1.00  0.00     0.293 HD
ENDBRANCH  14  19
BRANCH  18  21
ATOM     21  O   UNL     1      17.760  15.477  25.869  1.00  0.00    -0.508 OA
ATOM     22  H   UNL     1      18.258  15.466  26.751  1.00  0.00     0.293 HD
ENDBRANCH  18  21
ENDBRANCH  11  13
ENDBRANCH   2  11
TORSDOF 6
ENDMDL
MODEL 4
REMARK VINA RESULT:    -5.510     18.111     20.835
REMARK INTER + INTRA:          -7.427
REMARK INTER:                  -6.765
REMARK INTRA:                  -0.662
REMARK UNBOUND:                -0.468
REMARK SMILES O=C(C=Cc1ccc(O)cc1)c1ccc(O)cc1O
REMARK SMILES IDX 4 1 3 2 5 3 6 4 7 5 8 6 11 7 10 8 9 9 2 11 1 12 12 13 18 14
REMARK SMILES IDX 13 15 17 16 14 17 15 18 19 19 16 21
REMARK H PARENT 9 10 19 20 16 22
REMARK Flexibility Score: inf
ROOT
ATOM      1  C   UNL     1      20.326  16.459  21.417  1.00  0.00     0.012 C 
ATOM      2  C   UNL     1      21.426  15.792  21.038  1.00  0.00     0.053 C 
ENDROOT
BRANCH   1   3
ATOM      3  C   UNL     1      19.549  16.136  22.638  1.00  0.00    -0.025 A 
ATOM      4  C   UNL     1      18.501  15.204  22.542  1.00  0.00     0.012 A 
ATOM      5  C   UNL     1      17.735  14.875  23.665  1.00  0.00     0.047 A 
ATOM      6  C   UNL     1      17.999  15.482  24.898  1.00  0.00     0.115 A 
ATOM      7  C   UNL     1      19.796  16.754  23.882  1.00  0.00     0.012 A 
ATOM      8  C   UNL     1      19.028  16.423  25.001  1.00  0.00     0.047 A 
BRANCH   6   9
ATOM      9  O   UNL     1      17.242  15.164  26.023  1.00  0.00    -0.508 OA
ATOM     10  H   UNL     1      16.879  14.229  26.170  1.00  0.00     0.293 HD
ENDBRANCH   6   9
ENDBRANCH   1   3
BRANCH   2  11
ATOM     11  C   UNL     1      22.169  16.134  19.805  1.00  0.00     0.189 C 
ATOM     12  O   UNL     1      21.630  15.977  18.675  1.00  0.00    -0.289 OA
BRANCH  11  13
ATOM     13  C   UNL     1      23.538  16.691  19.887  1.00  0.00     0.064 A 
ATOM     14  C   UNL     1      24.530  16.382  18.924  1.00  0.00     0.130 A 
ATOM     15  C   UNL     1      23.850  17.584  20.928  1.00  0.00     0.020 A 
ATOM     16  C   UNL     1      25.788  16.993  19.004  1.00  0.00     0.093 A 
ATOM     17  C   UNL     1      25.113  18.174  21.004  1.00  0.00     0.047 A 
ATOM     18  C   UNL     1      26.084  17.884  20.038  1.00  0.00     0.119 A 
BRANCH  14  19
ATOM     19  O   UNL     1      24.314  15.459  17.900  1.00  0.00    -0.507 OA
ATOM     20  H   UNL     1      24.946  15.337  17.120  1.00  0.00     0.293 HD
ENDBRANCH  14  19
BRANCH  18  21
ATOM     21  O   UNL     1      27.345  18.473  20.100  1.00  0.00    -0.508 OA
ATOM     22  H   UNL     1      28.037  18.173  20.777  1.00  0.00     0.293 HD
ENDBRANCH  18  21
ENDBRANCH  11  13
ENDBRANCH   2  11
TORSDOF 6
ENDMDL
MODEL 5
REMARK VINA RESULT:    -5.494     16.212     17.897
REMARK INTER + INTRA:          -7.407
REMARK INTER:                  -6.810
REMARK INTRA:                  -0.597
REMARK UNBOUND:                -0.468
REMARK SMILES O=C(C=Cc1ccc(O)cc1)c1ccc(O)cc1O
REMARK SMILES IDX 4 1 3 2 5 3 6 4 7 5 8 6 11 7 10 8 9 9 2 11 1 12 12 13 18 14
REMARK SMILES IDX 13 15 17 16 14 17 15 18 19 19 16 21
REMARK H PARENT 9 10 19 20 16 22
REMARK Flexibility Score: inf
ROOT
ATOM      1  C   UNL     1      18.846  18.380  21.520  1.00  0.00     0.012 C 
ATOM      2  C   UNL     1      18.243  19.545  21.242  1.00  0.00     0.053 C 
ENDROOT
BRANCH   1   3
ATOM      3  C   UNL     1      18.481  17.520  22.673  1.00  0.00    -0.025 A 
ATOM      4  C   UNL     1      19.494  17.121  23.561  1.00  0.00     0.012 A 
ATOM      5  C   UNL     1      19.199  16.302  24.656  1.00  0.00     0.047 A 
ATOM      6  C   UNL     1      17.888  15.863  24.871  1.00  0.00     0.115 A 
ATOM      7  C   UNL     1      17.166  17.059  22.890  1.00  0.00     0.012 A 
ATOM      8  C   UNL     1      16.875  16.240  23.985  1.00  0.00     0.047 A 
BRANCH   6   9
ATOM      9  O   UNL     1      17.581  15.047  25.958  1.00  0.00    -0.508 OA
ATOM     10  H   UNL     1      18.280  14.449  26.386  1.00  0.00     0.293 HD
ENDBRANCH   6   9
ENDBRANCH   1   3
BRANCH   2  11
ATOM     11  C   UNL     1      18.642  20.384  20.090  1.00  0.00     0.189 C 
ATOM     12  O   UNL     1      18.549  19.934  18.916  1.00  0.00    -0.289 OA
BRANCH  11  13
ATOM     13  C   UNL     1      19.126  21.765  20.304  1.00  0.00     0.064 A 
ATOM     14  C   UNL     1      19.858  22.464  19.313  1.00  0.00     0.130 A 
ATOM     15  C   UNL     1      18.814  22.419  21.510  1.00  0.00     0.020 A 
ATOM     16  C   UNL     1      20.229  23.796  19.535  1.00  0.00     0.093 A 
ATOM     17  C   UNL     1      19.203  23.742  21.724  1.00  0.00     0.047 A 
ATOM     18  C   UNL     1      19.908  24.437  20.734  1.00  0.00     0.119 A 
BRANCH  14  19
ATOM     19  O   UNL     1      20.258  21.863  18.118  1.00  0.00    -0.507 OA
ATOM     20  H   UNL     1      20.684  22.372  17.356  1.00  0.00     0.293 HD
ENDBRANCH  14  19
BRANCH  18  21
ATOM     21  O   UNL     1      20.294  25.760  20.933  1.00  0.00    -0.508 OA
ATOM     22  H   UNL     1      19.672  26.531  20.722  1.00  0.00     0.293 HD
ENDBRANCH  18  21
ENDBRANCH  11  13
ENDBRANCH   2  11
TORSDOF 6
ENDMDL
MODEL 6
REMARK VINA RESULT:    -5.400     18.182     20.740
REMARK INTER + INTRA:          -7.289
REMARK INTER:                  -6.634
REMARK INTRA:                  -0.655
REMARK UNBOUND:                -0.468
REMARK SMILES O=C(C=Cc1ccc(O)cc1)c1ccc(O)cc1O
REMARK SMILES IDX 4 1 3 2 5 3 6 4 7 5 8 6 11 7 10 8 9 9 2 11 1 12 12 13 18 14
REMARK SMILES IDX 13 15 17 16 14 17 15 18 19 19 16 21
REMARK H PARENT 9 10 19 20 16 22
REMARK Flexibility Score: inf
ROOT
ATOM      1  C   UNL     1      21.833  16.484  20.417  1.00  0.00     0.012 C 
ATOM      2  C   UNL     1      20.862  17.234  20.956  1.00  0.00     0.053 C 
ENDROOT
BRANCH   1   3
ATOM      3  C   UNL     1      23.239  16.936  20.274  1.00  0.00    -0.025 A 
ATOM      4  C   UNL     1      23.755  17.836  21.223  1.00  0.00     0.012 A 
ATOM      5  C   UNL     1      25.071  18.297  21.123  1.00  0.00     0.047 A 
ATOM      6  C   UNL     1      25.886  17.874  20.067  1.00  0.00     0.115 A 
ATOM      7  C   UNL     1      24.063  16.528  19.205  1.00  0.00     0.012 A 
ATOM      8  C   UNL     1      25.378  16.993  19.109  1.00  0.00     0.047 A 
BRANCH   6   9
ATOM      9  O   UNL     1      27.199  18.327  19.956  1.00  0.00    -0.508 OA
ATOM     10  H   UNL     1      27.826  17.968  19.245  1.00  0.00     0.293 HD
ENDBRANCH   6   9
ENDBRANCH   1   3
BRANCH   2  11
ATOM     11  C   UNL     1      19.467  16.755  21.070  1.00  0.00     0.189 C 
ATOM     12  O   UNL     1      18.738  16.676  20.044  1.00  0.00    -0.289 OA
BRANCH  11  13
ATOM     13  C   UNL     1      18.924  16.337  22.382  1.00  0.00     0.064 A 
ATOM     14  C   UNL     1      17.874  15.393  22.491  1.00  0.00     0.130 A 
ATOM     15  C   UNL     1      19.495  16.862  23.555  1.00  0.00     0.020 A 
ATOM     16  C   UNL     1      17.446  14.975  23.757  1.00  0.00     0.093 A 
ATOM     17  C   UNL     1      19.049  16.447  24.811  1.00  0.00     0.047 A 
ATOM     18  C   UNL     1      18.026  15.497  24.915  1.00  0.00     0.119 A 
BRANCH  14  19
ATOM     19  O   UNL     1      17.217  14.875  21.374  1.00  0.00    -0.507 OA
ATOM     20  H   UNL     1      17.434  13.974  20.970  1.00  0.00     0.293 HD
ENDBRANCH  14  19
BRANCH  18  21
ATOM     21  O   UNL     1      17.578  15.071  26.163  1.00  0.00    -0.508 OA
ATOM     22  H   UNL     1      17.317  14.106  26.331  1.00  0.00     0.293 HD
ENDBRANCH  18  21
ENDBRANCH  11  13
ENDBRANCH   2  11
TORSDOF 6
ENDMDL
MODEL 7
REMARK VINA RESULT:    -5.382     16.706     20.408
REMARK INTER + INTRA:          -7.266
REMARK INTER:                  -6.631
REMARK INTRA:                  -0.636
REMARK UNBOUND:                -0.468
REMARK SMILES O=C(C=Cc1ccc(O)cc1)c1ccc(O)cc1O
REMARK SMILES IDX 4 1 3 2 5 3 6 4 7 5 8 6 11 7 10 8 9 9 2 11 1 12 12 13 18 14
REMARK SMILES IDX 13 15 17 16 14 17 15 18 19 19 16 21
REMARK H PARENT 9 10 19 20 16 22
REMARK Flexibility Score: inf
ROOT
ATOM      1  C   UNL     1      21.128  20.292  20.718  1.00  0.00     0.012 C 
ATOM      2  C   UNL     1      22.240  19.847  21.323  1.00  0.00     0.053 C 
ENDROOT
BRANCH   1   3
ATOM      3  C   UNL     1      20.754  21.725  20.636  1.00  0.00    -0.025 A 
ATOM      4  C   UNL     1      21.457  22.554  19.746  1.00  0.00     0.012 A 
ATOM      5  C   UNL     1      21.145  23.913  19.643  1.00  0.00     0.047 A 
ATOM      6  C   UNL     1      20.133  24.465  20.436  1.00  0.00     0.115 A 
ATOM      7  C   UNL     1      19.746  22.293  21.443  1.00  0.00     0.012 A 
ATOM      8  C   UNL     1      19.438  23.653  21.336  1.00  0.00     0.047 A 
BRANCH   6   9
ATOM      9  O   UNL     1      19.814  25.818  20.342  1.00  0.00    -0.508 OA
ATOM     10  H   UNL     1      19.626  26.376  21.167  1.00  0.00     0.293 HD
ENDBRANCH   6   9
ENDBRANCH   1   3
BRANCH   2  11
ATOM     11  C   UNL     1      22.575  18.408  21.397  1.00  0.00     0.189 C 
ATOM     12  O   UNL     1      21.868  17.628  22.092  1.00  0.00    -0.289 OA
BRANCH  11  13
ATOM     13  C   UNL     1      23.722  17.867  20.635  1.00  0.00     0.064 A 
ATOM     14  C   UNL     1      23.557  16.876  19.637  1.00  0.00     0.130 A 
ATOM     15  C   UNL     1      25.008  18.382  20.880  1.00  0.00     0.020 A 
ATOM     16  C   UNL     1      24.664  16.450  18.892  1.00  0.00     0.093 A 
ATOM     17  C   UNL     1      26.106  17.937  20.140  1.00  0.00     0.047 A 
ATOM     18  C   UNL     1      25.935  16.974  19.140  1.00  0.00     0.119 A 
BRANCH  14  19
ATOM     19  O   UNL     1      22.324  16.275  19.379  1.00  0.00    -0.507 OA
ATOM     20  H   UNL     1      22.162  15.280  19.466  1.00  0.00     0.293 HD
ENDBRANCH  14  19
BRANCH  18  21
ATOM     21  O   UNL     1      27.022  16.530  18.390  1.00  0.00    -0.508 OA
ATOM     22  H   UNL     1      27.443  17.108  17.672  1.00  0.00     0.293 HD
ENDBRANCH  18  21
ENDBRANCH  11  13
ENDBRANCH   2  11
TORSDOF 6
ENDMDL
MODEL 8
REMARK VINA RESULT:    -5.180     17.567     20.104
REMARK INTER + INTRA:          -7.010
REMARK INTER:                  -6.427
REMARK INTRA:                  -0.583
REMARK UNBOUND:                -0.468
REMARK SMILES O=C(C=Cc1ccc(O)cc1)c1ccc(O)cc1O
REMARK SMILES IDX 4 1 3 2 5 3 6 4 7 5 8 6 11 7 10 8 9 9 2 11 1 12 12 13 18 14
REMARK SMILES IDX 13 15 17 16 14 17 15 18 19 19 16 21
REMARK H PARENT 9 10 19 20 16 22
REMARK Flexibility Score: inf
ROOT
ATOM      1  C   UNL     1      19.404  20.297  20.548  1.00  0.00     0.012 C 
ATOM      2  C   UNL     1      18.594  19.573  19.762  1.00  0.00     0.053 C 
ENDROOT
BRANCH   1   3
ATOM      3  C   UNL     1      19.766  21.709  20.276  1.00  0.00    -0.025 A 
ATOM      4  C   UNL     1      21.099  22.011  19.949  1.00  0.00     0.012 A 
ATOM      5  C   UNL     1      21.488  23.330  19.695  1.00  0.00     0.047 A 
ATOM      6  C   UNL     1      20.552  24.367  19.774  1.00  0.00     0.115 A 
ATOM      7  C   UNL     1      18.834  22.764  20.369  1.00  0.00     0.012 A 
ATOM      8  C   UNL     1      19.228  24.081  20.115  1.00  0.00     0.047 A 
BRANCH   6   9
ATOM      9  O   UNL     1      20.929  25.685  19.523  1.00  0.00    -0.508 OA
ATOM     10  H   UNL     1      21.855  26.025  19.755  1.00  0.00     0.293 HD
ENDBRANCH   6   9
ENDBRANCH   1   3
BRANCH   2  11
ATOM     11  C   UNL     1      18.265  18.161  20.057  1.00  0.00     0.189 C 
ATOM     12  O   UNL     1      17.225  17.638  19.573  1.00  0.00    -0.289 OA
BRANCH  11  13
ATOM     13  C   UNL     1      19.168  17.343  20.897  1.00  0.00     0.064 A 
ATOM     14  C   UNL     1      20.323  16.718  20.367  1.00  0.00     0.130 A 
ATOM     15  C   UNL     1      18.893  17.216  22.271  1.00  0.00     0.020 A 
ATOM     16  C   UNL     1      21.185  16.016  21.218  1.00  0.00     0.093 A 
ATOM     17  C   UNL     1      19.754  16.500  23.106  1.00  0.00     0.047 A 
ATOM     18  C   UNL     1      20.906  15.903  22.582  1.00  0.00     0.119 A 
BRANCH  14  19
ATOM     19  O   UNL     1      20.628  16.748  19.005  1.00  0.00    -0.507 OA
ATOM     20  H   UNL     1      20.992  17.566  18.535  1.00  0.00     0.293 HD
ENDBRANCH  14  19
BRANCH  18  21
ATOM     21  O   UNL     1      21.775  15.194  23.407  1.00  0.00    -0.508 OA
ATOM     22  H   UNL     1      21.673  14.196  23.551  1.00  0.00     0.293 HD
ENDBRANCH  18  21
ENDBRANCH  11  13
ENDBRANCH   2  11
TORSDOF 6
ENDMDL
MODEL 9
REMARK VINA RESULT:    -5.157     17.818     20.367
REMARK INTER + INTRA:          -6.982
REMARK INTER:                  -6.566
REMARK INTRA:                  -0.416
REMARK UNBOUND:                -0.468
REMARK SMILES O=C(C=Cc1ccc(O)cc1)c1ccc(O)cc1O
REMARK SMILES IDX 4 1 3 2 5 3 6 4 7 5 8 6 11 7 10 8 9 9 2 11 1 12 12 13 18 14
REMARK SMILES IDX 13 15 17 16 14 17 15 18 19 19 16 21
REMARK H PARENT 9 10 19 20 16 22
REMARK Flexibility Score: inf
ROOT
ATOM      1  C   UNL     1      21.191  20.363  20.924  1.00  0.00     0.012 C 
ATOM      2  C   UNL     1      20.485  19.225  21.012  1.00  0.00     0.053 C 
ENDROOT
BRANCH   1   3
ATOM      3  C   UNL     1      20.628  21.643  20.430  1.00  0.00    -0.025 A 
ATOM      4  C   UNL     1      21.475  22.531  19.746  1.00  0.00     0.012 A 
ATOM      5  C   UNL     1      20.990  23.754  19.272  1.00  0.00     0.047 A 
ATOM      6  C   UNL     1      19.654  24.111  19.485  1.00  0.00     0.115 A 
ATOM      7  C   UNL     1      19.287  22.019  20.654  1.00  0.00     0.012 A 
ATOM      8  C   UNL     1      18.806  23.243  20.179  1.00  0.00     0.047 A 
BRANCH   6   9
ATOM      9  O   UNL     1      19.160  25.327  19.017  1.00  0.00    -0.508 OA
ATOM     10  H   UNL     1      18.171  25.549  19.061  1.00  0.00     0.293 HD
ENDBRANCH   6   9
ENDBRANCH   1   3
BRANCH   2  11
ATOM     11  C   UNL     1      21.084  17.962  21.497  1.00  0.00     0.189 C 
ATOM     12  O   UNL     1      20.584  17.362  22.487  1.00  0.00    -0.289 OA
BRANCH  11  13
ATOM     13  C   UNL     1      22.254  17.376  20.806  1.00  0.00     0.064 A 
ATOM     14  C   UNL     1      23.579  17.764  21.121  1.00  0.00     0.130 A 
ATOM     15  C   UNL     1      22.046  16.377  19.839  1.00  0.00     0.020 A 
ATOM     16  C   UNL     1      24.656  17.126  20.492  1.00  0.00     0.093 A 
ATOM     17  C   UNL     1      23.128  15.760  19.209  1.00  0.00     0.047 A 
ATOM     18  C   UNL     1      24.437  16.129  19.538  1.00  0.00     0.119 A 
BRANCH  14  19
ATOM     19  O   UNL     1      23.863  18.790  22.024  1.00  0.00    -0.507 OA
ATOM     20  H   UNL     1      24.318  18.636  22.914  1.00  0.00     0.293 HD
ENDBRANCH  14  19
BRANCH  18  21
ATOM     21  O   UNL     1      25.525  15.515  18.921  1.00  0.00    -0.508 OA
ATOM     22  H   UNL     1      25.413  14.679  18.360  1.00  0.00     0.293 HD
ENDBRANCH  18  21
ENDBRANCH  11  13
ENDBRANCH   2  11
TORSDOF 6
ENDMDL
