MODEL 1
REMARK VINA RESULT:    -4.290      0.000      0.000
REMARK INTER + INTRA:          -6.763
REMARK INTER:                  -5.293
REMARK INTRA:                  -1.470
REMARK UNBOUND:                -1.470
REMARK SMILES CC(C)=CCC[C@@H](C)c1ccc(C)cc1
REMARK SMILES IDX 6 1 7 2 8 3 9 4 13 5 12 6 11 7 14 8 10 9 15 10 5 11 4 12
REMARK SMILES IDX 2 13 1 14 3 15
REMARK H PARENT
REMARK Flexibility Score: inf
ROOT
ATOM      1  C   UNL     1     -42.842 -15.327  -0.576  1.00  0.00     0.012 C 
ENDROOT
BRANCH   1   2
ATOM      2  C   UNL     1     -41.891 -14.171  -0.190  1.00  0.00     0.016 C 
ATOM      3  C   UNL     1     -40.496 -14.318  -0.820  1.00  0.00     0.013 C 
BRANCH   2   4
ATOM      4  C   UNL     1     -42.518 -12.805  -0.426  1.00  0.00    -0.045 A 
ATOM      5  C   UNL     1     -44.409  -8.987  -1.152  1.00  0.00     0.044 C 
ATOM      6  C   UNL     1     -43.760 -10.321  -0.932  1.00  0.00    -0.051 A 
ATOM      7  C   UNL     1     -42.386 -10.485  -1.162  1.00  0.00     0.004 A 
ATOM      8  C   UNL     1     -44.507 -11.397  -0.436  1.00  0.00     0.004 A 
ATOM      9  C   UNL     1     -41.772 -11.717  -0.923  1.00  0.00     0.004 A 
ATOM     10  C   UNL     1     -43.895 -12.632  -0.197  1.00  0.00     0.004 A 
ENDBRANCH   2   4
ENDBRANCH   1   2
BRANCH   1  11
ATOM     11  C   UNL     1     -42.881 -15.648  -2.080  1.00  0.00     0.028 C 
BRANCH  11  12
ATOM     12  C   UNL     1     -44.278 -15.474  -2.623  1.00  0.00    -0.028 C 
ATOM     13  C   UNL     1     -44.665 -14.450  -3.415  1.00  0.00    -0.080 C 
ATOM     14  C   UNL     1     -43.723 -13.330  -3.795  1.00  0.00     0.039 C 
ATOM     15  C   UNL     1     -46.086 -14.426  -3.915  1.00  0.00     0.039 C 
ENDBRANCH  11  12
ENDBRANCH   1  11
TORSDOF 4
ENDMDL
MODEL 2
REMARK VINA RESULT:    -4.199      1.749      4.336
REMARK INTER + INTRA:          -6.651
REMARK INTER:                  -5.110
REMARK INTRA:                  -1.540
REMARK UNBOUND:                -1.470
REMARK SMILES CC(C)=CCC[C@@H](C)c1ccc(C)cc1
REMARK SMILES IDX 6 1 7 2 8 3 9 4 13 5 12 6 11 7 14 8 10 9 15 10 5 11 4 12
REMARK SMILES IDX 2 13 1 14 3 15
REMARK H PARENT
REMARK Flexibility Score: inf
ROOT
ATOM      1  C   UNL     1     -44.006 -13.393  -3.677  1.00  0.00     0.012 C 
ENDROOT
BRANCH   1   2
ATOM      2  C   UNL     1     -43.806 -14.792  -3.050  1.00  0.00     0.016 C 
ATOM      3  C   UNL     1     -42.435 -15.402  -3.390  1.00  0.00     0.013 C 
BRANCH   2   4
ATOM      4  C   UNL     1     -44.119 -14.808  -1.561  1.00  0.00    -0.045 A 
ATOM      5  C   UNL     1     -45.053 -14.722   2.658  1.00  0.00     0.044 C 
ATOM      6  C   UNL     1     -44.712 -14.723   1.197  1.00  0.00    -0.051 A 
ATOM      7  C   UNL     1     -43.550 -15.363   0.743  1.00  0.00     0.004 A 
ATOM      8  C   UNL     1     -45.583 -14.138   0.268  1.00  0.00     0.004 A 
ATOM      9  C   UNL     1     -43.249 -15.396  -0.621  1.00  0.00     0.004 A 
ATOM     10  C   UNL     1     -45.283 -14.170  -1.097  1.00  0.00     0.004 A 
ENDBRANCH   2   4
ENDBRANCH   1   2
BRANCH   1  11
ATOM     11  C   UNL     1     -42.865 -12.398  -3.398  1.00  0.00     0.028 C 
BRANCH  11  12
ATOM     12  C   UNL     1     -43.172 -11.569  -2.176  1.00  0.00    -0.028 C 
ATOM     13  C   UNL     1     -42.427 -11.568  -1.048  1.00  0.00    -0.080 C 
ATOM     14  C   UNL     1     -41.218 -12.460  -0.887  1.00  0.00     0.039 C 
ATOM     15  C   UNL     1     -42.834 -10.657   0.081  1.00  0.00     0.039 C 
ENDBRANCH  11  12
ENDBRANCH   1  11
TORSDOF 4
ENDMDL
MODEL 3
REMARK VINA RESULT:    -4.082      1.267      3.557
REMARK INTER + INTRA:          -6.507
REMARK INTER:                  -5.008
REMARK INTRA:                  -1.498
REMARK UNBOUND:                -1.470
REMARK SMILES CC(C)=CCC[C@@H](C)c1ccc(C)cc1
REMARK SMILES IDX 6 1 7 2 8 3 9 4 13 5 12 6 11 7 14 8 10 9 15 10 5 11 4 12
REMARK SMILES IDX 2 13 1 14 3 15
REMARK H PARENT
REMARK Flexibility Score: inf
ROOT
ATOM      1  C   UNL     1     -43.630 -14.654  -3.631  1.00  0.00     0.012 C 
ENDROOT
BRANCH   1   2
ATOM      2  C   UNL     1     -44.673 -13.648  -3.093  1.00  0.00     0.016 C 
ATOM      3  C   UNL     1     -45.907 -14.341  -2.489  1.00  0.00     0.013 C 
BRANCH   2   4
ATOM      4  C   UNL     1     -44.052 -12.612  -2.168  1.00  0.00    -0.045 A 
ATOM      5  C   UNL     1     -42.161  -9.716   0.424  1.00  0.00     0.044 C 
ATOM      6  C   UNL     1     -42.798 -10.745  -0.462  1.00  0.00    -0.051 A 
ATOM      7  C   UNL     1     -43.962 -11.409  -0.049  1.00  0.00     0.004 A 
ATOM      8  C   UNL     1     -42.271 -11.006  -1.733  1.00  0.00     0.004 A 
ATOM      9  C   UNL     1     -44.578 -12.343  -0.888  1.00  0.00     0.004 A 
ATOM     10  C   UNL     1     -42.885 -11.941  -2.574  1.00  0.00     0.004 A 
ENDBRANCH   2   4
ENDBRANCH   1   2
BRANCH   1  11
ATOM     11  C   UNL     1     -43.192 -15.725  -2.616  1.00  0.00     0.028 C 
BRANCH  11  12
ATOM     12  C   UNL     1     -42.032 -15.229  -1.790  1.00  0.00    -0.028 C 
ATOM     13  C   UNL     1     -42.055 -15.095  -0.445  1.00  0.00    -0.080 C 
ATOM     14  C   UNL     1     -43.296 -15.390   0.367  1.00  0.00     0.039 C 
ATOM     15  C   UNL     1     -40.806 -14.623   0.253  1.00  0.00     0.039 C 
ENDBRANCH  11  12
ENDBRANCH   1  11
TORSDOF 4
ENDMDL
MODEL 4
REMARK VINA RESULT:    -4.068      1.465      2.104
REMARK INTER + INTRA:          -6.490
REMARK INTER:                  -4.985
REMARK INTRA:                  -1.505
REMARK UNBOUND:                -1.470
REMARK SMILES CC(C)=CCC[C@@H](C)c1ccc(C)cc1
REMARK SMILES IDX 6 1 7 2 8 3 9 4 13 5 12 6 11 7 14 8 10 9 15 10 5 11 4 12
REMARK SMILES IDX 2 13 1 14 3 15
REMARK H PARENT
REMARK Flexibility Score: inf
ROOT
ATOM      1  C   UNL     1     -42.044 -14.380   0.134  1.00  0.00     0.012 C 
ENDROOT
BRANCH   1   2
ATOM      2  C   UNL     1     -40.913 -13.555  -0.519  1.00  0.00     0.016 C 
ATOM      3  C   UNL     1     -39.891 -14.434  -1.260  1.00  0.00     0.013 C 
BRANCH   2   4
ATOM      4  C   UNL     1     -41.449 -12.410  -1.367  1.00  0.00    -0.045 A 
ATOM      5  C   UNL     1     -42.841  -9.120  -3.799  1.00  0.00     0.044 C 
ATOM      6  C   UNL     1     -42.338 -10.240  -2.938  1.00  0.00    -0.051 A 
ATOM      7  C   UNL     1     -43.016 -10.585  -1.759  1.00  0.00     0.004 A 
ATOM      8  C   UNL     1     -41.225 -10.992  -3.336  1.00  0.00     0.004 A 
ATOM      9  C   UNL     1     -42.570 -11.652  -0.974  1.00  0.00     0.004 A 
ATOM     10  C   UNL     1     -40.776 -12.059  -2.551  1.00  0.00     0.004 A 
ENDBRANCH   2   4
ENDBRANCH   1   2
BRANCH   1  11
ATOM     11  C   UNL     1     -42.701 -15.415  -0.797  1.00  0.00     0.028 C 
BRANCH  11  12
ATOM     12  C   UNL     1     -44.090 -14.973  -1.183  1.00  0.00    -0.028 C 
ATOM     13  C   UNL     1     -44.449 -14.589  -2.428  1.00  0.00    -0.080 C 
ATOM     14  C   UNL     1     -43.452 -14.516  -3.562  1.00  0.00     0.039 C 
ATOM     15  C   UNL     1     -45.886 -14.209  -2.678  1.00  0.00     0.039 C 
ENDBRANCH  11  12
ENDBRANCH   1  11
TORSDOF 4
ENDMDL
MODEL 5
REMARK VINA RESULT:    -4.048      2.472      4.717
REMARK INTER + INTRA:          -6.465
REMARK INTER:                  -5.324
REMARK INTRA:                  -1.141
REMARK UNBOUND:                -1.470
REMARK SMILES CC(C)=CCC[C@@H](C)c1ccc(C)cc1
REMARK SMILES IDX 6 1 7 2 8 3 9 4 13 5 12 6 11 7 14 8 10 9 15 10 5 11 4 12
REMARK SMILES IDX 2 13 1 14 3 15
REMARK H PARENT
REMARK Flexibility Score: inf
ROOT
ATOM      1  C   UNL     1     -44.227 -12.464  -1.536  1.00  0.00     0.012 C 
ENDROOT
BRANCH   1   2
ATOM      2  C   UNL     1     -45.398 -13.365  -1.084  1.00  0.00     0.016 C 
ATOM      3  C   UNL     1     -45.902 -14.288  -2.206  1.00  0.00     0.013 C 
BRANCH   2   4
ATOM      4  C   UNL     1     -45.091 -14.104   0.211  1.00  0.00    -0.045 A 
ATOM      5  C   UNL     1     -44.265 -16.090   3.960  1.00  0.00     0.044 C 
ATOM      6  C   UNL     1     -44.536 -15.373   2.670  1.00  0.00    -0.051 A 
ATOM      7  C   UNL     1     -43.646 -15.497   1.593  1.00  0.00     0.004 A 
ATOM      8  C   UNL     1     -45.709 -14.625   2.510  1.00  0.00     0.004 A 
ATOM      9  C   UNL     1     -43.914 -14.859   0.379  1.00  0.00     0.004 A 
ATOM     10  C   UNL     1     -45.979 -13.986   1.296  1.00  0.00     0.004 A 
ENDBRANCH   2   4
ENDBRANCH   1   2
BRANCH   1  11
ATOM     11  C   UNL     1     -43.526 -12.925  -2.827  1.00  0.00     0.028 C 
BRANCH  11  12
ATOM     12  C   UNL     1     -42.091 -13.296  -2.547  1.00  0.00    -0.028 C 
ATOM     13  C   UNL     1     -41.599 -14.552  -2.626  1.00  0.00    -0.080 C 
ATOM     14  C   UNL     1     -42.477 -15.737  -2.959  1.00  0.00     0.039 C 
ATOM     15  C   UNL     1     -40.132 -14.768  -2.355  1.00  0.00     0.039 C 
ENDBRANCH  11  12
ENDBRANCH   1  11
TORSDOF 4
ENDMDL
MODEL 6
REMARK VINA RESULT:    -4.003      4.145      6.079
REMARK INTER + INTRA:          -6.409
REMARK INTER:                  -4.926
REMARK INTRA:                  -1.483
REMARK UNBOUND:                -1.470
REMARK SMILES CC(C)=CCC[C@@H](C)c1ccc(C)cc1
REMARK SMILES IDX 6 1 7 2 8 3 9 4 13 5 12 6 11 7 14 8 10 9 15 10 5 11 4 12
REMARK SMILES IDX 2 13 1 14 3 15
REMARK H PARENT
REMARK Flexibility Score: inf
ROOT
ATOM      1  C   UNL     1     -40.031  -7.505  -0.767  1.00  0.00     0.012 C 
ENDROOT
BRANCH   1   2
ATOM      2  C   UNL     1     -40.837  -6.763   0.323  1.00  0.00     0.016 C 
ATOM      3  C   UNL     1     -41.167  -5.312  -0.070  1.00  0.00     0.013 C 
BRANCH   2   4
ATOM      4  C   UNL     1     -42.054  -7.554   0.780  1.00  0.00    -0.045 A 
ATOM      5  C   UNL     1     -45.485  -9.893   1.978  1.00  0.00     0.044 C 
ATOM      6  C   UNL     1     -44.305  -9.083   1.531  1.00  0.00    -0.051 A 
ATOM      7  C   UNL     1     -44.372  -7.682   1.522  1.00  0.00     0.004 A 
ATOM      8  C   UNL     1     -43.107  -9.716   1.176  1.00  0.00     0.004 A 
ATOM      9  C   UNL     1     -43.263  -6.924   1.140  1.00  0.00     0.004 A 
ATOM     10  C   UNL     1     -41.995  -8.959   0.793  1.00  0.00     0.004 A 
ENDBRANCH   2   4
ENDBRANCH   1   2
BRANCH   1  11
ATOM     11  C   UNL     1     -40.579  -7.336  -2.195  1.00  0.00     0.028 C 
BRANCH  11  12
ATOM     12  C   UNL     1     -41.014  -8.667  -2.756  1.00  0.00    -0.028 C 
ATOM     13  C   UNL     1     -42.302  -9.031  -2.944  1.00  0.00    -0.080 C 
ATOM     14  C   UNL     1     -43.453  -8.134  -2.550  1.00  0.00     0.039 C 
ATOM     15  C   UNL     1     -42.586 -10.380  -3.552  1.00  0.00     0.039 C 
ENDBRANCH  11  12
ENDBRANCH   1  11
TORSDOF 4
ENDMDL
MODEL 7
REMARK VINA RESULT:    -3.951      8.267      9.932
REMARK INTER + INTRA:          -6.345
REMARK INTER:                  -4.848
REMARK INTRA:                  -1.497
REMARK UNBOUND:                -1.470
REMARK SMILES CC(C)=CCC[C@@H](C)c1ccc(C)cc1
REMARK SMILES IDX 6 1 7 2 8 3 9 4 13 5 12 6 11 7 14 8 10 9 15 10 5 11 4 12
REMARK SMILES IDX 2 13 1 14 3 15
REMARK H PARENT
REMARK Flexibility Score: inf
ROOT
ATOM      1  C   UNL     1     -45.458 -18.950   4.801  1.00  0.00     0.012 C 
ENDROOT
BRANCH   1   2
ATOM      2  C   UNL     1     -46.111 -17.628   5.268  1.00  0.00     0.016 C 
ATOM      3  C   UNL     1     -47.355 -17.860   6.142  1.00  0.00     0.013 C 
BRANCH   2   4
ATOM      4  C   UNL     1     -45.103 -16.676   5.895  1.00  0.00    -0.045 A 
ATOM      5  C   UNL     1     -42.335 -13.873   7.673  1.00  0.00     0.044 C 
ATOM      6  C   UNL     1     -43.303 -14.823   7.032  1.00  0.00    -0.051 A 
ATOM      7  C   UNL     1     -42.863 -15.729   6.056  1.00  0.00     0.004 A 
ATOM      8  C   UNL     1     -44.641 -14.856   7.447  1.00  0.00     0.004 A 
ATOM      9  C   UNL     1     -43.755 -16.639   5.484  1.00  0.00     0.004 A 
ATOM     10  C   UNL     1     -45.535 -15.766   6.875  1.00  0.00     0.004 A 
ENDBRANCH   2   4
ENDBRANCH   1   2
BRANCH   1  11
ATOM     11  C   UNL     1     -45.394 -20.047   5.879  1.00  0.00     0.028 C 
BRANCH  11  12
ATOM     12  C   UNL     1     -44.025 -20.089   6.510  1.00  0.00    -0.028 C 
ATOM     13  C   UNL     1     -43.747 -19.651   7.758  1.00  0.00    -0.080 C 
ATOM     14  C   UNL     1     -44.800 -19.013   8.636  1.00  0.00     0.039 C 
ATOM     15  C   UNL     1     -42.338 -19.792   8.273  1.00  0.00     0.039 C 
ENDBRANCH  11  12
ENDBRANCH   1  11
TORSDOF 4
ENDMDL
MODEL 8
REMARK VINA RESULT:    -3.932      8.013     10.532
REMARK INTER + INTRA:          -6.322
REMARK INTER:                  -4.810
REMARK INTRA:                  -1.512
REMARK UNBOUND:                -1.470
REMARK SMILES CC(C)=CCC[C@@H](C)c1ccc(C)cc1
REMARK SMILES IDX 6 1 7 2 8 3 9 4 13 5 12 6 11 7 14 8 10 9 15 10 5 11 4 12
REMARK SMILES IDX 2 13 1 14 3 15
REMARK H PARENT
REMARK Flexibility Score: inf
ROOT
ATOM      1  C   UNL     1     -45.910 -18.698   5.186  1.00  0.00     0.012 C 
ENDROOT
BRANCH   1   2
ATOM      2  C   UNL     1     -45.550 -19.802   6.205  1.00  0.00     0.016 C 
ATOM      3  C   UNL     1     -46.039 -21.193   5.768  1.00  0.00     0.013 C 
BRANCH   2   4
ATOM      4  C   UNL     1     -44.078 -19.774   6.590  1.00  0.00    -0.045 A 
ATOM      5  C   UNL     1     -39.875 -19.804   7.599  1.00  0.00     0.044 C 
ATOM      6  C   UNL     1     -41.335 -19.827   7.255  1.00  0.00    -0.051 A 
ATOM      7  C   UNL     1     -42.299 -19.596   8.247  1.00  0.00     0.004 A 
ATOM      8  C   UNL     1     -41.745 -20.018   5.929  1.00  0.00     0.004 A 
ATOM      9  C   UNL     1     -43.658 -19.581   7.922  1.00  0.00     0.004 A 
ATOM     10  C   UNL     1     -43.105 -20.004   5.602  1.00  0.00     0.004 A 
ENDBRANCH   2   4
ENDBRANCH   1   2
BRANCH   1  11
ATOM     11  C   UNL     1     -45.479 -17.279   5.600  1.00  0.00     0.028 C 
BRANCH  11  12
ATOM     12  C   UNL     1     -44.402 -16.763   4.679  1.00  0.00    -0.028 C 
ATOM     13  C   UNL     1     -43.195 -16.316   5.092  1.00  0.00    -0.080 C 
ATOM     14  C   UNL     1     -42.828 -16.243   6.557  1.00  0.00     0.039 C 
ATOM     15  C   UNL     1     -42.201 -15.865   4.054  1.00  0.00     0.039 C 
ENDBRANCH  11  12
ENDBRANCH   1  11
TORSDOF 4
ENDMDL
MODEL 9
REMARK VINA RESULT:    -3.927      1.469      4.864
REMARK INTER + INTRA:          -6.315
REMARK INTER:                  -4.860
REMARK INTRA:                  -1.455
REMARK UNBOUND:                -1.470
REMARK SMILES CC(C)=CCC[C@@H](C)c1ccc(C)cc1
REMARK SMILES IDX 6 1 7 2 8 3 9 4 13 5 12 6 11 7 14 8 10 9 15 10 5 11 4 12
REMARK SMILES IDX 2 13 1 14 3 15
REMARK H PARENT
REMARK Flexibility Score: inf
ROOT
ATOM      1  C   UNL     1     -45.589 -11.393   0.229  1.00  0.00     0.012 C 
ENDROOT
BRANCH   1   2
ATOM      2  C   UNL     1     -45.138 -12.714   0.893  1.00  0.00     0.016 C 
ATOM      3  C   UNL     1     -46.224 -13.322   1.798  1.00  0.00     0.013 C 
BRANCH   2   4
ATOM      4  C   UNL     1     -44.571 -13.703  -0.115  1.00  0.00    -0.045 A 
ATOM      5  C   UNL     1     -42.833 -16.469  -2.945  1.00  0.00     0.044 C 
ATOM      6  C   UNL     1     -43.417 -15.485  -1.975  1.00  0.00    -0.051 A 
ATOM      7  C   UNL     1     -44.593 -14.791  -2.296  1.00  0.00     0.004 A 
ATOM      8  C   UNL     1     -42.828 -15.296  -0.718  1.00  0.00     0.004 A 
ATOM      9  C   UNL     1     -45.159 -13.899  -1.380  1.00  0.00     0.004 A 
ATOM     10  C   UNL     1     -43.393 -14.404   0.199  1.00  0.00     0.004 A 
ENDBRANCH   2   4
ENDBRANCH   1   2
BRANCH   1  11
ATOM     11  C   UNL     1     -44.450 -10.398  -0.054  1.00  0.00     0.028 C 
BRANCH  11  12
ATOM     12  C   UNL     1     -44.004 -10.496  -1.491  1.00  0.00    -0.028 C 
ATOM     13  C   UNL     1     -42.795 -10.955  -1.884  1.00  0.00    -0.080 C 
ATOM     14  C   UNL     1     -41.735 -11.371  -0.890  1.00  0.00     0.039 C 
ATOM     15  C   UNL     1     -42.501 -11.034  -3.360  1.00  0.00     0.039 C 
ENDBRANCH  11  12
ENDBRANCH   1  11
TORSDOF 4
ENDMDL
