MODEL 1
REMARK VINA RESULT:    -4.700      0.000      0.000
REMARK INTER + INTRA:          -5.776
REMARK INTER:                  -5.662
REMARK INTRA:                  -0.115
REMARK UNBOUND:                -0.115
REMARK SMILES O=c1ccn([C@H]2O[C@@H](CO)[C@H](O)[C@H]2O)c(=O)[nH]1
REMARK SMILES IDX 6 1 13 2 11 3 8 4 7 5 5 6 3 7 4 8 2 9 17 10 1 11 15 12 16 14
REMARK SMILES IDX 14 15 12 17 9 19 10 20
REMARK H PARENT 17 13 14 16 12 18 10 21
REMARK Flexibility Score: inf
ROOT
ATOM      1  C   UNL     1      -9.796  -5.479  18.106  1.00  0.00     0.255 C 
ATOM      2  C   UNL     1      -8.996  -4.194  17.908  1.00  0.00     0.196 C 
ATOM      3  C   UNL     1      -9.452  -3.349  19.075  1.00  0.00     0.179 C 
ATOM      4  C   UNL     1      -9.917  -4.384  20.111  1.00  0.00     0.178 C 
ATOM      5  O   UNL     1     -10.073  -5.640  19.481  1.00  0.00    -0.347 OA
ENDROOT
BRANCH   1   6
ATOM      6  N   UNL     1      -9.088  -6.657  17.561  1.00  0.00    -0.271 N 
ATOM      7  C   UNL     1      -7.436  -8.384  17.794  1.00  0.00     0.090 A 
ATOM      8  C   UNL     1      -8.130  -7.291  18.307  1.00  0.00     0.099 A 
ATOM      9  C   UNL     1      -7.727  -8.811  16.504  1.00  0.00     0.253 A 
ATOM     10  N   UNL     1      -8.664  -8.158  15.771  1.00  0.00    -0.274 N 
ATOM     11  O   UNL     1      -7.116  -9.799  16.015  1.00  0.00    -0.269 OA
ATOM     12  C   UNL     1      -9.337  -7.088  16.280  1.00  0.00     0.330 A 
ATOM     13  H   UNL     1      -8.871  -8.479  14.797  1.00  0.00     0.175 HD
ATOM     14  O   UNL     1     -10.187  -6.497  15.558  1.00  0.00    -0.248 OA
ENDBRANCH   1   6
BRANCH   2  15
ATOM     15  O   UNL     1      -7.616  -4.444  18.002  1.00  0.00    -0.386 OA
ATOM     16  H   UNL     1      -7.206  -4.079  17.175  1.00  0.00     0.211 HD
ENDBRANCH   2  15
BRANCH   3  17
ATOM     17  O   UNL     1     -10.503  -2.487  18.703  1.00  0.00    -0.387 OA
ATOM     18  H   UNL     1     -10.215  -1.552  18.872  1.00  0.00     0.211 HD
ENDBRANCH   3  17
BRANCH   4  19
ATOM     19  C   UNL     1      -8.911  -4.522  21.263  1.00  0.00     0.191 C 
BRANCH  19  20
ATOM     20  O   UNL     1      -7.814  -5.299  20.869  1.00  0.00    -0.394 OA
ATOM     21  H   UNL     1      -7.205  -4.696  20.367  1.00  0.00     0.210 HD
ENDBRANCH  19  20
ENDBRANCH   4  19
TORSDOF 5
ENDMDL
MODEL 2
REMARK VINA RESULT:    -4.520      2.008      5.057
REMARK INTER + INTRA:          -5.559
REMARK INTER:                  -5.462
REMARK INTRA:                  -0.097
REMARK UNBOUND:                -0.115
REMARK SMILES O=c1ccn([C@H]2O[C@@H](CO)[C@H](O)[C@H]2O)c(=O)[nH]1
REMARK SMILES IDX 6 1 13 2 11 3 8 4 7 5 5 6 3 7 4 8 2 9 17 10 1 11 15 12 16 14
REMARK SMILES IDX 14 15 12 17 9 19 10 20
REMARK H PARENT 17 13 14 16 12 18 10 21
REMARK Flexibility Score: inf
ROOT
ATOM      1  C   UNL     1      -8.755  -4.845  17.600  1.00  0.00     0.255 C 
ATOM      2  C   UNL     1      -9.993  -5.441  16.936  1.00  0.00     0.196 C 
ATOM      3  C   UNL     1      -9.391  -6.428  15.962  1.00  0.00     0.179 C 
ATOM      4  C   UNL     1      -8.024  -6.757  16.580  1.00  0.00     0.178 C 
ATOM      5  O   UNL     1      -7.714  -5.799  17.572  1.00  0.00    -0.347 OA
ENDROOT
BRANCH   1   6
ATOM      6  N   UNL     1      -9.033  -4.398  18.983  1.00  0.00    -0.271 N 
ATOM      7  C   UNL     1      -8.863  -4.738  21.353  1.00  0.00     0.090 A 
ATOM      8  C   UNL     1      -8.583  -5.133  20.048  1.00  0.00     0.099 A 
ATOM      9  C   UNL     1      -9.620  -3.589  21.554  1.00  0.00     0.253 A 
ATOM     10  N   UNL     1     -10.077  -2.886  20.486  1.00  0.00    -0.274 N 
ATOM     11  O   UNL     1      -9.888  -3.208  22.725  1.00  0.00    -0.269 OA
ATOM     12  C   UNL     1      -9.800  -3.281  19.212  1.00  0.00     0.330 A 
ATOM     13  H   UNL     1     -10.655  -2.029  20.644  1.00  0.00     0.175 HD
ATOM     14  O   UNL     1     -10.259  -2.609  18.247  1.00  0.00    -0.248 OA
ENDBRANCH   1   6
BRANCH   2  15
ATOM     15  O   UNL     1     -10.790  -6.116  17.877  1.00  0.00    -0.386 OA
ATOM     16  H   UNL     1     -10.269  -6.146  18.720  1.00  0.00     0.211 HD
ENDBRANCH   2  15
BRANCH   3  17
ATOM     17  O   UNL     1      -9.251  -5.859  14.680  1.00  0.00    -0.387 OA
ATOM     18  H   UNL     1      -9.887  -6.312  14.066  1.00  0.00     0.211 HD
ENDBRANCH   3  17
BRANCH   4  19
ATOM     19  C   UNL     1      -8.012  -8.157  17.213  1.00  0.00     0.191 C 
BRANCH  19  20
ATOM     20  O   UNL     1      -7.440  -8.114  18.491  1.00  0.00    -0.394 OA
ATOM     21  H   UNL     1      -6.685  -8.759  18.486  1.00  0.00     0.210 HD
ENDBRANCH  19  20
ENDBRANCH   4  19
TORSDOF 5
ENDMDL
MODEL 3
REMARK VINA RESULT:    -4.436      1.993      3.189
REMARK INTER + INTRA:          -5.458
REMARK INTER:                  -5.420
REMARK INTRA:                  -0.038
REMARK UNBOUND:                -0.115
REMARK SMILES O=c1ccn([C@H]2O[C@@H](CO)[C@H](O)[C@H]2O)c(=O)[nH]1
REMARK SMILES IDX 6 1 13 2 11 3 8 4 7 5 5 6 3 7 4 8 2 9 17 10 1 11 15 12 16 14
REMARK SMILES IDX 14 15 12 17 9 19 10 20
REMARK H PARENT 17 13 14 16 12 18 10 21
REMARK Flexibility Score: inf
ROOT
ATOM      1  C   UNL     1      -9.403  -6.755  17.388  1.00  0.00     0.255 C 
ATOM      2  C   UNL     1      -9.043  -6.008  16.107  1.00  0.00     0.196 C 
ATOM      3  C   UNL     1     -10.173  -5.011  15.987  1.00  0.00     0.179 C 
ATOM      4  C   UNL     1     -10.664  -4.847  17.434  1.00  0.00     0.178 C 
ATOM      5  O   UNL     1     -10.146  -5.896  18.228  1.00  0.00    -0.347 OA
ENDROOT
BRANCH   1   6
ATOM      6  N   UNL     1      -8.202  -7.272  18.079  1.00  0.00    -0.271 N 
ATOM      7  C   UNL     1      -6.396  -6.956  19.629  1.00  0.00     0.090 A 
ATOM      8  C   UNL     1      -7.543  -6.491  18.991  1.00  0.00     0.099 A 
ATOM      9  C   UNL     1      -5.925  -8.225  19.310  1.00  0.00     0.253 A 
ATOM     10  N   UNL     1      -6.578  -8.976  18.388  1.00  0.00    -0.274 N 
ATOM     11  O   UNL     1      -4.889  -8.671  19.872  1.00  0.00    -0.269 OA
ATOM     12  C   UNL     1      -7.700  -8.513  17.768  1.00  0.00     0.330 A 
ATOM     13  H   UNL     1      -6.212  -9.925  18.145  1.00  0.00     0.175 HD
ATOM     14  O   UNL     1      -8.266  -9.235  16.902  1.00  0.00    -0.248 OA
ENDBRANCH   1   6
BRANCH   2  15
ATOM     15  O   UNL     1      -7.817  -5.334  16.248  1.00  0.00    -0.386 OA
ATOM     16  H   UNL     1      -7.611  -5.321  17.218  1.00  0.00     0.211 HD
ENDBRANCH   2  15
BRANCH   3  17
ATOM     17  O   UNL     1     -11.197  -5.498  15.150  1.00  0.00    -0.387 OA
ATOM     18  H   UNL     1     -11.481  -4.764  14.544  1.00  0.00     0.211 HD
ENDBRANCH   3  17
BRANCH   4  19
ATOM     19  C   UNL     1     -10.223  -3.502  18.030  1.00  0.00     0.191 C 
BRANCH  19  20
ATOM     20  O   UNL     1     -11.187  -2.515  17.784  1.00  0.00    -0.394 OA
ATOM     21  H   UNL     1     -11.529  -2.224  18.670  1.00  0.00     0.210 HD
ENDBRANCH  19  20
ENDBRANCH   4  19
TORSDOF 5
ENDMDL
MODEL 4
REMARK VINA RESULT:    -4.403      2.181      5.045
REMARK INTER + INTRA:          -5.419
REMARK INTER:                  -5.148
REMARK INTRA:                  -0.271
REMARK UNBOUND:                -0.115
REMARK SMILES O=c1ccn([C@H]2O[C@@H](CO)[C@H](O)[C@H]2O)c(=O)[nH]1
REMARK SMILES IDX 6 1 13 2 11 3 8 4 7 5 5 6 3 7 4 8 2 9 17 10 1 11 15 12 16 14
REMARK SMILES IDX 14 15 12 17 9 19 10 20
REMARK H PARENT 17 13 14 16 12 18 10 21
REMARK Flexibility Score: inf
ROOT
ATOM      1  C   UNL     1      -8.150  -5.851  18.748  1.00  0.00     0.255 C 
ATOM      2  C   UNL     1      -6.779  -5.403  18.248  1.00  0.00     0.196 C 
ATOM      3  C   UNL     1      -6.007  -6.702  18.217  1.00  0.00     0.179 C 
ATOM      4  C   UNL     1      -7.103  -7.769  18.071  1.00  0.00     0.178 C 
ATOM      5  O   UNL     1      -8.361  -7.195  18.368  1.00  0.00    -0.347 OA
ENDROOT
BRANCH   1   6
ATOM      6  N   UNL     1      -9.232  -4.977  18.245  1.00  0.00    -0.271 N 
ATOM      7  C   UNL     1     -10.892  -4.465  16.588  1.00  0.00     0.090 A 
ATOM      8  C   UNL     1      -9.891  -5.294  17.087  1.00  0.00     0.099 A 
ATOM      9  C   UNL     1     -11.201  -3.301  17.284  1.00  0.00     0.253 A 
ATOM     10  N   UNL     1     -10.523  -2.992  18.419  1.00  0.00    -0.274 N 
ATOM     11  O   UNL     1     -12.104  -2.533  16.857  1.00  0.00    -0.269 OA
ATOM     12  C   UNL     1      -9.544  -3.809  18.898  1.00  0.00     0.330 A 
ATOM     13  H   UNL     1     -10.754  -2.111  18.931  1.00  0.00     0.175 HD
ATOM     14  O   UNL     1      -8.924  -3.475  19.946  1.00  0.00    -0.248 OA
ENDBRANCH   1   6
BRANCH   2  15
ATOM     15  O   UNL     1      -6.871  -4.864  16.953  1.00  0.00    -0.386 OA
ATOM     16  H   UNL     1      -6.189  -5.329  16.403  1.00  0.00     0.211 HD
ENDBRANCH   2  15
BRANCH   3  17
ATOM     17  O   UNL     1      -5.267  -6.884  19.402  1.00  0.00    -0.387 OA
ATOM     18  H   UNL     1      -5.871  -6.727  20.174  1.00  0.00     0.211 HD
ENDBRANCH   3  17
BRANCH   4  19
ATOM     19  C   UNL     1      -7.140  -8.350  16.650  1.00  0.00     0.191 C 
BRANCH  19  20
ATOM     20  O   UNL     1      -6.177  -7.732  15.840  1.00  0.00    -0.394 OA
ATOM     21  H   UNL     1      -6.542  -6.842  15.595  1.00  0.00     0.210 HD
ENDBRANCH  19  20
ENDBRANCH   4  19
TORSDOF 5
ENDMDL
MODEL 5
REMARK VINA RESULT:    -4.387      1.803      3.454
REMARK INTER + INTRA:          -5.399
REMARK INTER:                  -5.173
REMARK INTRA:                  -0.226
REMARK UNBOUND:                -0.115
REMARK SMILES O=c1ccn([C@H]2O[C@@H](CO)[C@H](O)[C@H]2O)c(=O)[nH]1
REMARK SMILES IDX 6 1 13 2 11 3 8 4 7 5 5 6 3 7 4 8 2 9 17 10 1 11 15 12 16 14
REMARK SMILES IDX 14 15 12 17 9 19 10 20
REMARK H PARENT 17 13 14 16 12 18 10 21
REMARK Flexibility Score: inf
ROOT
ATOM      1  C   UNL     1      -9.445  -5.031  17.117  1.00  0.00     0.255 C 
ATOM      2  C   UNL     1     -10.517  -4.768  18.171  1.00  0.00     0.196 C 
ATOM      3  C   UNL     1     -11.489  -3.881  17.427  1.00  0.00     0.179 C 
ATOM      4  C   UNL     1     -11.247  -4.238  15.952  1.00  0.00     0.178 C 
ATOM      5  O   UNL     1     -10.032  -4.951  15.835  1.00  0.00    -0.347 OA
ENDROOT
BRANCH   1   6
ATOM      6  N   UNL     1      -8.782  -6.337  17.321  1.00  0.00    -0.271 N 
ATOM      7  C   UNL     1      -8.489  -8.640  16.709  1.00  0.00     0.090 A 
ATOM      8  C   UNL     1      -9.086  -7.398  16.510  1.00  0.00     0.099 A 
ATOM      9  C   UNL     1      -7.588  -8.785  17.758  1.00  0.00     0.253 A 
ATOM     10  N   UNL     1      -7.315  -7.729  18.565  1.00  0.00    -0.274 N 
ATOM     11  O   UNL     1      -7.031  -9.898  17.961  1.00  0.00    -0.269 OA
ATOM     12  C   UNL     1      -7.905  -6.517  18.364  1.00  0.00     0.330 A 
ATOM     13  H   UNL     1      -6.644  -7.848  19.358  1.00  0.00     0.175 HD
ATOM     14  O   UNL     1      -7.638  -5.566  19.149  1.00  0.00    -0.248 OA
ENDBRANCH   1   6
BRANCH   2  15
ATOM     15  O   UNL     1     -11.150  -5.965  18.551  1.00  0.00    -0.386 OA
ATOM     16  H   UNL     1     -11.449  -5.841  19.489  1.00  0.00     0.211 HD
ENDBRANCH   2  15
BRANCH   3  17
ATOM     17  O   UNL     1     -11.228  -2.519  17.674  1.00  0.00    -0.387 OA
ATOM     18  H   UNL     1     -11.589  -1.989  16.915  1.00  0.00     0.211 HD
ENDBRANCH   3  17
BRANCH   4  19
ATOM     19  C   UNL     1     -12.388  -5.095  15.384  1.00  0.00     0.191 C 
BRANCH  19  20
ATOM     20  O   UNL     1     -12.352  -6.386  15.928  1.00  0.00    -0.394 OA
ATOM     21  H   UNL     1     -12.776  -6.988  15.261  1.00  0.00     0.210 HD
ENDBRANCH  19  20
ENDBRANCH   4  19
TORSDOF 5
ENDMDL
MODEL 6
REMARK VINA RESULT:    -4.282      2.162      2.860
REMARK INTER + INTRA:          -5.273
REMARK INTER:                  -5.224
REMARK INTRA:                  -0.050
REMARK UNBOUND:                -0.115
REMARK SMILES O=c1ccn([C@H]2O[C@@H](CO)[C@H](O)[C@H]2O)c(=O)[nH]1
REMARK SMILES IDX 6 1 13 2 11 3 8 4 7 5 5 6 3 7 4 8 2 9 17 10 1 11 15 12 16 14
REMARK SMILES IDX 14 15 12 17 9 19 10 20
REMARK H PARENT 17 13 14 16 12 18 10 21
REMARK Flexibility Score: inf
ROOT
ATOM      1  C   UNL     1      -8.776  -6.252  18.187  1.00  0.00     0.255 C 
ATOM      2  C   UNL     1      -9.906  -5.974  17.199  1.00  0.00     0.196 C 
ATOM      3  C   UNL     1     -10.868  -5.158  18.032  1.00  0.00     0.179 C 
ATOM      4  C   UNL     1      -9.970  -4.535  19.112  1.00  0.00     0.178 C 
ATOM      5  O   UNL     1      -8.726  -5.206  19.134  1.00  0.00    -0.347 OA
ENDROOT
BRANCH   1   6
ATOM      6  N   UNL     1      -7.475  -6.416  17.502  1.00  0.00    -0.271 N 
ATOM      7  C   UNL     1      -5.369  -5.509  16.792  1.00  0.00     0.090 A 
ATOM      8  C   UNL     1      -6.585  -5.376  17.456  1.00  0.00     0.099 A 
ATOM      9  C   UNL     1      -5.082  -6.715  16.163  1.00  0.00     0.253 A 
ATOM     10  N   UNL     1      -5.985  -7.728  16.200  1.00  0.00    -0.274 N 
ATOM     11  O   UNL     1      -3.989  -6.864  15.554  1.00  0.00    -0.269 OA
ATOM     12  C   UNL     1      -7.174  -7.589  16.852  1.00  0.00     0.330 A 
ATOM     13  H   UNL     1      -5.767  -8.629  15.716  1.00  0.00     0.175 HD
ATOM     14  O   UNL     1      -7.994  -8.548  16.846  1.00  0.00    -0.248 OA
ENDBRANCH   1   6
BRANCH   2  15
ATOM     15  O   UNL     1      -9.444  -5.214  16.111  1.00  0.00    -0.386 OA
ATOM     16  H   UNL     1      -9.316  -4.289  16.446  1.00  0.00     0.211 HD
ENDBRANCH   2  15
BRANCH   3  17
ATOM     17  O   UNL     1     -11.867  -5.972  18.602  1.00  0.00    -0.387 OA
ATOM     18  H   UNL     1     -12.431  -5.407  19.192  1.00  0.00     0.211 HD
ENDBRANCH   3  17
BRANCH   4  19
ATOM     19  C   UNL     1      -9.729  -3.040  18.853  1.00  0.00     0.191 C 
BRANCH  19  20
ATOM     20  O   UNL     1     -10.341  -2.263  19.846  1.00  0.00    -0.394 OA
ATOM     21  H   UNL     1      -9.612  -1.906  20.417  1.00  0.00     0.210 HD
ENDBRANCH  19  20
ENDBRANCH   4  19
TORSDOF 5
ENDMDL
MODEL 7
REMARK VINA RESULT:    -4.259      2.172      4.997
REMARK INTER + INTRA:          -5.245
REMARK INTER:                  -5.207
REMARK INTRA:                  -0.038
REMARK UNBOUND:                -0.115
REMARK SMILES O=c1ccn([C@H]2O[C@@H](CO)[C@H](O)[C@H]2O)c(=O)[nH]1
REMARK SMILES IDX 6 1 13 2 11 3 8 4 7 5 5 6 3 7 4 8 2 9 17 10 1 11 15 12 16 14
REMARK SMILES IDX 14 15 12 17 9 19 10 20
REMARK H PARENT 17 13 14 16 12 18 10 21
REMARK Flexibility Score: inf
ROOT
ATOM      1  C   UNL     1      -8.184  -6.474  17.365  1.00  0.00     0.255 C 
ATOM      2  C   UNL     1      -7.878  -7.956  17.568  1.00  0.00     0.196 C 
ATOM      3  C   UNL     1      -6.736  -8.183  16.605  1.00  0.00     0.179 C 
ATOM      4  C   UNL     1      -6.111  -6.788  16.450  1.00  0.00     0.178 C 
ATOM      5  O   UNL     1      -7.006  -5.814  16.951  1.00  0.00    -0.347 OA
ENDROOT
BRANCH   1   6
ATOM      6  N   UNL     1      -8.742  -5.855  18.587  1.00  0.00    -0.271 N 
ATOM      7  C   UNL     1      -8.434  -4.968  20.797  1.00  0.00     0.090 A 
ATOM      8  C   UNL     1      -7.918  -5.526  19.630  1.00  0.00     0.099 A 
ATOM      9  C   UNL     1      -9.807  -4.765  20.887  1.00  0.00     0.253 A 
ATOM     10  N   UNL     1     -10.611  -5.118  19.852  1.00  0.00    -0.274 N 
ATOM     11  O   UNL     1     -10.302  -4.261  21.930  1.00  0.00    -0.269 OA
ATOM     12  C   UNL     1     -10.097  -5.664  18.714  1.00  0.00     0.330 A 
ATOM     13  H   UNL     1     -11.644  -4.971  19.930  1.00  0.00     0.175 HD
ATOM     14  O   UNL     1     -10.881  -5.996  17.783  1.00  0.00    -0.248 OA
ENDBRANCH   1   6
BRANCH   2  15
ATOM     15  O   UNL     1      -7.456  -8.204  18.886  1.00  0.00    -0.386 OA
ATOM     16  H   UNL     1      -6.611  -8.719  18.820  1.00  0.00     0.211 HD
ENDBRANCH   2  15
BRANCH   3  17
ATOM     17  O   UNL     1      -7.200  -8.677  15.370  1.00  0.00    -0.387 OA
ATOM     18  H   UNL     1      -6.462  -8.607  14.708  1.00  0.00     0.211 HD
ENDBRANCH   3  17
BRANCH   4  19
ATOM     19  C   UNL     1      -4.778  -6.679  17.205  1.00  0.00     0.191 C 
BRANCH  19  20
ATOM     20  O   UNL     1      -4.931  -7.091  18.536  1.00  0.00    -0.394 OA
ATOM     21  H   UNL     1      -4.243  -6.608  19.064  1.00  0.00     0.210 HD
ENDBRANCH  19  20
ENDBRANCH   4  19
TORSDOF 5
ENDMDL
MODEL 8
REMARK VINA RESULT:    -4.219      2.007      5.696
REMARK INTER + INTRA:          -5.197
REMARK INTER:                  -5.072
REMARK INTRA:                  -0.124
REMARK UNBOUND:                -0.115
REMARK SMILES O=c1ccn([C@H]2O[C@@H](CO)[C@H](O)[C@H]2O)c(=O)[nH]1
REMARK SMILES IDX 6 1 13 2 11 3 8 4 7 5 5 6 3 7 4 8 2 9 17 10 1 11 15 12 16 14
REMARK SMILES IDX 14 15 12 17 9 19 10 20
REMARK H PARENT 17 13 14 16 12 18 10 21
REMARK Flexibility Score: inf
ROOT
ATOM      1  C   UNL     1      -7.458  -8.601  17.073  1.00  0.00     0.255 C 
ATOM      2  C   UNL     1      -6.656  -8.101  15.874  1.00  0.00     0.196 C 
ATOM      3  C   UNL     1      -7.086  -9.051  14.780  1.00  0.00     0.179 C 
ATOM      4  C   UNL     1      -8.468  -9.534  15.245  1.00  0.00     0.178 C 
ATOM      5  O   UNL     1      -8.646  -9.209  16.609  1.00  0.00    -0.347 OA
ENDROOT
BRANCH   1   6
ATOM      6  N   UNL     1      -7.752  -7.513  18.031  1.00  0.00    -0.271 N 
ATOM      7  C   UNL     1      -9.156  -5.708  18.762  1.00  0.00     0.090 A 
ATOM      8  C   UNL     1      -8.882  -6.753  17.883  1.00  0.00     0.099 A 
ATOM      9  C   UNL     1      -8.252  -5.443  19.784  1.00  0.00     0.253 A 
ATOM     10  N   UNL     1      -7.126  -6.193  19.902  1.00  0.00    -0.274 N 
ATOM     11  O   UNL     1      -8.475  -4.504  20.595  1.00  0.00    -0.269 OA
ATOM     12  C   UNL     1      -6.865  -7.212  19.037  1.00  0.00     0.330 A 
ATOM     13  H   UNL     1      -6.445  -5.981  20.667  1.00  0.00     0.175 HD
ATOM     14  O   UNL     1      -5.798  -7.873  19.169  1.00  0.00    -0.248 OA
ENDBRANCH   1   6
BRANCH   2  15
ATOM     15  O   UNL     1      -7.021  -6.784  15.542  1.00  0.00    -0.386 OA
ATOM     16  H   UNL     1      -6.199  -6.234  15.622  1.00  0.00     0.211 HD
ENDBRANCH   2  15
BRANCH   3  17
ATOM     17  O   UNL     1      -6.183 -10.125  14.653  1.00  0.00    -0.387 OA
ATOM     18  H   UNL     1      -5.297  -9.759  14.394  1.00  0.00     0.211 HD
ENDBRANCH   3  17
BRANCH   4  19
ATOM     19  C   UNL     1      -9.597  -8.891  14.425  1.00  0.00     0.191 C 
BRANCH  19  20
ATOM     20  O   UNL     1     -10.532  -8.279  15.271  1.00  0.00    -0.394 OA
ATOM     21  H   UNL     1     -11.382  -8.782  15.165  1.00  0.00     0.210 HD
ENDBRANCH  19  20
ENDBRANCH   4  19
TORSDOF 5
ENDMDL
MODEL 9
REMARK VINA RESULT:    -4.146     19.061     20.766
REMARK INTER + INTRA:          -5.109
REMARK INTER:                  -4.825
REMARK INTRA:                  -0.284
REMARK UNBOUND:                -0.115
REMARK SMILES O=c1ccn([C@H]2O[C@@H](CO)[C@H](O)[C@H]2O)c(=O)[nH]1
REMARK SMILES IDX 6 1 13 2 11 3 8 4 7 5 5 6 3 7 4 8 2 9 17 10 1 11 15 12 16 14
REMARK SMILES IDX 14 15 12 17 9 19 10 20
REMARK H PARENT 17 13 14 16 12 18 10 21
REMARK Flexibility Score: inf
ROOT
ATOM      1  C   UNL     1       2.105   5.998  31.771  1.00  0.00     0.255 C 
ATOM      2  C   UNL     1       0.601   6.227  31.647  1.00  0.00     0.196 C 
ATOM      3  C   UNL     1       0.391   7.458  32.498  1.00  0.00     0.179 C 
ATOM      4  C   UNL     1       1.765   8.146  32.481  1.00  0.00     0.178 C 
ATOM      5  O   UNL     1       2.740   7.238  32.007  1.00  0.00    -0.347 OA
ENDROOT
BRANCH   1   6
ATOM      6  N   UNL     1       2.660   5.333  30.572  1.00  0.00    -0.271 N 
ATOM      7  C   UNL     1       3.745   5.465  28.434  1.00  0.00     0.090 A 
ATOM      8  C   UNL     1       3.243   6.077  29.580  1.00  0.00     0.099 A 
ATOM      9  C   UNL     1       3.630   4.085  28.311  1.00  0.00     0.253 A 
ATOM     10  N   UNL     1       3.030   3.367  29.294  1.00  0.00    -0.274 N 
ATOM     11  O   UNL     1       4.076   3.505  27.285  1.00  0.00    -0.269 OA
ATOM     12  C   UNL     1       2.540   3.974  30.411  1.00  0.00     0.330 A 
ATOM     13  H   UNL     1       2.937   2.330  29.190  1.00  0.00     0.175 HD
ATOM     14  O   UNL     1       1.972   3.272  31.293  1.00  0.00    -0.248 OA
ENDBRANCH   1   6
BRANCH   2  15
ATOM     15  O   UNL     1       0.242   6.493  30.315  1.00  0.00    -0.386 OA
ATOM     16  H   UNL     1       0.694   5.808  29.757  1.00  0.00     0.211 HD
ENDBRANCH   2  15
BRANCH   3  17
ATOM     17  O   UNL     1       0.006   7.114  33.809  1.00  0.00    -0.387 OA
ATOM     18  H   UNL     1      -0.984   7.037  33.834  1.00  0.00     0.211 HD
ENDBRANCH   3  17
BRANCH   4  19
ATOM     19  C   UNL     1       1.762   9.392  31.583  1.00  0.00     0.191 C 
BRANCH  19  20
ATOM     20  O   UNL     1       0.545   9.501  30.897  1.00  0.00    -0.394 OA
ATOM     21  H   UNL     1      -0.077   8.851  31.318  1.00  0.00     0.210 HD
ENDBRANCH  19  20
ENDBRANCH   4  19
TORSDOF 5
ENDMDL
