MODEL 1
REMARK VINA RESULT:     0.000      0.000      0.000
REMARK INTER + INTRA:          -0.079
REMARK INTER:                   0.000
REMARK INTRA:                  -0.079
REMARK UNBOUND:                -0.079
REMARK SMILES CC(C)[C@@H]([NH3+])C(=O)[O-]
REMARK SMILES IDX 4 1 5 2 6 6 7 7 8 8 2 9 1 10 3 11
REMARK H PARENT 5 3 5 4 5 5
REMARK Flexibility Score: inf
ROOT
ATOM      1  C   UNL     1       0.416  23.718 -40.253  1.00  0.00     0.230 C 
ENDROOT
BRANCH   1   2
ATOM      2  N   UNL     1       1.122  24.984 -40.509  1.00  0.00    -0.350 N 
ATOM      3  H   UNL     1       2.024  24.809 -41.009  1.00  0.00     0.345 HD
ATOM      4  H   UNL     1       0.526  25.617 -41.092  1.00  0.00     0.345 HD
ATOM      5  H   UNL     1       1.310  25.481 -39.609  1.00  0.00     0.345 HD
ENDBRANCH   1   2
BRANCH   1   6
ATOM      6  C   UNL     1       0.002  23.658 -38.803  1.00  0.00     0.099 C 
ATOM      7  O   UNL     1      -0.795  24.513 -38.332  1.00  0.00    -0.544 OA
ATOM      8  O   UNL     1       0.493  22.652 -37.981  1.00  0.00    -0.544 OA
ENDBRANCH   1   6
BRANCH   1   9
ATOM      9  C   UNL     1      -0.817  23.539 -41.191  1.00  0.00     0.047 C 
ATOM     10  C   UNL     1      -0.438  23.701 -42.673  1.00  0.00     0.014 C 
ATOM     11  C   UNL     1      -1.477  22.164 -40.987  1.00  0.00     0.014 C 
ENDBRANCH   1   9
TORSDOF 3
ENDMDL
MODEL 2
REMARK VINA RESULT:     0.000     11.732     12.413
REMARK INTER + INTRA:          -0.079
REMARK INTER:                   0.000
REMARK INTRA:                  -0.079
REMARK UNBOUND:                -0.079
REMARK SMILES CC(C)[C@@H]([NH3+])C(=O)[O-]
REMARK SMILES IDX 4 1 5 2 6 6 7 7 8 8 2 9 1 10 3 11
REMARK H PARENT 5 3 5 4 5 5
REMARK Flexibility Score: inf
ROOT
ATOM      1  C   UNL     1       2.387  13.267 -46.658  1.00  0.00     0.230 C 
ENDROOT
BRANCH   1   2
ATOM      2  N   UNL     1       2.272  12.363 -47.813  1.00  0.00    -0.350 N 
ATOM      3  H   UNL     1       2.569  11.394 -47.554  1.00  0.00     0.345 HD
ATOM      4  H   UNL     1       1.283  12.338 -48.152  1.00  0.00     0.345 HD
ATOM      5  H   UNL     1       2.860  12.711 -48.604  1.00  0.00     0.345 HD
ENDBRANCH   1   2
BRANCH   1   6
ATOM      6  C   UNL     1       3.716  13.046 -45.977  1.00  0.00     0.099 C 
ATOM      7  O   UNL     1       4.793  13.259 -46.595  1.00  0.00    -0.544 OA
ATOM      8  O   UNL     1       3.757  12.613 -44.657  1.00  0.00    -0.544 OA
ENDBRANCH   1   6
BRANCH   1   9
ATOM      9  C   UNL     1       2.216  14.762 -47.069  1.00  0.00     0.047 C 
ATOM     10  C   UNL     1       0.916  14.994 -47.858  1.00  0.00     0.014 C 
ATOM     11  C   UNL     1       2.228  15.684 -45.837  1.00  0.00     0.014 C 
ENDBRANCH   1   9
TORSDOF 3
ENDMDL
MODEL 3
REMARK VINA RESULT:     0.000      5.924      6.505
REMARK INTER + INTRA:          -0.079
REMARK INTER:                   0.000
REMARK INTRA:                  -0.079
REMARK UNBOUND:                -0.079
REMARK SMILES CC(C)[C@@H]([NH3+])C(=O)[O-]
REMARK SMILES IDX 4 1 5 2 6 6 7 7 8 8 2 9 1 10 3 11
REMARK H PARENT 5 3 5 4 5 5
REMARK Flexibility Score: inf
ROOT
ATOM      1  C   UNL     1       2.567  19.073 -42.710  1.00  0.00     0.230 C 
ENDROOT
BRANCH   1   2
ATOM      2  N   UNL     1       2.318  17.626 -42.613  1.00  0.00    -0.350 N 
ATOM      3  H   UNL     1       2.950  17.098 -43.259  1.00  0.00     0.345 HD
ATOM      4  H   UNL     1       2.483  17.297 -41.633  1.00  0.00     0.345 HD
ATOM      5  H   UNL     1       1.322  17.414 -42.844  1.00  0.00     0.345 HD
ENDBRANCH   1   2
BRANCH   1   6
ATOM      6  C   UNL     1       3.906  19.396 -42.093  1.00  0.00     0.099 C 
ATOM      7  O   UNL     1       4.963  18.907 -42.574  1.00  0.00    -0.544 OA
ATOM      8  O   UNL     1       3.979  20.242 -40.995  1.00  0.00    -0.544 OA
ENDBRANCH   1   6
BRANCH   1   9
ATOM      9  C   UNL     1       2.497  19.577 -44.184  1.00  0.00     0.047 C 
ATOM     10  C   UNL     1       1.182  19.169 -44.869  1.00  0.00     0.014 C 
ATOM     11  C   UNL     1       2.648  21.107 -44.257  1.00  0.00     0.014 C 
ENDBRANCH   1   9
TORSDOF 3
ENDMDL
MODEL 4
REMARK VINA RESULT:     0.000     12.818     13.423
REMARK INTER + INTRA:          -0.079
REMARK INTER:                   0.000
REMARK INTRA:                  -0.079
REMARK UNBOUND:                -0.079
REMARK SMILES CC(C)[C@@H]([NH3+])C(=O)[O-]
REMARK SMILES IDX 4 1 5 2 6 6 7 7 8 8 2 9 1 10 3 11
REMARK H PARENT 5 3 5 4 5 5
REMARK Flexibility Score: inf
ROOT
ATOM      1  C   UNL     1      -2.658  11.946 -43.933  1.00  0.00     0.230 C 
ENDROOT
BRANCH   1   2
ATOM      2  N   UNL     1      -2.050  12.904 -42.997  1.00  0.00    -0.350 N 
ATOM      3  H   UNL     1      -2.284  12.654 -42.008  1.00  0.00     0.345 HD
ATOM      4  H   UNL     1      -1.009  12.907 -43.110  1.00  0.00     0.345 HD
ATOM      5  H   UNL     1      -2.384  13.873 -43.203  1.00  0.00     0.345 HD
ENDBRANCH   1   2
BRANCH   1   6
ATOM      6  C   UNL     1      -1.569  11.208 -44.674  1.00  0.00     0.099 C 
ATOM      7  O   UNL     1      -0.747  10.489 -44.047  1.00  0.00    -0.544 OA
ATOM      8  O   UNL     1      -1.475  11.313 -46.056  1.00  0.00    -0.544 OA
ENDBRANCH   1   6
BRANCH   1   9
ATOM      9  C   UNL     1      -3.612  10.948 -43.208  1.00  0.00     0.047 C 
ATOM     10  C   UNL     1      -4.667  11.678 -42.360  1.00  0.00     0.014 C 
ATOM     11  C   UNL     1      -4.323  10.026 -44.213  1.00  0.00     0.014 C 
ENDBRANCH   1   9
TORSDOF 3
ENDMDL
MODEL 5
REMARK VINA RESULT:     0.000     12.663     13.609
REMARK INTER + INTRA:          -0.079
REMARK INTER:                   0.000
REMARK INTRA:                  -0.079
REMARK UNBOUND:                -0.079
REMARK SMILES CC(C)[C@@H]([NH3+])C(=O)[O-]
REMARK SMILES IDX 4 1 5 2 6 6 7 7 8 8 2 9 1 10 3 11
REMARK H PARENT 5 3 5 4 5 5
REMARK Flexibility Score: inf
ROOT
ATOM      1  C   UNL     1       2.228  19.956 -52.655  1.00  0.00     0.230 C 
ENDROOT
BRANCH   1   2
ATOM      2  N   UNL     1       3.178  20.293 -53.726  1.00  0.00    -0.350 N 
ATOM      3  H   UNL     1       2.670  20.617 -54.582  1.00  0.00     0.345 HD
ATOM      4  H   UNL     1       3.827  21.050 -53.407  1.00  0.00     0.345 HD
ATOM      5  H   UNL     1       3.767  19.462 -53.962  1.00  0.00     0.345 HD
ENDBRANCH   1   2
BRANCH   1   6
ATOM      6  C   UNL     1       1.037  19.240 -53.245  1.00  0.00     0.099 C 
ATOM      7  O   UNL     1       1.185  18.136 -53.833  1.00  0.00    -0.544 OA
ATOM      8  O   UNL     1      -0.231  19.795 -53.135  1.00  0.00    -0.544 OA
ENDBRANCH   1   6
BRANCH   1   9
ATOM      9  C   UNL     1       2.894  19.097 -51.536  1.00  0.00     0.047 C 
ATOM     10  C   UNL     1       4.171  19.757 -50.990  1.00  0.00     0.014 C 
ATOM     11  C   UNL     1       1.919  18.847 -50.371  1.00  0.00     0.014 C 
ENDBRANCH   1   9
TORSDOF 3
ENDMDL
MODEL 6
REMARK VINA RESULT:     0.000     11.129     11.977
REMARK INTER + INTRA:          -0.079
REMARK INTER:                   0.000
REMARK INTRA:                  -0.079
REMARK UNBOUND:                -0.079
REMARK SMILES CC(C)[C@@H]([NH3+])C(=O)[O-]
REMARK SMILES IDX 4 1 5 2 6 6 7 7 8 8 2 9 1 10 3 11
REMARK H PARENT 5 3 5 4 5 5
REMARK Flexibility Score: inf
ROOT
ATOM      1  C   UNL     1       8.427  22.858 -47.896  1.00  0.00     0.230 C 
ENDROOT
BRANCH   1   2
ATOM      2  N   UNL     1       9.433  22.113 -47.123  1.00  0.00    -0.350 N 
ATOM      3  H   UNL     1      10.382  22.222 -47.550  1.00  0.00     0.345 HD
ATOM      4  H   UNL     1       9.461  22.462 -46.137  1.00  0.00     0.345 HD
ATOM      5  H   UNL     1       9.181  21.100 -47.084  1.00  0.00     0.345 HD
ENDBRANCH   1   2
BRANCH   1   6
ATOM      6  C   UNL     1       8.537  22.486 -49.355  1.00  0.00     0.099 C 
ATOM      7  O   UNL     1       8.337  21.299 -49.726  1.00  0.00    -0.544 OA
ATOM      8  O   UNL     1       8.850  23.456 -50.298  1.00  0.00    -0.544 OA
ENDBRANCH   1   6
BRANCH   1   9
ATOM      9  C   UNL     1       6.983  22.608 -47.365  1.00  0.00     0.047 C 
ATOM     10  C   UNL     1       6.871  22.880 -45.855  1.00  0.00     0.014 C 
ATOM     11  C   UNL     1       5.956  23.478 -48.111  1.00  0.00     0.014 C 
ENDBRANCH   1   9
TORSDOF 3
ENDMDL
MODEL 7
REMARK VINA RESULT:     0.000     13.334     13.826
REMARK INTER + INTRA:          -0.079
REMARK INTER:                   0.000
REMARK INTRA:                  -0.079
REMARK UNBOUND:                -0.079
REMARK SMILES CC(C)[C@@H]([NH3+])C(=O)[O-]
REMARK SMILES IDX 4 1 5 2 6 6 7 7 8 8 2 9 1 10 3 11
REMARK H PARENT 5 3 5 4 5 5
REMARK Flexibility Score: inf
ROOT
ATOM      1  C   UNL     1       0.531  10.429 -45.441  1.00  0.00     0.230 C 
ENDROOT
BRANCH   1   2
ATOM      2  N   UNL     1       0.991  10.000 -46.771  1.00  0.00    -0.350 N 
ATOM      3  H   UNL     1       1.448  10.793 -47.278  1.00  0.00     0.345 HD
ATOM      4  H   UNL     1       1.677   9.215 -46.679  1.00  0.00     0.345 HD
ATOM      5  H   UNL     1       0.186   9.641 -47.333  1.00  0.00     0.345 HD
ENDBRANCH   1   2
BRANCH   1   6
ATOM      6  C   UNL     1       1.447  11.508 -44.917  1.00  0.00     0.099 C 
ATOM      7  O   UNL     1       1.558  12.603 -45.531  1.00  0.00    -0.544 OA
ATOM      8  O   UNL     1       2.166  11.301 -43.747  1.00  0.00    -0.544 OA
ENDBRANCH   1   6
BRANCH   1   9
ATOM      9  C   UNL     1      -0.949  10.919 -45.467  1.00  0.00     0.047 C 
ATOM     10  C   UNL     1      -1.888   9.875 -46.095  1.00  0.00     0.014 C 
ATOM     11  C   UNL     1      -1.448  11.258 -44.051  1.00  0.00     0.014 C 
ENDBRANCH   1   9
TORSDOF 3
ENDMDL
MODEL 8
REMARK VINA RESULT:     0.000     15.596     16.139
REMARK INTER + INTRA:          -0.079
REMARK INTER:                   0.000
REMARK INTRA:                  -0.079
REMARK UNBOUND:                -0.079
REMARK SMILES CC(C)[C@@H]([NH3+])C(=O)[O-]
REMARK SMILES IDX 4 1 5 2 6 6 7 7 8 8 2 9 1 10 3 11
REMARK H PARENT 5 3 5 4 5 5
REMARK Flexibility Score: inf
ROOT
ATOM      1  C   UNL     1       3.615  10.417 -47.542  1.00  0.00     0.230 C 
ENDROOT
BRANCH   1   2
ATOM      2  N   UNL     1       4.019   9.293 -46.683  1.00  0.00    -0.350 N 
ATOM      3  H   UNL     1       3.307   9.126 -45.935  1.00  0.00     0.345 HD
ATOM      4  H   UNL     1       4.124   8.423 -47.255  1.00  0.00     0.345 HD
ATOM      5  H   UNL     1       4.948   9.488 -46.247  1.00  0.00     0.345 HD
ENDBRANCH   1   2
BRANCH   1   6
ATOM      6  C   UNL     1       4.824  10.957 -48.266  1.00  0.00     0.099 C 
ATOM      7  O   UNL     1       5.469  10.226 -49.063  1.00  0.00    -0.544 OA
ATOM      8  O   UNL     1       5.227  12.271 -48.060  1.00  0.00    -0.544 OA
ENDBRANCH   1   6
BRANCH   1   9
ATOM      9  C   UNL     1       2.500  10.006 -48.553  1.00  0.00     0.047 C 
ATOM     10  C   UNL     1       1.299   9.355 -47.848  1.00  0.00     0.014 C 
ATOM     11  C   UNL     1       2.012  11.217 -49.367  1.00  0.00     0.014 C 
ENDBRANCH   1   9
TORSDOF 3
ENDMDL
MODEL 9
REMARK VINA RESULT:     0.000      2.430      3.226
REMARK INTER + INTRA:          -0.079
REMARK INTER:                   0.000
REMARK INTRA:                  -0.079
REMARK UNBOUND:                -0.079
REMARK SMILES CC(C)[C@@H]([NH3+])C(=O)[O-]
REMARK SMILES IDX 4 1 5 2 6 6 7 7 8 8 2 9 1 10 3 11
REMARK H PARENT 5 3 5 4 5 5
REMARK Flexibility Score: inf
ROOT
ATOM      1  C   UNL     1      -1.142  24.157 -40.846  1.00  0.00     0.230 C 
ENDROOT
BRANCH   1   2
ATOM      2  N   UNL     1      -1.313  23.206 -41.956  1.00  0.00    -0.350 N 
ATOM      3  H   UNL     1      -0.944  22.262 -41.694  1.00  0.00     0.345 HD
ATOM      4  H   UNL     1      -2.327  23.119 -42.202  1.00  0.00     0.345 HD
ATOM      5  H   UNL     1      -0.818  23.552 -42.808  1.00  0.00     0.345 HD
ENDBRANCH   1   2
BRANCH   1   6
ATOM      6  C   UNL     1      -2.489  24.470 -40.240  1.00  0.00     0.099 C 
ATOM      7  O   UNL     1      -3.177  23.558 -39.711  1.00  0.00    -0.544 OA
ATOM      8  O   UNL     1      -2.972  25.772 -40.257  1.00  0.00    -0.544 OA
ENDBRANCH   1   6
BRANCH   1   9
ATOM      9  C   UNL     1      -0.157  23.617 -39.764  1.00  0.00     0.047 C 
ATOM     10  C   UNL     1       1.189  23.191 -40.374  1.00  0.00     0.014 C 
ATOM     11  C   UNL     1       0.096  24.668 -38.668  1.00  0.00     0.014 C 
ENDBRANCH   1   9
TORSDOF 3
ENDMDL
