MODEL 1
REMARK VINA RESULT:    -5.782      0.000      0.000
REMARK INTER + INTRA:         -12.605
REMARK INTER:                 -10.514
REMARK INTRA:                  -2.091
REMARK UNBOUND:                -2.091
REMARK SMILES CCCCCCCCCCCCCCCC(=O)[O-]
REMARK SMILES IDX 9 1 10 2 11 3 12 4 13 5 14 6 15 7 16 8 17 9 18 10 8 11 7 12
REMARK SMILES IDX 6 13 5 14 4 15 3 16 2 17 1 18
REMARK H PARENT
REMARK Flexibility Score: inf
ROOT
ATOM      1  C   UNL     1       6.289  14.662   0.146  1.00  0.00     0.000 C 
ENDROOT
BRANCH   1   2
ATOM      2  C   UNL     1       4.915  13.981   0.306  1.00  0.00     0.000 C 
BRANCH   2   3
ATOM      3  C   UNL     1       4.780  13.070   1.540  1.00  0.00     0.000 C 
BRANCH   3   4
ATOM      4  C   UNL     1       3.389  13.139   2.186  1.00  0.00     0.000 C 
BRANCH   4   5
ATOM      5  C   UNL     1       2.454  14.051   1.377  1.00  0.00     0.000 C 
BRANCH   5   6
ATOM      6  C   UNL     1       0.973  13.852   1.740  1.00  0.00     0.006 C 
BRANCH   6   7
ATOM      7  C   UNL     1       0.551  14.667   2.969  1.00  0.00     0.053 C 
BRANCH   7   8
ATOM      8  C   UNL     1      -0.792  14.220   3.455  1.00  0.00     0.041 C 
ATOM      9  O   UNL     1      -1.788  14.250   2.684  1.00  0.00    -0.550 OA
ATOM     10  O   UNL     1      -0.955  13.817   4.774  1.00  0.00    -0.550 OA
ENDBRANCH   7   8
ENDBRANCH   6   7
ENDBRANCH   5   6
ENDBRANCH   4   5
ENDBRANCH   3   4
ENDBRANCH   2   3
ENDBRANCH   1   2
BRANCH   1  11
ATOM     11  C   UNL     1       7.483  13.861   0.699  1.00  0.00     0.000 C 
BRANCH  11  12
ATOM     12  C   UNL     1       8.537  14.696   1.453  1.00  0.00    -0.000 C 
BRANCH  12  13
ATOM     13  C   UNL     1       8.498  14.556   2.986  1.00  0.00    -0.000 C 
BRANCH  13  14
ATOM     14  C   UNL     1       7.693  15.677   3.665  1.00  0.00    -0.000 C 
BRANCH  14  15
ATOM     15  C   UNL     1       6.213  15.309   3.854  1.00  0.00    -0.000 C 
BRANCH  15  16
ATOM     16  C   UNL     1       5.264  16.395   3.326  1.00  0.00    -0.000 C 
BRANCH  16  17
ATOM     17  C   UNL     1       3.906  16.329   4.035  1.00  0.00    -0.003 C 
ATOM     18  C   UNL     1       3.953  15.381   5.230  1.00  0.00     0.004 C 
ENDBRANCH  16  17
ENDBRANCH  15  16
ENDBRANCH  14  15
ENDBRANCH  13  14
ENDBRANCH  12  13
ENDBRANCH  11  12
ENDBRANCH   1  11
TORSDOF 14
ENDMDL
MODEL 2
REMARK VINA RESULT:    -5.600      1.638      2.970
REMARK INTER + INTRA:         -12.273
REMARK INTER:                 -10.989
REMARK INTRA:                  -1.285
REMARK UNBOUND:                -2.091
REMARK SMILES CCCCCCCCCCCCCCCC(=O)[O-]
REMARK SMILES IDX 9 1 10 2 11 3 12 4 13 5 14 6 15 7 16 8 17 9 18 10 8 11 7 12
REMARK SMILES IDX 6 13 5 14 4 15 3 16 2 17 1 18
REMARK H PARENT
REMARK Flexibility Score: inf
ROOT
ATOM      1  C   UNL     1       3.403  13.841   1.115  1.00  0.00     0.000 C 
ENDROOT
BRANCH   1   2
ATOM      2  C   UNL     1       2.185  13.935   2.057  1.00  0.00     0.000 C 
BRANCH   2   3
ATOM      3  C   UNL     1       0.815  13.889   1.356  1.00  0.00     0.000 C 
BRANCH   3   4
ATOM      4  C   UNL     1      -0.281  13.259   2.227  1.00  0.00     0.000 C 
BRANCH   4   5
ATOM      5  C   UNL     1      -1.169  14.341   2.859  1.00  0.00     0.000 C 
BRANCH   5   6
ATOM      6  C   UNL     1      -1.325  14.167   4.378  1.00  0.00     0.006 C 
BRANCH   6   7
ATOM      7  C   UNL     1      -0.030  14.471   5.144  1.00  0.00     0.053 C 
BRANCH   7   8
ATOM      8  C   UNL     1      -0.278  14.440   6.620  1.00  0.00     0.041 C 
ATOM      9  O   UNL     1       0.299  13.585   7.342  1.00  0.00    -0.550 OA
ATOM     10  O   UNL     1      -1.186  15.323   7.190  1.00  0.00    -0.550 OA
ENDBRANCH   7   8
ENDBRANCH   6   7
ENDBRANCH   5   6
ENDBRANCH   4   5
ENDBRANCH   3   4
ENDBRANCH   2   3
ENDBRANCH   1   2
BRANCH   1  11
ATOM     11  C   UNL     1       4.617  13.087   1.691  1.00  0.00     0.000 C 
BRANCH  11  12
ATOM     12  C   UNL     1       5.955  13.359   0.975  1.00  0.00    -0.000 C 
BRANCH  12  13
ATOM     13  C   UNL     1       6.622  14.699   1.337  1.00  0.00    -0.000 C 
BRANCH  13  14
ATOM     14  C   UNL     1       7.469  14.614   2.618  1.00  0.00    -0.000 C 
BRANCH  14  15
ATOM     15  C   UNL     1       7.067  15.667   3.662  1.00  0.00    -0.000 C 
BRANCH  15  16
ATOM     16  C   UNL     1       5.596  16.092   3.534  1.00  0.00    -0.000 C 
BRANCH  16  17
ATOM     17  C   UNL     1       4.886  16.025   4.892  1.00  0.00    -0.003 C 
ATOM     18  C   UNL     1       3.406  15.694   4.725  1.00  0.00     0.004 C 
ENDBRANCH  16  17
ENDBRANCH  15  16
ENDBRANCH  14  15
ENDBRANCH  13  14
ENDBRANCH  12  13
ENDBRANCH  11  12
ENDBRANCH   1  11
TORSDOF 14
ENDMDL
MODEL 3
REMARK VINA RESULT:    -5.457      5.409      8.248
REMARK INTER + INTRA:         -12.014
REMARK INTER:                 -10.334
REMARK INTRA:                  -1.679
REMARK UNBOUND:                -2.091
REMARK SMILES CCCCCCCCCCCCCCCC(=O)[O-]
REMARK SMILES IDX 9 1 10 2 11 3 12 4 13 5 14 6 15 7 16 8 17 9 18 10 8 11 7 12
REMARK SMILES IDX 6 13 5 14 4 15 3 16 2 17 1 18
REMARK H PARENT
REMARK Flexibility Score: inf
ROOT
ATOM      1  C   UNL     1       7.267  15.958   3.722  1.00  0.00     0.000 C 
ENDROOT
BRANCH   1   2
ATOM      2  C   UNL     1       7.737  14.628   3.097  1.00  0.00     0.000 C 
BRANCH   2   3
ATOM      3  C   UNL     1       8.933  14.748   2.135  1.00  0.00     0.000 C 
BRANCH   3   4
ATOM      4  C   UNL     1       8.722  13.983   0.820  1.00  0.00     0.000 C 
BRANCH   4   5
ATOM      5  C   UNL     1       9.982  14.043  -0.057  1.00  0.00     0.000 C 
BRANCH   5   6
ATOM      6  C   UNL     1      10.932  15.181   0.349  1.00  0.00     0.006 C 
BRANCH   6   7
ATOM      7  C   UNL     1      12.329  14.677   0.731  1.00  0.00     0.053 C 
BRANCH   7   8
ATOM      8  C   UNL     1      12.924  13.886  -0.392  1.00  0.00     0.041 C 
ATOM      9  O   UNL     1      13.068  14.408  -1.528  1.00  0.00    -0.550 OA
ATOM     10  O   UNL     1      13.271  12.556  -0.196  1.00  0.00    -0.550 OA
ENDBRANCH   7   8
ENDBRANCH   6   7
ENDBRANCH   5   6
ENDBRANCH   4   5
ENDBRANCH   3   4
ENDBRANCH   2   3
ENDBRANCH   1   2
BRANCH   1  11
ATOM     11  C   UNL     1       5.771  16.274   3.533  1.00  0.00     0.000 C 
BRANCH  11  12
ATOM     12  C   UNL     1       4.853  15.794   4.675  1.00  0.00    -0.000 C 
BRANCH  12  13
ATOM     13  C   UNL     1       3.915  14.630   4.305  1.00  0.00    -0.000 C 
BRANCH  13  14
ATOM     14  C   UNL     1       3.068  14.924   3.054  1.00  0.00    -0.000 C 
BRANCH  14  15
ATOM     15  C   UNL     1       3.119  13.782   2.027  1.00  0.00    -0.000 C 
BRANCH  15  16
ATOM     16  C   UNL     1       4.539  13.231   1.827  1.00  0.00    -0.000 C 
BRANCH  16  17
ATOM     17  C   UNL     1       5.017  13.457   0.388  1.00  0.00    -0.003 C 
ATOM     18  C   UNL     1       5.357  14.925   0.143  1.00  0.00     0.004 C 
ENDBRANCH  16  17
ENDBRANCH  15  16
ENDBRANCH  14  15
ENDBRANCH  13  14
ENDBRANCH  12  13
ENDBRANCH  11  12
ENDBRANCH   1  11
TORSDOF 14
ENDMDL
MODEL 4
REMARK VINA RESULT:    -5.428      1.971      5.061
REMARK INTER + INTRA:         -11.962
REMARK INTER:                 -10.465
REMARK INTRA:                  -1.497
REMARK UNBOUND:                -2.091
REMARK SMILES CCCCCCCCCCCCCCCC(=O)[O-]
REMARK SMILES IDX 9 1 10 2 11 3 12 4 13 5 14 6 15 7 16 8 17 9 18 10 8 11 7 12
REMARK SMILES IDX 6 13 5 14 4 15 3 16 2 17 1 18
REMARK H PARENT
REMARK Flexibility Score: inf
ROOT
ATOM      1  C   UNL     1       6.369  13.785   0.669  1.00  0.00     0.000 C 
ENDROOT
BRANCH   1   2
ATOM      2  C   UNL     1       7.909  13.691   0.695  1.00  0.00     0.000 C 
BRANCH   2   3
ATOM      3  C   UNL     1       8.609  14.731   1.589  1.00  0.00     0.000 C 
BRANCH   3   4
ATOM      4  C   UNL     1       8.283  14.554   3.079  1.00  0.00     0.000 C 
BRANCH   4   5
ATOM      5  C   UNL     1       7.355  15.674   3.574  1.00  0.00     0.000 C 
BRANCH   5   6
ATOM      6  C   UNL     1       5.932  15.174   3.874  1.00  0.00     0.006 C 
BRANCH   6   7
ATOM      7  C   UNL     1       4.924  16.319   4.032  1.00  0.00     0.053 C 
BRANCH   7   8
ATOM      8  C   UNL     1       4.052  16.085   5.225  1.00  0.00     0.041 C 
ATOM      9  O   UNL     1       3.324  15.059   5.287  1.00  0.00    -0.550 OA
ATOM     10  O   UNL     1       4.005  17.025   6.247  1.00  0.00    -0.550 OA
ENDBRANCH   7   8
ENDBRANCH   6   7
ENDBRANCH   5   6
ENDBRANCH   4   5
ENDBRANCH   3   4
ENDBRANCH   2   3
ENDBRANCH   1   2
BRANCH   1  11
ATOM     11  C   UNL     1       5.807  15.151   0.229  1.00  0.00     0.000 C 
BRANCH  11  12
ATOM     12  C   UNL     1       4.303  15.355   0.498  1.00  0.00    -0.000 C 
BRANCH  12  13
ATOM     13  C   UNL     1       3.499  14.056   0.697  1.00  0.00    -0.000 C 
BRANCH  13  14
ATOM     14  C   UNL     1       2.693  14.050   2.007  1.00  0.00    -0.000 C 
BRANCH  14  15
ATOM     15  C   UNL     1       1.177  13.985   1.767  1.00  0.00    -0.000 C 
BRANCH  15  16
ATOM     16  C   UNL     1       0.369  14.568   2.936  1.00  0.00    -0.000 C 
BRANCH  16  17
ATOM     17  C   UNL     1      -1.136  14.399   2.701  1.00  0.00    -0.003 C 
ATOM     18  C   UNL     1      -1.414  13.326   1.652  1.00  0.00     0.004 C 
ENDBRANCH  16  17
ENDBRANCH  15  16
ENDBRANCH  14  15
ENDBRANCH  13  14
ENDBRANCH  12  13
ENDBRANCH  11  12
ENDBRANCH   1  11
TORSDOF 14
ENDMDL
MODEL 5
REMARK VINA RESULT:    -5.402      5.045      7.797
REMARK INTER + INTRA:         -11.914
REMARK INTER:                 -10.189
REMARK INTRA:                  -1.725
REMARK UNBOUND:                -2.091
REMARK SMILES CCCCCCCCCCCCCCCC(=O)[O-]
REMARK SMILES IDX 9 1 10 2 11 3 12 4 13 5 14 6 15 7 16 8 17 9 18 10 8 11 7 12
REMARK SMILES IDX 6 13 5 14 4 15 3 16 2 17 1 18
REMARK H PARENT
REMARK Flexibility Score: inf
ROOT
ATOM      1  C   UNL     1       7.103  14.700   0.465  1.00  0.00     0.000 C 
ENDROOT
BRANCH   1   2
ATOM      2  C   UNL     1       8.124  13.559   0.654  1.00  0.00     0.000 C 
BRANCH   2   3
ATOM      3  C   UNL     1       9.325  13.904   1.553  1.00  0.00     0.000 C 
BRANCH   3   4
ATOM      4  C   UNL     1       9.730  15.383   1.470  1.00  0.00     0.000 C 
BRANCH   4   5
ATOM      5  C   UNL     1      11.180  15.528   0.984  1.00  0.00     0.000 C 
BRANCH   5   6
ATOM      6  C   UNL     1      11.869  14.172   0.764  1.00  0.00     0.006 C 
BRANCH   6   7
ATOM      7  C   UNL     1      12.550  14.071  -0.607  1.00  0.00     0.053 C 
BRANCH   7   8
ATOM      8  C   UNL     1      11.562  14.330  -1.701  1.00  0.00     0.041 C 
ATOM      9  O   UNL     1      10.573  13.567  -1.855  1.00  0.00    -0.550 OA
ATOM     10  O   UNL     1      11.762  15.385  -2.581  1.00  0.00    -0.550 OA
ENDBRANCH   7   8
ENDBRANCH   6   7
ENDBRANCH   5   6
ENDBRANCH   4   5
ENDBRANCH   3   4
ENDBRANCH   2   3
ENDBRANCH   1   2
BRANCH   1  11
ATOM     11  C   UNL     1       5.637  14.245   0.320  1.00  0.00     0.000 C 
BRANCH  11  12
ATOM     12  C   UNL     1       5.211  13.105   1.265  1.00  0.00    -0.000 C 
BRANCH  12  13
ATOM     13  C   UNL     1       3.813  13.270   1.890  1.00  0.00    -0.000 C 
BRANCH  13  14
ATOM     14  C   UNL     1       3.419  14.744   2.082  1.00  0.00    -0.000 C 
BRANCH  14  15
ATOM     15  C   UNL     1       3.040  15.069   3.536  1.00  0.00    -0.000 C 
BRANCH  15  16
ATOM     16  C   UNL     1       4.250  15.036   4.482  1.00  0.00    -0.000 C 
BRANCH  16  17
ATOM     17  C   UNL     1       5.192  16.214   4.206  1.00  0.00    -0.003 C 
ATOM     18  C   UNL     1       6.584  15.727   3.812  1.00  0.00     0.004 C 
ENDBRANCH  16  17
ENDBRANCH  15  16
ENDBRANCH  14  15
ENDBRANCH  13  14
ENDBRANCH  12  13
ENDBRANCH  11  12
ENDBRANCH   1  11
TORSDOF 14
ENDMDL
MODEL 6
REMARK VINA RESULT:    -5.380      4.775      7.790
REMARK INTER + INTRA:         -11.874
REMARK INTER:                 -10.051
REMARK INTRA:                  -1.822
REMARK UNBOUND:                -2.091
REMARK SMILES CCCCCCCCCCCCCCCC(=O)[O-]
REMARK SMILES IDX 9 1 10 2 11 3 12 4 13 5 14 6 15 7 16 8 17 9 18 10 8 11 7 12
REMARK SMILES IDX 6 13 5 14 4 15 3 16 2 17 1 18
REMARK H PARENT
REMARK Flexibility Score: inf
ROOT
ATOM      1  C   UNL     1       6.192  16.149   3.945  1.00  0.00     0.000 C 
ENDROOT
BRANCH   1   2
ATOM      2  C   UNL     1       7.132  14.985   3.572  1.00  0.00     0.000 C 
BRANCH   2   3
ATOM      3  C   UNL     1       8.425  15.399   2.846  1.00  0.00     0.000 C 
BRANCH   3   4
ATOM      4  C   UNL     1       9.121  14.223   2.146  1.00  0.00     0.000 C 
BRANCH   4   5
ATOM      5  C   UNL     1       9.169  14.440   0.626  1.00  0.00     0.000 C 
BRANCH   5   6
ATOM      6  C   UNL     1      10.606  14.501   0.082  1.00  0.00     0.006 C 
BRANCH   6   7
ATOM      7  C   UNL     1      11.547  15.307   0.986  1.00  0.00     0.053 C 
BRANCH   7   8
ATOM      8  C   UNL     1      11.424  16.770   0.694  1.00  0.00     0.041 C 
ATOM      9  O   UNL     1      11.415  17.180  -0.497  1.00  0.00    -0.550 OA
ATOM     10  O   UNL     1      11.372  17.685   1.738  1.00  0.00    -0.550 OA
ENDBRANCH   7   8
ENDBRANCH   6   7
ENDBRANCH   5   6
ENDBRANCH   4   5
ENDBRANCH   3   4
ENDBRANCH   2   3
ENDBRANCH   1   2
BRANCH   1  11
ATOM     11  C   UNL     1       4.932  15.743   4.733  1.00  0.00     0.000 C 
BRANCH  11  12
ATOM     12  C   UNL     1       3.607  15.858   3.953  1.00  0.00    -0.000 C 
BRANCH  12  13
ATOM     13  C   UNL     1       2.999  14.515   3.509  1.00  0.00    -0.000 C 
BRANCH  13  14
ATOM     14  C   UNL     1       2.323  14.596   2.130  1.00  0.00    -0.000 C 
BRANCH  14  15
ATOM     15  C   UNL     1       3.081  13.803   1.053  1.00  0.00    -0.000 C 
BRANCH  15  16
ATOM     16  C   UNL     1       4.352  13.135   1.599  1.00  0.00    -0.000 C 
BRANCH  16  17
ATOM     17  C   UNL     1       5.571  13.492   0.740  1.00  0.00    -0.003 C 
ATOM     18  C   UNL     1       5.467  14.915   0.198  1.00  0.00     0.004 C 
ENDBRANCH  16  17
ENDBRANCH  15  16
ENDBRANCH  14  15
ENDBRANCH  13  14
ENDBRANCH  12  13
ENDBRANCH  11  12
ENDBRANCH   1  11
TORSDOF 14
ENDMDL
MODEL 7
REMARK VINA RESULT:    -5.254      4.913      7.669
REMARK INTER + INTRA:         -11.644
REMARK INTER:                 -10.207
REMARK INTRA:                  -1.438
REMARK UNBOUND:                -2.091
REMARK SMILES CCCCCCCCCCCCCCCC(=O)[O-]
REMARK SMILES IDX 9 1 10 2 11 3 12 4 13 5 14 6 15 7 16 8 17 9 18 10 8 11 7 12
REMARK SMILES IDX 6 13 5 14 4 15 3 16 2 17 1 18
REMARK H PARENT
REMARK Flexibility Score: inf
ROOT
ATOM      1  C   UNL     1       7.828  14.000   1.248  1.00  0.00     0.000 C 
ENDROOT
BRANCH   1   2
ATOM      2  C   UNL     1       9.157  13.588   0.583  1.00  0.00     0.000 C 
BRANCH   2   3
ATOM      3  C   UNL     1      10.417  13.848   1.428  1.00  0.00     0.000 C 
BRANCH   3   4
ATOM      4  C   UNL     1      11.555  14.490   0.623  1.00  0.00     0.000 C 
BRANCH   4   5
ATOM      5  C   UNL     1      11.262  15.972   0.346  1.00  0.00     0.000 C 
BRANCH   5   6
ATOM      6  C   UNL     1      10.850  16.741   1.612  1.00  0.00     0.006 C 
BRANCH   6   7
ATOM      7  C   UNL     1      11.673  18.018   1.823  1.00  0.00     0.053 C 
BRANCH   7   8
ATOM      8  C   UNL     1      11.332  18.647   3.138  1.00  0.00     0.041 C 
ATOM      9  O   UNL     1      12.085  19.525   3.635  1.00  0.00    -0.550 OA
ATOM     10  O   UNL     1      10.209  18.226   3.838  1.00  0.00    -0.550 OA
ENDBRANCH   7   8
ENDBRANCH   6   7
ENDBRANCH   5   6
ENDBRANCH   4   5
ENDBRANCH   3   4
ENDBRANCH   2   3
ENDBRANCH   1   2
BRANCH   1  11
ATOM     11  C   UNL     1       6.855  14.773   0.338  1.00  0.00     0.000 C 
BRANCH  11  12
ATOM     12  C   UNL     1       5.379  14.338   0.440  1.00  0.00    -0.000 C 
BRANCH  12  13
ATOM     13  C   UNL     1       5.118  13.155   1.391  1.00  0.00    -0.000 C 
BRANCH  13  14
ATOM     14  C   UNL     1       3.719  13.202   2.029  1.00  0.00    -0.000 C 
BRANCH  14  15
ATOM     15  C   UNL     1       3.278  14.633   2.376  1.00  0.00    -0.000 C 
BRANCH  15  16
ATOM     16  C   UNL     1       3.711  15.056   3.788  1.00  0.00    -0.000 C 
BRANCH  16  17
ATOM     17  C   UNL     1       4.662  16.257   3.732  1.00  0.00    -0.003 C 
ATOM     18  C   UNL     1       6.109  15.826   3.956  1.00  0.00     0.004 C 
ENDBRANCH  16  17
ENDBRANCH  15  16
ENDBRANCH  14  15
ENDBRANCH  13  14
ENDBRANCH  12  13
ENDBRANCH  11  12
ENDBRANCH   1  11
TORSDOF 14
ENDMDL
MODEL 8
REMARK VINA RESULT:    -5.232      3.613      5.324
REMARK INTER + INTRA:         -11.605
REMARK INTER:                 -10.537
REMARK INTRA:                  -1.068
REMARK UNBOUND:                -2.091
REMARK SMILES CCCCCCCCCCCCCCCC(=O)[O-]
REMARK SMILES IDX 9 1 10 2 11 3 12 4 13 5 14 6 15 7 16 8 17 9 18 10 8 11 7 12
REMARK SMILES IDX 6 13 5 14 4 15 3 16 2 17 1 18
REMARK H PARENT
REMARK Flexibility Score: inf
ROOT
ATOM      1  C   UNL     1      10.226  13.866   0.860  1.00  0.00     0.000 C 
ENDROOT
BRANCH   1   2
ATOM      2  C   UNL     1       8.847  14.555   0.910  1.00  0.00     0.000 C 
BRANCH   2   3
ATOM      3  C   UNL     1       8.212  14.639   2.310  1.00  0.00     0.000 C 
BRANCH   3   4
ATOM      4  C   UNL     1       6.696  14.391   2.295  1.00  0.00     0.000 C 
BRANCH   4   5
ATOM      5  C   UNL     1       6.141  14.475   0.865  1.00  0.00     0.000 C 
BRANCH   5   6
ATOM      6  C   UNL     1       5.022  13.454   0.604  1.00  0.00     0.006 C 
BRANCH   6   7
ATOM      7  C   UNL     1       4.211  13.130   1.865  1.00  0.00     0.053 C 
BRANCH   7   8
ATOM      8  C   UNL     1       3.080  14.098   2.020  1.00  0.00     0.041 C 
ATOM      9  O   UNL     1       3.175  15.059   2.829  1.00  0.00    -0.550 OA
ATOM     10  O   UNL     1       1.902  13.910   1.309  1.00  0.00    -0.550 OA
ENDBRANCH   7   8
ENDBRANCH   6   7
ENDBRANCH   5   6
ENDBRANCH   4   5
ENDBRANCH   3   4
ENDBRANCH   2   3
ENDBRANCH   1   2
BRANCH   1  11
ATOM     11  C   UNL     1      11.430  14.824   0.773  1.00  0.00     0.000 C 
BRANCH  11  12
ATOM     12  C   UNL     1      11.080  16.283   0.417  1.00  0.00    -0.000 C 
BRANCH  12  13
ATOM     13  C   UNL     1      11.654  17.339   1.380  1.00  0.00    -0.000 C 
BRANCH  13  14
ATOM     14  C   UNL     1      10.700  17.665   2.542  1.00  0.00    -0.000 C 
BRANCH  14  15
ATOM     15  C   UNL     1      11.044  18.993   3.234  1.00  0.00    -0.000 C 
BRANCH  15  16
ATOM     16  C   UNL     1      11.222  18.839   4.752  1.00  0.00    -0.000 C 
BRANCH  16  17
ATOM     17  C   UNL     1      12.522  19.502   5.221  1.00  0.00    -0.003 C 
ATOM     18  C   UNL     1      13.457  19.778   4.046  1.00  0.00     0.004 C 
ENDBRANCH  16  17
ENDBRANCH  15  16
ENDBRANCH  14  15
ENDBRANCH  13  14
ENDBRANCH  12  13
ENDBRANCH  11  12
ENDBRANCH   1  11
TORSDOF 14
ENDMDL
MODEL 9
REMARK VINA RESULT:    -5.196      5.811      8.481
REMARK INTER + INTRA:         -11.540
REMARK INTER:                 -10.549
REMARK INTRA:                  -0.991
REMARK UNBOUND:                -2.091
REMARK SMILES CCCCCCCCCCCCCCCC(=O)[O-]
REMARK SMILES IDX 9 1 10 2 11 3 12 4 13 5 14 6 15 7 16 8 17 9 18 10 8 11 7 12
REMARK SMILES IDX 6 13 5 14 4 15 3 16 2 17 1 18
REMARK H PARENT
REMARK Flexibility Score: inf
ROOT
ATOM      1  C   UNL     1       8.389  14.587   1.672  1.00  0.00     0.000 C 
ENDROOT
BRANCH   1   2
ATOM      2  C   UNL     1       9.904  14.423   1.435  1.00  0.00     0.000 C 
BRANCH   2   3
ATOM      3  C   UNL     1      10.488  15.306   0.317  1.00  0.00     0.000 C 
BRANCH   3   4
ATOM      4  C   UNL     1      11.552  16.289   0.826  1.00  0.00     0.000 C 
BRANCH   4   5
ATOM      5  C   UNL     1      10.948  17.279   1.834  1.00  0.00     0.000 C 
BRANCH   5   6
ATOM      6  C   UNL     1      11.935  18.385   2.241  1.00  0.00     0.006 C 
BRANCH   6   7
ATOM      7  C   UNL     1      11.505  19.120   3.517  1.00  0.00     0.053 C 
BRANCH   7   8
ATOM      8  C   UNL     1      12.705  19.592   4.277  1.00  0.00     0.041 C 
ATOM      9  O   UNL     1      13.832  19.637   3.717  1.00  0.00    -0.550 OA
ATOM     10  O   UNL     1      12.588  19.933   5.618  1.00  0.00    -0.550 OA
ENDBRANCH   7   8
ENDBRANCH   6   7
ENDBRANCH   5   6
ENDBRANCH   4   5
ENDBRANCH   3   4
ENDBRANCH   2   3
ENDBRANCH   1   2
BRANCH   1  11
ATOM     11  C   UNL     1       7.487  13.846   0.666  1.00  0.00     0.000 C 
BRANCH  11  12
ATOM     12  C   UNL     1       6.019  14.316   0.635  1.00  0.00    -0.000 C 
BRANCH  12  13
ATOM     13  C   UNL     1       4.976  13.189   0.752  1.00  0.00    -0.000 C 
BRANCH  13  14
ATOM     14  C   UNL     1       4.247  13.193   2.106  1.00  0.00    -0.000 C 
BRANCH  14  15
ATOM     15  C   UNL     1       3.118  14.234   2.165  1.00  0.00    -0.000 C 
BRANCH  15  16
ATOM     16  C   UNL     1       3.271  15.203   3.347  1.00  0.00    -0.000 C 
BRANCH  16  17
ATOM     17  C   UNL     1       4.524  14.873   4.167  1.00  0.00    -0.003 C 
ATOM     18  C   UNL     1       5.594  15.948   3.996  1.00  0.00     0.004 C 
ENDBRANCH  16  17
ENDBRANCH  15  16
ENDBRANCH  14  15
ENDBRANCH  13  14
ENDBRANCH  12  13
ENDBRANCH  11  12
ENDBRANCH   1  11
TORSDOF 14
ENDMDL
