MODEL 1
REMARK VINA RESULT:    -4.588      0.000      0.000
REMARK INTER + INTRA:         -11.400
REMARK INTER:                  -8.880
REMARK INTRA:                  -2.519
REMARK UNBOUND:                -2.519
REMARK SMILES CCCCCCCCCCCCCCCCCC(=O)[O-]
REMARK SMILES IDX 10 1 11 2 12 3 13 4 14 5 15 6 16 7 17 8 18 9 19 10 20 11
REMARK SMILES IDX 9 12 8 13 7 14 6 15 5 16 4 17 3 18 2 19 1 20
REMARK H PARENT
REMARK Flexibility Score: inf
ROOT
ATOM      1  C   UNL     1      19.757  18.082  33.184  1.00  0.00     0.000 C 
ENDROOT
BRANCH   1   2
ATOM      2  C   UNL     1      19.214  19.517  33.064  1.00  0.00     0.000 C 
BRANCH   2   3
ATOM      3  C   UNL     1      18.471  20.043  34.306  1.00  0.00     0.000 C 
BRANCH   3   4
ATOM      4  C   UNL     1      19.324  19.983  35.586  1.00  0.00     0.000 C 
BRANCH   4   5
ATOM      5  C   UNL     1      18.633  19.217  36.729  1.00  0.00     0.000 C 
BRANCH   5   6
ATOM      6  C   UNL     1      18.235  17.762  36.405  1.00  0.00     0.000 C 
BRANCH   6   7
ATOM      7  C   UNL     1      16.735  17.449  36.548  1.00  0.00     0.006 C 
BRANCH   7   8
ATOM      8  C   UNL     1      16.448  15.945  36.626  1.00  0.00     0.053 C 
BRANCH   8   9
ATOM      9  C   UNL     1      15.257  15.683  37.491  1.00  0.00     0.041 C 
ATOM     10  O   UNL     1      14.412  16.593  37.698  1.00  0.00    -0.550 OA
ATOM     11  O   UNL     1      15.104  14.448  38.110  1.00  0.00    -0.550 OA
ENDBRANCH   8   9
ENDBRANCH   7   8
ENDBRANCH   6   7
ENDBRANCH   5   6
ENDBRANCH   4   5
ENDBRANCH   3   4
ENDBRANCH   2   3
ENDBRANCH   1   2
BRANCH   1  12
ATOM     12  C   UNL     1      19.012  17.083  32.281  1.00  0.00     0.000 C 
BRANCH  12  13
ATOM     13  C   UNL     1      18.010  16.214  33.057  1.00  0.00    -0.000 C 
BRANCH  13  14
ATOM     14  C   UNL     1      16.578  16.334  32.511  1.00  0.00    -0.000 C 
BRANCH  14  15
ATOM     15  C   UNL     1      15.898  17.610  33.030  1.00  0.00    -0.000 C 
BRANCH  15  16
ATOM     16  C   UNL     1      15.847  18.725  31.972  1.00  0.00    -0.000 C 
BRANCH  16  17
ATOM     17  C   UNL     1      15.474  18.200  30.577  1.00  0.00    -0.000 C 
BRANCH  17  18
ATOM     18  C   UNL     1      13.976  18.393  30.301  1.00  0.00    -0.000 C 
BRANCH  18  19
ATOM     19  C   UNL     1      13.237  17.062  30.092  1.00  0.00    -0.003 C 
ATOM     20  C   UNL     1      12.743  16.445  31.401  1.00  0.00     0.004 C 
ENDBRANCH  18  19
ENDBRANCH  17  18
ENDBRANCH  16  17
ENDBRANCH  15  16
ENDBRANCH  14  15
ENDBRANCH  13  14
ENDBRANCH  12  13
ENDBRANCH   1  12
TORSDOF 16
ENDMDL
MODEL 2
REMARK VINA RESULT:    -4.554      1.316      2.558
REMARK INTER + INTRA:         -11.332
REMARK INTER:                  -9.178
REMARK INTRA:                  -2.154
REMARK UNBOUND:                -2.519
REMARK SMILES CCCCCCCCCCCCCCCCCC(=O)[O-]
REMARK SMILES IDX 10 1 11 2 12 3 13 4 14 5 15 6 16 7 17 8 18 9 19 10 20 11
REMARK SMILES IDX 9 12 8 13 7 14 6 15 5 16 4 17 3 18 2 19 1 20
REMARK H PARENT
REMARK Flexibility Score: inf
ROOT
ATOM      1  C   UNL     1      18.911  19.852  36.095  1.00  0.00     0.000 C 
ENDROOT
BRANCH   1   2
ATOM      2  C   UNL     1      20.255  19.285  36.587  1.00  0.00     0.000 C 
BRANCH   2   3
ATOM      3  C   UNL     1      20.916  18.258  35.649  1.00  0.00     0.000 C 
BRANCH   3   4
ATOM      4  C   UNL     1      20.560  16.803  36.004  1.00  0.00     0.000 C 
BRANCH   4   5
ATOM      5  C   UNL     1      19.852  16.064  34.854  1.00  0.00     0.000 C 
BRANCH   5   6
ATOM      6  C   UNL     1      18.328  16.282  34.766  1.00  0.00     0.000 C 
BRANCH   6   7
ATOM      7  C   UNL     1      17.513  15.662  35.915  1.00  0.00     0.006 C 
BRANCH   7   8
ATOM      8  C   UNL     1      16.640  16.690  36.645  1.00  0.00     0.053 C 
BRANCH   8   9
ATOM      9  C   UNL     1      15.511  16.010  37.353  1.00  0.00     0.041 C 
ATOM     10  O   UNL     1      15.609  14.799  37.683  1.00  0.00    -0.550 OA
ATOM     11  O   UNL     1      14.331  16.700  37.605  1.00  0.00    -0.550 OA
ENDBRANCH   8   9
ENDBRANCH   7   8
ENDBRANCH   6   7
ENDBRANCH   5   6
ENDBRANCH   4   5
ENDBRANCH   3   4
ENDBRANCH   2   3
ENDBRANCH   1   2
BRANCH   1  12
ATOM     12  C   UNL     1      18.952  20.296  34.622  1.00  0.00     0.000 C 
BRANCH  12  13
ATOM     13  C   UNL     1      17.816  19.684  33.787  1.00  0.00    -0.000 C 
BRANCH  13  14
ATOM     14  C   UNL     1      18.318  19.058  32.476  1.00  0.00    -0.000 C 
BRANCH  14  15
ATOM     15  C   UNL     1      17.166  18.390  31.711  1.00  0.00    -0.000 C 
BRANCH  15  16
ATOM     16  C   UNL     1      15.912  18.196  32.579  1.00  0.00    -0.000 C 
BRANCH  16  17
ATOM     17  C   UNL     1      14.641  18.744  31.912  1.00  0.00    -0.000 C 
BRANCH  17  18
ATOM     18  C   UNL     1      14.557  18.300  30.444  1.00  0.00    -0.000 C 
BRANCH  18  19
ATOM     19  C   UNL     1      13.337  17.408  30.165  1.00  0.00    -0.003 C 
ATOM     20  C   UNL     1      12.783  16.748  31.428  1.00  0.00     0.004 C 
ENDBRANCH  18  19
ENDBRANCH  17  18
ENDBRANCH  16  17
ENDBRANCH  15  16
ENDBRANCH  14  15
ENDBRANCH  13  14
ENDBRANCH  12  13
ENDBRANCH   1  12
TORSDOF 16
ENDMDL
MODEL 3
REMARK VINA RESULT:    -4.396      1.500      2.827
REMARK INTER + INTRA:         -11.027
REMARK INTER:                  -8.611
REMARK INTRA:                  -2.416
REMARK UNBOUND:                -2.519
REMARK SMILES CCCCCCCCCCCCCCCCCC(=O)[O-]
REMARK SMILES IDX 10 1 11 2 12 3 13 4 14 5 15 6 16 7 17 8 18 9 19 10 20 11
REMARK SMILES IDX 9 12 8 13 7 14 6 15 5 16 4 17 3 18 2 19 1 20
REMARK H PARENT
REMARK Flexibility Score: inf
ROOT
ATOM      1  C   UNL     1      19.208  20.235  36.015  1.00  0.00     0.000 C 
ENDROOT
BRANCH   1   2
ATOM      2  C   UNL     1      19.839  19.004  36.692  1.00  0.00     0.000 C 
BRANCH   2   3
ATOM      3  C   UNL     1      21.115  18.469  36.017  1.00  0.00     0.000 C 
BRANCH   3   4
ATOM      4  C   UNL     1      20.918  17.086  35.370  1.00  0.00     0.000 C 
BRANCH   4   5
ATOM      5  C   UNL     1      19.739  16.305  35.977  1.00  0.00     0.000 C 
BRANCH   5   6
ATOM      6  C   UNL     1      18.556  16.045  35.022  1.00  0.00     0.000 C 
BRANCH   6   7
ATOM      7  C   UNL     1      17.214  15.741  35.713  1.00  0.00     0.006 C 
BRANCH   7   8
ATOM      8  C   UNL     1      16.636  16.958  36.446  1.00  0.00     0.053 C 
BRANCH   8   9
ATOM      9  C   UNL     1      15.395  16.579  37.190  1.00  0.00     0.041 C 
ATOM     10  O   UNL     1      15.060  17.210  38.227  1.00  0.00    -0.550 OA
ATOM     11  O   UNL     1      14.632  15.498  36.764  1.00  0.00    -0.550 OA
ENDBRANCH   8   9
ENDBRANCH   7   8
ENDBRANCH   6   7
ENDBRANCH   5   6
ENDBRANCH   4   5
ENDBRANCH   3   4
ENDBRANCH   2   3
ENDBRANCH   1   2
BRANCH   1  12
ATOM     12  C   UNL     1      18.230  19.863  34.887  1.00  0.00     0.000 C 
BRANCH  12  13
ATOM     13  C   UNL     1      18.939  19.613  33.547  1.00  0.00    -0.000 C 
BRANCH  13  14
ATOM     14  C   UNL     1      18.027  18.931  32.514  1.00  0.00    -0.000 C 
BRANCH  14  15
ATOM     15  C   UNL     1      16.651  18.617  33.120  1.00  0.00    -0.000 C 
BRANCH  15  16
ATOM     16  C   UNL     1      15.749  17.821  32.162  1.00  0.00    -0.000 C 
BRANCH  16  17
ATOM     17  C   UNL     1      14.816  18.724  31.341  1.00  0.00    -0.000 C 
BRANCH  17  18
ATOM     18  C   UNL     1      14.839  18.331  29.856  1.00  0.00    -0.000 C 
BRANCH  18  19
ATOM     19  C   UNL     1      16.256  18.021  29.348  1.00  0.00    -0.003 C 
ATOM     20  C   UNL     1      17.029  19.277  28.944  1.00  0.00     0.004 C 
ENDBRANCH  18  19
ENDBRANCH  17  18
ENDBRANCH  16  17
ENDBRANCH  15  16
ENDBRANCH  14  15
ENDBRANCH  13  14
ENDBRANCH  12  13
ENDBRANCH   1  12
TORSDOF 16
ENDMDL
MODEL 4
REMARK VINA RESULT:    -4.382      1.305      2.021
REMARK INTER + INTRA:         -11.000
REMARK INTER:                  -8.153
REMARK INTRA:                  -2.846
REMARK UNBOUND:                -2.519
REMARK SMILES CCCCCCCCCCCCCCCCCC(=O)[O-]
REMARK SMILES IDX 10 1 11 2 12 3 13 4 14 5 15 6 16 7 17 8 18 9 19 10 20 11
REMARK SMILES IDX 9 12 8 13 7 14 6 15 5 16 4 17 3 18 2 19 1 20
REMARK H PARENT
REMARK Flexibility Score: inf
ROOT
ATOM      1  C   UNL     1      19.574  17.376  33.472  1.00  0.00     0.000 C 
ENDROOT
BRANCH   1   2
ATOM      2  C   UNL     1      19.235  18.746  32.856  1.00  0.00     0.000 C 
BRANCH   2   3
ATOM      3  C   UNL     1      18.273  19.617  33.685  1.00  0.00     0.000 C 
BRANCH   3   4
ATOM      4  C   UNL     1      18.887  20.092  35.014  1.00  0.00     0.000 C 
BRANCH   4   5
ATOM      5  C   UNL     1      18.090  19.618  36.243  1.00  0.00     0.000 C 
BRANCH   5   6
ATOM      6  C   UNL     1      18.091  18.095  36.485  1.00  0.00     0.000 C 
BRANCH   6   7
ATOM      7  C   UNL     1      16.790  17.372  36.093  1.00  0.00     0.006 C 
BRANCH   7   8
ATOM      8  C   UNL     1      16.616  16.030  36.816  1.00  0.00     0.053 C 
BRANCH   8   9
ATOM      9  C   UNL     1      15.164  15.720  37.001  1.00  0.00     0.041 C 
ATOM     10  O   UNL     1      14.646  14.737  36.410  1.00  0.00    -0.550 OA
ATOM     11  O   UNL     1      14.372  16.547  37.789  1.00  0.00    -0.550 OA
ENDBRANCH   8   9
ENDBRANCH   7   8
ENDBRANCH   6   7
ENDBRANCH   5   6
ENDBRANCH   4   5
ENDBRANCH   3   4
ENDBRANCH   2   3
ENDBRANCH   1   2
BRANCH   1  12
ATOM     12  C   UNL     1      19.279  16.203  32.521  1.00  0.00     0.000 C 
BRANCH  12  13
ATOM     13  C   UNL     1      18.350  15.151  33.148  1.00  0.00    -0.000 C 
BRANCH  13  14
ATOM     14  C   UNL     1      17.043  14.971  32.360  1.00  0.00    -0.000 C 
BRANCH  14  15
ATOM     15  C   UNL     1      15.881  15.700  33.052  1.00  0.00    -0.000 C 
BRANCH  15  16
ATOM     16  C   UNL     1      15.691  17.136  32.536  1.00  0.00    -0.000 C 
BRANCH  16  17
ATOM     17  C   UNL     1      15.669  17.215  31.001  1.00  0.00    -0.000 C 
BRANCH  17  18
ATOM     18  C   UNL     1      16.071  18.617  30.518  1.00  0.00    -0.000 C 
BRANCH  18  19
ATOM     19  C   UNL     1      17.436  18.630  29.811  1.00  0.00    -0.003 C 
ATOM     20  C   UNL     1      17.826  17.263  29.250  1.00  0.00     0.004 C 
ENDBRANCH  18  19
ENDBRANCH  17  18
ENDBRANCH  16  17
ENDBRANCH  15  16
ENDBRANCH  14  15
ENDBRANCH  13  14
ENDBRANCH  12  13
ENDBRANCH   1  12
TORSDOF 16
ENDMDL
MODEL 5
REMARK VINA RESULT:    -4.375      1.564      3.285
REMARK INTER + INTRA:         -10.987
REMARK INTER:                  -8.760
REMARK INTRA:                  -2.227
REMARK UNBOUND:                -2.519
REMARK SMILES CCCCCCCCCCCCCCCCCC(=O)[O-]
REMARK SMILES IDX 10 1 11 2 12 3 13 4 14 5 15 6 16 7 17 8 18 9 19 10 20 11
REMARK SMILES IDX 9 12 8 13 7 14 6 15 5 16 4 17 3 18 2 19 1 20
REMARK H PARENT
REMARK Flexibility Score: inf
ROOT
ATOM      1  C   UNL     1      20.801  18.829  36.668  1.00  0.00     0.000 C 
ENDROOT
BRANCH   1   2
ATOM      2  C   UNL     1      19.938  17.595  36.348  1.00  0.00     0.000 C 
BRANCH   2   3
ATOM      3  C   UNL     1      20.647  16.493  35.539  1.00  0.00     0.000 C 
BRANCH   3   4
ATOM      4  C   UNL     1      20.074  16.327  34.120  1.00  0.00     0.000 C 
BRANCH   4   5
ATOM      5  C   UNL     1      18.999  15.228  34.035  1.00  0.00     0.000 C 
BRANCH   5   6
ATOM      6  C   UNL     1      17.558  15.687  34.338  1.00  0.00     0.000 C 
BRANCH   6   7
ATOM      7  C   UNL     1      17.020  15.278  35.721  1.00  0.00     0.006 C 
BRANCH   7   8
ATOM      8  C   UNL     1      16.324  16.432  36.451  1.00  0.00     0.053 C 
BRANCH   8   9
ATOM      9  C   UNL     1      15.316  15.904  37.423  1.00  0.00     0.041 C 
ATOM     10  O   UNL     1      15.371  14.706  37.805  1.00  0.00    -0.550 OA
ATOM     11  O   UNL     1      14.286  16.723  37.870  1.00  0.00    -0.550 OA
ENDBRANCH   8   9
ENDBRANCH   7   8
ENDBRANCH   6   7
ENDBRANCH   5   6
ENDBRANCH   4   5
ENDBRANCH   3   4
ENDBRANCH   2   3
ENDBRANCH   1   2
BRANCH   1  12
ATOM     12  C   UNL     1      20.291  20.109  35.982  1.00  0.00     0.000 C 
BRANCH  12  13
ATOM     13  C   UNL     1      19.972  19.897  34.493  1.00  0.00    -0.000 C 
BRANCH  13  14
ATOM     14  C   UNL     1      18.529  20.286  34.137  1.00  0.00    -0.000 C 
BRANCH  14  15
ATOM     15  C   UNL     1      17.802  19.124  33.443  1.00  0.00    -0.000 C 
BRANCH  15  16
ATOM     16  C   UNL     1      18.340  18.851  32.028  1.00  0.00    -0.000 C 
BRANCH  16  17
ATOM     17  C   UNL     1      17.452  17.878  31.236  1.00  0.00    -0.000 C 
BRANCH  17  18
ATOM     18  C   UNL     1      16.356  18.635  30.471  1.00  0.00    -0.000 C 
BRANCH  18  19
ATOM     19  C   UNL     1      14.940  18.224  30.902  1.00  0.00    -0.003 C 
ATOM     20  C   UNL     1      14.415  19.048  32.077  1.00  0.00     0.004 C 
ENDBRANCH  18  19
ENDBRANCH  17  18
ENDBRANCH  16  17
ENDBRANCH  15  16
ENDBRANCH  14  15
ENDBRANCH  13  14
ENDBRANCH  12  13
ENDBRANCH   1  12
TORSDOF 16
ENDMDL
MODEL 6
REMARK VINA RESULT:    -4.371      1.937      3.420
REMARK INTER + INTRA:         -10.979
REMARK INTER:                  -8.026
REMARK INTRA:                  -2.953
REMARK UNBOUND:                -2.519
REMARK SMILES CCCCCCCCCCCCCCCCCC(=O)[O-]
REMARK SMILES IDX 10 1 11 2 12 3 13 4 14 5 15 6 16 7 17 8 18 9 19 10 20 11
REMARK SMILES IDX 9 12 8 13 7 14 6 15 5 16 4 17 3 18 2 19 1 20
REMARK H PARENT
REMARK Flexibility Score: inf
ROOT
ATOM      1  C   UNL     1      19.191  19.628  33.166  1.00  0.00     0.000 C 
ENDROOT
BRANCH   1   2
ATOM      2  C   UNL     1      18.720  20.257  34.490  1.00  0.00     0.000 C 
BRANCH   2   3
ATOM      3  C   UNL     1      19.773  20.281  35.614  1.00  0.00     0.000 C 
BRANCH   3   4
ATOM      4  C   UNL     1      20.698  19.051  35.598  1.00  0.00     0.000 C 
BRANCH   4   5
ATOM      5  C   UNL     1      20.142  17.876  36.424  1.00  0.00     0.000 C 
BRANCH   5   6
ATOM      6  C   UNL     1      19.692  16.648  35.607  1.00  0.00     0.000 C 
BRANCH   6   7
ATOM      7  C   UNL     1      18.264  16.154  35.905  1.00  0.00     0.006 C 
BRANCH   7   8
ATOM      8  C   UNL     1      17.352  17.265  36.438  1.00  0.00     0.053 C 
BRANCH   8   9
ATOM      9  C   UNL     1      16.036  16.700  36.868  1.00  0.00     0.041 C 
ATOM     10  O   UNL     1      15.515  17.063  37.955  1.00  0.00    -0.550 OA
ATOM     11  O   UNL     1      15.406  15.736  36.090  1.00  0.00    -0.550 OA
ENDBRANCH   8   9
ENDBRANCH   7   8
ENDBRANCH   6   7
ENDBRANCH   5   6
ENDBRANCH   4   5
ENDBRANCH   3   4
ENDBRANCH   2   3
ENDBRANCH   1   2
BRANCH   1  12
ATOM     12  C   UNL     1      18.346  18.411  32.748  1.00  0.00     0.000 C 
BRANCH  12  13
ATOM     13  C   UNL     1      16.836  18.677  32.844  1.00  0.00    -0.000 C 
BRANCH  13  14
ATOM     14  C   UNL     1      16.021  17.389  33.046  1.00  0.00    -0.000 C 
BRANCH  14  15
ATOM     15  C   UNL     1      16.501  16.281  32.096  1.00  0.00    -0.000 C 
BRANCH  15  16
ATOM     16  C   UNL     1      16.763  14.952  32.822  1.00  0.00    -0.000 C 
BRANCH  16  17
ATOM     17  C   UNL     1      17.938  14.168  32.215  1.00  0.00    -0.000 C 
BRANCH  17  18
ATOM     18  C   UNL     1      19.268  14.895  32.462  1.00  0.00    -0.000 C 
BRANCH  18  19
ATOM     19  C   UNL     1      20.056  15.144  31.166  1.00  0.00    -0.003 C 
ATOM     20  C   UNL     1      19.195  14.998  29.911  1.00  0.00     0.004 C 
ENDBRANCH  18  19
ENDBRANCH  17  18
ENDBRANCH  16  17
ENDBRANCH  15  16
ENDBRANCH  14  15
ENDBRANCH  13  14
ENDBRANCH  12  13
ENDBRANCH   1  12
TORSDOF 16
ENDMDL
MODEL 7
REMARK VINA RESULT:    -4.337      2.356      5.430
REMARK INTER + INTRA:         -10.913
REMARK INTER:                  -8.235
REMARK INTRA:                  -2.679
REMARK UNBOUND:                -2.519
REMARK SMILES CCCCCCCCCCCCCCCCCC(=O)[O-]
REMARK SMILES IDX 10 1 11 2 12 3 13 4 14 5 15 6 16 7 17 8 18 9 19 10 20 11
REMARK SMILES IDX 9 12 8 13 7 14 6 15 5 16 4 17 3 18 2 19 1 20
REMARK H PARENT
REMARK Flexibility Score: inf
ROOT
ATOM      1  C   UNL     1      20.081  19.021  33.370  1.00  0.00     0.000 C 
ENDROOT
BRANCH   1   2
ATOM      2  C   UNL     1      18.796  19.563  32.719  1.00  0.00     0.000 C 
BRANCH   2   3
ATOM      3  C   UNL     1      17.839  18.491  32.167  1.00  0.00     0.000 C 
BRANCH   3   4
ATOM      4  C   UNL     1      16.521  18.398  32.956  1.00  0.00     0.000 C 
BRANCH   4   5
ATOM      5  C   UNL     1      15.301  18.857  32.137  1.00  0.00     0.000 C 
BRANCH   5   6
ATOM      6  C   UNL     1      15.424  18.678  30.610  1.00  0.00     0.000 C 
BRANCH   6   7
ATOM      7  C   UNL     1      14.294  17.863  29.956  1.00  0.00     0.006 C 
BRANCH   7   8
ATOM      8  C   UNL     1      13.299  17.301  30.979  1.00  0.00     0.053 C 
BRANCH   8   9
ATOM      9  C   UNL     1      13.582  15.857  31.245  1.00  0.00     0.041 C 
ATOM     10  O   UNL     1      13.717  15.444  32.427  1.00  0.00    -0.550 OA
ATOM     11  O   UNL     1      13.745  14.973  30.184  1.00  0.00    -0.550 OA
ENDBRANCH   8   9
ENDBRANCH   7   8
ENDBRANCH   6   7
ENDBRANCH   5   6
ENDBRANCH   4   5
ENDBRANCH   3   4
ENDBRANCH   2   3
ENDBRANCH   1   2
BRANCH   1  12
ATOM     12  C   UNL     1      20.197  19.388  34.860  1.00  0.00     0.000 C 
BRANCH  12  13
ATOM     13  C   UNL     1      19.009  20.226  35.359  1.00  0.00    -0.000 C 
BRANCH  13  14
ATOM     14  C   UNL     1      18.172  19.493  36.419  1.00  0.00    -0.000 C 
BRANCH  14  15
ATOM     15  C   UNL     1      18.488  17.989  36.424  1.00  0.00    -0.000 C 
BRANCH  15  16
ATOM     16  C   UNL     1      17.238  17.121  36.209  1.00  0.00    -0.000 C 
BRANCH  16  17
ATOM     17  C   UNL     1      17.562  15.773  35.545  1.00  0.00    -0.000 C 
BRANCH  17  18
ATOM     18  C   UNL     1      18.833  15.875  34.689  1.00  0.00    -0.000 C 
BRANCH  18  19
ATOM     19  C   UNL     1      18.737  15.062  33.388  1.00  0.00    -0.003 C 
ATOM     20  C   UNL     1      17.294  14.800  32.957  1.00  0.00     0.004 C 
ENDBRANCH  18  19
ENDBRANCH  17  18
ENDBRANCH  16  17
ENDBRANCH  15  16
ENDBRANCH  14  15
ENDBRANCH  13  14
ENDBRANCH  12  13
ENDBRANCH   1  12
TORSDOF 16
ENDMDL
MODEL 8
REMARK VINA RESULT:    -4.260      2.404      5.708
REMARK INTER + INTRA:         -10.763
REMARK INTER:                  -7.964
REMARK INTRA:                  -2.800
REMARK UNBOUND:                -2.519
REMARK SMILES CCCCCCCCCCCCCCCCCC(=O)[O-]
REMARK SMILES IDX 10 1 11 2 12 3 13 4 14 5 15 6 16 7 17 8 18 9 19 10 20 11
REMARK SMILES IDX 9 12 8 13 7 14 6 15 5 16 4 17 3 18 2 19 1 20
REMARK H PARENT
REMARK Flexibility Score: inf
ROOT
ATOM      1  C   UNL     1      17.414  15.051  32.094  1.00  0.00     0.000 C 
ENDROOT
BRANCH   1   2
ATOM      2  C   UNL     1      17.886  16.515  32.146  1.00  0.00     0.000 C 
BRANCH   2   3
ATOM      3  C   UNL     1      17.833  17.268  30.803  1.00  0.00     0.000 C 
BRANCH   3   4
ATOM      4  C   UNL     1      16.804  18.412  30.796  1.00  0.00     0.000 C 
BRANCH   4   5
ATOM      5  C   UNL     1      16.212  18.693  32.189  1.00  0.00     0.000 C 
BRANCH   5   6
ATOM      6  C   UNL     1      14.673  18.771  32.251  1.00  0.00     0.000 C 
BRANCH   6   7
ATOM      7  C   UNL     1      13.946  18.330  30.968  1.00  0.00     0.006 C 
BRANCH   7   8
ATOM      8  C   UNL     1      12.896  17.242  31.226  1.00  0.00     0.053 C 
BRANCH   8   9
ATOM      9  C   UNL     1      13.559  15.922  31.462  1.00  0.00     0.041 C 
ATOM     10  O   UNL     1      13.362  15.297  32.537  1.00  0.00    -0.550 OA
ATOM     11  O   UNL     1      14.433  15.404  30.514  1.00  0.00    -0.550 OA
ENDBRANCH   8   9
ENDBRANCH   7   8
ENDBRANCH   6   7
ENDBRANCH   5   6
ENDBRANCH   4   5
ENDBRANCH   3   4
ENDBRANCH   2   3
ENDBRANCH   1   2
BRANCH   1  12
ATOM     12  C   UNL     1      16.711  14.602  33.387  1.00  0.00     0.000 C 
BRANCH  12  13
ATOM     13  C   UNL     1      16.232  15.786  34.243  1.00  0.00    -0.000 C 
BRANCH  13  14
ATOM     14  C   UNL     1      16.049  15.409  35.721  1.00  0.00    -0.000 C 
BRANCH  14  15
ATOM     15  C   UNL     1      17.355  15.610  36.504  1.00  0.00    -0.000 C 
BRANCH  15  16
ATOM     16  C   UNL     1      18.155  16.831  36.020  1.00  0.00    -0.000 C 
BRANCH  16  17
ATOM     17  C   UNL     1      19.557  16.456  35.514  1.00  0.00    -0.000 C 
BRANCH  17  18
ATOM     18  C   UNL     1      20.307  17.698  35.009  1.00  0.00    -0.000 C 
BRANCH  18  19
ATOM     19  C   UNL     1      19.380  18.906  34.802  1.00  0.00    -0.003 C 
ATOM     20  C   UNL     1      19.585  19.585  33.448  1.00  0.00     0.004 C 
ENDBRANCH  18  19
ENDBRANCH  17  18
ENDBRANCH  16  17
ENDBRANCH  15  16
ENDBRANCH  14  15
ENDBRANCH  13  14
ENDBRANCH  12  13
ENDBRANCH   1  12
TORSDOF 16
ENDMDL
MODEL 9
REMARK VINA RESULT:    -4.221      2.529      3.995
REMARK INTER + INTRA:         -10.689
REMARK INTER:                  -8.479
REMARK INTRA:                  -2.210
REMARK UNBOUND:                -2.519
REMARK SMILES CCCCCCCCCCCCCCCCCC(=O)[O-]
REMARK SMILES IDX 10 1 11 2 12 3 13 4 14 5 15 6 16 7 17 8 18 9 19 10 20 11
REMARK SMILES IDX 9 12 8 13 7 14 6 15 5 16 4 17 3 18 2 19 1 20
REMARK H PARENT
REMARK Flexibility Score: inf
ROOT
ATOM      1  C   UNL     1      17.800  16.786  35.996  1.00  0.00     0.000 C 
ENDROOT
BRANCH   1   2
ATOM      2  C   UNL     1      18.901  15.761  35.667  1.00  0.00     0.000 C 
BRANCH   2   3
ATOM      3  C   UNL     1      20.095  16.317  34.869  1.00  0.00     0.000 C 
BRANCH   3   4
ATOM      4  C   UNL     1      19.667  17.121  33.628  1.00  0.00     0.000 C 
BRANCH   4   5
ATOM      5  C   UNL     1      20.141  18.585  33.672  1.00  0.00     0.000 C 
BRANCH   5   6
ATOM      6  C   UNL     1      19.080  19.611  34.121  1.00  0.00     0.000 C 
BRANCH   6   7
ATOM      7  C   UNL     1      19.543  20.590  35.215  1.00  0.00     0.006 C 
BRANCH   7   8
ATOM      8  C   UNL     1      20.424  19.920  36.276  1.00  0.00     0.053 C 
BRANCH   8   9
ATOM      9  C   UNL     1      20.095  20.446  37.637  1.00  0.00     0.041 C 
ATOM     10  O   UNL     1      20.970  21.049  38.312  1.00  0.00    -0.550 OA
ATOM     11  O   UNL     1      18.835  20.227  38.182  1.00  0.00    -0.550 OA
ENDBRANCH   8   9
ENDBRANCH   7   8
ENDBRANCH   6   7
ENDBRANCH   5   6
ENDBRANCH   4   5
ENDBRANCH   3   4
ENDBRANCH   2   3
ENDBRANCH   1   2
BRANCH   1  12
ATOM     12  C   UNL     1      16.415  16.367  35.471  1.00  0.00     0.000 C 
BRANCH  12  13
ATOM     13  C   UNL     1      16.500  15.339  34.332  1.00  0.00    -0.000 C 
BRANCH  13  14
ATOM     14  C   UNL     1      16.510  15.996  32.942  1.00  0.00    -0.000 C 
BRANCH  14  15
ATOM     15  C   UNL     1      15.986  17.438  33.014  1.00  0.00    -0.000 C 
BRANCH  15  16
ATOM     16  C   UNL     1      16.381  18.274  31.785  1.00  0.00    -0.000 C 
BRANCH  16  17
ATOM     17  C   UNL     1      15.167  18.707  30.949  1.00  0.00    -0.000 C 
BRANCH  17  18
ATOM     18  C   UNL     1      13.855  18.370  31.673  1.00  0.00    -0.000 C 
BRANCH  18  19
ATOM     19  C   UNL     1      13.009  17.335  30.915  1.00  0.00    -0.003 C 
ATOM     20  C   UNL     1      13.072  15.942  31.542  1.00  0.00     0.004 C 
ENDBRANCH  18  19
ENDBRANCH  17  18
ENDBRANCH  16  17
ENDBRANCH  15  16
ENDBRANCH  14  15
ENDBRANCH  13  14
ENDBRANCH  12  13
ENDBRANCH   1  12
TORSDOF 16
ENDMDL
