MODEL 1
REMARK VINA RESULT:    -3.738      0.000      0.000
REMARK INTER + INTRA:          -8.645
REMARK INTER:                  -7.016
REMARK INTRA:                  -1.630
REMARK UNBOUND:                -1.630
REMARK SMILES O=C([O-])CCCCCCCCCCCCCCC(=O)[O-]
REMARK SMILES IDX 10 1 9 2 8 3 7 4 6 5 5 6 4 7 2 8 1 9 3 10 11 11 12 12 13 13
REMARK SMILES IDX 14 14 15 15 16 16 17 17 18 18 19 19 20 20
REMARK H PARENT
REMARK Flexibility Score: inf
ROOT
ATOM      1  C   UNL     1     -19.272  20.872  45.493  1.00  0.00     0.000 C 
ENDROOT
BRANCH   1   2
ATOM      2  C   UNL     1     -19.413  22.400  45.567  1.00  0.00     0.000 C 
BRANCH   2   3
ATOM      3  C   UNL     1     -20.863  22.858  45.806  1.00  0.00     0.000 C 
BRANCH   3   4
ATOM      4  C   UNL     1     -21.734  21.872  46.607  1.00  0.00     0.000 C 
BRANCH   4   5
ATOM      5  C   UNL     1     -23.098  22.464  47.002  1.00  0.00     0.000 C 
BRANCH   5   6
ATOM      6  C   UNL     1     -24.153  22.306  45.888  1.00  0.00     0.006 C 
BRANCH   6   7
ATOM      7  C   UNL     1     -24.940  23.595  45.602  1.00  0.00     0.053 C 
BRANCH   7   8
ATOM      8  C   UNL     1     -24.073  24.685  45.053  1.00  0.00     0.041 C 
ATOM      9  O   UNL     1     -23.495  24.536  43.945  1.00  0.00    -0.550 OA
ATOM     10  O   UNL     1     -23.882  25.855  45.778  1.00  0.00    -0.550 OA
ENDBRANCH   7   8
ENDBRANCH   6   7
ENDBRANCH   5   6
ENDBRANCH   4   5
ENDBRANCH   3   4
ENDBRANCH   2   3
ENDBRANCH   1   2
BRANCH   1  11
ATOM     11  C   UNL     1     -17.935  20.476  44.849  1.00  0.00     0.000 C 
BRANCH  11  12
ATOM     12  C   UNL     1     -17.669  21.213  43.525  1.00  0.00     0.000 C 
BRANCH  12  13
ATOM     13  C   UNL     1     -16.373  22.050  43.497  1.00  0.00     0.000 C 
BRANCH  13  14
ATOM     14  C   UNL     1     -16.512  23.453  42.872  1.00  0.00     0.000 C 
BRANCH  14  15
ATOM     15  C   UNL     1     -17.944  23.846  42.468  1.00  0.00     0.000 C 
BRANCH  15  16
ATOM     16  C   UNL     1     -18.323  25.263  42.921  1.00  0.00     0.006 C 
BRANCH  16  17
ATOM     17  C   UNL     1     -19.822  25.361  43.217  1.00  0.00     0.053 C 
BRANCH  17  18
ATOM     18  C   UNL     1     -20.352  26.700  42.810  1.00  0.00     0.041 C 
ATOM     19  O   UNL     1     -21.569  26.976  42.976  1.00  0.00    -0.550 OA
ATOM     20  O   UNL     1     -19.493  27.659  42.290  1.00  0.00    -0.550 OA
ENDBRANCH  17  18
ENDBRANCH  16  17
ENDBRANCH  15  16
ENDBRANCH  14  15
ENDBRANCH  13  14
ENDBRANCH  12  13
ENDBRANCH  11  12
ENDBRANCH   1  11
TORSDOF 15
ENDMDL
MODEL 2
REMARK VINA RESULT:    -3.650      2.728      4.714
REMARK INTER + INTRA:          -8.480
REMARK INTER:                  -6.435
REMARK INTRA:                  -2.045
REMARK UNBOUND:                -1.630
REMARK SMILES O=C([O-])CCCCCCCCCCCCCCC(=O)[O-]
REMARK SMILES IDX 10 1 9 2 8 3 7 4 6 5 5 6 4 7 2 8 1 9 3 10 11 11 12 12 13 13
REMARK SMILES IDX 14 14 15 15 16 16 17 17 18 18 19 19 20 20
REMARK H PARENT
REMARK Flexibility Score: inf
ROOT
ATOM      1  C   UNL     1     -18.686  21.590  45.967  1.00  0.00     0.000 C 
ENDROOT
BRANCH   1   2
ATOM      2  C   UNL     1     -20.208  21.800  45.978  1.00  0.00     0.000 C 
BRANCH   2   3
ATOM      3  C   UNL     1     -20.624  23.205  45.508  1.00  0.00     0.000 C 
BRANCH   3   4
ATOM      4  C   UNL     1     -19.574  24.307  45.742  1.00  0.00     0.000 C 
BRANCH   4   5
ATOM      5  C   UNL     1     -19.799  25.545  44.857  1.00  0.00     0.000 C 
BRANCH   5   6
ATOM      6  C   UNL     1     -20.084  25.174  43.387  1.00  0.00     0.006 C 
BRANCH   6   7
ATOM      7  C   UNL     1     -19.542  26.200  42.378  1.00  0.00     0.053 C 
BRANCH   7   8
ATOM      8  C   UNL     1     -20.183  27.543  42.529  1.00  0.00     0.041 C 
ATOM      9  O   UNL     1     -19.500  28.533  42.902  1.00  0.00    -0.550 OA
ATOM     10  O   UNL     1     -21.542  27.699  42.281  1.00  0.00    -0.550 OA
ENDBRANCH   7   8
ENDBRANCH   6   7
ENDBRANCH   5   6
ENDBRANCH   4   5
ENDBRANCH   3   4
ENDBRANCH   2   3
ENDBRANCH   1   2
BRANCH   1  11
ATOM     11  C   UNL     1     -18.282  20.560  44.902  1.00  0.00     0.000 C 
BRANCH  11  12
ATOM     12  C   UNL     1     -17.197  21.084  43.945  1.00  0.00     0.000 C 
BRANCH  12  13
ATOM     13  C   UNL     1     -17.712  22.008  42.823  1.00  0.00     0.000 C 
BRANCH  13  14
ATOM     14  C   UNL     1     -17.093  23.420  42.799  1.00  0.00     0.000 C 
BRANCH  14  15
ATOM     15  C   UNL     1     -16.405  23.850  44.107  1.00  0.00     0.000 C 
BRANCH  15  16
ATOM     16  C   UNL     1     -14.896  24.081  43.939  1.00  0.00     0.006 C 
BRANCH  16  17
ATOM     17  C   UNL     1     -14.611  24.968  42.723  1.00  0.00     0.053 C 
BRANCH  17  18
ATOM     18  C   UNL     1     -13.593  24.326  41.832  1.00  0.00     0.041 C 
ATOM     19  O   UNL     1     -12.909  25.029  41.044  1.00  0.00    -0.550 OA
ATOM     20  O   UNL     1     -13.368  22.958  41.907  1.00  0.00    -0.550 OA
ENDBRANCH  17  18
ENDBRANCH  16  17
ENDBRANCH  15  16
ENDBRANCH  14  15
ENDBRANCH  13  14
ENDBRANCH  12  13
ENDBRANCH  11  12
ENDBRANCH   1  11
TORSDOF 15
ENDMDL
MODEL 3
REMARK VINA RESULT:    -3.646      1.737      2.435
REMARK INTER + INTRA:          -8.472
REMARK INTER:                  -6.770
REMARK INTRA:                  -1.702
REMARK UNBOUND:                -1.630
REMARK SMILES O=C([O-])CCCCCCCCCCCCCCC(=O)[O-]
REMARK SMILES IDX 10 1 9 2 8 3 7 4 6 5 5 6 4 7 2 8 1 9 3 10 11 11 12 12 13 13
REMARK SMILES IDX 14 14 15 15 16 16 17 17 18 18 19 19 20 20
REMARK H PARENT
REMARK Flexibility Score: inf
ROOT
ATOM      1  C   UNL     1     -19.738  22.769  46.162  1.00  0.00     0.000 C 
ENDROOT
BRANCH   1   2
ATOM      2  C   UNL     1     -21.080  23.193  45.547  1.00  0.00     0.000 C 
BRANCH   2   3
ATOM      3  C   UNL     1     -21.169  24.708  45.287  1.00  0.00     0.000 C 
BRANCH   3   4
ATOM      4  C   UNL     1     -22.597  25.253  45.096  1.00  0.00     0.000 C 
BRANCH   4   5
ATOM      5  C   UNL     1     -23.499  24.299  44.294  1.00  0.00     0.000 C 
BRANCH   5   6
ATOM      6  C   UNL     1     -24.745  23.858  45.089  1.00  0.00     0.006 C 
BRANCH   6   7
ATOM      7  C   UNL     1     -24.875  22.333  45.232  1.00  0.00     0.053 C 
BRANCH   7   8
ATOM      8  C   UNL     1     -24.378  21.838  46.554  1.00  0.00     0.041 C 
ATOM      9  O   UNL     1     -23.990  22.655  47.430  1.00  0.00    -0.550 OA
ATOM     10  O   UNL     1     -24.319  20.474  46.810  1.00  0.00    -0.550 OA
ENDBRANCH   7   8
ENDBRANCH   6   7
ENDBRANCH   5   6
ENDBRANCH   4   5
ENDBRANCH   3   4
ENDBRANCH   2   3
ENDBRANCH   1   2
BRANCH   1  11
ATOM     11  C   UNL     1     -19.491  21.268  45.956  1.00  0.00     0.000 C 
BRANCH  11  12
ATOM     12  C   UNL     1     -18.544  20.974  44.778  1.00  0.00     0.000 C 
BRANCH  12  13
ATOM     13  C   UNL     1     -17.707  22.179  44.302  1.00  0.00     0.000 C 
BRANCH  13  14
ATOM     14  C   UNL     1     -17.956  22.617  42.845  1.00  0.00     0.000 C 
BRANCH  14  15
ATOM     15  C   UNL     1     -17.824  24.128  42.587  1.00  0.00     0.000 C 
BRANCH  15  16
ATOM     16  C   UNL     1     -19.171  24.802  42.288  1.00  0.00     0.006 C 
BRANCH  16  17
ATOM     17  C   UNL     1     -18.983  26.293  41.994  1.00  0.00     0.053 C 
BRANCH  17  18
ATOM     18  C   UNL     1     -19.966  27.110  42.773  1.00  0.00     0.041 C 
ATOM     19  O   UNL     1     -21.155  27.215  42.376  1.00  0.00    -0.550 OA
ATOM     20  O   UNL     1     -19.580  27.715  43.962  1.00  0.00    -0.550 OA
ENDBRANCH  17  18
ENDBRANCH  16  17
ENDBRANCH  15  16
ENDBRANCH  14  15
ENDBRANCH  13  14
ENDBRANCH  12  13
ENDBRANCH  11  12
ENDBRANCH   1  11
TORSDOF 15
ENDMDL
MODEL 4
REMARK VINA RESULT:    -3.642      1.005      5.614
REMARK INTER + INTRA:          -8.466
REMARK INTER:                  -6.925
REMARK INTRA:                  -1.542
REMARK UNBOUND:                -1.630
REMARK SMILES O=C([O-])CCCCCCCCCCCCCCC(=O)[O-]
REMARK SMILES IDX 10 1 9 2 8 3 7 4 6 5 5 6 4 7 2 8 1 9 3 10 11 11 12 12 13 13
REMARK SMILES IDX 14 14 15 15 16 16 17 17 18 18 19 19 20 20
REMARK H PARENT
REMARK Flexibility Score: inf
ROOT
ATOM      1  C   UNL     1     -19.464  20.362  45.803  1.00  0.00     0.000 C 
ENDROOT
BRANCH   1   2
ATOM      2  C   UNL     1     -18.154  20.099  45.045  1.00  0.00     0.000 C 
BRANCH   2   3
ATOM      3  C   UNL     1     -17.351  21.383  44.769  1.00  0.00     0.000 C 
BRANCH   3   4
ATOM      4  C   UNL     1     -16.968  21.607  43.294  1.00  0.00     0.000 C 
BRANCH   4   5
ATOM      5  C   UNL     1     -18.000  22.453  42.530  1.00  0.00     0.000 C 
BRANCH   5   6
ATOM      6  C   UNL     1     -18.245  23.824  43.193  1.00  0.00     0.006 C 
BRANCH   6   7
ATOM      7  C   UNL     1     -19.115  24.768  42.347  1.00  0.00     0.053 C 
BRANCH   7   8
ATOM      8  C   UNL     1     -19.185  26.148  42.921  1.00  0.00     0.041 C 
ATOM      9  O   UNL     1     -19.564  26.321  44.108  1.00  0.00    -0.550 OA
ATOM     10  O   UNL     1     -18.857  27.247  42.136  1.00  0.00    -0.550 OA
ENDBRANCH   7   8
ENDBRANCH   6   7
ENDBRANCH   5   6
ENDBRANCH   4   5
ENDBRANCH   3   4
ENDBRANCH   2   3
ENDBRANCH   1   2
BRANCH   1  11
ATOM     11  C   UNL     1     -19.554  21.828  46.250  1.00  0.00     0.000 C 
BRANCH  11  12
ATOM     12  C   UNL     1     -20.898  22.482  45.885  1.00  0.00     0.000 C 
BRANCH  12  13
ATOM     13  C   UNL     1     -21.924  22.543  47.034  1.00  0.00     0.000 C 
BRANCH  13  14
ATOM     14  C   UNL     1     -22.924  21.370  47.084  1.00  0.00     0.000 C 
BRANCH  14  15
ATOM     15  C   UNL     1     -24.200  21.567  46.247  1.00  0.00     0.000 C 
BRANCH  15  16
ATOM     16  C   UNL     1     -24.817  22.962  46.422  1.00  0.00     0.006 C 
BRANCH  16  17
ATOM     17  C   UNL     1     -24.947  23.675  45.073  1.00  0.00     0.053 C 
BRANCH  17  18
ATOM     18  C   UNL     1     -23.948  24.785  44.967  1.00  0.00     0.041 C 
ATOM     19  O   UNL     1     -23.134  24.813  44.007  1.00  0.00    -0.550 OA
ATOM     20  O   UNL     1     -23.947  25.811  45.902  1.00  0.00    -0.550 OA
ENDBRANCH  17  18
ENDBRANCH  16  17
ENDBRANCH  15  16
ENDBRANCH  14  15
ENDBRANCH  13  14
ENDBRANCH  12  13
ENDBRANCH  11  12
ENDBRANCH   1  11
TORSDOF 15
ENDMDL
MODEL 5
REMARK VINA RESULT:    -3.607      1.568      2.576
REMARK INTER + INTRA:          -8.400
REMARK INTER:                  -6.918
REMARK INTRA:                  -1.482
REMARK UNBOUND:                -1.630
REMARK SMILES O=C([O-])CCCCCCCCCCCCCCC(=O)[O-]
REMARK SMILES IDX 10 1 9 2 8 3 7 4 6 5 5 6 4 7 2 8 1 9 3 10 11 11 12 12 13 13
REMARK SMILES IDX 14 14 15 15 16 16 17 17 18 18 19 19 20 20
REMARK H PARENT
REMARK Flexibility Score: inf
ROOT
ATOM      1  C   UNL     1     -17.831  21.774  44.657  1.00  0.00     0.000 C 
ENDROOT
BRANCH   1   2
ATOM      2  C   UNL     1     -18.672  20.594  45.165  1.00  0.00     0.000 C 
BRANCH   2   3
ATOM      3  C   UNL     1     -19.882  21.038  46.007  1.00  0.00     0.000 C 
BRANCH   3   4
ATOM      4  C   UNL     1     -20.072  22.562  46.121  1.00  0.00     0.000 C 
BRANCH   4   5
ATOM      5  C   UNL     1     -21.513  23.010  45.825  1.00  0.00     0.000 C 
BRANCH   5   6
ATOM      6  C   UNL     1     -21.586  24.468  45.327  1.00  0.00     0.006 C 
BRANCH   6   7
ATOM      7  C   UNL     1     -22.775  24.738  44.390  1.00  0.00     0.053 C 
BRANCH   7   8
ATOM      8  C   UNL     1     -24.093  24.589  45.082  1.00  0.00     0.041 C 
ATOM      9  O   UNL     1     -24.542  25.523  45.797  1.00  0.00    -0.550 OA
ATOM     10  O   UNL     1     -24.816  23.408  44.959  1.00  0.00    -0.550 OA
ENDBRANCH   7   8
ENDBRANCH   6   7
ENDBRANCH   5   6
ENDBRANCH   4   5
ENDBRANCH   3   4
ENDBRANCH   2   3
ENDBRANCH   1   2
BRANCH   1  11
ATOM     11  C   UNL     1     -17.673  21.717  43.130  1.00  0.00     0.000 C 
BRANCH  11  12
ATOM     12  C   UNL     1     -17.817  23.096  42.463  1.00  0.00     0.000 C 
BRANCH  12  13
ATOM     13  C   UNL     1     -18.523  24.163  43.324  1.00  0.00     0.000 C 
BRANCH  13  14
ATOM     14  C   UNL     1     -18.398  25.611  42.807  1.00  0.00     0.000 C 
BRANCH  14  15
ATOM     15  C   UNL     1     -19.607  26.123  42.006  1.00  0.00     0.000 C 
BRANCH  15  16
ATOM     16  C   UNL     1     -20.435  27.161  42.776  1.00  0.00     0.006 C 
BRANCH  16  17
ATOM     17  C   UNL     1     -20.007  28.585  42.408  1.00  0.00     0.053 C 
BRANCH  17  18
ATOM     18  C   UNL     1     -21.205  29.441  42.138  1.00  0.00     0.041 C 
ATOM     19  O   UNL     1     -22.275  28.920  41.726  1.00  0.00    -0.550 OA
ATOM     20  O   UNL     1     -21.156  30.806  42.387  1.00  0.00    -0.550 OA
ENDBRANCH  17  18
ENDBRANCH  16  17
ENDBRANCH  15  16
ENDBRANCH  14  15
ENDBRANCH  13  14
ENDBRANCH  12  13
ENDBRANCH  11  12
ENDBRANCH   1  11
TORSDOF 15
ENDMDL
MODEL 6
REMARK VINA RESULT:    -3.587      3.440      4.902
REMARK INTER + INTRA:          -8.362
REMARK INTER:                  -6.557
REMARK INTRA:                  -1.805
REMARK UNBOUND:                -1.630
REMARK SMILES O=C([O-])CCCCCCCCCCCCCCC(=O)[O-]
REMARK SMILES IDX 10 1 9 2 8 3 7 4 6 5 5 6 4 7 2 8 1 9 3 10 11 11 12 12 13 13
REMARK SMILES IDX 14 14 15 15 16 16 17 17 18 18 19 19 20 20
REMARK H PARENT
REMARK Flexibility Score: inf
ROOT
ATOM      1  C   UNL     1     -17.066  21.326  44.226  1.00  0.00     0.000 C 
ENDROOT
BRANCH   1   2
ATOM      2  C   UNL     1     -17.868  20.111  44.716  1.00  0.00     0.000 C 
BRANCH   2   3
ATOM      3  C   UNL     1     -19.127  20.503  45.509  1.00  0.00     0.000 C 
BRANCH   3   4
ATOM      4  C   UNL     1     -19.161  21.963  45.997  1.00  0.00     0.000 C 
BRANCH   4   5
ATOM      5  C   UNL     1     -20.472  22.683  45.640  1.00  0.00     0.000 C 
BRANCH   5   6
ATOM      6  C   UNL     1     -20.231  24.082  45.035  1.00  0.00     0.006 C 
BRANCH   6   7
ATOM      7  C   UNL     1     -21.342  25.092  45.363  1.00  0.00     0.053 C 
BRANCH   7   8
ATOM      8  C   UNL     1     -22.182  25.425  44.171  1.00  0.00     0.041 C 
ATOM      9  O   UNL     1     -23.239  24.781  43.941  1.00  0.00    -0.550 OA
ATOM     10  O   UNL     1     -21.786  26.431  43.298  1.00  0.00    -0.550 OA
ENDBRANCH   7   8
ENDBRANCH   6   7
ENDBRANCH   5   6
ENDBRANCH   4   5
ENDBRANCH   3   4
ENDBRANCH   2   3
ENDBRANCH   1   2
BRANCH   1  11
ATOM     11  C   UNL     1     -17.605  21.831  42.880  1.00  0.00     0.000 C 
BRANCH  11  12
ATOM     12  C   UNL     1     -17.423  23.349  42.695  1.00  0.00     0.000 C 
BRANCH  12  13
ATOM     13  C   UNL     1     -16.414  24.004  43.661  1.00  0.00     0.000 C 
BRANCH  13  14
ATOM     14  C   UNL     1     -15.156  24.595  42.993  1.00  0.00     0.000 C 
BRANCH  14  15
ATOM     15  C   UNL     1     -14.286  23.581  42.231  1.00  0.00     0.000 C 
BRANCH  15  16
ATOM     16  C   UNL     1     -13.095  23.077  43.059  1.00  0.00     0.006 C 
BRANCH  16  17
ATOM     17  C   UNL     1     -13.416  21.733  43.718  1.00  0.00     0.053 C 
BRANCH  17  18
ATOM     18  C   UNL     1     -13.251  21.823  45.203  1.00  0.00     0.041 C 
ATOM     19  O   UNL     1     -14.126  22.397  45.903  1.00  0.00    -0.550 OA
ATOM     20  O   UNL     1     -12.156  21.232  45.818  1.00  0.00    -0.550 OA
ENDBRANCH  17  18
ENDBRANCH  16  17
ENDBRANCH  15  16
ENDBRANCH  14  15
ENDBRANCH  13  14
ENDBRANCH  12  13
ENDBRANCH  11  12
ENDBRANCH   1  11
TORSDOF 15
ENDMDL
MODEL 7
REMARK VINA RESULT:    -3.581      2.551      5.480
REMARK INTER + INTRA:          -8.351
REMARK INTER:                  -6.451
REMARK INTRA:                  -1.900
REMARK UNBOUND:                -1.630
REMARK SMILES O=C([O-])CCCCCCCCCCCCCCC(=O)[O-]
REMARK SMILES IDX 10 1 9 2 8 3 7 4 6 5 5 6 4 7 2 8 1 9 3 10 11 11 12 12 13 13
REMARK SMILES IDX 14 14 15 15 16 16 17 17 18 18 19 19 20 20
REMARK H PARENT
REMARK Flexibility Score: inf
ROOT
ATOM      1  C   UNL     1     -19.492  20.572  45.865  1.00  0.00     0.000 C 
ENDROOT
BRANCH   1   2
ATOM      2  C   UNL     1     -18.393  21.496  45.319  1.00  0.00     0.000 C 
BRANCH   2   3
ATOM      3  C   UNL     1     -17.576  20.853  44.185  1.00  0.00     0.000 C 
BRANCH   3   4
ATOM      4  C   UNL     1     -17.518  21.670  42.880  1.00  0.00     0.000 C 
BRANCH   4   5
ATOM      5  C   UNL     1     -18.457  22.888  42.895  1.00  0.00     0.000 C 
BRANCH   5   6
ATOM      6  C   UNL     1     -17.788  24.155  42.323  1.00  0.00     0.006 C 
BRANCH   6   7
ATOM      7  C   UNL     1     -17.047  24.988  43.381  1.00  0.00     0.053 C 
BRANCH   7   8
ATOM      8  C   UNL     1     -15.565  24.786  43.333  1.00  0.00     0.041 C 
ATOM      9  O   UNL     1     -15.015  23.951  44.097  1.00  0.00    -0.550 OA
ATOM     10  O   UNL     1     -14.787  25.539  42.462  1.00  0.00    -0.550 OA
ENDBRANCH   7   8
ENDBRANCH   6   7
ENDBRANCH   5   6
ENDBRANCH   4   5
ENDBRANCH   3   4
ENDBRANCH   2   3
ENDBRANCH   1   2
BRANCH   1  11
ATOM     11  C   UNL     1     -20.647  21.388  46.463  1.00  0.00     0.000 C 
BRANCH  11  12
ATOM     12  C   UNL     1     -20.604  22.872  46.058  1.00  0.00     0.000 C 
BRANCH  12  13
ATOM     13  C   UNL     1     -21.981  23.515  45.801  1.00  0.00     0.000 C 
BRANCH  13  14
ATOM     14  C   UNL     1     -22.012  24.574  44.680  1.00  0.00     0.000 C 
BRANCH  14  15
ATOM     15  C   UNL     1     -20.691  25.333  44.466  1.00  0.00     0.000 C 
BRANCH  15  16
ATOM     16  C   UNL     1     -20.782  26.383  43.349  1.00  0.00     0.006 C 
BRANCH  16  17
ATOM     17  C   UNL     1     -19.954  27.624  43.696  1.00  0.00     0.053 C 
BRANCH  17  18
ATOM     18  C   UNL     1     -19.453  28.286  42.450  1.00  0.00     0.041 C 
ATOM     19  O   UNL     1     -19.840  29.446  42.152  1.00  0.00    -0.550 OA
ATOM     20  O   UNL     1     -18.524  27.642  41.645  1.00  0.00    -0.550 OA
ENDBRANCH  17  18
ENDBRANCH  16  17
ENDBRANCH  15  16
ENDBRANCH  14  15
ENDBRANCH  13  14
ENDBRANCH  12  13
ENDBRANCH  11  12
ENDBRANCH   1  11
TORSDOF 15
ENDMDL
MODEL 8
REMARK VINA RESULT:    -3.576      3.547      5.612
REMARK INTER + INTRA:          -8.341
REMARK INTER:                  -5.947
REMARK INTRA:                  -2.393
REMARK UNBOUND:                -1.630
REMARK SMILES O=C([O-])CCCCCCCCCCCCCCC(=O)[O-]
REMARK SMILES IDX 10 1 9 2 8 3 7 4 6 5 5 6 4 7 2 8 1 9 3 10 11 11 12 12 13 13
REMARK SMILES IDX 14 14 15 15 16 16 17 17 18 18 19 19 20 20
REMARK H PARENT
REMARK Flexibility Score: inf
ROOT
ATOM      1  C   UNL     1     -17.600  21.453  43.104  1.00  0.00     0.000 C 
ENDROOT
BRANCH   1   2
ATOM      2  C   UNL     1     -18.078  22.911  43.163  1.00  0.00     0.000 C 
BRANCH   2   3
ATOM      3  C   UNL     1     -17.147  23.879  42.411  1.00  0.00     0.000 C 
BRANCH   3   4
ATOM      4  C   UNL     1     -16.513  24.981  43.281  1.00  0.00     0.000 C 
BRANCH   4   5
ATOM      5  C   UNL     1     -17.286  25.229  44.587  1.00  0.00     0.000 C 
BRANCH   5   6
ATOM      6  C   UNL     1     -18.091  26.545  44.555  1.00  0.00     0.006 C 
BRANCH   6   7
ATOM      7  C   UNL     1     -19.554  26.360  44.121  1.00  0.00     0.053 C 
BRANCH   7   8
ATOM      8  C   UNL     1     -19.814  26.891  42.747  1.00  0.00     0.041 C 
ATOM      9  O   UNL     1     -19.461  26.230  41.735  1.00  0.00    -0.550 OA
ATOM     10  O   UNL     1     -20.423  28.129  42.582  1.00  0.00    -0.550 OA
ENDBRANCH   7   8
ENDBRANCH   6   7
ENDBRANCH   5   6
ENDBRANCH   4   5
ENDBRANCH   3   4
ENDBRANCH   2   3
ENDBRANCH   1   2
BRANCH   1  11
ATOM     11  C   UNL     1     -17.698  20.788  44.484  1.00  0.00     0.000 C 
BRANCH  11  12
ATOM     12  C   UNL     1     -16.322  20.558  45.135  1.00  0.00     0.000 C 
BRANCH  12  13
ATOM     13  C   UNL     1     -15.723  21.793  45.839  1.00  0.00     0.000 C 
BRANCH  13  14
ATOM     14  C   UNL     1     -14.575  22.488  45.079  1.00  0.00     0.000 C 
BRANCH  14  15
ATOM     15  C   UNL     1     -13.976  21.674  43.919  1.00  0.00     0.000 C 
BRANCH  15  16
ATOM     16  C   UNL     1     -13.804  22.501  42.637  1.00  0.00     0.006 C 
BRANCH  16  17
ATOM     17  C   UNL     1     -12.825  23.658  42.859  1.00  0.00     0.053 C 
BRANCH  17  18
ATOM     18  C   UNL     1     -12.885  24.623  41.716  1.00  0.00     0.041 C 
ATOM     19  O   UNL     1     -13.772  24.501  40.831  1.00  0.00    -0.550 OA
ATOM     20  O   UNL     1     -11.993  25.685  41.655  1.00  0.00    -0.550 OA
ENDBRANCH  17  18
ENDBRANCH  16  17
ENDBRANCH  15  16
ENDBRANCH  14  15
ENDBRANCH  13  14
ENDBRANCH  12  13
ENDBRANCH  11  12
ENDBRANCH   1  11
TORSDOF 15
ENDMDL
MODEL 9
REMARK VINA RESULT:    -3.569      2.672      3.909
REMARK INTER + INTRA:          -8.327
REMARK INTER:                  -6.743
REMARK INTRA:                  -1.584
REMARK UNBOUND:                -1.630
REMARK SMILES O=C([O-])CCCCCCCCCCCCCCC(=O)[O-]
REMARK SMILES IDX 10 1 9 2 8 3 7 4 6 5 5 6 4 7 2 8 1 9 3 10 11 11 12 12 13 13
REMARK SMILES IDX 14 14 15 15 16 16 17 17 18 18 19 19 20 20
REMARK H PARENT
REMARK Flexibility Score: inf
ROOT
ATOM      1  C   UNL     1     -20.581  23.623  45.666  1.00  0.00     0.000 C 
ENDROOT
BRANCH   1   2
ATOM      2  C   UNL     1     -20.257  22.129  45.813  1.00  0.00     0.000 C 
BRANCH   2   3
ATOM      3  C   UNL     1     -21.104  21.435  46.895  1.00  0.00     0.000 C 
BRANCH   3   4
ATOM      4  C   UNL     1     -22.390  22.183  47.296  1.00  0.00     0.000 C 
BRANCH   4   5
ATOM      5  C   UNL     1     -23.653  21.592  46.647  1.00  0.00     0.000 C 
BRANCH   5   6
ATOM      6  C   UNL     1     -24.811  22.608  46.579  1.00  0.00     0.006 C 
BRANCH   6   7
ATOM      7  C   UNL     1     -25.021  23.208  45.179  1.00  0.00     0.053 C 
BRANCH   7   8
ATOM      8  C   UNL     1     -24.243  24.469  44.975  1.00  0.00     0.041 C 
ATOM      9  O   UNL     1     -23.446  24.572  44.006  1.00  0.00    -0.550 OA
ATOM     10  O   UNL     1     -24.377  25.524  45.871  1.00  0.00    -0.550 OA
ENDBRANCH   7   8
ENDBRANCH   6   7
ENDBRANCH   5   6
ENDBRANCH   4   5
ENDBRANCH   3   4
ENDBRANCH   2   3
ENDBRANCH   1   2
BRANCH   1  11
ATOM     11  C   UNL     1     -19.435  24.366  44.965  1.00  0.00     0.000 C 
BRANCH  11  12
ATOM     12  C   UNL     1     -19.889  25.100  43.691  1.00  0.00     0.000 C 
BRANCH  12  13
ATOM     13  C   UNL     1     -19.120  24.716  42.410  1.00  0.00     0.000 C 
BRANCH  13  14
ATOM     14  C   UNL     1     -17.834  23.897  42.639  1.00  0.00     0.000 C 
BRANCH  14  15
ATOM     15  C   UNL     1     -17.966  22.389  42.363  1.00  0.00     0.000 C 
BRANCH  15  16
ATOM     16  C   UNL     1     -17.444  21.524  43.519  1.00  0.00     0.006 C 
BRANCH  16  17
ATOM     17  C   UNL     1     -16.370  22.268  44.317  1.00  0.00     0.053 C 
BRANCH  17  18
ATOM     18  C   UNL     1     -15.004  21.918  43.814  1.00  0.00     0.041 C 
ATOM     19  O   UNL     1     -14.443  20.857  44.193  1.00  0.00    -0.550 OA
ATOM     20  O   UNL     1     -14.371  22.740  42.891  1.00  0.00    -0.550 OA
ENDBRANCH  17  18
ENDBRANCH  16  17
ENDBRANCH  15  16
ENDBRANCH  14  15
ENDBRANCH  13  14
ENDBRANCH  12  13
ENDBRANCH  11  12
ENDBRANCH   1  11
TORSDOF 15
ENDMDL
