MODEL 1
REMARK VINA RESULT:    -3.417      0.000      0.000
REMARK INTER + INTRA:          -4.360
REMARK INTER:                  -4.116
REMARK INTRA:                  -0.244
REMARK UNBOUND:                -0.244
REMARK SMILES NC(=O)C[C@@H]([NH3+])C(=O)[O-]
REMARK SMILES IDX 4 1 5 2 6 3 7 7 8 8 9 9 2 10 3 11 1 12
REMARK H PARENT 6 4 6 5 6 6 1 13 1 14
REMARK Flexibility Score: inf
ROOT
ATOM      1  C   UNL     1      27.701   5.752  27.272  1.00  0.00     0.171 C 
ENDROOT
BRANCH   1   2
ATOM      2  C   UNL     1      27.771   7.170  27.880  1.00  0.00     0.237 C 
BRANCH   2   3
ATOM      3  N   UNL     1      26.744   8.056  27.317  1.00  0.00    -0.350 N 
ATOM      4  H   UNL     1      26.725   7.960  26.275  1.00  0.00     0.345 HD
ATOM      5  H   UNL     1      25.797   7.830  27.699  1.00  0.00     0.345 HD
ATOM      6  H   UNL     1      26.975   9.050  27.548  1.00  0.00     0.345 HD
ENDBRANCH   2   3
BRANCH   2   7
ATOM      7  C   UNL     1      27.688   7.127  29.385  1.00  0.00     0.100 C 
ATOM      8  O   UNL     1      28.687   6.761  30.059  1.00  0.00    -0.544 OA
ATOM      9  O   UNL     1      26.502   7.440  30.038  1.00  0.00    -0.544 OA
ENDBRANCH   2   7
ENDBRANCH   1   2
BRANCH   1  10
ATOM     10  C   UNL     1      27.360   5.750  25.809  1.00  0.00     0.223 C 
ATOM     11  O   UNL     1      28.149   6.277  24.980  1.00  0.00    -0.275 OA
ATOM     12  N   UNL     1      26.156   5.137  25.345  1.00  0.00    -0.369 N 
ATOM     13  H   UNL     1      25.493   4.688  26.017  1.00  0.00     0.159 HD
ATOM     14  H   UNL     1      25.928   5.128  24.327  1.00  0.00     0.159 HD
ENDBRANCH   1  10
TORSDOF 4
ENDMDL
MODEL 2
REMARK VINA RESULT:    -3.369      1.682      1.852
REMARK INTER + INTRA:          -4.302
REMARK INTER:                  -4.017
REMARK INTRA:                  -0.284
REMARK UNBOUND:                -0.244
REMARK SMILES NC(=O)C[C@@H]([NH3+])C(=O)[O-]
REMARK SMILES IDX 4 1 5 2 6 3 7 7 8 8 9 9 2 10 3 11 1 12
REMARK H PARENT 6 4 6 5 6 6 1 13 1 14
REMARK Flexibility Score: inf
ROOT
ATOM      1  C   UNL     1      27.789   6.277  28.260  1.00  0.00     0.171 C 
ENDROOT
BRANCH   1   2
ATOM      2  C   UNL     1      27.378   7.765  28.246  1.00  0.00     0.237 C 
BRANCH   2   3
ATOM      3  N   UNL     1      26.692   8.130  26.999  1.00  0.00    -0.350 N 
ATOM      4  H   UNL     1      25.775   7.627  26.939  1.00  0.00     0.345 HD
ATOM      5  H   UNL     1      26.521   9.160  26.948  1.00  0.00     0.345 HD
ATOM      6  H   UNL     1      27.276   7.841  26.181  1.00  0.00     0.345 HD
ENDBRANCH   2   3
BRANCH   2   7
ATOM      7  C   UNL     1      26.542   8.115  29.450  1.00  0.00     0.100 C 
ATOM      8  O   UNL     1      26.615   7.410  30.492  1.00  0.00    -0.544 OA
ATOM      9  O   UNL     1      25.650   9.180  29.409  1.00  0.00    -0.544 OA
ENDBRANCH   2   7
ENDBRANCH   1   2
BRANCH   1  10
ATOM     10  C   UNL     1      28.095   5.732  26.893  1.00  0.00     0.223 C 
ATOM     11  O   UNL     1      27.196   5.139  26.238  1.00  0.00    -0.275 OA
ATOM     12  N   UNL     1      29.393   5.899  26.319  1.00  0.00    -0.369 N 
ATOM     13  H   UNL     1      30.148   6.395  26.843  1.00  0.00     0.159 HD
ATOM     14  H   UNL     1      29.598   5.529  25.365  1.00  0.00     0.159 HD
ENDBRANCH   1  10
TORSDOF 4
ENDMDL
MODEL 3
REMARK VINA RESULT:    -3.293      1.896      2.103
REMARK INTER + INTRA:          -4.211
REMARK INTER:                  -3.991
REMARK INTRA:                  -0.220
REMARK UNBOUND:                -0.244
REMARK SMILES NC(=O)C[C@@H]([NH3+])C(=O)[O-]
REMARK SMILES IDX 4 1 5 2 6 3 7 7 8 8 9 9 2 10 3 11 1 12
REMARK H PARENT 6 4 6 5 6 6 1 13 1 14
REMARK Flexibility Score: inf
ROOT
ATOM      1  C   UNL     1      28.301   6.610  27.721  1.00  0.00     0.171 C 
ENDROOT
BRANCH   1   2
ATOM      2  C   UNL     1      27.517   6.842  29.031  1.00  0.00     0.237 C 
BRANCH   2   3
ATOM      3  N   UNL     1      28.364   6.642  30.215  1.00  0.00    -0.350 N 
ATOM      4  H   UNL     1      29.110   7.376  30.245  1.00  0.00     0.345 HD
ATOM      5  H   UNL     1      27.801   6.690  31.095  1.00  0.00     0.345 HD
ATOM      6  H   UNL     1      28.828   5.707  30.159  1.00  0.00     0.345 HD
ENDBRANCH   2   3
BRANCH   2   7
ATOM      7  C   UNL     1      26.867   8.202  29.049  1.00  0.00     0.100 C 
ATOM      8  O   UNL     1      26.997   8.973  28.062  1.00  0.00    -0.544 OA
ATOM      9  O   UNL     1      26.164   8.636  30.166  1.00  0.00    -0.544 OA
ENDBRANCH   2   7
ENDBRANCH   1   2
BRANCH   1  10
ATOM     10  C   UNL     1      27.476   5.969  26.640  1.00  0.00     0.223 C 
ATOM     11  O   UNL     1      27.548   4.726  26.451  1.00  0.00    -0.275 OA
ATOM     12  N   UNL     1      26.595   6.756  25.837  1.00  0.00    -0.369 N 
ATOM     13  H   UNL     1      26.516   7.787  25.986  1.00  0.00     0.159 HD
ATOM     14  H   UNL     1      26.016   6.306  25.095  1.00  0.00     0.159 HD
ENDBRANCH   1  10
TORSDOF 4
ENDMDL
MODEL 4
REMARK VINA RESULT:    -3.276     13.758     14.989
REMARK INTER + INTRA:          -4.190
REMARK INTER:                  -4.073
REMARK INTRA:                  -0.117
REMARK UNBOUND:                -0.244
REMARK SMILES NC(=O)C[C@@H]([NH3+])C(=O)[O-]
REMARK SMILES IDX 4 1 5 2 6 3 7 7 8 8 9 9 2 10 3 11 1 12
REMARK H PARENT 6 4 6 5 6 6 1 13 1 14
REMARK Flexibility Score: inf
ROOT
ATOM      1  C   UNL     1      14.978   9.568  33.967  1.00  0.00     0.171 C 
ENDROOT
BRANCH   1   2
ATOM      2  C   UNL     1      14.296   9.455  32.585  1.00  0.00     0.237 C 
BRANCH   2   3
ATOM      3  N   UNL     1      14.502   8.131  31.983  1.00  0.00    -0.350 N 
ATOM      4  H   UNL     1      15.489   7.820  32.138  1.00  0.00     0.345 HD
ATOM      5  H   UNL     1      13.851   7.423  32.393  1.00  0.00     0.345 HD
ATOM      6  H   UNL     1      14.336   8.187  30.952  1.00  0.00     0.345 HD
ENDBRANCH   2   3
BRANCH   2   7
ATOM      7  C   UNL     1      12.829   9.794  32.667  1.00  0.00     0.100 C 
ATOM      8  O   UNL     1      12.464  10.879  33.192  1.00  0.00    -0.544 OA
ATOM      9  O   UNL     1      11.869   8.898  32.214  1.00  0.00    -0.544 OA
ENDBRANCH   2   7
ENDBRANCH   1   2
BRANCH   1  10
ATOM     10  C   UNL     1      16.031  10.638  34.023  1.00  0.00     0.223 C 
ATOM     11  O   UNL     1      16.490  11.124  32.955  1.00  0.00    -0.275 OA
ATOM     12  N   UNL     1      16.504  11.125  35.280  1.00  0.00    -0.369 N 
ATOM     13  H   UNL     1      16.129  10.740  36.176  1.00  0.00     0.159 HD
ATOM     14  H   UNL     1      17.228  11.876  35.315  1.00  0.00     0.159 HD
ENDBRANCH   1  10
TORSDOF 4
ENDMDL
MODEL 5
REMARK VINA RESULT:    -3.258      2.481      3.443
REMARK INTER + INTRA:          -4.169
REMARK INTER:                  -3.644
REMARK INTRA:                  -0.525
REMARK UNBOUND:                -0.244
REMARK SMILES NC(=O)C[C@@H]([NH3+])C(=O)[O-]
REMARK SMILES IDX 4 1 5 2 6 3 7 7 8 8 9 9 2 10 3 11 1 12
REMARK H PARENT 6 4 6 5 6 6 1 13 1 14
REMARK Flexibility Score: inf
ROOT
ATOM      1  C   UNL     1      28.661   7.683  28.477  1.00  0.00     0.171 C 
ENDROOT
BRANCH   1   2
ATOM      2  C   UNL     1      27.955   8.647  27.498  1.00  0.00     0.237 C 
BRANCH   2   3
ATOM      3  N   UNL     1      26.749   8.045  26.914  1.00  0.00    -0.350 N 
ATOM      4  H   UNL     1      26.685   8.292  25.899  1.00  0.00     0.345 HD
ATOM      5  H   UNL     1      26.760   7.004  27.012  1.00  0.00     0.345 HD
ATOM      6  H   UNL     1      25.901   8.422  27.396  1.00  0.00     0.345 HD
ENDBRANCH   2   3
BRANCH   2   7
ATOM      7  C   UNL     1      27.640   9.966  28.158  1.00  0.00     0.100 C 
ATOM      8  O   UNL     1      28.324  10.986  27.879  1.00  0.00    -0.544 OA
ATOM      9  O   UNL     1      26.633  10.059  29.111  1.00  0.00    -0.544 OA
ENDBRANCH   2   7
ENDBRANCH   1   2
BRANCH   1  10
ATOM     10  C   UNL     1      27.713   6.759  29.188  1.00  0.00     0.223 C 
ATOM     11  O   UNL     1      27.479   5.615  28.714  1.00  0.00    -0.275 OA
ATOM     12  N   UNL     1      27.089   7.158  30.409  1.00  0.00    -0.369 N 
ATOM     13  H   UNL     1      27.278   8.099  30.821  1.00  0.00     0.159 HD
ATOM     14  H   UNL     1      26.440   6.510  30.905  1.00  0.00     0.159 HD
ENDBRANCH   1  10
TORSDOF 4
ENDMDL
MODEL 6
REMARK VINA RESULT:    -3.227      2.233      3.775
REMARK INTER + INTRA:          -4.131
REMARK INTER:                  -3.714
REMARK INTRA:                  -0.417
REMARK UNBOUND:                -0.244
REMARK SMILES NC(=O)C[C@@H]([NH3+])C(=O)[O-]
REMARK SMILES IDX 4 1 5 2 6 3 7 7 8 8 9 9 2 10 3 11 1 12
REMARK H PARENT 6 4 6 5 6 6 1 13 1 14
REMARK Flexibility Score: inf
ROOT
ATOM      1  C   UNL     1      27.771   6.428  28.424  1.00  0.00     0.171 C 
ENDROOT
BRANCH   1   2
ATOM      2  C   UNL     1      27.939   7.549  27.375  1.00  0.00     0.237 C 
BRANCH   2   3
ATOM      3  N   UNL     1      26.680   8.269  27.140  1.00  0.00    -0.350 N 
ATOM      4  H   UNL     1      26.543   8.996  27.881  1.00  0.00     0.345 HD
ATOM      5  H   UNL     1      26.677   8.731  26.202  1.00  0.00     0.345 HD
ATOM      6  H   UNL     1      25.879   7.598  27.190  1.00  0.00     0.345 HD
ENDBRANCH   2   3
BRANCH   2   7
ATOM      7  C   UNL     1      29.046   8.499  27.759  1.00  0.00     0.100 C 
ATOM      8  O   UNL     1      28.799   9.726  27.903  1.00  0.00    -0.544 OA
ATOM      9  O   UNL     1      30.350   8.043  27.906  1.00  0.00    -0.544 OA
ENDBRANCH   2   7
ENDBRANCH   1   2
BRANCH   1  10
ATOM     10  C   UNL     1      27.554   6.946  29.818  1.00  0.00     0.223 C 
ATOM     11  O   UNL     1      26.499   7.577  30.096  1.00  0.00    -0.275 OA
ATOM     12  N   UNL     1      28.526   6.712  30.838  1.00  0.00    -0.369 N 
ATOM     13  H   UNL     1      29.403   6.184  30.628  1.00  0.00     0.159 HD
ATOM     14  H   UNL     1      28.367   7.064  31.807  1.00  0.00     0.159 HD
ENDBRANCH   1  10
TORSDOF 4
ENDMDL
MODEL 7
REMARK VINA RESULT:    -3.212      1.861      3.826
REMARK INTER + INTRA:          -4.113
REMARK INTER:                  -3.881
REMARK INTRA:                  -0.232
REMARK UNBOUND:                -0.244
REMARK SMILES NC(=O)C[C@@H]([NH3+])C(=O)[O-]
REMARK SMILES IDX 4 1 5 2 6 3 7 7 8 8 9 9 2 10 3 11 1 12
REMARK H PARENT 6 4 6 5 6 6 1 13 1 14
REMARK Flexibility Score: inf
ROOT
ATOM      1  C   UNL     1      27.134   8.283  28.124  1.00  0.00     0.171 C 
ENDROOT
BRANCH   1   2
ATOM      2  C   UNL     1      27.558   6.914  27.550  1.00  0.00     0.237 C 
BRANCH   2   3
ATOM      3  N   UNL     1      26.991   6.683  26.215  1.00  0.00    -0.350 N 
ATOM      4  H   UNL     1      27.088   7.548  25.634  1.00  0.00     0.345 HD
ATOM      5  H   UNL     1      27.471   5.890  25.731  1.00  0.00     0.345 HD
ATOM      6  H   UNL     1      25.973   6.461  26.302  1.00  0.00     0.345 HD
ENDBRANCH   2   3
BRANCH   2   7
ATOM      7  C   UNL     1      29.059   6.764  27.538  1.00  0.00     0.100 C 
ATOM      8  O   UNL     1      29.628   6.226  26.551  1.00  0.00    -0.544 OA
ATOM      9  O   UNL     1      29.820   7.169  28.627  1.00  0.00    -0.544 OA
ENDBRANCH   2   7
ENDBRANCH   1   2
BRANCH   1  10
ATOM     10  C   UNL     1      26.588   8.197  29.522  1.00  0.00     0.223 C 
ATOM     11  O   UNL     1      25.687   8.997  29.893  1.00  0.00    -0.275 OA
ATOM     12  N   UNL     1      27.068   7.204  30.429  1.00  0.00    -0.369 N 
ATOM     13  H   UNL     1      27.808   6.528  30.136  1.00  0.00     0.159 HD
ATOM     14  H   UNL     1      26.679   7.141  31.395  1.00  0.00     0.159 HD
ENDBRANCH   1  10
TORSDOF 4
ENDMDL
MODEL 8
REMARK VINA RESULT:    -3.188      2.263      3.117
REMARK INTER + INTRA:          -4.084
REMARK INTER:                  -3.560
REMARK INTRA:                  -0.524
REMARK UNBOUND:                -0.244
REMARK SMILES NC(=O)C[C@@H]([NH3+])C(=O)[O-]
REMARK SMILES IDX 4 1 5 2 6 3 7 7 8 8 9 9 2 10 3 11 1 12
REMARK H PARENT 6 4 6 5 6 6 1 13 1 14
REMARK Flexibility Score: inf
ROOT
ATOM      1  C   UNL     1      28.482   9.010  27.923  1.00  0.00     0.171 C 
ENDROOT
BRANCH   1   2
ATOM      2  C   UNL     1      27.037   8.467  27.971  1.00  0.00     0.237 C 
BRANCH   2   3
ATOM      3  N   UNL     1      26.908   7.195  27.249  1.00  0.00    -0.350 N 
ATOM      4  H   UNL     1      26.762   7.379  26.229  1.00  0.00     0.345 HD
ATOM      5  H   UNL     1      27.761   6.602  27.370  1.00  0.00     0.345 HD
ATOM      6  H   UNL     1      26.078   6.671  27.608  1.00  0.00     0.345 HD
ENDBRANCH   2   3
BRANCH   2   7
ATOM      7  C   UNL     1      26.545   8.340  29.391  1.00  0.00     0.100 C 
ATOM      8  O   UNL     1      25.717   9.173  29.845  1.00  0.00    -0.544 OA
ATOM      9  O   UNL     1      27.034   7.341  30.223  1.00  0.00    -0.544 OA
ENDBRANCH   2   7
ENDBRANCH   1   2
BRANCH   1  10
ATOM     10  C   UNL     1      29.521   7.927  27.848  1.00  0.00     0.223 C 
ATOM     11  O   UNL     1      29.966   7.561  26.728  1.00  0.00    -0.275 OA
ATOM     12  N   UNL     1      30.025   7.322  29.040  1.00  0.00    -0.369 N 
ATOM     13  H   UNL     1      29.674   7.619  29.978  1.00  0.00     0.159 HD
ATOM     14  H   UNL     1      30.754   6.578  28.985  1.00  0.00     0.159 HD
ENDBRANCH   1  10
TORSDOF 4
ENDMDL
MODEL 9
REMARK VINA RESULT:    -3.186      3.005      3.582
REMARK INTER + INTRA:          -4.082
REMARK INTER:                  -3.620
REMARK INTRA:                  -0.462
REMARK UNBOUND:                -0.244
REMARK SMILES NC(=O)C[C@@H]([NH3+])C(=O)[O-]
REMARK SMILES IDX 4 1 5 2 6 3 7 7 8 8 9 9 2 10 3 11 1 12
REMARK H PARENT 6 4 6 5 6 6 1 13 1 14
REMARK Flexibility Score: inf
ROOT
ATOM      1  C   UNL     1      28.782   6.924  27.982  1.00  0.00     0.171 C 
ENDROOT
BRANCH   1   2
ATOM      2  C   UNL     1      27.697   6.862  29.079  1.00  0.00     0.237 C 
BRANCH   2   3
ATOM      3  N   UNL     1      28.279   6.655  30.411  1.00  0.00    -0.350 N 
ATOM      4  H   UNL     1      28.715   5.705  30.464  1.00  0.00     0.345 HD
ATOM      5  H   UNL     1      29.006   7.377  30.624  1.00  0.00     0.345 HD
ATOM      6  H   UNL     1      27.526   6.709  31.135  1.00  0.00     0.345 HD
ENDBRANCH   2   3
BRANCH   2   7
ATOM      7  C   UNL     1      26.818   8.087  29.053  1.00  0.00     0.100 C 
ATOM      8  O   UNL     1      26.148   8.401  30.072  1.00  0.00    -0.544 OA
ATOM      9  O   UNL     1      26.699   8.848  27.897  1.00  0.00    -0.544 OA
ENDBRANCH   2   7
ENDBRANCH   1   2
BRANCH   1  10
ATOM     10  C   UNL     1      29.925   7.836  28.328  1.00  0.00     0.223 C 
ATOM     11  O   UNL     1      30.873   7.411  29.041  1.00  0.00    -0.275 OA
ATOM     12  N   UNL     1      29.956   9.178  27.840  1.00  0.00    -0.369 N 
ATOM     13  H   UNL     1      29.182   9.545  27.241  1.00  0.00     0.159 HD
ATOM     14  H   UNL     1      30.756   9.805  28.073  1.00  0.00     0.159 HD
ENDBRANCH   1  10
TORSDOF 4
ENDMDL
