MODEL 1
REMARK VINA RESULT:    -4.577      0.000      0.000
REMARK INTER + INTRA:          -8.869
REMARK INTER:                  -7.788
REMARK INTRA:                  -1.081
REMARK UNBOUND:                -1.081
REMARK SMILES CCCCCCCCCCCCCC(=O)[O-]
REMARK SMILES IDX 8 1 9 2 10 3 11 4 12 5 13 6 14 7 15 8 16 9 7 10 6 11 5 12
REMARK SMILES IDX 4 13 3 14 2 15 1 16
REMARK H PARENT
REMARK Flexibility Score: inf
ROOT
ATOM      1  C   UNL     1      97.776  86.170  81.863  1.00  0.00     0.000 C 
ENDROOT
BRANCH   1   2
ATOM      2  C   UNL     1      97.485  85.967  80.365  1.00  0.00     0.000 C 
BRANCH   2   3
ATOM      3  C   UNL     1      96.296  86.807  79.870  1.00  0.00     0.000 C 
BRANCH   3   4
ATOM      4  C   UNL     1      95.219  85.956  79.176  1.00  0.00     0.000 C 
BRANCH   4   5
ATOM      5  C   UNL     1      95.030  84.583  79.840  1.00  0.00     0.006 C 
BRANCH   5   6
ATOM      6  C   UNL     1      93.886  83.773  79.216  1.00  0.00     0.053 C 
BRANCH   6   7
ATOM      7  C   UNL     1      92.563  84.325  79.644  1.00  0.00     0.041 C 
ATOM      8  O   UNL     1      92.249  84.347  80.864  1.00  0.00    -0.550 OA
ATOM      9  O   UNL     1      91.696  84.861  78.700  1.00  0.00    -0.550 OA
ENDBRANCH   6   7
ENDBRANCH   5   6
ENDBRANCH   4   5
ENDBRANCH   3   4
ENDBRANCH   2   3
ENDBRANCH   1   2
BRANCH   1  10
ATOM     10  C   UNL     1      97.430  84.919  82.697  1.00  0.00     0.000 C 
BRANCH  10  11
ATOM     11  C   UNL     1      97.916  83.602  82.068  1.00  0.00    -0.000 C 
BRANCH  11  12
ATOM     12  C   UNL     1      99.431  83.588  81.810  1.00  0.00    -0.000 C 
BRANCH  12  13
ATOM     13  C   UNL     1     100.252  83.769  83.097  1.00  0.00    -0.000 C 
BRANCH  13  14
ATOM     14  C   UNL     1     101.690  84.236  82.823  1.00  0.00    -0.000 C 
BRANCH  14  15
ATOM     15  C   UNL     1     102.033  85.475  83.660  1.00  0.00    -0.003 C 
ATOM     16  C   UNL     1     100.771  86.138  84.206  1.00  0.00     0.004 C 
ENDBRANCH  14  15
ENDBRANCH  13  14
ENDBRANCH  12  13
ENDBRANCH  11  12
ENDBRANCH  10  11
ENDBRANCH   1  10
TORSDOF 12
ENDMDL
MODEL 2
REMARK VINA RESULT:    -4.498      3.594      7.612
REMARK INTER + INTRA:          -8.734
REMARK INTER:                  -7.856
REMARK INTRA:                  -0.878
REMARK UNBOUND:                -1.081
REMARK SMILES CCCCCCCCCCCCCC(=O)[O-]
REMARK SMILES IDX 8 1 9 2 10 3 11 4 12 5 13 6 14 7 15 8 16 9 7 10 6 11 5 12
REMARK SMILES IDX 4 13 3 14 2 15 1 16
REMARK H PARENT
REMARK Flexibility Score: inf
ROOT
ATOM      1  C   UNL     1      95.579  86.218  80.794  1.00  0.00     0.000 C 
ENDROOT
BRANCH   1   2
ATOM      2  C   UNL     1      97.002  86.595  80.345  1.00  0.00     0.000 C 
BRANCH   2   3
ATOM      3  C   UNL     1      98.066  85.607  80.850  1.00  0.00     0.000 C 
BRANCH   3   4
ATOM      4  C   UNL     1      97.469  84.485  81.716  1.00  0.00     0.000 C 
BRANCH   4   5
ATOM      5  C   UNL     1      98.527  83.473  82.185  1.00  0.00     0.006 C 
BRANCH   5   6
ATOM      6  C   UNL     1      99.944  83.839  81.726  1.00  0.00     0.053 C 
BRANCH   6   7
ATOM      7  C   UNL     1     100.847  84.009  82.907  1.00  0.00     0.041 C 
ATOM      8  O   UNL     1     100.402  83.846  84.074  1.00  0.00    -0.550 OA
ATOM      9  O   UNL     1     102.192  84.298  82.717  1.00  0.00    -0.550 OA
ENDBRANCH   6   7
ENDBRANCH   5   6
ENDBRANCH   4   5
ENDBRANCH   3   4
ENDBRANCH   2   3
ENDBRANCH   1   2
BRANCH   1  10
ATOM     10  C   UNL     1      94.678  85.827  79.603  1.00  0.00     0.000 C 
BRANCH  10  11
ATOM     11  C   UNL     1      94.732  84.331  79.251  1.00  0.00    -0.000 C 
BRANCH  11  12
ATOM     12  C   UNL     1      93.416  83.598  79.561  1.00  0.00    -0.000 C 
BRANCH  12  13
ATOM     13  C   UNL     1      92.249  84.564  79.827  1.00  0.00    -0.000 C 
BRANCH  13  14
ATOM     14  C   UNL     1      91.609  84.355  81.207  1.00  0.00    -0.000 C 
BRANCH  14  15
ATOM     15  C   UNL     1      90.080  84.432  81.119  1.00  0.00    -0.003 C 
ATOM     16  C   UNL     1      89.605  84.336  79.673  1.00  0.00     0.004 C 
ENDBRANCH  14  15
ENDBRANCH  13  14
ENDBRANCH  12  13
ENDBRANCH  11  12
ENDBRANCH  10  11
ENDBRANCH   1  10
TORSDOF 12
ENDMDL
MODEL 3
REMARK VINA RESULT:    -4.388      2.326      4.622
REMARK INTER + INTRA:          -8.548
REMARK INTER:                  -7.597
REMARK INTRA:                  -0.951
REMARK UNBOUND:                -1.081
REMARK SMILES CCCCCCCCCCCCCC(=O)[O-]
REMARK SMILES IDX 8 1 9 2 10 3 11 4 12 5 13 6 14 7 15 8 16 9 7 10 6 11 5 12
REMARK SMILES IDX 4 13 3 14 2 15 1 16
REMARK H PARENT
REMARK Flexibility Score: inf
ROOT
ATOM      1  C   UNL     1      93.513  83.809  79.247  1.00  0.00     0.000 C 
ENDROOT
BRANCH   1   2
ATOM      2  C   UNL     1      92.522  84.938  78.918  1.00  0.00     0.000 C 
BRANCH   2   3
ATOM      3  C   UNL     1      91.087  84.623  79.371  1.00  0.00     0.000 C 
BRANCH   3   4
ATOM      4  C   UNL     1      90.728  85.295  80.708  1.00  0.00     0.000 C 
BRANCH   4   5
ATOM      5  C   UNL     1      91.064  84.415  81.922  1.00  0.00     0.006 C 
BRANCH   5   6
ATOM      6  C   UNL     1      90.767  85.107  83.258  1.00  0.00     0.053 C 
BRANCH   6   7
ATOM      7  C   UNL     1      92.041  85.485  83.945  1.00  0.00     0.041 C 
ATOM      8  O   UNL     1      92.133  85.410  85.199  1.00  0.00    -0.550 OA
ATOM      9  O   UNL     1      93.145  85.873  83.196  1.00  0.00    -0.550 OA
ENDBRANCH   6   7
ENDBRANCH   5   6
ENDBRANCH   4   5
ENDBRANCH   3   4
ENDBRANCH   2   3
ENDBRANCH   1   2
BRANCH   1  10
ATOM     10  C   UNL     1      94.759  84.328  79.997  1.00  0.00     0.000 C 
BRANCH  10  11
ATOM     11  C   UNL     1      95.080  85.805  79.713  1.00  0.00    -0.000 C 
BRANCH  11  12
ATOM     12  C   UNL     1      96.572  86.134  79.881  1.00  0.00    -0.000 C 
BRANCH  12  13
ATOM     13  C   UNL     1      97.192  85.458  81.116  1.00  0.00    -0.000 C 
BRANCH  13  14
ATOM     14  C   UNL     1      98.719  85.328  81.016  1.00  0.00    -0.000 C 
BRANCH  14  15
ATOM     15  C   UNL     1      99.201  84.024  81.664  1.00  0.00    -0.003 C 
ATOM     16  C   UNL     1      98.033  83.086  81.952  1.00  0.00     0.004 C 
ENDBRANCH  14  15
ENDBRANCH  13  14
ENDBRANCH  12  13
ENDBRANCH  11  12
ENDBRANCH  10  11
ENDBRANCH   1  10
TORSDOF 12
ENDMDL
MODEL 4
REMARK VINA RESULT:    -4.366      1.504      3.080
REMARK INTER + INTRA:          -8.509
REMARK INTER:                  -7.586
REMARK INTRA:                  -0.923
REMARK UNBOUND:                -1.081
REMARK SMILES CCCCCCCCCCCCCC(=O)[O-]
REMARK SMILES IDX 8 1 9 2 10 3 11 4 12 5 13 6 14 7 15 8 16 9 7 10 6 11 5 12
REMARK SMILES IDX 4 13 3 14 2 15 1 16
REMARK H PARENT
REMARK Flexibility Score: inf
ROOT
ATOM      1  C   UNL     1      95.336  85.859  80.153  1.00  0.00     0.000 C 
ENDROOT
BRANCH   1   2
ATOM      2  C   UNL     1      94.799  84.769  79.208  1.00  0.00     0.000 C 
BRANCH   2   3
ATOM      3  C   UNL     1      94.043  83.656  79.951  1.00  0.00     0.000 C 
BRANCH   3   4
ATOM      4  C   UNL     1      92.574  84.019  80.226  1.00  0.00     0.000 C 
BRANCH   4   5
ATOM      5  C   UNL     1      91.916  84.756  79.048  1.00  0.00     0.006 C 
BRANCH   5   6
ATOM      6  C   UNL     1      90.453  85.127  79.322  1.00  0.00     0.053 C 
BRANCH   6   7
ATOM      7  C   UNL     1      90.338  85.882  80.608  1.00  0.00     0.041 C 
ATOM      8  O   UNL     1      90.830  87.038  80.711  1.00  0.00    -0.550 OA
ATOM      9  O   UNL     1      89.645  85.331  81.678  1.00  0.00    -0.550 OA
ENDBRANCH   6   7
ENDBRANCH   5   6
ENDBRANCH   4   5
ENDBRANCH   3   4
ENDBRANCH   2   3
ENDBRANCH   1   2
BRANCH   1  10
ATOM     10  C   UNL     1      96.768  86.296  79.781  1.00  0.00     0.000 C 
BRANCH  10  11
ATOM     11  C   UNL     1      97.839  85.818  80.778  1.00  0.00    -0.000 C 
BRANCH  11  12
ATOM     12  C   UNL     1      97.255  84.968  81.917  1.00  0.00    -0.000 C 
BRANCH  12  13
ATOM     13  C   UNL     1      97.828  83.541  81.944  1.00  0.00    -0.000 C 
BRANCH  13  14
ATOM     14  C   UNL     1      99.356  83.512  81.789  1.00  0.00    -0.000 C 
BRANCH  14  15
ATOM     15  C   UNL     1     100.048  83.876  83.108  1.00  0.00    -0.003 C 
ATOM     16  C   UNL     1     101.517  84.222  82.883  1.00  0.00     0.004 C 
ENDBRANCH  14  15
ENDBRANCH  13  14
ENDBRANCH  12  13
ENDBRANCH  11  12
ENDBRANCH  10  11
ENDBRANCH   1  10
TORSDOF 12
ENDMDL
MODEL 5
REMARK VINA RESULT:    -4.364      3.614      7.365
REMARK INTER + INTRA:          -8.506
REMARK INTER:                  -7.475
REMARK INTRA:                  -1.031
REMARK UNBOUND:                -1.081
REMARK SMILES CCCCCCCCCCCCCC(=O)[O-]
REMARK SMILES IDX 8 1 9 2 10 3 11 4 12 5 13 6 14 7 15 8 16 9 7 10 6 11 5 12
REMARK SMILES IDX 4 13 3 14 2 15 1 16
REMARK H PARENT
REMARK Flexibility Score: inf
ROOT
ATOM      1  C   UNL     1      97.302  85.857  80.390  1.00  0.00     0.000 C 
ENDROOT
BRANCH   1   2
ATOM      2  C   UNL     1      97.507  86.116  81.893  1.00  0.00     0.000 C 
BRANCH   2   3
ATOM      3  C   UNL     1      97.687  84.822  82.702  1.00  0.00     0.000 C 
BRANCH   3   4
ATOM      4  C   UNL     1      98.354  83.701  81.885  1.00  0.00     0.000 C 
BRANCH   4   5
ATOM      5  C   UNL     1      99.882  83.850  81.814  1.00  0.00     0.006 C 
BRANCH   5   6
ATOM      6  C   UNL     1     100.531  83.986  83.197  1.00  0.00     0.053 C 
BRANCH   6   7
ATOM      7  C   UNL     1     101.354  85.233  83.267  1.00  0.00     0.041 C 
ATOM      8  O   UNL     1     100.842  86.348  82.983  1.00  0.00    -0.550 OA
ATOM      9  O   UNL     1     102.675  85.170  83.693  1.00  0.00    -0.550 OA
ENDBRANCH   6   7
ENDBRANCH   5   6
ENDBRANCH   4   5
ENDBRANCH   3   4
ENDBRANCH   2   3
ENDBRANCH   1   2
BRANCH   1  10
ATOM     10  C   UNL     1      96.203  86.758  79.789  1.00  0.00     0.000 C 
BRANCH  10  11
ATOM     11  C   UNL     1      94.930  85.996  79.385  1.00  0.00    -0.000 C 
BRANCH  11  12
ATOM     12  C   UNL     1      94.973  84.512  79.781  1.00  0.00    -0.000 C 
BRANCH  12  13
ATOM     13  C   UNL     1      93.792  83.711  79.208  1.00  0.00    -0.000 C 
BRANCH  13  14
ATOM     14  C   UNL     1      92.451  84.446  79.351  1.00  0.00    -0.000 C 
BRANCH  14  15
ATOM     15  C   UNL     1      91.833  84.196  80.733  1.00  0.00    -0.003 C 
ATOM     16  C   UNL     1      91.638  85.503  81.495  1.00  0.00     0.004 C 
ENDBRANCH  14  15
ENDBRANCH  13  14
ENDBRANCH  12  13
ENDBRANCH  11  12
ENDBRANCH  10  11
ENDBRANCH   1  10
TORSDOF 12
ENDMDL
MODEL 6
REMARK VINA RESULT:    -4.300      1.209      2.528
REMARK INTER + INTRA:          -8.398
REMARK INTER:                  -7.241
REMARK INTRA:                  -1.157
REMARK UNBOUND:                -1.081
REMARK SMILES CCCCCCCCCCCCCC(=O)[O-]
REMARK SMILES IDX 8 1 9 2 10 3 11 4 12 5 13 6 14 7 15 8 16 9 7 10 6 11 5 12
REMARK SMILES IDX 4 13 3 14 2 15 1 16
REMARK H PARENT
REMARK Flexibility Score: inf
ROOT
ATOM      1  C   UNL     1      97.857  86.640  80.591  1.00  0.00     0.000 C 
ENDROOT
BRANCH   1   2
ATOM      2  C   UNL     1      96.563  87.221  79.993  1.00  0.00     0.000 C 
BRANCH   2   3
ATOM      3  C   UNL     1      95.765  86.188  79.182  1.00  0.00     0.000 C 
BRANCH   3   4
ATOM      4  C   UNL     1      95.239  85.032  80.051  1.00  0.00     0.000 C 
BRANCH   4   5
ATOM      5  C   UNL     1      94.386  84.033  79.253  1.00  0.00     0.006 C 
BRANCH   5   6
ATOM      6  C   UNL     1      93.334  83.327  80.118  1.00  0.00     0.053 C 
BRANCH   6   7
ATOM      7  C   UNL     1      92.208  84.260  80.435  1.00  0.00     0.041 C 
ATOM      8  O   UNL     1      91.403  84.612  79.533  1.00  0.00    -0.550 OA
ATOM      9  O   UNL     1      92.019  84.702  81.738  1.00  0.00    -0.550 OA
ENDBRANCH   6   7
ENDBRANCH   5   6
ENDBRANCH   4   5
ENDBRANCH   3   4
ENDBRANCH   2   3
ENDBRANCH   1   2
BRANCH   1  10
ATOM     10  C   UNL     1      98.677  87.706  81.348  1.00  0.00     0.000 C 
BRANCH  10  11
ATOM     11  C   UNL     1      99.585  87.123  82.445  1.00  0.00    -0.000 C 
BRANCH  11  12
ATOM     12  C   UNL     1      98.793  86.494  83.602  1.00  0.00    -0.000 C 
BRANCH  12  13
ATOM     13  C   UNL     1      99.059  84.987  83.751  1.00  0.00    -0.000 C 
BRANCH  13  14
ATOM     14  C   UNL     1     100.066  84.457  82.720  1.00  0.00    -0.000 C 
BRANCH  14  15
ATOM     15  C   UNL     1      99.371  83.568  81.681  1.00  0.00    -0.003 C 
ATOM     16  C   UNL     1      97.944  83.235  82.106  1.00  0.00     0.004 C 
ENDBRANCH  14  15
ENDBRANCH  13  14
ENDBRANCH  12  13
ENDBRANCH  11  12
ENDBRANCH  10  11
ENDBRANCH   1  10
TORSDOF 12
ENDMDL
MODEL 7
REMARK VINA RESULT:    -4.282      4.035      7.641
REMARK INTER + INTRA:          -8.367
REMARK INTER:                  -7.382
REMARK INTRA:                  -0.985
REMARK UNBOUND:                -1.081
REMARK SMILES CCCCCCCCCCCCCC(=O)[O-]
REMARK SMILES IDX 8 1 9 2 10 3 11 4 12 5 13 6 14 7 15 8 16 9 7 10 6 11 5 12
REMARK SMILES IDX 4 13 3 14 2 15 1 16
REMARK H PARENT
REMARK Flexibility Score: inf
ROOT
ATOM      1  C   UNL     1      98.232  83.284  82.042  1.00  0.00     0.000 C 
ENDROOT
BRANCH   1   2
ATOM      2  C   UNL     1      99.655  83.724  81.655  1.00  0.00     0.000 C 
BRANCH   2   3
ATOM      3  C   UNL     1     100.612  83.770  82.857  1.00  0.00     0.000 C 
BRANCH   3   4
ATOM      4  C   UNL     1     100.675  85.161  83.511  1.00  0.00     0.000 C 
BRANCH   4   5
ATOM      5  C   UNL     1      99.706  85.303  84.696  1.00  0.00     0.006 C 
BRANCH   5   6
ATOM      6  C   UNL     1     100.364  85.934  85.929  1.00  0.00     0.053 C 
BRANCH   6   7
ATOM      7  C   UNL     1     100.643  84.890  86.963  1.00  0.00     0.041 C 
ATOM      8  O   UNL     1     100.625  83.669  86.654  1.00  0.00    -0.550 OA
ATOM      9  O   UNL     1     100.972  85.267  88.259  1.00  0.00    -0.550 OA
ENDBRANCH   6   7
ENDBRANCH   5   6
ENDBRANCH   4   5
ENDBRANCH   3   4
ENDBRANCH   2   3
ENDBRANCH   1   2
BRANCH   1  10
ATOM     10  C   UNL     1      97.179  84.362  81.707  1.00  0.00     0.000 C 
BRANCH  10  11
ATOM     11  C   UNL     1      97.735  85.536  80.883  1.00  0.00    -0.000 C 
BRANCH  11  12
ATOM     12  C   UNL     1      96.635  86.338  80.171  1.00  0.00    -0.000 C 
BRANCH  12  13
ATOM     13  C   UNL     1      95.255  85.667  80.269  1.00  0.00    -0.000 C 
BRANCH  13  14
ATOM     14  C   UNL     1      94.852  84.944  78.975  1.00  0.00    -0.000 C 
BRANCH  14  15
ATOM     15  C   UNL     1      93.986  83.716  79.280  1.00  0.00    -0.003 C 
ATOM     16  C   UNL     1      93.000  84.002  80.409  1.00  0.00     0.004 C 
ENDBRANCH  14  15
ENDBRANCH  13  14
ENDBRANCH  12  13
ENDBRANCH  11  12
ENDBRANCH  10  11
ENDBRANCH   1  10
TORSDOF 12
ENDMDL
MODEL 8
REMARK VINA RESULT:    -4.217      1.193      2.072
REMARK INTER + INTRA:          -8.256
REMARK INTER:                  -6.976
REMARK INTRA:                  -1.281
REMARK UNBOUND:                -1.081
REMARK SMILES CCCCCCCCCCCCCC(=O)[O-]
REMARK SMILES IDX 8 1 9 2 10 3 11 4 12 5 13 6 14 7 15 8 16 9 7 10 6 11 5 12
REMARK SMILES IDX 4 13 3 14 2 15 1 16
REMARK H PARENT
REMARK Flexibility Score: inf
ROOT
ATOM      1  C   UNL     1      97.404  84.430  81.945  1.00  0.00     0.000 C 
ENDROOT
BRANCH   1   2
ATOM      2  C   UNL     1      97.748  85.446  80.842  1.00  0.00     0.000 C 
BRANCH   2   3
ATOM      3  C   UNL     1      96.521  85.876  80.023  1.00  0.00     0.000 C 
BRANCH   3   4
ATOM      4  C   UNL     1      95.203  85.337  80.606  1.00  0.00     0.000 C 
BRANCH   4   5
ATOM      5  C   UNL     1      94.466  84.400  79.636  1.00  0.00     0.006 C 
BRANCH   5   6
ATOM      6  C   UNL     1      93.259  85.068  78.966  1.00  0.00     0.053 C 
BRANCH   6   7
ATOM      7  C   UNL     1      91.986  84.608  79.605  1.00  0.00     0.041 C 
ATOM      8  O   UNL     1      90.876  84.879  79.075  1.00  0.00    -0.550 OA
ATOM      9  O   UNL     1      92.029  83.837  80.759  1.00  0.00    -0.550 OA
ENDBRANCH   6   7
ENDBRANCH   5   6
ENDBRANCH   4   5
ENDBRANCH   3   4
ENDBRANCH   2   3
ENDBRANCH   1   2
BRANCH   1  10
ATOM     10  C   UNL     1      98.415  83.264  81.999  1.00  0.00     0.000 C 
BRANCH  10  11
ATOM     11  C   UNL     1      99.880  83.710  81.855  1.00  0.00    -0.000 C 
BRANCH  11  12
ATOM     12  C   UNL     1     100.522  84.089  83.199  1.00  0.00    -0.000 C 
BRANCH  12  13
ATOM     13  C   UNL     1     100.723  85.606  83.352  1.00  0.00    -0.000 C 
BRANCH  13  14
ATOM     14  C   UNL     1      99.714  86.244  84.319  1.00  0.00    -0.000 C 
BRANCH  14  15
ATOM     15  C   UNL     1      99.236  85.227  85.363  1.00  0.00    -0.003 C 
ATOM     16  C   UNL     1      97.723  85.302  85.551  1.00  0.00     0.004 C 
ENDBRANCH  14  15
ENDBRANCH  13  14
ENDBRANCH  12  13
ENDBRANCH  11  12
ENDBRANCH  10  11
ENDBRANCH   1  10
TORSDOF 12
ENDMDL
MODEL 9
REMARK VINA RESULT:    -4.212      2.147      4.268
REMARK INTER + INTRA:          -8.247
REMARK INTER:                  -7.233
REMARK INTRA:                  -1.014
REMARK UNBOUND:                -1.081
REMARK SMILES CCCCCCCCCCCCCC(=O)[O-]
REMARK SMILES IDX 8 1 9 2 10 3 11 4 12 5 13 6 14 7 15 8 16 9 7 10 6 11 5 12
REMARK SMILES IDX 4 13 3 14 2 15 1 16
REMARK H PARENT
REMARK Flexibility Score: inf
ROOT
ATOM      1  C   UNL     1      94.940  84.513  80.017  1.00  0.00     0.000 C 
ENDROOT
BRANCH   1   2
ATOM      2  C   UNL     1      93.746  83.655  79.565  1.00  0.00     0.000 C 
BRANCH   2   3
ATOM      3  C   UNL     1      92.401  84.388  79.694  1.00  0.00     0.000 C 
BRANCH   3   4
ATOM      4  C   UNL     1      91.999  84.632  81.159  1.00  0.00     0.000 C 
BRANCH   4   5
ATOM      5  C   UNL     1      90.486  84.486  81.389  1.00  0.00     0.006 C 
BRANCH   5   6
ATOM      6  C   UNL     1      89.705  84.269  80.087  1.00  0.00     0.053 C 
BRANCH   6   7
ATOM      7  C   UNL     1      88.791  85.425  79.829  1.00  0.00     0.041 C 
ATOM      8  O   UNL     1      87.839  85.311  79.012  1.00  0.00    -0.550 OA
ATOM      9  O   UNL     1      88.961  86.614  80.527  1.00  0.00    -0.550 OA
ENDBRANCH   6   7
ENDBRANCH   5   6
ENDBRANCH   4   5
ENDBRANCH   3   4
ENDBRANCH   2   3
ENDBRANCH   1   2
BRANCH   1  10
ATOM     10  C   UNL     1      95.014  85.854  79.256  1.00  0.00     0.000 C 
BRANCH  10  11
ATOM     11  C   UNL     1      96.255  86.694  79.603  1.00  0.00    -0.000 C 
BRANCH  11  12
ATOM     12  C   UNL     1      96.355  87.018  81.101  1.00  0.00    -0.000 C 
BRANCH  12  13
ATOM     13  C   UNL     1      97.710  86.612  81.706  1.00  0.00    -0.000 C 
BRANCH  13  14
ATOM     14  C   UNL     1      98.421  85.521  80.891  1.00  0.00    -0.000 C 
BRANCH  14  15
ATOM     15  C   UNL     1      99.004  84.441  81.810  1.00  0.00    -0.003 C 
ATOM     16  C   UNL     1      98.028  83.281  81.987  1.00  0.00     0.004 C 
ENDBRANCH  14  15
ENDBRANCH  13  14
ENDBRANCH  12  13
ENDBRANCH  11  12
ENDBRANCH  10  11
ENDBRANCH   1  10
TORSDOF 12
ENDMDL
