MODEL 1
REMARK VINA RESULT:    -3.184      0.000      0.000
REMARK INTER + INTRA:          -4.585
REMARK INTER:                  -4.301
REMARK INTRA:                  -0.284
REMARK UNBOUND:                -0.284
REMARK SMILES CCCCCCCC(=O)[O-]
REMARK SMILES IDX 5 1 6 2 7 3 8 4 9 5 10 6 4 7 3 8 2 9 1 10
REMARK H PARENT
REMARK Flexibility Score: inf
ROOT
ATOM      1  C   UNL     1      58.660  34.081  12.663  1.00  0.00     0.000 C 
ENDROOT
BRANCH   1   2
ATOM      2  C   UNL     1      57.149  34.231  12.426  1.00  0.00     0.006 C 
BRANCH   2   3
ATOM      3  C   UNL     1      56.529  35.358  13.262  1.00  0.00     0.053 C 
BRANCH   3   4
ATOM      4  C   UNL     1      55.847  36.351  12.375  1.00  0.00     0.041 C 
ATOM      5  O   UNL     1      54.674  36.730  12.632  1.00  0.00    -0.550 OA
ATOM      6  O   UNL     1      56.488  36.821  11.236  1.00  0.00    -0.550 OA
ENDBRANCH   3   4
ENDBRANCH   2   3
ENDBRANCH   1   2
BRANCH   1   7
ATOM      7  C   UNL     1      59.009  33.873  14.144  1.00  0.00     0.000 C 
BRANCH   7   8
ATOM      8  C   UNL     1      60.432  34.357  14.445  1.00  0.00    -0.000 C 
BRANCH   8   9
ATOM      9  C   UNL     1      61.269  34.439  13.162  1.00  0.00    -0.003 C 
ATOM     10  C   UNL     1      62.692  33.942  13.400  1.00  0.00     0.004 C 
ENDBRANCH   8   9
ENDBRANCH   7   8
ENDBRANCH   1   7
TORSDOF 6
ENDMDL
MODEL 2
REMARK VINA RESULT:    -3.144      1.712      2.305
REMARK INTER + INTRA:          -4.531
REMARK INTER:                  -4.215
REMARK INTRA:                  -0.316
REMARK UNBOUND:                -0.284
REMARK SMILES CCCCCCCC(=O)[O-]
REMARK SMILES IDX 5 1 6 2 7 3 8 4 9 5 10 6 4 7 3 8 2 9 1 10
REMARK H PARENT
REMARK Flexibility Score: inf
ROOT
ATOM      1  C   UNL     1      56.979  35.069  12.273  1.00  0.00     0.000 C 
ENDROOT
BRANCH   1   2
ATOM      2  C   UNL     1      56.084  36.316  12.196  1.00  0.00     0.006 C 
BRANCH   2   3
ATOM      3  C   UNL     1      54.637  36.032  12.617  1.00  0.00     0.053 C 
BRANCH   3   4
ATOM      4  C   UNL     1      54.221  36.958  13.715  1.00  0.00     0.041 C 
ATOM      5  O   UNL     1      53.129  37.581  13.640  1.00  0.00    -0.550 OA
ATOM      6  O   UNL     1      55.064  37.173  14.799  1.00  0.00    -0.550 OA
ENDBRANCH   3   4
ENDBRANCH   2   3
ENDBRANCH   1   2
BRANCH   1   7
ATOM      7  C   UNL     1      57.207  34.592  13.715  1.00  0.00     0.000 C 
BRANCH   7   8
ATOM      8  C   UNL     1      58.654  34.128  13.916  1.00  0.00    -0.000 C 
BRANCH   8   9
ATOM      9  C   UNL     1      59.401  34.057  12.579  1.00  0.00    -0.003 C 
ATOM     10  C   UNL     1      60.866  34.453  12.744  1.00  0.00     0.004 C 
ENDBRANCH   8   9
ENDBRANCH   7   8
ENDBRANCH   1   7
TORSDOF 6
ENDMDL
MODEL 3
REMARK VINA RESULT:    -3.107      9.963     11.026
REMARK INTER + INTRA:          -4.481
REMARK INTER:                  -4.008
REMARK INTRA:                  -0.472
REMARK UNBOUND:                -0.284
REMARK SMILES CCCCCCCC(=O)[O-]
REMARK SMILES IDX 5 1 6 2 7 3 8 4 9 5 10 6 4 7 3 8 2 9 1 10
REMARK H PARENT
REMARK Flexibility Score: inf
ROOT
ATOM      1  C   UNL     1      63.669  42.461  14.865  1.00  0.00     0.000 C 
ENDROOT
BRANCH   1   2
ATOM      2  C   UNL     1      64.622  41.772  15.855  1.00  0.00     0.006 C 
BRANCH   2   3
ATOM      3  C   UNL     1      63.990  40.549  16.530  1.00  0.00     0.053 C 
BRANCH   3   4
ATOM      4  C   UNL     1      63.935  40.741  18.012  1.00  0.00     0.041 C 
ATOM      5  O   UNL     1      63.444  41.795  18.497  1.00  0.00    -0.550 OA
ATOM      6  O   UNL     1      64.472  39.779  18.858  1.00  0.00    -0.550 OA
ENDBRANCH   3   4
ENDBRANCH   2   3
ENDBRANCH   1   2
BRANCH   1   7
ATOM      7  C   UNL     1      63.781  43.992  14.904  1.00  0.00     0.000 C 
BRANCH   7   8
ATOM      8  C   UNL     1      64.197  44.476  16.298  1.00  0.00    -0.000 C 
BRANCH   8   9
ATOM      9  C   UNL     1      63.140  45.413  16.894  1.00  0.00    -0.003 C 
ATOM     10  C   UNL     1      61.850  44.660  17.209  1.00  0.00     0.004 C 
ENDBRANCH   8   9
ENDBRANCH   7   8
ENDBRANCH   1   7
TORSDOF 6
ENDMDL
MODEL 4
REMARK VINA RESULT:    -3.101      0.918      1.461
REMARK INTER + INTRA:          -4.473
REMARK INTER:                  -4.101
REMARK INTRA:                  -0.372
REMARK UNBOUND:                -0.284
REMARK SMILES CCCCCCCC(=O)[O-]
REMARK SMILES IDX 5 1 6 2 7 3 8 4 9 5 10 6 4 7 3 8 2 9 1 10
REMARK H PARENT
REMARK Flexibility Score: inf
ROOT
ATOM      1  C   UNL     1      57.961  33.307  11.896  1.00  0.00     0.000 C 
ENDROOT
BRANCH   1   2
ATOM      2  C   UNL     1      57.643  34.763  12.274  1.00  0.00     0.006 C 
BRANCH   2   3
ATOM      3  C   UNL     1      56.210  34.941  12.790  1.00  0.00     0.053 C 
BRANCH   3   4
ATOM      4  C   UNL     1      55.620  36.211  12.266  1.00  0.00     0.041 C 
ATOM      5  O   UNL     1      54.518  36.629  12.710  1.00  0.00    -0.550 OA
ATOM      6  O   UNL     1      56.262  36.908  11.250  1.00  0.00    -0.550 OA
ENDBRANCH   3   4
ENDBRANCH   2   3
ENDBRANCH   1   2
BRANCH   1   7
ATOM      7  C   UNL     1      59.468  33.012  11.894  1.00  0.00     0.000 C 
BRANCH   7   8
ATOM      8  C   UNL     1      60.269  34.246  12.323  1.00  0.00    -0.000 C 
BRANCH   8   9
ATOM      9  C   UNL     1      61.142  33.938  13.546  1.00  0.00    -0.003 C 
ATOM     10  C   UNL     1      60.393  34.227  14.845  1.00  0.00     0.004 C 
ENDBRANCH   8   9
ENDBRANCH   7   8
ENDBRANCH   1   7
TORSDOF 6
ENDMDL
MODEL 5
REMARK VINA RESULT:    -3.024     13.991     15.969
REMARK INTER + INTRA:          -4.368
REMARK INTER:                  -4.081
REMARK INTRA:                  -0.287
REMARK UNBOUND:                -0.284
REMARK SMILES CCCCCCCC(=O)[O-]
REMARK SMILES IDX 5 1 6 2 7 3 8 4 9 5 10 6 4 7 3 8 2 9 1 10
REMARK H PARENT
REMARK Flexibility Score: inf
ROOT
ATOM      1  C   UNL     1      51.291  49.480  12.802  1.00  0.00     0.000 C 
ENDROOT
BRANCH   1   2
ATOM      2  C   UNL     1      51.527  50.805  12.059  1.00  0.00     0.006 C 
BRANCH   2   3
ATOM      3  C   UNL     1      50.538  51.022  10.907  1.00  0.00     0.053 C 
BRANCH   3   4
ATOM      4  C   UNL     1      50.988  50.284   9.687  1.00  0.00     0.041 C 
ATOM      5  O   UNL     1      50.142  49.791   8.895  1.00  0.00    -0.550 OA
ATOM      6  O   UNL     1      52.344  50.097   9.449  1.00  0.00    -0.550 OA
ENDBRANCH   3   4
ENDBRANCH   2   3
ENDBRANCH   1   2
BRANCH   1   7
ATOM      7  C   UNL     1      52.430  48.472  12.590  1.00  0.00     0.000 C 
BRANCH   7   8
ATOM      8  C   UNL     1      52.317  47.303  13.575  1.00  0.00    -0.000 C 
BRANCH   8   9
ATOM      9  C   UNL     1      50.850  46.976  13.876  1.00  0.00    -0.003 C 
ATOM     10  C   UNL     1      50.696  45.544  14.382  1.00  0.00     0.004 C 
ENDBRANCH   8   9
ENDBRANCH   7   8
ENDBRANCH   1   7
TORSDOF 6
ENDMDL
MODEL 6
REMARK VINA RESULT:    -2.946     13.677     15.855
REMARK INTER + INTRA:          -4.264
REMARK INTER:                  -3.697
REMARK INTRA:                  -0.567
REMARK UNBOUND:                -0.284
REMARK SMILES CCCCCCCC(=O)[O-]
REMARK SMILES IDX 5 1 6 2 7 3 8 4 9 5 10 6 4 7 3 8 2 9 1 10
REMARK H PARENT
REMARK Flexibility Score: inf
ROOT
ATOM      1  C   UNL     1      50.815  49.218  13.971  1.00  0.00     0.000 C 
ENDROOT
BRANCH   1   2
ATOM      2  C   UNL     1      50.836  47.684  13.863  1.00  0.00     0.006 C 
BRANCH   2   3
ATOM      3  C   UNL     1      51.958  47.171  12.952  1.00  0.00     0.053 C 
BRANCH   3   4
ATOM      4  C   UNL     1      53.295  47.477  13.547  1.00  0.00     0.041 C 
ATOM      5  O   UNL     1      53.620  46.988  14.661  1.00  0.00    -0.550 OA
ATOM      6  O   UNL     1      54.164  48.343  12.895  1.00  0.00    -0.550 OA
ENDBRANCH   3   4
ENDBRANCH   2   3
ENDBRANCH   1   2
BRANCH   1   7
ATOM      7  C   UNL     1      49.745  49.859  13.075  1.00  0.00     0.000 C 
BRANCH   7   8
ATOM      8  C   UNL     1      50.386  50.764  12.017  1.00  0.00    -0.000 C 
BRANCH   8   9
ATOM      9  C   UNL     1      50.632  49.997  10.712  1.00  0.00    -0.003 C 
ATOM     10  C   UNL     1      52.124  49.899  10.404  1.00  0.00     0.004 C 
ENDBRANCH   8   9
ENDBRANCH   7   8
ENDBRANCH   1   7
TORSDOF 6
ENDMDL
MODEL 7
REMARK VINA RESULT:    -2.938      3.010      5.169
REMARK INTER + INTRA:          -4.253
REMARK INTER:                  -3.913
REMARK INTRA:                  -0.340
REMARK UNBOUND:                -0.284
REMARK SMILES CCCCCCCC(=O)[O-]
REMARK SMILES IDX 5 1 6 2 7 3 8 4 9 5 10 6 4 7 3 8 2 9 1 10
REMARK H PARENT
REMARK Flexibility Score: inf
ROOT
ATOM      1  C   UNL     1      58.060  33.146  12.067  1.00  0.00     0.000 C 
ENDROOT
BRANCH   1   2
ATOM      2  C   UNL     1      59.588  32.974  12.100  1.00  0.00     0.006 C 
BRANCH   2   3
ATOM      3  C   UNL     1      60.329  34.307  12.261  1.00  0.00     0.053 C 
BRANCH   3   4
ATOM      4  C   UNL     1      61.149  34.300  13.512  1.00  0.00     0.041 C 
ATOM      5  O   UNL     1      62.399  34.165  13.450  1.00  0.00    -0.550 OA
ATOM      6  O   UNL     1      60.526  34.393  14.751  1.00  0.00    -0.550 OA
ENDBRANCH   3   4
ENDBRANCH   2   3
ENDBRANCH   1   2
BRANCH   1   7
ATOM      7  C   UNL     1      57.625  34.605  12.264  1.00  0.00     0.000 C 
BRANCH   7   8
ATOM      8  C   UNL     1      56.991  34.807  13.646  1.00  0.00    -0.000 C 
BRANCH   8   9
ATOM      9  C   UNL     1      55.839  35.816  13.581  1.00  0.00    -0.003 C 
ATOM     10  C   UNL     1      55.736  36.448  12.195  1.00  0.00     0.004 C 
ENDBRANCH   8   9
ENDBRANCH   7   8
ENDBRANCH   1   7
TORSDOF 6
ENDMDL
MODEL 8
REMARK VINA RESULT:    -2.917     13.292     15.610
REMARK INTER + INTRA:          -4.224
REMARK INTER:                  -4.101
REMARK INTRA:                  -0.123
REMARK UNBOUND:                -0.284
REMARK SMILES CCCCCCCC(=O)[O-]
REMARK SMILES IDX 5 1 6 2 7 3 8 4 9 5 10 6 4 7 3 8 2 9 1 10
REMARK H PARENT
REMARK Flexibility Score: inf
ROOT
ATOM      1  C   UNL     1      50.343  48.738  13.366  1.00  0.00     0.000 C 
ENDROOT
BRANCH   1   2
ATOM      2  C   UNL     1      51.251  49.319  12.269  1.00  0.00     0.006 C 
BRANCH   2   3
ATOM      3  C   UNL     1      50.499  50.256  11.315  1.00  0.00     0.053 C 
BRANCH   3   4
ATOM      4  C   UNL     1      50.959  50.046   9.908  1.00  0.00     0.041 C 
ATOM      5  O   UNL     1      50.133  50.082   8.958  1.00  0.00    -0.550 OA
ATOM      6  O   UNL     1      52.294  49.760   9.648  1.00  0.00    -0.550 OA
ENDBRANCH   3   4
ENDBRANCH   2   3
ENDBRANCH   1   2
BRANCH   1   7
ATOM      7  C   UNL     1      50.945  47.494  14.035  1.00  0.00     0.000 C 
BRANCH   7   8
ATOM      8  C   UNL     1      49.877  46.720  14.816  1.00  0.00    -0.000 C 
BRANCH   8   9
ATOM      9  C   UNL     1      50.103  45.207  14.709  1.00  0.00    -0.003 C 
ATOM     10  C   UNL     1      51.268  44.760  15.587  1.00  0.00     0.004 C 
ENDBRANCH   8   9
ENDBRANCH   7   8
ENDBRANCH   1   7
TORSDOF 6
ENDMDL
MODEL 9
REMARK VINA RESULT:    -2.866      3.011      5.173
REMARK INTER + INTRA:          -4.155
REMARK INTER:                  -3.731
REMARK INTRA:                  -0.424
REMARK UNBOUND:                -0.284
REMARK SMILES CCCCCCCC(=O)[O-]
REMARK SMILES IDX 5 1 6 2 7 3 8 4 9 5 10 6 4 7 3 8 2 9 1 10
REMARK H PARENT
REMARK Flexibility Score: inf
ROOT
ATOM      1  C   UNL     1      56.308  33.651  12.605  1.00  0.00     0.000 C 
ENDROOT
BRANCH   1   2
ATOM      2  C   UNL     1      57.528  34.566  12.414  1.00  0.00     0.006 C 
BRANCH   2   3
ATOM      3  C   UNL     1      58.709  34.171  13.308  1.00  0.00     0.053 C 
BRANCH   3   4
ATOM      4  C   UNL     1      59.906  33.838  12.476  1.00  0.00     0.041 C 
ATOM      5  O   UNL     1      59.881  32.852  11.693  1.00  0.00    -0.550 OA
ATOM      6  O   UNL     1      61.069  34.588  12.601  1.00  0.00    -0.550 OA
ENDBRANCH   3   4
ENDBRANCH   2   3
ENDBRANCH   1   2
BRANCH   1   7
ATOM      7  C   UNL     1      55.011  34.436  12.851  1.00  0.00     0.000 C 
BRANCH   7   8
ATOM      8  C   UNL     1      55.195  35.919  12.505  1.00  0.00    -0.000 C 
BRANCH   8   9
ATOM      9  C   UNL     1      54.657  36.816  13.626  1.00  0.00    -0.003 C 
ATOM     10  C   UNL     1      55.608  36.837  14.820  1.00  0.00     0.004 C 
ENDBRANCH   8   9
ENDBRANCH   7   8
ENDBRANCH   1   7
TORSDOF 6
ENDMDL
