MODEL 1
REMARK VINA RESULT:    -5.583      0.000      0.000
REMARK INTER + INTRA:          -6.364
REMARK INTER:                  -6.236
REMARK INTRA:                  -0.128
REMARK UNBOUND:                -0.128
REMARK SMILES O=C([O-])C=Cc1ccccc1
REMARK SMILES IDX 4 1 5 2 2 3 1 4 3 5 6 6 7 7 11 8 8 9 10 10 9 11
REMARK H PARENT
REMARK Flexibility Score: inf
ROOT
ATOM      1  C   UNL     1      15.591  74.612  70.519  1.00  0.00     0.025 C 
ATOM      2  C   UNL     1      15.612  75.167  71.740  1.00  0.00     0.010 C 
ENDROOT
BRANCH   1   3
ATOM      3  C   UNL     1      14.343  74.119  69.913  1.00  0.00     0.064 C 
ATOM      4  O   UNL     1      13.313  74.842  69.936  1.00  0.00    -0.545 OA
ATOM      5  O   UNL     1      14.281  72.865  69.315  1.00  0.00    -0.545 OA
ENDBRANCH   1   3
BRANCH   2   6
ATOM      6  C   UNL     1      16.833  75.685  72.416  1.00  0.00    -0.026 A 
ATOM      7  C   UNL     1      16.928  77.071  72.640  1.00  0.00     0.008 A 
ATOM      8  C   UNL     1      17.896  74.858  72.841  1.00  0.00     0.008 A 
ATOM      9  C   UNL     1      18.051  77.618  73.270  1.00  0.00     0.001 A 
ATOM     10  C   UNL     1      19.016  75.412  73.471  1.00  0.00     0.001 A 
ATOM     11  C   UNL     1      19.093  76.789  73.684  1.00  0.00     0.000 A 
ENDBRANCH   2   6
TORSDOF 2
ENDMDL
MODEL 2
REMARK VINA RESULT:    -5.322      3.075      5.403
REMARK INTER + INTRA:          -6.072
REMARK INTER:                  -5.938
REMARK INTRA:                  -0.135
REMARK UNBOUND:                -0.128
REMARK SMILES O=C([O-])C=Cc1ccccc1
REMARK SMILES IDX 4 1 5 2 2 3 1 4 3 5 6 6 7 7 11 8 8 9 10 10 9 11
REMARK H PARENT
REMARK Flexibility Score: inf
ROOT
ATOM      1  C   UNL     1      17.219  75.506  72.467  1.00  0.00     0.025 C 
ATOM      2  C   UNL     1      16.575  74.634  71.678  1.00  0.00     0.010 C 
ENDROOT
BRANCH   1   3
ATOM      3  C   UNL     1      18.407  75.116  73.246  1.00  0.00     0.064 C 
ATOM      4  O   UNL     1      18.779  73.914  73.250  1.00  0.00    -0.545 OA
ATOM      5  O   UNL     1      19.125  76.054  73.979  1.00  0.00    -0.545 OA
ENDBRANCH   1   3
BRANCH   2   6
ATOM      6  C   UNL     1      15.370  74.955  70.865  1.00  0.00    -0.026 A 
ATOM      7  C   UNL     1      14.968  74.030  69.882  1.00  0.00     0.008 A 
ATOM      8  C   UNL     1      14.614  76.136  71.029  1.00  0.00     0.008 A 
ATOM      9  C   UNL     1      13.845  74.277  69.086  1.00  0.00     0.001 A 
ATOM     10  C   UNL     1      13.491  76.376  70.229  1.00  0.00     0.001 A 
ATOM     11  C   UNL     1      13.108  75.448  69.260  1.00  0.00     0.000 A 
ENDBRANCH   2   6
TORSDOF 2
ENDMDL
MODEL 3
REMARK VINA RESULT:    -5.060      0.989      1.884
REMARK INTER + INTRA:          -5.780
REMARK INTER:                  -5.649
REMARK INTRA:                  -0.131
REMARK UNBOUND:                -0.128
REMARK SMILES O=C([O-])C=Cc1ccccc1
REMARK SMILES IDX 4 1 5 2 2 3 1 4 3 5 6 6 7 7 11 8 8 9 10 10 9 11
REMARK H PARENT
REMARK Flexibility Score: inf
ROOT
ATOM      1  C   UNL     1      15.783  73.878  69.784  1.00  0.00     0.025 C 
ATOM      2  C   UNL     1      15.501  74.342  71.010  1.00  0.00     0.010 C 
ENDROOT
BRANCH   1   3
ATOM      3  C   UNL     1      14.860  72.989  69.060  1.00  0.00     0.064 C 
ATOM      4  O   UNL     1      13.646  73.306  68.955  1.00  0.00    -0.545 OA
ATOM      5  O   UNL     1      15.305  71.802  68.490  1.00  0.00    -0.545 OA
ENDBRANCH   1   3
BRANCH   2   6
ATOM      6  C   UNL     1      16.384  75.242  71.802  1.00  0.00    -0.026 A 
ATOM      7  C   UNL     1      17.539  74.689  72.387  1.00  0.00     0.008 A 
ATOM      8  C   UNL     1      16.121  76.616  71.996  1.00  0.00     0.008 A 
ATOM      9  C   UNL     1      18.406  75.483  73.144  1.00  0.00     0.001 A 
ATOM     10  C   UNL     1      16.994  77.404  72.753  1.00  0.00     0.001 A 
ATOM     11  C   UNL     1      18.134  76.839  73.326  1.00  0.00     0.000 A 
ENDBRANCH   2   6
TORSDOF 2
ENDMDL
MODEL 4
REMARK VINA RESULT:    -4.941      3.177      5.290
REMARK INTER + INTRA:          -5.647
REMARK INTER:                  -5.512
REMARK INTRA:                  -0.135
REMARK UNBOUND:                -0.128
REMARK SMILES O=C([O-])C=Cc1ccccc1
REMARK SMILES IDX 4 1 5 2 2 3 1 4 3 5 6 6 7 7 11 8 8 9 10 10 9 11
REMARK H PARENT
REMARK Flexibility Score: inf
ROOT
ATOM      1  C   UNL     1      17.234  75.932  72.444  1.00  0.00     0.025 C 
ATOM      2  C   UNL     1      16.252  76.501  71.730  1.00  0.00     0.010 C 
ENDROOT
BRANCH   1   3
ATOM      3  C   UNL     1      18.154  76.732  73.270  1.00  0.00     0.064 C 
ATOM      4  O   UNL     1      18.063  77.987  73.264  1.00  0.00    -0.545 OA
ATOM      5  O   UNL     1      19.125  76.124  74.058  1.00  0.00    -0.545 OA
ENDBRANCH   1   3
BRANCH   2   6
ATOM      6  C   UNL     1      15.287  75.760  70.872  1.00  0.00    -0.026 A 
ATOM      7  C   UNL     1      14.109  76.421  70.475  1.00  0.00     0.008 A 
ATOM      8  C   UNL     1      15.493  74.431  70.440  1.00  0.00     0.008 A 
ATOM      9  C   UNL     1      13.164  75.776  69.671  1.00  0.00     0.001 A 
ATOM     10  C   UNL     1      14.544  73.792  69.635  1.00  0.00     0.001 A 
ATOM     11  C   UNL     1      13.382  74.463  69.252  1.00  0.00     0.000 A 
ENDBRANCH   2   6
TORSDOF 2
ENDMDL
MODEL 5
REMARK VINA RESULT:    -4.737     18.602     20.206
REMARK INTER + INTRA:          -5.420
REMARK INTER:                  -5.287
REMARK INTRA:                  -0.132
REMARK UNBOUND:                -0.128
REMARK SMILES O=C([O-])C=Cc1ccccc1
REMARK SMILES IDX 4 1 5 2 2 3 1 4 3 5 6 6 7 7 11 8 8 9 10 10 9 11
REMARK H PARENT
REMARK Flexibility Score: inf
ROOT
ATOM      1  C   UNL     1       4.502  85.784  62.479  1.00  0.00     0.025 C 
ATOM      2  C   UNL     1       3.735  86.883  62.437  1.00  0.00     0.010 C 
ENDROOT
BRANCH   1   3
ATOM      3  C   UNL     1       4.234  84.687  63.424  1.00  0.00     0.064 C 
ATOM      4  O   UNL     1       4.129  84.938  64.653  1.00  0.00    -0.545 OA
ATOM      5  O   UNL     1       4.095  83.376  62.983  1.00  0.00    -0.545 OA
ENDBRANCH   1   3
BRANCH   2   6
ATOM      6  C   UNL     1       3.945  88.030  61.511  1.00  0.00    -0.026 A 
ATOM      7  C   UNL     1       3.280  89.238  61.792  1.00  0.00     0.008 A 
ATOM      8  C   UNL     1       4.775  87.966  60.371  1.00  0.00     0.008 A 
ATOM      9  C   UNL     1       3.437  90.351  60.959  1.00  0.00     0.001 A 
ATOM     10  C   UNL     1       4.928  89.083  59.542  1.00  0.00     0.001 A 
ATOM     11  C   UNL     1       4.260  90.273  59.836  1.00  0.00     0.000 A 
ENDBRANCH   2   6
TORSDOF 2
ENDMDL
MODEL 6
REMARK VINA RESULT:    -4.697     18.547     20.201
REMARK INTER + INTRA:          -5.375
REMARK INTER:                  -5.234
REMARK INTRA:                  -0.141
REMARK UNBOUND:                -0.128
REMARK SMILES O=C([O-])C=Cc1ccccc1
REMARK SMILES IDX 4 1 5 2 2 3 1 4 3 5 6 6 7 7 11 8 8 9 10 10 9 11
REMARK H PARENT
REMARK Flexibility Score: inf
ROOT
ATOM      1  C   UNL     1       4.540  85.754  62.482  1.00  0.00     0.025 C 
ATOM      2  C   UNL     1       3.655  86.752  62.343  1.00  0.00     0.010 C 
ENDROOT
BRANCH   1   3
ATOM      3  C   UNL     1       4.246  84.567  63.302  1.00  0.00     0.064 C 
ATOM      4  O   UNL     1       4.032  83.461  62.740  1.00  0.00    -0.545 OA
ATOM      5  O   UNL     1       4.199  84.646  64.690  1.00  0.00    -0.545 OA
ENDBRANCH   1   3
BRANCH   2   6
ATOM      6  C   UNL     1       3.883  87.981  61.533  1.00  0.00    -0.026 A 
ATOM      7  C   UNL     1       4.734  87.891  60.417  1.00  0.00     0.008 A 
ATOM      8  C   UNL     1       3.289  89.228  61.831  1.00  0.00     0.008 A 
ATOM      9  C   UNL     1       4.987  89.011  59.619  1.00  0.00     0.001 A 
ATOM     10  C   UNL     1       3.546  90.344  61.028  1.00  0.00     0.001 A 
ATOM     11  C   UNL     1       4.394  90.236  59.924  1.00  0.00     0.000 A 
ENDBRANCH   2   6
TORSDOF 2
ENDMDL
MODEL 7
REMARK VINA RESULT:    -4.454     11.940     13.426
REMARK INTER + INTRA:          -5.103
REMARK INTER:                  -4.958
REMARK INTRA:                  -0.145
REMARK UNBOUND:                -0.128
REMARK SMILES O=C([O-])C=Cc1ccccc1
REMARK SMILES IDX 4 1 5 2 2 3 1 4 3 5 6 6 7 7 11 8 8 9 10 10 9 11
REMARK H PARENT
REMARK Flexibility Score: inf
ROOT
ATOM      1  C   UNL     1       2.700  75.163  68.315  1.00  0.00     0.025 C 
ATOM      2  C   UNL     1       3.049  76.455  68.401  1.00  0.00     0.010 C 
ENDROOT
BRANCH   1   3
ATOM      3  C   UNL     1       1.359  74.696  68.703  1.00  0.00     0.064 C 
ATOM      4  O   UNL     1       1.042  73.492  68.514  1.00  0.00    -0.545 OA
ATOM      5  O   UNL     1       0.433  75.562  69.273  1.00  0.00    -0.545 OA
ENDBRANCH   1   3
BRANCH   2   6
ATOM      6  C   UNL     1       4.385  77.000  68.029  1.00  0.00    -0.026 A 
ATOM      7  C   UNL     1       5.197  76.234  67.172  1.00  0.00     0.008 A 
ATOM      8  C   UNL     1       4.874  78.240  68.494  1.00  0.00     0.008 A 
ATOM      9  C   UNL     1       6.462  76.692  66.789  1.00  0.00     0.001 A 
ATOM     10  C   UNL     1       6.139  78.692  68.106  1.00  0.00     0.001 A 
ATOM     11  C   UNL     1       6.932  77.920  67.256  1.00  0.00     0.000 A 
ENDBRANCH   2   6
TORSDOF 2
ENDMDL
MODEL 8
REMARK VINA RESULT:    -4.430     11.368     12.578
REMARK INTER + INTRA:          -5.076
REMARK INTER:                  -4.933
REMARK INTRA:                  -0.143
REMARK UNBOUND:                -0.128
REMARK SMILES O=C([O-])C=Cc1ccccc1
REMARK SMILES IDX 4 1 5 2 2 3 1 4 3 5 6 6 7 7 11 8 8 9 10 10 9 11
REMARK H PARENT
REMARK Flexibility Score: inf
ROOT
ATOM      1  C   UNL     1       8.252  78.760  63.565  1.00  0.00     0.025 C 
ATOM      2  C   UNL     1       7.021  78.321  63.869  1.00  0.00     0.010 C 
ENDROOT
BRANCH   1   3
ATOM      3  C   UNL     1       8.557  79.364  62.257  1.00  0.00     0.064 C 
ATOM      4  O   UNL     1       8.045  78.880  61.214  1.00  0.00    -0.545 OA
ATOM      5  O   UNL     1       9.405  80.461  62.153  1.00  0.00    -0.545 OA
ENDBRANCH   1   3
BRANCH   2   6
ATOM      6  C   UNL     1       6.639  77.699  65.167  1.00  0.00    -0.026 A 
ATOM      7  C   UNL     1       7.329  78.104  66.325  1.00  0.00     0.008 A 
ATOM      8  C   UNL     1       5.623  76.726  65.292  1.00  0.00     0.008 A 
ATOM      9  C   UNL     1       7.015  77.555  67.572  1.00  0.00     0.001 A 
ATOM     10  C   UNL     1       5.315  76.181  66.543  1.00  0.00     0.001 A 
ATOM     11  C   UNL     1       6.009  76.595  67.680  1.00  0.00     0.000 A 
ENDBRANCH   2   6
TORSDOF 2
ENDMDL
MODEL 9
REMARK VINA RESULT:    -4.293     11.112     12.982
REMARK INTER + INTRA:          -4.924
REMARK INTER:                  -4.779
REMARK INTRA:                  -0.145
REMARK UNBOUND:                -0.128
REMARK SMILES O=C([O-])C=Cc1ccccc1
REMARK SMILES IDX 4 1 5 2 2 3 1 4 3 5 6 6 7 7 11 8 8 9 10 10 9 11
REMARK H PARENT
REMARK Flexibility Score: inf
ROOT
ATOM      1  C   UNL     1       6.821  77.350  66.635  1.00  0.00     0.025 C 
ATOM      2  C   UNL     1       6.037  77.457  65.552  1.00  0.00     0.010 C 
ENDROOT
BRANCH   1   3
ATOM      3  C   UNL     1       6.371  76.652  67.851  1.00  0.00     0.064 C 
ATOM      4  O   UNL     1       7.101  75.764  68.363  1.00  0.00    -0.545 OA
ATOM      5  O   UNL     1       5.151  76.956  68.445  1.00  0.00    -0.545 OA
ENDBRANCH   1   3
BRANCH   2   6
ATOM      6  C   UNL     1       6.422  78.147  64.290  1.00  0.00    -0.026 A 
ATOM      7  C   UNL     1       7.779  78.468  64.098  1.00  0.00     0.008 A 
ATOM      8  C   UNL     1       5.497  78.496  63.282  1.00  0.00     0.008 A 
ATOM      9  C   UNL     1       8.201  79.118  62.934  1.00  0.00     0.001 A 
ATOM     10  C   UNL     1       5.927  79.146  62.120  1.00  0.00     0.001 A 
ATOM     11  C   UNL     1       7.276  79.456  61.947  1.00  0.00     0.000 A 
ENDBRANCH   2   6
TORSDOF 2
ENDMDL
