MODEL 1
REMARK VINA RESULT:    -6.923      0.000      0.000
REMARK INTER + INTRA:          -8.764
REMARK INTER:                  -8.542
REMARK INTRA:                  -0.221
REMARK UNBOUND:                -0.221
REMARK SMILES [NH3+][C@H](Cc1ccc(O)cc1)C(=O)[O-]
REMARK SMILES IDX 3 1 2 2 1 3 11 7 12 8 13 9 4 10 5 11 10 12 6 13 9 14 7 15
REMARK SMILES IDX 8 16
REMARK H PARENT 1 4 1 5 1 6 8 17
REMARK Flexibility Score: inf
ROOT
ATOM      1  C   UNL     1      11.550  -3.341  16.375  1.00  0.00     0.107 C 
ENDROOT
BRANCH   1   2
ATOM      2  C   UNL     1      10.842  -2.000  16.084  1.00  0.00     0.232 C 
BRANCH   2   3
ATOM      3  N   UNL     1       9.626  -1.874  16.896  1.00  0.00    -0.350 N 
ATOM      4  H   UNL     1       9.268  -2.817  17.176  1.00  0.00     0.345 HD
ATOM      5  H   UNL     1       9.830  -1.314  17.756  1.00  0.00     0.345 HD
ATOM      6  H   UNL     1       8.886  -1.376  16.351  1.00  0.00     0.345 HD
ENDBRANCH   2   3
BRANCH   2   7
ATOM      7  C   UNL     1      11.764  -0.835  16.338  1.00  0.00     0.099 C 
ATOM      8  O   UNL     1      12.856  -0.737  15.719  1.00  0.00    -0.544 OA
ATOM      9  O   UNL     1      11.398   0.153  17.243  1.00  0.00    -0.544 OA
ENDBRANCH   2   7
ENDBRANCH   1   2
BRANCH   1  10
ATOM     10  C   UNL     1      11.823  -4.114  15.109  1.00  0.00    -0.041 A 
ATOM     11  C   UNL     1      10.882  -4.129  14.066  1.00  0.00     0.008 A 
ATOM     12  C   UNL     1      13.003  -4.863  14.981  1.00  0.00     0.008 A 
ATOM     13  C   UNL     1      11.126  -4.871  12.906  1.00  0.00     0.046 A 
ATOM     14  C   UNL     1      13.246  -5.604  13.820  1.00  0.00     0.046 A 
ATOM     15  C   UNL     1      12.308  -5.610  12.779  1.00  0.00     0.115 A 
BRANCH  15  16
ATOM     16  O   UNL     1      12.538  -6.345  11.618  1.00  0.00    -0.508 OA
ATOM     17  H   UNL     1      12.860  -5.901  10.767  1.00  0.00     0.293 HD
ENDBRANCH  15  16
ENDBRANCH   1  10
TORSDOF 5
ENDMDL
MODEL 2
REMARK VINA RESULT:    -6.919      0.051      1.345
REMARK INTER + INTRA:          -8.759
REMARK INTER:                  -8.534
REMARK INTRA:                  -0.224
REMARK UNBOUND:                -0.221
REMARK SMILES [NH3+][C@H](Cc1ccc(O)cc1)C(=O)[O-]
REMARK SMILES IDX 3 1 2 2 1 3 11 7 12 8 13 9 4 10 5 11 10 12 6 13 9 14 7 15
REMARK SMILES IDX 8 16
REMARK H PARENT 1 4 1 5 1 6 8 17
REMARK Flexibility Score: inf
ROOT
ATOM      1  C   UNL     1      11.563  -3.371  16.402  1.00  0.00     0.107 C 
ENDROOT
BRANCH   1   2
ATOM      2  C   UNL     1      10.873  -2.026  16.092  1.00  0.00     0.232 C 
BRANCH   2   3
ATOM      3  N   UNL     1       9.654  -1.876  16.896  1.00  0.00    -0.350 N 
ATOM      4  H   UNL     1       9.707  -2.461  17.762  1.00  0.00     0.345 HD
ATOM      5  H   UNL     1       9.528  -0.872  17.166  1.00  0.00     0.345 HD
ATOM      6  H   UNL     1       8.822  -2.170  16.336  1.00  0.00     0.345 HD
ENDBRANCH   2   3
BRANCH   2   7
ATOM      7  C   UNL     1      11.807  -0.868  16.337  1.00  0.00     0.099 C 
ATOM      8  O   UNL     1      12.871  -0.754  15.673  1.00  0.00    -0.544 OA
ATOM      9  O   UNL     1      11.483   0.095  17.283  1.00  0.00    -0.544 OA
ENDBRANCH   2   7
ENDBRANCH   1   2
BRANCH   1  10
ATOM     10  C   UNL     1      11.813  -4.173  15.149  1.00  0.00    -0.041 A 
ATOM     11  C   UNL     1      12.999  -4.910  15.000  1.00  0.00     0.008 A 
ATOM     12  C   UNL     1      10.878  -4.154  14.102  1.00  0.00     0.008 A 
ATOM     13  C   UNL     1      13.240  -5.629  13.825  1.00  0.00     0.046 A 
ATOM     14  C   UNL     1      11.120  -4.874  12.928  1.00  0.00     0.046 A 
ATOM     15  C   UNL     1      12.302  -5.613  12.786  1.00  0.00     0.115 A 
BRANCH  15  16
ATOM     16  O   UNL     1      12.555  -6.333  11.621  1.00  0.00    -0.508 OA
ATOM     17  H   UNL     1      11.802  -6.703  11.053  1.00  0.00     0.293 HD
ENDBRANCH  15  16
ENDBRANCH   1  10
TORSDOF 5
ENDMDL
MODEL 3
REMARK VINA RESULT:    -6.887      2.391      5.579
REMARK INTER + INTRA:          -8.718
REMARK INTER:                  -8.554
REMARK INTRA:                  -0.164
REMARK UNBOUND:                -0.221
REMARK SMILES [NH3+][C@H](Cc1ccc(O)cc1)C(=O)[O-]
REMARK SMILES IDX 3 1 2 2 1 3 11 7 12 8 13 9 4 10 5 11 10 12 6 13 9 14 7 15
REMARK SMILES IDX 8 16
REMARK H PARENT 1 4 1 5 1 6 8 17
REMARK Flexibility Score: inf
ROOT
ATOM      1  C   UNL     1      12.619  -2.201  14.938  1.00  0.00     0.107 C 
ENDROOT
BRANCH   1   2
ATOM      2  C   UNL     1      12.020  -3.509  14.378  1.00  0.00     0.232 C 
BRANCH   2   3
ATOM      3  N   UNL     1      11.821  -3.404  12.928  1.00  0.00    -0.350 N 
ATOM      4  H   UNL     1      11.178  -2.611  12.698  1.00  0.00     0.345 HD
ATOM      5  H   UNL     1      12.742  -3.249  12.454  1.00  0.00     0.345 HD
ATOM      6  H   UNL     1      11.412  -4.293  12.561  1.00  0.00     0.345 HD
ENDBRANCH   2   3
BRANCH   2   7
ATOM      7  C   UNL     1      12.899  -4.690  14.702  1.00  0.00     0.099 C 
ATOM      8  O   UNL     1      13.176  -4.971  15.898  1.00  0.00    -0.544 OA
ATOM      9  O   UNL     1      13.389  -5.490  13.678  1.00  0.00    -0.544 OA
ENDBRANCH   2   7
ENDBRANCH   1   2
BRANCH   1  10
ATOM     10  C   UNL     1      11.614  -1.432  15.759  1.00  0.00    -0.041 A 
ATOM     11  C   UNL     1      10.253  -1.445  15.413  1.00  0.00     0.008 A 
ATOM     12  C   UNL     1      12.039  -0.661  16.853  1.00  0.00     0.008 A 
ATOM     13  C   UNL     1       9.329  -0.707  16.160  1.00  0.00     0.046 A 
ATOM     14  C   UNL     1      11.114   0.075  17.599  1.00  0.00     0.046 A 
ATOM     15  C   UNL     1       9.756   0.054  17.255  1.00  0.00     0.115 A 
BRANCH  15  16
ATOM     16  O   UNL     1       8.824   0.784  17.989  1.00  0.00    -0.508 OA
ATOM     17  H   UNL     1       8.272   1.518  17.562  1.00  0.00     0.293 HD
ENDBRANCH  15  16
ENDBRANCH   1  10
TORSDOF 5
ENDMDL
MODEL 4
REMARK VINA RESULT:    -6.872      2.398      5.695
REMARK INTER + INTRA:          -8.700
REMARK INTER:                  -8.523
REMARK INTRA:                  -0.177
REMARK UNBOUND:                -0.221
REMARK SMILES [NH3+][C@H](Cc1ccc(O)cc1)C(=O)[O-]
REMARK SMILES IDX 3 1 2 2 1 3 11 7 12 8 13 9 4 10 5 11 10 12 6 13 9 14 7 15
REMARK SMILES IDX 8 16
REMARK H PARENT 1 4 1 5 1 6 8 17
REMARK Flexibility Score: inf
ROOT
ATOM      1  C   UNL     1      12.608  -2.217  14.891  1.00  0.00     0.107 C 
ENDROOT
BRANCH   1   2
ATOM      2  C   UNL     1      11.974  -3.497  14.306  1.00  0.00     0.232 C 
BRANCH   2   3
ATOM      3  N   UNL     1      11.850  -3.389  12.847  1.00  0.00    -0.350 N 
ATOM      4  H   UNL     1      12.126  -4.286  12.384  1.00  0.00     0.345 HD
ATOM      5  H   UNL     1      10.862  -3.158  12.591  1.00  0.00     0.345 HD
ATOM      6  H   UNL     1      12.466  -2.620  12.495  1.00  0.00     0.345 HD
ENDBRANCH   2   3
BRANCH   2   7
ATOM      7  C   UNL     1      12.778  -4.718  14.674  1.00  0.00     0.099 C 
ATOM      8  O   UNL     1      13.023  -4.981  15.881  1.00  0.00    -0.544 OA
ATOM      9  O   UNL     1      13.232  -5.573  13.679  1.00  0.00    -0.544 OA
ENDBRANCH   2   7
ENDBRANCH   1   2
BRANCH   1  10
ATOM     10  C   UNL     1      11.614  -1.418  15.695  1.00  0.00    -0.041 A 
ATOM     11  C   UNL     1      12.024  -0.723  16.845  1.00  0.00     0.008 A 
ATOM     12  C   UNL     1      10.260  -1.398  15.325  1.00  0.00     0.008 A 
ATOM     13  C   UNL     1      11.093  -0.007  17.605  1.00  0.00     0.046 A 
ATOM     14  C   UNL     1       9.332  -0.681  16.086  1.00  0.00     0.046 A 
ATOM     15  C   UNL     1       9.745   0.017  17.228  1.00  0.00     0.115 A 
BRANCH  15  16
ATOM     16  O   UNL     1       8.830   0.734  17.995  1.00  0.00    -0.508 OA
ATOM     17  H   UNL     1       8.250   0.278  18.689  1.00  0.00     0.293 HD
ENDBRANCH  15  16
ENDBRANCH   1  10
TORSDOF 5
ENDMDL
MODEL 5
REMARK VINA RESULT:    -6.504      1.848      2.112
REMARK INTER + INTRA:          -8.246
REMARK INTER:                  -8.079
REMARK INTRA:                  -0.167
REMARK UNBOUND:                -0.221
REMARK SMILES [NH3+][C@H](Cc1ccc(O)cc1)C(=O)[O-]
REMARK SMILES IDX 3 1 2 2 1 3 11 7 12 8 13 9 4 10 5 11 10 12 6 13 9 14 7 15
REMARK SMILES IDX 8 16
REMARK H PARENT 1 4 1 5 1 6 8 17
REMARK Flexibility Score: inf
ROOT
ATOM      1  C   UNL     1      11.581  -1.371  15.218  1.00  0.00     0.107 C 
ENDROOT
BRANCH   1   2
ATOM      2  C   UNL     1      11.478  -1.175  16.745  1.00  0.00     0.232 C 
BRANCH   2   3
ATOM      3  N   UNL     1      12.604  -0.372  17.237  1.00  0.00    -0.350 N 
ATOM      4  H   UNL     1      12.261   0.452  17.784  1.00  0.00     0.345 HD
ATOM      5  H   UNL     1      13.218  -0.959  17.848  1.00  0.00     0.345 HD
ATOM      6  H   UNL     1      13.176  -0.032  16.430  1.00  0.00     0.345 HD
ENDBRANCH   2   3
BRANCH   2   7
ATOM      7  C   UNL     1      10.170  -0.527  17.122  1.00  0.00     0.099 C 
ATOM      8  O   UNL     1       9.116  -0.803  16.490  1.00  0.00    -0.544 OA
ATOM      9  O   UNL     1      10.118   0.361  18.187  1.00  0.00    -0.544 OA
ENDBRANCH   2   7
ENDBRANCH   1   2
BRANCH   1  10
ATOM     10  C   UNL     1      12.038  -2.764  14.863  1.00  0.00    -0.041 A 
ATOM     11  C   UNL     1      11.874  -3.256  13.558  1.00  0.00     0.008 A 
ATOM     12  C   UNL     1      12.592  -3.597  15.848  1.00  0.00     0.008 A 
ATOM     13  C   UNL     1      12.272  -4.559  13.240  1.00  0.00     0.046 A 
ATOM     14  C   UNL     1      12.990  -4.899  15.528  1.00  0.00     0.046 A 
ATOM     15  C   UNL     1      12.831  -5.383  14.223  1.00  0.00     0.115 A 
BRANCH  15  16
ATOM     16  O   UNL     1      13.222  -6.679  13.892  1.00  0.00    -0.508 OA
ATOM     17  H   UNL     1      13.313  -6.974  12.927  1.00  0.00     0.293 HD
ENDBRANCH  15  16
ENDBRANCH   1  10
TORSDOF 5
ENDMDL
MODEL 6
REMARK VINA RESULT:    -6.355      1.932      5.444
REMARK INTER + INTRA:          -8.062
REMARK INTER:                  -7.923
REMARK INTRA:                  -0.139
REMARK UNBOUND:                -0.221
REMARK SMILES [NH3+][C@H](Cc1ccc(O)cc1)C(=O)[O-]
REMARK SMILES IDX 3 1 2 2 1 3 11 7 12 8 13 9 4 10 5 11 10 12 6 13 9 14 7 15
REMARK SMILES IDX 8 16
REMARK H PARENT 1 4 1 5 1 6 8 17
REMARK Flexibility Score: inf
ROOT
ATOM      1  C   UNL     1      11.278  -4.022  15.094  1.00  0.00     0.107 C 
ENDROOT
BRANCH   1   2
ATOM      2  C   UNL     1      12.702  -4.411  14.642  1.00  0.00     0.232 C 
BRANCH   2   3
ATOM      3  N   UNL     1      13.392  -5.156  15.702  1.00  0.00    -0.350 N 
ATOM      4  H   UNL     1      12.840  -6.000  15.982  1.00  0.00     0.345 HD
ATOM      5  H   UNL     1      14.336  -5.457  15.367  1.00  0.00     0.345 HD
ATOM      6  H   UNL     1      13.523  -4.541  16.539  1.00  0.00     0.345 HD
ENDBRANCH   2   3
BRANCH   2   7
ATOM      7  C   UNL     1      12.665  -5.223  13.372  1.00  0.00     0.099 C 
ATOM      8  O   UNL     1      13.616  -5.995  13.079  1.00  0.00    -0.544 OA
ATOM      9  O   UNL     1      11.565  -5.140  12.529  1.00  0.00    -0.544 OA
ENDBRANCH   2   7
ENDBRANCH   1   2
BRANCH   1  10
ATOM     10  C   UNL     1      11.258  -2.682  15.786  1.00  0.00    -0.041 A 
ATOM     11  C   UNL     1      10.110  -2.252  16.471  1.00  0.00     0.008 A 
ATOM     12  C   UNL     1      12.374  -1.834  15.714  1.00  0.00     0.008 A 
ATOM     13  C   UNL     1      10.085  -0.996  17.087  1.00  0.00     0.046 A 
ATOM     14  C   UNL     1      12.348  -0.580  16.331  1.00  0.00     0.046 A 
ATOM     15  C   UNL     1      11.203  -0.157  17.019  1.00  0.00     0.115 A 
BRANCH  15  16
ATOM     16  O   UNL     1      11.164   1.091  17.636  1.00  0.00    -0.508 OA
ATOM     17  H   UNL     1      11.946   1.733  17.581  1.00  0.00     0.293 HD
ENDBRANCH  15  16
ENDBRANCH   1  10
TORSDOF 5
ENDMDL
MODEL 7
REMARK VINA RESULT:    -6.090      2.011      5.639
REMARK INTER + INTRA:          -7.735
REMARK INTER:                  -7.647
REMARK INTRA:                  -0.088
REMARK UNBOUND:                -0.221
REMARK SMILES [NH3+][C@H](Cc1ccc(O)cc1)C(=O)[O-]
REMARK SMILES IDX 3 1 2 2 1 3 11 7 12 8 13 9 4 10 5 11 10 12 6 13 9 14 7 15
REMARK SMILES IDX 8 16
REMARK H PARENT 1 4 1 5 1 6 8 17
REMARK Flexibility Score: inf
ROOT
ATOM      1  C   UNL     1      12.345  -3.516  15.791  1.00  0.00     0.107 C 
ENDROOT
BRANCH   1   2
ATOM      2  C   UNL     1      11.871  -3.889  14.370  1.00  0.00     0.232 C 
BRANCH   2   3
ATOM      3  N   UNL     1      11.903  -2.713  13.492  1.00  0.00    -0.350 N 
ATOM      4  H   UNL     1      11.034  -2.142  13.606  1.00  0.00     0.345 HD
ATOM      5  H   UNL     1      12.736  -2.122  13.721  1.00  0.00     0.345 HD
ATOM      6  H   UNL     1      11.984  -3.018  12.495  1.00  0.00     0.345 HD
ENDBRANCH   2   3
BRANCH   2   7
ATOM      7  C   UNL     1      12.714  -4.997  13.791  1.00  0.00     0.099 C 
ATOM      8  O   UNL     1      13.814  -5.307  14.321  1.00  0.00    -0.544 OA
ATOM      9  O   UNL     1      12.266  -5.700  12.680  1.00  0.00    -0.544 OA
ENDBRANCH   2   7
ENDBRANCH   1   2
BRANCH   1  10
ATOM     10  C   UNL     1      11.631  -2.295  16.316  1.00  0.00    -0.041 A 
ATOM     11  C   UNL     1      12.361  -1.183  16.766  1.00  0.00     0.008 A 
ATOM     12  C   UNL     1      10.230  -2.279  16.399  1.00  0.00     0.008 A 
ATOM     13  C   UNL     1      11.696  -0.064  17.279  1.00  0.00     0.046 A 
ATOM     14  C   UNL     1       9.567  -1.160  16.911  1.00  0.00     0.046 A 
ATOM     15  C   UNL     1      10.298  -0.049  17.352  1.00  0.00     0.115 A 
BRANCH  15  16
ATOM     16  O   UNL     1       9.649   1.072  17.866  1.00  0.00    -0.508 OA
ATOM     17  H   UNL     1      10.166   1.883  18.183  1.00  0.00     0.293 HD
ENDBRANCH  15  16
ENDBRANCH   1  10
TORSDOF 5
ENDMDL
MODEL 8
REMARK VINA RESULT:    -6.045      2.366      5.719
REMARK INTER + INTRA:          -7.680
REMARK INTER:                  -7.613
REMARK INTRA:                  -0.067
REMARK UNBOUND:                -0.221
REMARK SMILES [NH3+][C@H](Cc1ccc(O)cc1)C(=O)[O-]
REMARK SMILES IDX 3 1 2 2 1 3 11 7 12 8 13 9 4 10 5 11 10 12 6 13 9 14 7 15
REMARK SMILES IDX 8 16
REMARK H PARENT 1 4 1 5 1 6 8 17
REMARK Flexibility Score: inf
ROOT
ATOM      1  C   UNL     1      13.737  -5.238  13.663  1.00  0.00     0.107 C 
ENDROOT
BRANCH   1   2
ATOM      2  C   UNL     1      12.831  -6.262  12.947  1.00  0.00     0.232 C 
BRANCH   2   3
ATOM      3  N   UNL     1      11.846  -5.576  12.103  1.00  0.00    -0.350 N 
ATOM      4  H   UNL     1      10.988  -5.339  12.653  1.00  0.00     0.345 HD
ATOM      5  H   UNL     1      12.262  -4.696  11.717  1.00  0.00     0.345 HD
ATOM      6  H   UNL     1      11.578  -6.190  11.300  1.00  0.00     0.345 HD
ENDBRANCH   2   3
BRANCH   2   7
ATOM      7  C   UNL     1      13.646  -7.225  12.122  1.00  0.00     0.099 C 
ATOM      8  O   UNL     1      13.097  -8.211  11.562  1.00  0.00    -0.544 OA
ATOM      9  O   UNL     1      15.008  -7.014  11.956  1.00  0.00    -0.544 OA
ENDBRANCH   2   7
ENDBRANCH   1   2
BRANCH   1  10
ATOM     10  C   UNL     1      12.944  -4.315  14.553  1.00  0.00    -0.041 A 
ATOM     11  C   UNL     1      12.629  -3.014  14.129  1.00  0.00     0.008 A 
ATOM     12  C   UNL     1      12.549  -4.736  15.833  1.00  0.00     0.008 A 
ATOM     13  C   UNL     1      11.918  -2.151  14.970  1.00  0.00     0.046 A 
ATOM     14  C   UNL     1      11.838  -3.873  16.671  1.00  0.00     0.046 A 
ATOM     15  C   UNL     1      11.520  -2.578  16.242  1.00  0.00     0.115 A 
BRANCH  15  16
ATOM     16  O   UNL     1      10.813  -1.708  17.069  1.00  0.00    -0.508 OA
ATOM     17  H   UNL     1       9.887  -1.378  16.821  1.00  0.00     0.293 HD
ENDBRANCH  15  16
ENDBRANCH   1  10
TORSDOF 5
ENDMDL
MODEL 9
REMARK VINA RESULT:    -6.020      2.710      4.062
REMARK INTER + INTRA:          -7.649
REMARK INTER:                  -7.480
REMARK INTRA:                  -0.169
REMARK UNBOUND:                -0.221
REMARK SMILES [NH3+][C@H](Cc1ccc(O)cc1)C(=O)[O-]
REMARK SMILES IDX 3 1 2 2 1 3 11 7 12 8 13 9 4 10 5 11 10 12 6 13 9 14 7 15
REMARK SMILES IDX 8 16
REMARK H PARENT 1 4 1 5 1 6 8 17
REMARK Flexibility Score: inf
ROOT
ATOM      1  C   UNL     1      10.992  -0.142  18.372  1.00  0.00     0.107 C 
ENDROOT
BRANCH   1   2
ATOM      2  C   UNL     1      10.051   0.974  17.870  1.00  0.00     0.232 C 
BRANCH   2   3
ATOM      3  N   UNL     1       8.861   0.396  17.234  1.00  0.00    -0.350 N 
ATOM      4  H   UNL     1       7.996   0.900  17.538  1.00  0.00     0.345 HD
ATOM      5  H   UNL     1       8.949   0.459  16.193  1.00  0.00     0.345 HD
ATOM      6  H   UNL     1       8.776  -0.614  17.493  1.00  0.00     0.345 HD
ENDBRANCH   2   3
BRANCH   2   7
ATOM      7  C   UNL     1       9.649   1.891  18.996  1.00  0.00     0.099 C 
ATOM      8  O   UNL     1       8.956   2.919  18.767  1.00  0.00    -0.544 OA
ATOM      9  O   UNL     1      10.022   1.593  20.300  1.00  0.00    -0.544 OA
ENDBRANCH   2   7
ENDBRANCH   1   2
BRANCH   1  10
ATOM     10  C   UNL     1      11.461  -1.027  17.245  1.00  0.00    -0.041 A 
ATOM     11  C   UNL     1      11.116  -2.388  17.217  1.00  0.00     0.008 A 
ATOM     12  C   UNL     1      12.285  -0.505  16.235  1.00  0.00     0.008 A 
ATOM     13  C   UNL     1      11.577  -3.212  16.184  1.00  0.00     0.046 A 
ATOM     14  C   UNL     1      12.745  -1.330  15.204  1.00  0.00     0.046 A 
ATOM     15  C   UNL     1      12.392  -2.686  15.175  1.00  0.00     0.115 A 
BRANCH  15  16
ATOM     16  O   UNL     1      12.845  -3.518  14.154  1.00  0.00    -0.508 OA
ATOM     17  H   UNL     1      13.196  -4.448  14.347  1.00  0.00     0.293 HD
ENDBRANCH  15  16
ENDBRANCH   1  10
TORSDOF 5
ENDMDL
