MODEL 1
REMARK VINA RESULT:    -3.975      0.000      0.000
REMARK INTER + INTRA:          -4.847
REMARK INTER:                  -4.789
REMARK INTRA:                  -0.058
REMARK UNBOUND:                -0.058
REMARK SMILES CC[C@@H](C)[C@H]([NH3+])C(=O)[O-]
REMARK SMILES IDX 3 1 4 2 5 3 6 4 7 8 8 9 9 10 2 11 1 12
REMARK H PARENT 6 5 6 6 6 7
REMARK Flexibility Score: inf
ROOT
ATOM      1  C   UNL     1      29.616  26.280  22.148  1.00  0.00     0.050 C 
ATOM      2  C   UNL     1      30.098  27.557  21.434  1.00  0.00     0.014 C 
ENDROOT
BRANCH   1   3
ATOM      3  C   UNL     1      28.250  25.756  21.597  1.00  0.00     0.230 C 
BRANCH   3   4
ATOM      4  N   UNL     1      27.895  26.336  20.292  1.00  0.00    -0.350 N 
ATOM      5  H   UNL     1      28.731  26.739  19.813  1.00  0.00     0.345 HD
ATOM      6  H   UNL     1      27.456  25.613  19.680  1.00  0.00     0.345 HD
ATOM      7  H   UNL     1      27.191  27.098  20.428  1.00  0.00     0.345 HD
ENDBRANCH   3   4
BRANCH   3   8
ATOM      8  C   UNL     1      27.141  25.974  22.599  1.00  0.00     0.099 C 
ATOM      9  O   UNL     1      26.780  27.144  22.891  1.00  0.00    -0.544 OA
ATOM     10  O   UNL     1      26.479  24.893  23.171  1.00  0.00    -0.544 OA
ENDBRANCH   3   8
ENDBRANCH   1   3
BRANCH   1  11
ATOM     11  C   UNL     1      30.746  25.223  22.126  1.00  0.00     0.006 C 
ATOM     12  C   UNL     1      31.985  25.637  22.921  1.00  0.00     0.004 C 
ENDBRANCH   1  11
TORSDOF 4
ENDMDL
MODEL 2
REMARK VINA RESULT:    -3.749      1.574      1.766
REMARK INTER + INTRA:          -4.574
REMARK INTER:                  -4.437
REMARK INTRA:                  -0.138
REMARK UNBOUND:                -0.058
REMARK SMILES CC[C@@H](C)[C@H]([NH3+])C(=O)[O-]
REMARK SMILES IDX 3 1 4 2 5 3 6 4 7 8 8 9 9 10 2 11 1 12
REMARK H PARENT 6 5 6 6 6 7
REMARK Flexibility Score: inf
ROOT
ATOM      1  C   UNL     1      29.363  26.269  21.547  1.00  0.00     0.050 C 
ATOM      2  C   UNL     1      29.019  26.250  20.046  1.00  0.00     0.014 C 
ENDROOT
BRANCH   1   3
ATOM      3  C   UNL     1      28.096  26.226  22.461  1.00  0.00     0.230 C 
BRANCH   3   4
ATOM      4  N   UNL     1      26.845  26.456  21.722  1.00  0.00    -0.350 N 
ATOM      5  H   UNL     1      26.009  26.316  22.332  1.00  0.00     0.345 HD
ATOM      6  H   UNL     1      26.830  27.422  21.324  1.00  0.00     0.345 HD
ATOM      7  H   UNL     1      26.785  25.788  20.919  1.00  0.00     0.345 HD
ENDBRANCH   3   4
BRANCH   3   8
ATOM      8  C   UNL     1      28.224  27.195  23.612  1.00  0.00     0.099 C 
ATOM      9  O   UNL     1      29.030  28.159  23.533  1.00  0.00    -0.544 OA
ATOM     10  O   UNL     1      27.426  27.063  24.743  1.00  0.00    -0.544 OA
ENDBRANCH   3   8
ENDBRANCH   1   3
BRANCH   1  11
ATOM     11  C   UNL     1      30.391  25.151  21.851  1.00  0.00     0.006 C 
ATOM     12  C   UNL     1      31.554  25.614  22.730  1.00  0.00     0.004 C 
ENDBRANCH   1  11
TORSDOF 4
ENDMDL
MODEL 3
REMARK VINA RESULT:    -3.593     10.428     11.981
REMARK INTER + INTRA:          -4.387
REMARK INTER:                  -4.387
REMARK INTRA:                   0.000
REMARK UNBOUND:                -0.058
REMARK SMILES CC[C@@H](C)[C@H]([NH3+])C(=O)[O-]
REMARK SMILES IDX 3 1 4 2 5 3 6 4 7 8 8 9 9 10 2 11 1 12
REMARK H PARENT 6 5 6 6 6 7
REMARK Flexibility Score: inf
ROOT
ATOM      1  C   UNL     1      19.888  18.980  22.117  1.00  0.00     0.050 C 
ATOM      2  C   UNL     1      19.611  18.076  20.902  1.00  0.00     0.014 C 
ENDROOT
BRANCH   1   3
ATOM      3  C   UNL     1      19.520  18.300  23.476  1.00  0.00     0.230 C 
BRANCH   3   4
ATOM      4  N   UNL     1      20.095  18.992  24.641  1.00  0.00    -0.350 N 
ATOM      5  H   UNL     1      19.349  19.339  25.284  1.00  0.00     0.345 HD
ATOM      6  H   UNL     1      20.738  18.356  25.161  1.00  0.00     0.345 HD
ATOM      7  H   UNL     1      20.660  19.811  24.317  1.00  0.00     0.345 HD
ENDBRANCH   3   4
BRANCH   3   8
ATOM      8  C   UNL     1      19.911  16.841  23.475  1.00  0.00     0.099 C 
ATOM      9  O   UNL     1      19.027  15.955  23.338  1.00  0.00    -0.544 OA
ATOM     10  O   UNL     1      21.245  16.463  23.579  1.00  0.00    -0.544 OA
ENDBRANCH   3   8
ENDBRANCH   1   3
BRANCH   1  11
ATOM     11  C   UNL     1      21.346  19.495  22.051  1.00  0.00     0.006 C 
ATOM     12  C   UNL     1      21.455  21.021  22.034  1.00  0.00     0.004 C 
ENDBRANCH   1  11
TORSDOF 4
ENDMDL
MODEL 4
REMARK VINA RESULT:    -3.498      7.727      8.742
REMARK INTER + INTRA:          -4.272
REMARK INTER:                  -4.212
REMARK INTRA:                  -0.061
REMARK UNBOUND:                -0.058
REMARK SMILES CC[C@@H](C)[C@H]([NH3+])C(=O)[O-]
REMARK SMILES IDX 3 1 4 2 5 3 6 4 7 8 8 9 9 10 2 11 1 12
REMARK H PARENT 6 5 6 6 6 7
REMARK Flexibility Score: inf
ROOT
ATOM      1  C   UNL     1      22.026  21.424  22.535  1.00  0.00     0.050 C 
ATOM      2  C   UNL     1      23.241  21.095  21.648  1.00  0.00     0.014 C 
ENDROOT
BRANCH   1   3
ATOM      3  C   UNL     1      21.855  22.958  22.785  1.00  0.00     0.230 C 
BRANCH   3   4
ATOM      4  N   UNL     1      23.134  23.687  22.788  1.00  0.00    -0.350 N 
ATOM      5  H   UNL     1      23.120  24.479  23.468  1.00  0.00     0.345 HD
ATOM      6  H   UNL     1      23.921  23.040  23.020  1.00  0.00     0.345 HD
ATOM      7  H   UNL     1      23.319  24.072  21.833  1.00  0.00     0.345 HD
ENDBRANCH   3   4
BRANCH   3   8
ATOM      8  C   UNL     1      21.089  23.218  24.060  1.00  0.00     0.099 C 
ATOM      9  O   UNL     1      21.117  22.373  24.992  1.00  0.00    -0.544 OA
ATOM     10  O   UNL     1      20.386  24.405  24.236  1.00  0.00    -0.544 OA
ENDBRANCH   3   8
ENDBRANCH   1   3
BRANCH   1  11
ATOM     11  C   UNL     1      20.765  20.743  21.951  1.00  0.00     0.006 C 
ATOM     12  C   UNL     1      20.761  19.222  22.115  1.00  0.00     0.004 C 
ENDBRANCH   1  11
TORSDOF 4
ENDMDL
MODEL 5
REMARK VINA RESULT:    -3.405      1.939      2.429
REMARK INTER + INTRA:          -4.160
REMARK INTER:                  -4.102
REMARK INTRA:                  -0.059
REMARK UNBOUND:                -0.058
REMARK SMILES CC[C@@H](C)[C@H]([NH3+])C(=O)[O-]
REMARK SMILES IDX 3 1 4 2 5 3 6 4 7 8 8 9 9 10 2 11 1 12
REMARK H PARENT 6 5 6 6 6 7
REMARK Flexibility Score: inf
ROOT
ATOM      1  C   UNL     1      28.046  26.258  22.855  1.00  0.00     0.050 C 
ATOM      2  C   UNL     1      28.644  27.489  23.562  1.00  0.00     0.014 C 
ENDROOT
BRANCH   1   3
ATOM      3  C   UNL     1      26.497  26.358  22.671  1.00  0.00     0.230 C 
BRANCH   3   4
ATOM      4  N   UNL     1      25.980  27.722  22.867  1.00  0.00    -0.350 N 
ATOM      5  H   UNL     1      25.638  28.133  21.970  1.00  0.00     0.345 HD
ATOM      6  H   UNL     1      25.206  27.721  23.569  1.00  0.00     0.345 HD
ATOM      7  H   UNL     1      26.741  28.333  23.244  1.00  0.00     0.345 HD
ENDBRANCH   3   4
BRANCH   3   8
ATOM      8  C   UNL     1      25.780  25.380  23.571  1.00  0.00     0.099 C 
ATOM      9  O   UNL     1      25.071  24.469  23.069  1.00  0.00    -0.544 OA
ATOM     10  O   UNL     1      25.930  25.446  24.952  1.00  0.00    -0.544 OA
ENDBRANCH   3   8
ENDBRANCH   1   3
BRANCH   1  11
ATOM     11  C   UNL     1      28.816  25.999  21.537  1.00  0.00     0.006 C 
ATOM     12  C   UNL     1      30.141  25.261  21.739  1.00  0.00     0.004 C 
ENDBRANCH   1  11
TORSDOF 4
ENDMDL
MODEL 6
REMARK VINA RESULT:    -3.377      3.093      3.660
REMARK INTER + INTRA:          -4.126
REMARK INTER:                  -3.992
REMARK INTRA:                  -0.135
REMARK UNBOUND:                -0.058
REMARK SMILES CC[C@@H](C)[C@H]([NH3+])C(=O)[O-]
REMARK SMILES IDX 3 1 4 2 5 3 6 4 7 8 8 9 9 10 2 11 1 12
REMARK H PARENT 6 5 6 6 6 7
REMARK Flexibility Score: inf
ROOT
ATOM      1  C   UNL     1      30.004  26.668  21.665  1.00  0.00     0.050 C 
ATOM      2  C   UNL     1      28.563  26.412  21.186  1.00  0.00     0.014 C 
ENDROOT
BRANCH   1   3
ATOM      3  C   UNL     1      30.092  27.790  22.750  1.00  0.00     0.230 C 
BRANCH   3   4
ATOM      4  N   UNL     1      28.777  28.177  23.286  1.00  0.00    -0.350 N 
ATOM      5  H   UNL     1      28.553  27.654  24.162  1.00  0.00     0.345 HD
ATOM      6  H   UNL     1      28.750  29.204  23.476  1.00  0.00     0.345 HD
ATOM      7  H   UNL     1      28.036  27.972  22.577  1.00  0.00     0.345 HD
ENDBRANCH   3   4
BRANCH   3   8
ATOM      8  C   UNL     1      30.832  28.996  22.224  1.00  0.00     0.099 C 
ATOM      9  O   UNL     1      30.463  30.153  22.557  1.00  0.00    -0.544 OA
ATOM     10  O   UNL     1      31.949  28.845  21.410  1.00  0.00    -0.544 OA
ENDBRANCH   3   8
ENDBRANCH   1   3
BRANCH   1  11
ATOM     11  C   UNL     1      30.646  25.328  22.098  1.00  0.00     0.006 C 
ATOM     12  C   UNL     1      31.894  25.502  22.966  1.00  0.00     0.004 C 
ENDBRANCH   1  11
TORSDOF 4
ENDMDL
MODEL 7
REMARK VINA RESULT:    -3.349      2.182      3.096
REMARK INTER + INTRA:          -4.093
REMARK INTER:                  -4.114
REMARK INTRA:                   0.022
REMARK UNBOUND:                -0.058
REMARK SMILES CC[C@@H](C)[C@H]([NH3+])C(=O)[O-]
REMARK SMILES IDX 3 1 4 2 5 3 6 4 7 8 8 9 9 10 2 11 1 12
REMARK H PARENT 6 5 6 6 6 7
REMARK Flexibility Score: inf
ROOT
ATOM      1  C   UNL     1      29.073  25.754  21.631  1.00  0.00     0.050 C 
ATOM      2  C   UNL     1      30.499  25.345  22.043  1.00  0.00     0.014 C 
ENDROOT
BRANCH   1   3
ATOM      3  C   UNL     1      28.296  26.480  22.777  1.00  0.00     0.230 C 
BRANCH   3   4
ATOM      4  N   UNL     1      27.073  27.152  22.308  1.00  0.00    -0.350 N 
ATOM      5  H   UNL     1      26.921  26.998  21.286  1.00  0.00     0.345 HD
ATOM      6  H   UNL     1      26.243  26.811  22.841  1.00  0.00     0.345 HD
ATOM      7  H   UNL     1      27.152  28.181  22.480  1.00  0.00     0.345 HD
ENDBRANCH   3   4
BRANCH   3   8
ATOM      8  C   UNL     1      29.191  27.450  23.510  1.00  0.00     0.099 C 
ATOM      9  O   UNL     1      29.496  27.236  24.713  1.00  0.00    -0.544 OA
ATOM     10  O   UNL     1      29.724  28.556  22.857  1.00  0.00    -0.544 OA
ENDBRANCH   3   8
ENDBRANCH   1   3
BRANCH   1  11
ATOM     11  C   UNL     1      29.131  26.558  20.309  1.00  0.00     0.006 C 
ATOM     12  C   UNL     1      29.135  25.676  19.059  1.00  0.00     0.004 C 
ENDBRANCH   1  11
TORSDOF 4
ENDMDL
MODEL 8
REMARK VINA RESULT:    -3.279      2.991      3.865
REMARK INTER + INTRA:          -4.008
REMARK INTER:                  -3.921
REMARK INTRA:                  -0.087
REMARK UNBOUND:                -0.058
REMARK SMILES CC[C@@H](C)[C@H]([NH3+])C(=O)[O-]
REMARK SMILES IDX 3 1 4 2 5 3 6 4 7 8 8 9 9 10 2 11 1 12
REMARK H PARENT 6 5 6 6 6 7
REMARK Flexibility Score: inf
ROOT
ATOM      1  C   UNL     1      29.322  25.978  22.282  1.00  0.00     0.050 C 
ATOM      2  C   UNL     1      30.489  25.122  21.756  1.00  0.00     0.014 C 
ENDROOT
BRANCH   1   3
ATOM      3  C   UNL     1      29.800  27.215  23.109  1.00  0.00     0.230 C 
BRANCH   3   4
ATOM      4  N   UNL     1      28.729  28.193  23.354  1.00  0.00    -0.350 N 
ATOM      5  H   UNL     1      28.654  28.881  22.572  1.00  0.00     0.345 HD
ATOM      6  H   UNL     1      27.814  27.707  23.480  1.00  0.00     0.345 HD
ATOM      7  H   UNL     1      28.928  28.716  24.238  1.00  0.00     0.345 HD
ENDBRANCH   3   4
BRANCH   3   8
ATOM      8  C   UNL     1      30.990  27.876  22.456  1.00  0.00     0.099 C 
ATOM      9  O   UNL     1      30.823  28.619  21.453  1.00  0.00    -0.544 OA
ATOM     10  O   UNL     1      32.269  27.712  22.977  1.00  0.00    -0.544 OA
ENDBRANCH   3   8
ENDBRANCH   1   3
BRANCH   1  11
ATOM     11  C   UNL     1      28.381  26.338  21.107  1.00  0.00     0.006 C 
ATOM     12  C   UNL     1      28.999  26.085  19.730  1.00  0.00     0.004 C 
ENDBRANCH   1  11
TORSDOF 4
ENDMDL
MODEL 9
REMARK VINA RESULT:    -3.250      2.388      3.736
REMARK INTER + INTRA:          -3.973
REMARK INTER:                  -3.870
REMARK INTRA:                  -0.103
REMARK UNBOUND:                -0.058
REMARK SMILES CC[C@@H](C)[C@H]([NH3+])C(=O)[O-]
REMARK SMILES IDX 3 1 4 2 5 3 6 4 7 8 8 9 9 10 2 11 1 12
REMARK H PARENT 6 5 6 6 6 7
REMARK Flexibility Score: inf
ROOT
ATOM      1  C   UNL     1      27.697  26.326  23.126  1.00  0.00     0.050 C 
ATOM      2  C   UNL     1      26.667  25.209  22.874  1.00  0.00     0.014 C 
ENDROOT
BRANCH   1   3
ATOM      3  C   UNL     1      28.468  26.744  21.832  1.00  0.00     0.230 C 
BRANCH   3   4
ATOM      4  N   UNL     1      27.805  26.297  20.597  1.00  0.00    -0.350 N 
ATOM      5  H   UNL     1      28.333  25.521  20.140  1.00  0.00     0.345 HD
ATOM      6  H   UNL     1      26.829  25.984  20.800  1.00  0.00     0.345 HD
ATOM      7  H   UNL     1      27.742  27.096  19.925  1.00  0.00     0.345 HD
ENDBRANCH   3   4
BRANCH   3   8
ATOM      8  C   UNL     1      29.899  26.264  21.875  1.00  0.00     0.099 C 
ATOM      9  O   UNL     1      30.162  25.055  21.644  1.00  0.00    -0.544 OA
ATOM     10  O   UNL     1      30.939  27.154  22.122  1.00  0.00    -0.544 OA
ENDBRANCH   3   8
ENDBRANCH   1   3
BRANCH   1  11
ATOM     11  C   UNL     1      27.005  27.507  23.850  1.00  0.00     0.006 C 
ATOM     12  C   UNL     1      27.984  28.446  24.558  1.00  0.00     0.004 C 
ENDBRANCH   1  11
TORSDOF 4
ENDMDL
