MODEL 1
REMARK VINA RESULT:    -5.880      0.000      0.000
REMARK INTER + INTRA:          -7.509
REMARK INTER:                  -6.740
REMARK INTRA:                  -0.770
REMARK UNBOUND:                -0.770
REMARK SMILES C=C(C)[C@@H]1CC[C@@]2(C(=O)[O-])CC[C@]3(C)[C@@H](CC[C@H]4[C@@]5(C)CC[C@@H](O)C(C)(C)[C@H]5CC[C@]43C)[C@@H]12
REMARK SMILES IDX 7 1 6 2 33 3 11 4 5 5 15 6 4 7 12 8 16 9 13 10 17 11 31 12
REMARK SMILES IDX 14 13 18 14 30 15 32 16 19 17 29 18 21 19 20 20 28 21 22 22
REMARK SMILES IDX 25 23 23 24 26 25 27 26 8 27 9 28 10 29 2 30 3 31 1 32 24 33
REMARK H PARENT 24 34
REMARK Flexibility Score: inf
ROOT
ATOM      1  C   UNL     1      19.388  30.423  29.706  1.00  0.00     0.014 C 
ATOM      2  C   UNL     1      20.382  29.939  28.624  1.00  0.00     0.014 C 
ATOM      3  C   UNL     1      19.338  29.233  30.711  1.00  0.00     0.012 C 
ATOM      4  C   UNL     1      18.014  30.848  29.103  1.00  0.00     0.014 C 
ATOM      5  C   UNL     1      21.319  28.920  29.287  1.00  0.00     0.009 C 
ATOM      6  C   UNL     1      18.219  28.154  30.423  1.00  0.00     0.000 C 
ATOM      7  C   UNL     1      20.776  28.652  30.705  1.00  0.00     0.018 C 
ATOM      8  C   UNL     1      16.929  29.766  28.980  1.00  0.00     0.008 C 
ATOM      9  C   UNL     1      18.547  27.185  29.270  1.00  0.00     0.005 C 
ATOM     10  C   UNL     1      16.806  28.799  30.209  1.00  0.00    -0.024 C 
ATOM     11  C   UNL     1      17.521  26.077  29.169  1.00  0.00     0.005 C 
ATOM     12  C   UNL     1      15.646  27.679  29.954  1.00  0.00    -0.024 C 
ATOM     13  C   UNL     1      16.472  29.646  31.490  1.00  0.00     0.012 C 
ATOM     14  C   UNL     1      16.077  26.572  28.895  1.00  0.00     0.002 C 
ATOM     15  C   UNL     1      15.311  26.927  31.276  1.00  0.00     0.008 C 
ATOM     16  C   UNL     1      14.359  28.427  29.454  1.00  0.00     0.012 C 
ATOM     17  C   UNL     1      15.025  25.359  28.678  1.00  0.00    -0.026 C 
ATOM     18  C   UNL     1      14.226  25.846  31.167  1.00  0.00     0.005 C 
ATOM     19  C   UNL     1      15.674  24.171  27.877  1.00  0.00     0.010 C 
ATOM     20  C   UNL     1      13.875  25.885  27.745  1.00  0.00     0.012 C 
ATOM     21  C   UNL     1      14.372  24.796  30.022  1.00  0.00     0.003 C 
ATOM     22  C   UNL     1      14.848  22.883  27.898  1.00  0.00     0.033 C 
ATOM     23  C   UNL     1      14.815  23.343  30.499  1.00  0.00    -0.006 C 
ATOM     24  C   UNL     1      14.666  22.306  29.318  1.00  0.00     0.120 C 
ATOM     25  C   UNL     1      13.875  22.832  31.637  1.00  0.00     0.014 C 
ATOM     26  C   UNL     1      16.250  23.328  31.087  1.00  0.00     0.014 C 
ENDROOT
BRANCH   1  27
ATOM     27  C   UNL     1      19.949  31.677  30.381  1.00  0.00     0.048 C 
ATOM     28  O   UNL     1      20.913  32.308  29.868  1.00  0.00    -0.550 OA
ATOM     29  O   UNL     1      19.506  32.060  31.643  1.00  0.00    -0.550 OA
ENDBRANCH   1  27
BRANCH   7  30
ATOM     30  C   UNL     1      21.628  29.212  31.852  1.00  0.00    -0.077 C 
ATOM     31  C   UNL     1      23.061  29.580  31.563  1.00  0.00     0.039 C 
ATOM     32  C   UNL     1      21.191  29.334  33.118  1.00  0.00     0.008 C 
ENDBRANCH   7  30
BRANCH  24  33
ATOM     33  O   UNL     1      15.539  21.217  29.507  1.00  0.00    -0.393 OA
ATOM     34  H   UNL     1      16.457  21.586  29.593  1.00  0.00     0.210 HD
ENDBRANCH  24  33
TORSDOF 3
ENDMDL
MODEL 2
REMARK VINA RESULT:    -5.258      3.258      8.992
REMARK INTER + INTRA:          -6.797
REMARK INTER:                  -6.354
REMARK INTRA:                  -0.443
REMARK UNBOUND:                -0.770
REMARK SMILES C=C(C)[C@@H]1CC[C@@]2(C(=O)[O-])CC[C@]3(C)[C@@H](CC[C@H]4[C@@]5(C)CC[C@@H](O)C(C)(C)[C@H]5CC[C@]43C)[C@@H]12
REMARK SMILES IDX 7 1 6 2 33 3 11 4 5 5 15 6 4 7 12 8 16 9 13 10 17 11 31 12
REMARK SMILES IDX 14 13 18 14 30 15 32 16 19 17 29 18 21 19 20 20 28 21 22 22
REMARK SMILES IDX 25 23 23 24 26 25 27 26 8 27 9 28 10 29 2 30 3 31 1 32 24 33
REMARK H PARENT 24 34
REMARK Flexibility Score: inf
ROOT
ATOM      1  C   UNL     1      17.181  30.634  31.213  1.00  0.00     0.014 C 
ATOM      2  C   UNL     1      17.119  29.601  32.363  1.00  0.00     0.014 C 
ATOM      3  C   UNL     1      18.267  30.050  30.259  1.00  0.00     0.012 C 
ATOM      4  C   UNL     1      17.451  32.081  31.728  1.00  0.00     0.014 C 
ATOM      5  C   UNL     1      17.581  28.252  31.792  1.00  0.00     0.009 C 
ATOM      6  C   UNL     1      19.744  30.542  30.537  1.00  0.00     0.000 C 
ATOM      7  C   UNL     1      18.095  28.513  30.361  1.00  0.00     0.018 C 
ATOM      8  C   UNL     1      18.916  32.530  31.844  1.00  0.00     0.008 C 
ATOM      9  C   UNL     1      20.424  29.869  31.746  1.00  0.00     0.005 C 
ATOM     10  C   UNL     1      19.843  32.102  30.653  1.00  0.00    -0.024 C 
ATOM     11  C   UNL     1      21.884  30.253  31.845  1.00  0.00     0.005 C 
ATOM     12  C   UNL     1      21.376  32.608  30.899  1.00  0.00    -0.024 C 
ATOM     13  C   UNL     1      19.275  32.714  29.321  1.00  0.00     0.012 C 
ATOM     14  C   UNL     1      22.130  31.774  32.025  1.00  0.00     0.002 C 
ATOM     15  C   UNL     1      22.216  32.462  29.596  1.00  0.00     0.008 C 
ATOM     16  C   UNL     1      21.321  34.125  31.301  1.00  0.00     0.012 C 
ATOM     17  C   UNL     1      23.694  32.139  32.241  1.00  0.00    -0.026 C 
ATOM     18  C   UNL     1      23.681  32.911  29.698  1.00  0.00     0.005 C 
ATOM     19  C   UNL     1      24.420  31.057  33.125  1.00  0.00     0.010 C 
ATOM     20  C   UNL     1      23.763  33.457  33.093  1.00  0.00     0.012 C 
ATOM     21  C   UNL     1      24.519  32.360  30.893  1.00  0.00     0.003 C 
ATOM     22  C   UNL     1      25.945  31.173  33.119  1.00  0.00     0.033 C 
ATOM     23  C   UNL     1      25.594  31.252  30.501  1.00  0.00    -0.006 C 
ATOM     24  C   UNL     1      26.560  30.969  31.717  1.00  0.00     0.120 C 
ATOM     25  C   UNL     1      26.507  31.764  29.342  1.00  0.00     0.014 C 
ATOM     26  C   UNL     1      24.935  29.946  29.986  1.00  0.00     0.014 C 
ENDROOT
BRANCH   1  27
ATOM     27  C   UNL     1      15.821  30.691  30.513  1.00  0.00     0.048 C 
ATOM     28  O   UNL     1      15.695  31.264  29.397  1.00  0.00    -0.550 OA
ATOM     29  O   UNL     1      14.673  30.242  31.158  1.00  0.00    -0.550 OA
ENDBRANCH   1  27
BRANCH   7  30
ATOM     30  C   UNL     1      17.215  27.955  29.235  1.00  0.00    -0.077 C 
ATOM     31  C   UNL     1      15.808  27.530  29.571  1.00  0.00     0.039 C 
ATOM     32  C   UNL     1      17.646  27.762  27.975  1.00  0.00     0.008 C 
ENDBRANCH   7  30
BRANCH  24  33
ATOM     33  O   UNL     1      27.107  29.674  31.619  1.00  0.00    -0.393 OA
ATOM     34  H   UNL     1      26.395  29.032  31.879  1.00  0.00     0.210 HD
ENDBRANCH  24  33
TORSDOF 3
ENDMDL
MODEL 3
REMARK VINA RESULT:    -4.724      2.855      8.733
REMARK INTER + INTRA:          -6.185
REMARK INTER:                  -5.567
REMARK INTRA:                  -0.618
REMARK UNBOUND:                -0.770
REMARK SMILES C=C(C)[C@@H]1CC[C@@]2(C(=O)[O-])CC[C@]3(C)[C@@H](CC[C@H]4[C@@]5(C)CC[C@@H](O)C(C)(C)[C@H]5CC[C@]43C)[C@@H]12
REMARK SMILES IDX 7 1 6 2 33 3 11 4 5 5 15 6 4 7 12 8 16 9 13 10 17 11 31 12
REMARK SMILES IDX 14 13 18 14 30 15 32 16 19 17 29 18 21 19 20 20 28 21 22 22
REMARK SMILES IDX 25 23 23 24 26 25 27 26 8 27 9 28 10 29 2 30 3 31 1 32 24 33
REMARK H PARENT 24 34
REMARK Flexibility Score: inf
ROOT
ATOM      1  C   UNL     1      16.064  29.551  30.760  1.00  0.00     0.014 C 
ATOM      2  C   UNL     1      16.260  28.510  31.887  1.00  0.00     0.014 C 
ATOM      3  C   UNL     1      17.316  29.343  29.853  1.00  0.00     0.012 C 
ATOM      4  C   UNL     1      15.872  30.997  31.313  1.00  0.00     0.014 C 
ATOM      5  C   UNL     1      17.124  27.376  31.317  1.00  0.00     0.009 C 
ATOM      6  C   UNL     1      18.567  30.239  30.216  1.00  0.00     0.000 C 
ATOM      7  C   UNL     1      17.601  27.821  29.920  1.00  0.00     0.018 C 
ATOM      8  C   UNL     1      17.133  31.853  31.512  1.00  0.00     0.008 C 
ATOM      9  C   UNL     1      19.362  29.758  31.446  1.00  0.00     0.005 C 
ATOM     10  C   UNL     1      18.196  31.755  30.364  1.00  0.00    -0.024 C 
ATOM     11  C   UNL     1      20.638  30.551  31.627  1.00  0.00     0.005 C 
ATOM     12  C   UNL     1      19.499  32.682  30.697  1.00  0.00    -0.024 C 
ATOM     13  C   UNL     1      17.533  32.215  29.015  1.00  0.00     0.012 C 
ATOM     14  C   UNL     1      20.415  32.070  31.846  1.00  0.00     0.002 C 
ATOM     15  C   UNL     1      20.401  32.830  29.437  1.00  0.00     0.008 C 
ATOM     16  C   UNL     1      18.981  34.102  31.122  1.00  0.00     0.012 C 
ATOM     17  C   UNL     1      21.791  32.872  32.149  1.00  0.00    -0.026 C 
ATOM     18  C   UNL     1      21.662  33.687  29.622  1.00  0.00     0.005 C 
ATOM     19  C   UNL     1      22.763  32.024  33.050  1.00  0.00     0.010 C 
ATOM     20  C   UNL     1      21.429  34.125  33.026  1.00  0.00     0.012 C 
ATOM     21  C   UNL     1      22.572  33.369  30.849  1.00  0.00     0.003 C 
ATOM     22  C   UNL     1      24.185  32.583  33.125  1.00  0.00     0.033 C 
ATOM     23  C   UNL     1      23.943  32.639  30.494  1.00  0.00    -0.006 C 
ATOM     24  C   UNL     1      24.895  32.614  31.754  1.00  0.00     0.120 C 
ATOM     25  C   UNL     1      24.714  33.433  29.393  1.00  0.00     0.014 C 
ATOM     26  C   UNL     1      23.722  31.214  29.924  1.00  0.00     0.014 C 
ENDROOT
BRANCH   1  27
ATOM     27  C   UNL     1      14.781  29.228  29.992  1.00  0.00     0.048 C 
ATOM     28  O   UNL     1      14.443  29.911  28.987  1.00  0.00    -0.550 OA
ATOM     29  O   UNL     1      13.890  28.273  30.471  1.00  0.00    -0.550 OA
ENDBRANCH   1  27
BRANCH   7  30
ATOM     30  C   UNL     1      16.976  27.066  28.741  1.00  0.00    -0.077 C 
ATOM     31  C   UNL     1      15.932  26.018  29.035  1.00  0.00     0.039 C 
ATOM     32  C   UNL     1      17.350  27.236  27.459  1.00  0.00     0.008 C 
ENDBRANCH   7  30
BRANCH  24  33
ATOM     33  O   UNL     1      25.803  31.541  31.661  1.00  0.00    -0.393 OA
ATOM     34  H   UNL     1      25.863  31.287  30.703  1.00  0.00     0.210 HD
ENDBRANCH  24  33
TORSDOF 3
ENDMDL
MODEL 4
REMARK VINA RESULT:    -4.518      4.648      7.269
REMARK INTER + INTRA:          -5.948
REMARK INTER:                  -5.165
REMARK INTRA:                  -0.783
REMARK UNBOUND:                -0.770
REMARK SMILES C=C(C)[C@@H]1CC[C@@]2(C(=O)[O-])CC[C@]3(C)[C@@H](CC[C@H]4[C@@]5(C)CC[C@@H](O)C(C)(C)[C@H]5CC[C@]43C)[C@@H]12
REMARK SMILES IDX 7 1 6 2 33 3 11 4 5 5 15 6 4 7 12 8 16 9 13 10 17 11 31 12
REMARK SMILES IDX 14 13 18 14 30 15 32 16 19 17 29 18 21 19 20 20 28 21 22 22
REMARK SMILES IDX 25 23 23 24 26 25 27 26 8 27 9 28 10 29 2 30 3 31 1 32 24 33
REMARK H PARENT 24 34
REMARK Flexibility Score: inf
ROOT
ATOM      1  C   UNL     1      24.895  30.485  31.632  1.00  0.00     0.014 C 
ATOM      2  C   UNL     1      25.044  30.939  33.103  1.00  0.00     0.014 C 
ATOM      3  C   UNL     1      24.046  31.622  30.986  1.00  0.00     0.012 C 
ATOM      4  C   UNL     1      24.293  29.050  31.511  1.00  0.00     0.014 C 
ATOM      5  C   UNL     1      24.917  32.469  33.125  1.00  0.00     0.009 C 
ATOM      6  C   UNL     1      22.481  31.400  31.024  1.00  0.00     0.000 C 
ATOM      7  C   UNL     1      24.507  32.915  31.706  1.00  0.00     0.018 C 
ATOM      8  C   UNL     1      22.764  28.929  31.418  1.00  0.00     0.008 C 
ATOM      9  C   UNL     1      21.830  31.674  32.394  1.00  0.00     0.005 C 
ATOM     10  C   UNL     1      22.064  29.985  30.494  1.00  0.00    -0.024 C 
ATOM     11  C   UNL     1      20.320  31.616  32.311  1.00  0.00     0.005 C 
ATOM     12  C   UNL     1      20.444  29.776  30.495  1.00  0.00    -0.024 C 
ATOM     13  C   UNL     1      22.630  29.839  29.034  1.00  0.00     0.012 C 
ATOM     14  C   UNL     1      19.762  30.243  31.854  1.00  0.00     0.002 C 
ATOM     15  C   UNL     1      19.785  30.606  29.355  1.00  0.00     0.008 C 
ATOM     16  C   UNL     1      20.158  28.253  30.246  1.00  0.00     0.012 C 
ATOM     17  C   UNL     1      18.142  30.179  31.886  1.00  0.00    -0.026 C 
ATOM     18  C   UNL     1      18.258  30.490  29.249  1.00  0.00     0.005 C 
ATOM     19  C   UNL     1      17.561  30.955  33.125  1.00  0.00     0.010 C 
ATOM     20  C   UNL     1      17.730  28.682  32.127  1.00  0.00     0.012 C 
ATOM     21  C   UNL     1      17.430  30.696  30.555  1.00  0.00     0.003 C 
ATOM     22  C   UNL     1      16.051  31.192  33.055  1.00  0.00     0.033 C 
ATOM     23  C   UNL     1      16.639  32.076  30.636  1.00  0.00    -0.006 C 
ATOM     24  C   UNL     1      15.632  32.063  31.851  1.00  0.00     0.120 C 
ATOM     25  C   UNL     1      15.764  32.279  29.359  1.00  0.00     0.014 C 
ATOM     26  C   UNL     1      17.592  33.298  30.704  1.00  0.00     0.014 C 
ENDROOT
BRANCH   1  27
ATOM     27  C   UNL     1      26.279  30.409  30.985  1.00  0.00     0.048 C 
ATOM     28  O   UNL     1      27.323  30.431  31.692  1.00  0.00    -0.550 OA
ATOM     29  O   UNL     1      26.418  30.464  29.601  1.00  0.00    -0.550 OA
ENDBRANCH   1  27
BRANCH   7  30
ATOM     30  C   UNL     1      25.589  33.661  30.915  1.00  0.00    -0.077 C 
ATOM     31  C   UNL     1      26.855  34.058  31.631  1.00  0.00     0.039 C 
ATOM     32  C   UNL     1      25.448  34.042  29.632  1.00  0.00     0.008 C 
ENDBRANCH   7  30
BRANCH  24  33
ATOM     33  O   UNL     1      15.364  33.378  32.282  1.00  0.00    -0.393 OA
ATOM     34  H   UNL     1      14.396  33.544  32.138  1.00  0.00     0.210 HD
ENDBRANCH  24  33
TORSDOF 3
ENDMDL
MODEL 5
REMARK VINA RESULT:    -4.245      3.698      5.478
REMARK INTER + INTRA:          -5.636
REMARK INTER:                  -5.351
REMARK INTRA:                  -0.285
REMARK UNBOUND:                -0.770
REMARK SMILES C=C(C)[C@@H]1CC[C@@]2(C(=O)[O-])CC[C@]3(C)[C@@H](CC[C@H]4[C@@]5(C)CC[C@@H](O)C(C)(C)[C@H]5CC[C@]43C)[C@@H]12
REMARK SMILES IDX 7 1 6 2 33 3 11 4 5 5 15 6 4 7 12 8 16 9 13 10 17 11 31 12
REMARK SMILES IDX 14 13 18 14 30 15 32 16 19 17 29 18 21 19 20 20 28 21 22 22
REMARK SMILES IDX 25 23 23 24 26 25 27 26 8 27 9 28 10 29 2 30 3 31 1 32 24 33
REMARK H PARENT 24 34
REMARK Flexibility Score: inf
ROOT
ATOM      1  C   UNL     1      23.300  32.735  30.661  1.00  0.00     0.014 C 
ATOM      2  C   UNL     1      23.642  32.074  29.305  1.00  0.00     0.014 C 
ATOM      3  C   UNL     1      22.719  31.558  31.502  1.00  0.00     0.012 C 
ATOM      4  C   UNL     1      22.361  33.970  30.500  1.00  0.00     0.014 C 
ATOM      5  C   UNL     1      23.894  30.584  29.573  1.00  0.00     0.009 C 
ATOM      6  C   UNL     1      21.152  31.370  31.403  1.00  0.00     0.000 C 
ATOM      7  C   UNL     1      23.523  30.314  31.046  1.00  0.00     0.018 C 
ATOM      8  C   UNL     1      20.846  33.719  30.550  1.00  0.00     0.008 C 
ATOM      9  C   UNL     1      20.669  30.698  30.103  1.00  0.00     0.005 C 
ATOM     10  C   UNL     1      20.371  32.707  31.649  1.00  0.00    -0.024 C 
ATOM     11  C   UNL     1      19.189  30.389  30.155  1.00  0.00     0.005 C 
ATOM     12  C   UNL     1      18.753  32.499  31.590  1.00  0.00    -0.024 C 
ATOM     13  C   UNL     1      20.797  33.252  33.061  1.00  0.00     0.012 C 
ATOM     14  C   UNL     1      18.286  31.637  30.336  1.00  0.00     0.002 C 
ATOM     15  C   UNL     1      18.250  31.751  32.859  1.00  0.00     0.008 C 
ATOM     16  C   UNL     1      18.088  33.921  31.540  1.00  0.00     0.012 C 
ATOM     17  C   UNL     1      16.705  31.286  30.273  1.00  0.00    -0.026 C 
ATOM     18  C   UNL     1      16.737  31.497  32.922  1.00  0.00     0.005 C 
ATOM     19  C   UNL     1      16.405  30.178  29.197  1.00  0.00     0.010 C 
ATOM     20  C   UNL     1      15.954  32.563  29.746  1.00  0.00     0.012 C 
ATOM     21  C   UNL     1      16.063  30.857  31.669  1.00  0.00     0.003 C 
ATOM     22  C   UNL     1      14.997  29.586  29.293  1.00  0.00     0.033 C 
ATOM     23  C   UNL     1      15.639  29.332  31.843  1.00  0.00    -0.006 C 
ATOM     24  C   UNL     1      14.732  28.871  30.635  1.00  0.00     0.120 C 
ATOM     25  C   UNL     1      14.766  29.150  33.125  1.00  0.00     0.014 C 
ATOM     26  C   UNL     1      16.864  28.396  32.020  1.00  0.00     0.014 C 
ENDROOT
BRANCH   1  27
ATOM     27  C   UNL     1      24.584  33.272  31.298  1.00  0.00     0.048 C 
ATOM     28  O   UNL     1      24.647  33.481  32.540  1.00  0.00    -0.550 OA
ATOM     29  O   UNL     1      25.653  33.677  30.505  1.00  0.00    -0.550 OA
ENDBRANCH   1  27
BRANCH   7  30
ATOM     30  C   UNL     1      24.705  30.019  31.978  1.00  0.00    -0.077 C 
ATOM     31  C   UNL     1      26.078  30.482  31.561  1.00  0.00     0.039 C 
ATOM     32  C   UNL     1      24.601  29.312  33.118  1.00  0.00     0.008 C 
ENDBRANCH   7  30
BRANCH  24  33
ATOM     33  O   UNL     1      14.820  27.476  30.459  1.00  0.00    -0.393 OA
ATOM     34  H   UNL     1      14.335  27.253  29.622  1.00  0.00     0.210 HD
ENDBRANCH  24  33
TORSDOF 3
ENDMDL
MODEL 6
REMARK VINA RESULT:    -3.153      4.017      6.686
REMARK INTER + INTRA:          -4.383
REMARK INTER:                  -3.853
REMARK INTRA:                  -0.530
REMARK UNBOUND:                -0.770
REMARK SMILES C=C(C)[C@@H]1CC[C@@]2(C(=O)[O-])CC[C@]3(C)[C@@H](CC[C@H]4[C@@]5(C)CC[C@@H](O)C(C)(C)[C@H]5CC[C@]43C)[C@@H]12
REMARK SMILES IDX 7 1 6 2 33 3 11 4 5 5 15 6 4 7 12 8 16 9 13 10 17 11 31 12
REMARK SMILES IDX 14 13 18 14 30 15 32 16 19 17 29 18 21 19 20 20 28 21 22 22
REMARK SMILES IDX 25 23 23 24 26 25 27 26 8 27 9 28 10 29 2 30 3 31 1 32 24 33
REMARK H PARENT 24 34
REMARK Flexibility Score: inf
ROOT
ATOM      1  C   UNL     1      25.246  32.875  30.591  1.00  0.00     0.014 C 
ATOM      2  C   UNL     1      25.596  32.223  29.233  1.00  0.00     0.014 C 
ATOM      3  C   UNL     1      24.637  31.698  31.413  1.00  0.00     0.012 C 
ATOM      4  C   UNL     1      24.326  34.125  30.431  1.00  0.00     0.014 C 
ATOM      5  C   UNL     1      25.824  30.726  29.490  1.00  0.00     0.009 C 
ATOM      6  C   UNL     1      23.069  31.533  31.293  1.00  0.00     0.000 C 
ATOM      7  C   UNL     1      25.430  30.447  30.955  1.00  0.00     0.018 C 
ATOM      8  C   UNL     1      22.806  33.894  30.459  1.00  0.00     0.008 C 
ATOM      9  C   UNL     1      22.594  30.880  29.979  1.00  0.00     0.005 C 
ATOM     10  C   UNL     1      22.304  32.878  31.542  1.00  0.00    -0.024 C 
ATOM     11  C   UNL     1      21.109  30.592  30.009  1.00  0.00     0.005 C 
ATOM     12  C   UNL     1      20.684  32.693  31.459  1.00  0.00    -0.024 C 
ATOM     13  C   UNL     1      22.719  33.403  32.964  1.00  0.00     0.012 C 
ATOM     14  C   UNL     1      20.221  31.850  30.191  1.00  0.00     0.002 C 
ATOM     15  C   UNL     1      20.154  31.940  32.714  1.00  0.00     0.008 C 
ATOM     16  C   UNL     1      20.040  34.125  31.416  1.00  0.00     0.012 C 
ATOM     17  C   UNL     1      18.636  31.522  30.104  1.00  0.00    -0.026 C 
ATOM     18  C   UNL     1      18.637  31.707  32.756  1.00  0.00     0.005 C 
ATOM     19  C   UNL     1      18.335  30.429  29.014  1.00  0.00     0.010 C 
ATOM     20  C   UNL     1      17.910  32.814  29.581  1.00  0.00     0.012 C 
ATOM     21  C   UNL     1      17.970  31.088  31.488  1.00  0.00     0.003 C 
ATOM     22  C   UNL     1      16.918  29.856  29.086  1.00  0.00     0.033 C 
ATOM     23  C   UNL     1      17.524  29.567  31.642  1.00  0.00    -0.006 C 
ATOM     24  C   UNL     1      16.626  29.131  30.418  1.00  0.00     0.120 C 
ATOM     25  C   UNL     1      16.632  29.386  32.910  1.00  0.00     0.014 C 
ATOM     26  C   UNL     1      18.733  28.613  31.825  1.00  0.00     0.014 C 
ENDROOT
BRANCH   1  27
ATOM     27  C   UNL     1      26.528  33.388  31.250  1.00  0.00     0.048 C 
ATOM     28  O   UNL     1      27.569  33.583  30.567  1.00  0.00    -0.550 OA
ATOM     29  O   UNL     1      26.614  33.507  32.634  1.00  0.00    -0.550 OA
ENDBRANCH   1  27
BRANCH   7  30
ATOM     30  C   UNL     1      26.596  30.127  31.899  1.00  0.00    -0.077 C 
ATOM     31  C   UNL     1      28.001  30.352  31.402  1.00  0.00     0.039 C 
ATOM     32  C   UNL     1      26.441  29.594  33.124  1.00  0.00     0.008 C 
ENDBRANCH   7  30
BRANCH  24  33
ATOM     33  O   UNL     1      16.697  27.737  30.229  1.00  0.00    -0.393 OA
ATOM     34  H   UNL     1      17.393  27.567  29.541  1.00  0.00     0.210 HD
ENDBRANCH  24  33
TORSDOF 3
ENDMDL
