MODEL 1
REMARK VINA RESULT:     0.236      0.000      0.000
REMARK INTER + INTRA:           0.800
REMARK INTER:                   0.257
REMARK INTRA:                   0.543
REMARK UNBOUND:                 0.543
REMARK SMILES C=C(C)[C@H]1CC[C@H](C)C[C@H]1O
REMARK SMILES IDX 8 1 7 2 6 3 5 4 4 5 10 6 9 7 11 8 2 10 1 11 3 12
REMARK H PARENT 11 9
REMARK Flexibility Score: inf
ROOT
ATOM      1  C   UNL     1      97.124  11.123  63.677  1.00  0.00     0.008 C 
ATOM      2  C   UNL     1      96.687   9.826  62.984  1.00  0.00    -0.012 C 
ATOM      3  C   UNL     1      96.432   8.715  64.033  1.00  0.00     0.004 C 
ATOM      4  C   UNL     1      95.448   7.666  63.511  1.00  0.00     0.011 C 
ATOM      5  C   UNL     1      94.054   8.291  63.267  1.00  0.00     0.043 C 
ATOM      6  C   UNL     1      94.127   9.764  62.744  1.00  0.00     0.121 C 
ATOM      7  C   UNL     1      95.469  10.070  62.051  1.00  0.00     0.035 C 
ENDROOT
BRANCH   6   8
ATOM      8  O   UNL     1      93.058  10.046  61.876  1.00  0.00    -0.392 OA
ATOM      9  H   UNL     1      92.438   9.272  61.917  1.00  0.00     0.210 HD
ENDBRANCH   6   8
BRANCH   5  10
ATOM     10  C   UNL     1      93.188   7.373  62.410  1.00  0.00    -0.075 C 
ATOM     11  C   UNL     1      93.678   6.240  61.876  1.00  0.00     0.008 C 
ATOM     12  C   UNL     1      91.754   7.761  62.158  1.00  0.00     0.039 C 
ENDBRANCH   5  10
TORSDOF 2
ENDMDL
MODEL 2
REMARK VINA RESULT:     1.001      1.051      3.989
REMARK INTER + INTRA:           1.632
REMARK INTER:                   1.136
REMARK INTRA:                   0.496
REMARK UNBOUND:                 0.543
REMARK SMILES C=C(C)[C@H]1CC[C@H](C)C[C@H]1O
REMARK SMILES IDX 8 1 7 2 6 3 5 4 4 5 10 6 9 7 11 8 2 10 1 11 3 12
REMARK H PARENT 11 9
REMARK Flexibility Score: inf
ROOT
ATOM      1  C   UNL     1      91.300   7.797  61.897  1.00  0.00     0.008 C 
ATOM      2  C   UNL     1      92.488   7.997  62.847  1.00  0.00    -0.012 C 
ATOM      3  C   UNL     1      93.624   7.000  62.506  1.00  0.00     0.004 C 
ATOM      4  C   UNL     1      94.988   7.528  62.957  1.00  0.00     0.011 C 
ATOM      5  C   UNL     1      95.362   8.816  62.184  1.00  0.00     0.043 C 
ATOM      6  C   UNL     1      94.126   9.725  61.875  1.00  0.00     0.121 C 
ATOM      7  C   UNL     1      92.962   9.476  62.854  1.00  0.00     0.035 C 
ENDROOT
BRANCH   6   8
ATOM      8  O   UNL     1      94.483  11.084  61.883  1.00  0.00    -0.392 OA
ATOM      9  H   UNL     1      93.666  11.599  62.115  1.00  0.00     0.210 HD
ENDBRANCH   6   8
BRANCH   5  10
ATOM     10  C   UNL     1      96.511   9.547  62.871  1.00  0.00    -0.075 C 
ATOM     11  C   UNL     1      96.977   9.157  64.071  1.00  0.00     0.008 C 
ATOM     12  C   UNL     1      97.125  10.738  62.180  1.00  0.00     0.039 C 
ENDBRANCH   5  10
TORSDOF 2
ENDMDL
MODEL 3
REMARK VINA RESULT:     2.761      1.686      4.264
REMARK INTER + INTRA:           3.547
REMARK INTER:                   3.667
REMARK INTRA:                  -0.120
REMARK UNBOUND:                 0.543
REMARK SMILES C=C(C)[C@H]1CC[C@H](C)C[C@H]1O
REMARK SMILES IDX 8 1 7 2 6 3 5 4 4 5 10 6 9 7 11 8 2 10 1 11 3 12
REMARK H PARENT 11 9
REMARK Flexibility Score: inf
ROOT
ATOM      1  C   UNL     1      90.745   8.528  62.445  1.00  0.00     0.008 C 
ATOM      2  C   UNL     1      92.170   8.522  61.875  1.00  0.00    -0.012 C 
ATOM      3  C   UNL     1      92.758   9.956  61.881  1.00  0.00     0.004 C 
ATOM      4  C   UNL     1      94.287   9.934  61.926  1.00  0.00     0.011 C 
ATOM      5  C   UNL     1      94.791   9.307  63.248  1.00  0.00     0.043 C 
ATOM      6  C   UNL     1      93.880   8.141  63.757  1.00  0.00     0.121 C 
ATOM      7  C   UNL     1      93.069   7.495  62.618  1.00  0.00     0.035 C 
ENDROOT
BRANCH   6   8
ATOM      8  O   UNL     1      94.638   7.164  64.426  1.00  0.00    -0.392 OA
ATOM      9  H   UNL     1      95.549   7.181  64.032  1.00  0.00     0.210 HD
ENDBRANCH   6   8
BRANCH   5  10
ATOM     10  C   UNL     1      96.268   8.940  63.148  1.00  0.00    -0.075 C 
ATOM     11  C   UNL     1      97.124   9.183  64.156  1.00  0.00     0.008 C 
ATOM     12  C   UNL     1      96.767   8.296  61.880  1.00  0.00     0.039 C 
ENDBRANCH   5  10
TORSDOF 2
ENDMDL
MODEL 4
REMARK VINA RESULT:     3.194      1.586      2.660
REMARK INTER + INTRA:           4.018
REMARK INTER:                   3.386
REMARK INTRA:                   0.632
REMARK UNBOUND:                 0.543
REMARK SMILES C=C(C)[C@H]1CC[C@H](C)C[C@H]1O
REMARK SMILES IDX 8 1 7 2 6 3 5 4 4 5 10 6 9 7 11 8 2 10 1 11 3 12
REMARK H PARENT 11 9
REMARK Flexibility Score: inf
ROOT
ATOM      1  C   UNL     1      97.125   8.096  63.910  1.00  0.00     0.008 C 
ATOM      2  C   UNL     1      95.990   9.115  63.745  1.00  0.00    -0.012 C 
ATOM      3  C   UNL     1      95.965   9.664  62.296  1.00  0.00     0.004 C 
ATOM      4  C   UNL     1      94.570  10.161  61.910  1.00  0.00     0.011 C 
ATOM      5  C   UNL     1      93.553   8.994  61.897  1.00  0.00     0.043 C 
ATOM      6  C   UNL     1      93.829   7.931  63.010  1.00  0.00     0.121 C 
ATOM      7  C   UNL     1      94.627   8.517  64.191  1.00  0.00     0.035 C 
ENDROOT
BRANCH   6   8
ATOM      8  O   UNL     1      92.630   7.360  63.473  1.00  0.00    -0.392 OA
ATOM      9  H   UNL     1      92.018   7.296  62.693  1.00  0.00     0.210 HD
ENDBRANCH   6   8
BRANCH   5  10
ATOM     10  C   UNL     1      92.122   9.521  61.886  1.00  0.00    -0.075 C 
ATOM     11  C   UNL     1      91.065   8.690  61.875  1.00  0.00     0.008 C 
ATOM     12  C   UNL     1      91.902  11.013  61.881  1.00  0.00     0.039 C 
ENDBRANCH   5  10
TORSDOF 2
ENDMDL
