MODEL 1
REMARK VINA RESULT:    -3.725      0.000      0.000
REMARK INTER + INTRA:          -4.398
REMARK INTER:                  -4.379
REMARK INTRA:                  -0.020
REMARK UNBOUND:                -0.020
REMARK SMILES CCCCC(=O)[O-]
REMARK SMILES IDX 4 1 5 2 6 3 7 4 3 5 2 6 1 7
REMARK H PARENT
REMARK Flexibility Score: inf
ROOT
ATOM      1  C   UNL     1       0.943  11.617  -8.230  1.00  0.00     0.053 C 
ENDROOT
BRANCH   1   2
ATOM      2  C   UNL     1      -0.519  11.842  -8.453  1.00  0.00     0.041 C 
ATOM      3  O   UNL     1      -1.034  12.962  -8.200  1.00  0.00    -0.550 OA
ATOM      4  O   UNL     1      -1.305  10.828  -8.988  1.00  0.00    -0.550 OA
ENDBRANCH   1   2
BRANCH   1   5
ATOM      5  C   UNL     1       1.324  10.176  -8.595  1.00  0.00     0.006 C 
BRANCH   5   6
ATOM      6  C   UNL     1       2.839   9.930  -8.523  1.00  0.00    -0.003 C 
ATOM      7  C   UNL     1       3.436   9.524  -9.870  1.00  0.00     0.004 C 
ENDBRANCH   5   6
ENDBRANCH   1   5
TORSDOF 3
ENDMDL
MODEL 2
REMARK VINA RESULT:    -3.725      0.138      1.228
REMARK INTER + INTRA:          -4.398
REMARK INTER:                  -4.376
REMARK INTRA:                  -0.022
REMARK UNBOUND:                -0.020
REMARK SMILES CCCCC(=O)[O-]
REMARK SMILES IDX 4 1 5 2 6 3 7 4 3 5 2 6 1 7
REMARK H PARENT
REMARK Flexibility Score: inf
ROOT
ATOM      1  C   UNL     1       0.980  11.545  -8.186  1.00  0.00     0.053 C 
ENDROOT
BRANCH   1   2
ATOM      2  C   UNL     1      -0.468  11.748  -8.502  1.00  0.00     0.041 C 
ATOM      3  O   UNL     1      -1.174  10.781  -8.891  1.00  0.00    -0.550 OA
ATOM      4  O   UNL     1      -1.051  12.996  -8.320  1.00  0.00    -0.550 OA
ENDBRANCH   1   2
BRANCH   1   5
ATOM      5  C   UNL     1       1.424  10.133  -8.593  1.00  0.00     0.006 C 
BRANCH   5   6
ATOM      6  C   UNL     1       2.952   9.990  -8.653  1.00  0.00    -0.003 C 
ATOM      7  C   UNL     1       3.445   9.478 -10.007  1.00  0.00     0.004 C 
ENDBRANCH   5   6
ENDBRANCH   1   5
TORSDOF 3
ENDMDL
MODEL 3
REMARK VINA RESULT:    -3.660      1.857      2.098
REMARK INTER + INTRA:          -4.321
REMARK INTER:                  -4.284
REMARK INTRA:                  -0.038
REMARK UNBOUND:                -0.020
REMARK SMILES CCCCC(=O)[O-]
REMARK SMILES IDX 4 1 5 2 6 3 7 4 3 5 2 6 1 7
REMARK H PARENT
REMARK Flexibility Score: inf
ROOT
ATOM      1  C   UNL     1       1.156  11.491  -8.265  1.00  0.00     0.053 C 
ENDROOT
BRANCH   1   2
ATOM      2  C   UNL     1       1.075  11.745  -6.793  1.00  0.00     0.041 C 
ATOM      3  O   UNL     1       2.106  12.069  -6.148  1.00  0.00    -0.550 OA
ATOM      4  O   UNL     1      -0.150  11.671  -6.141  1.00  0.00    -0.550 OA
ENDBRANCH   1   2
BRANCH   1   5
ATOM      5  C   UNL     1       1.674  10.072  -8.535  1.00  0.00     0.006 C 
BRANCH   5   6
ATOM      6  C   UNL     1       3.192  10.034  -8.771  1.00  0.00    -0.003 C 
ATOM      7  C   UNL     1       3.564   9.449 -10.133  1.00  0.00     0.004 C 
ENDBRANCH   5   6
ENDBRANCH   1   5
TORSDOF 3
ENDMDL
MODEL 4
REMARK VINA RESULT:    -3.584      2.697      3.968
REMARK INTER + INTRA:          -4.233
REMARK INTER:                  -4.201
REMARK INTRA:                  -0.032
REMARK UNBOUND:                -0.020
REMARK SMILES CCCCC(=O)[O-]
REMARK SMILES IDX 4 1 5 2 6 3 7 4 3 5 2 6 1 7
REMARK H PARENT
REMARK Flexibility Score: inf
ROOT
ATOM      1  C   UNL     1       1.140  10.111  -8.474  1.00  0.00     0.053 C 
ENDROOT
BRANCH   1   2
ATOM      2  C   UNL     1       2.600   9.987  -8.778  1.00  0.00     0.041 C 
ATOM      3  O   UNL     1       3.456  10.408  -7.958  1.00  0.00    -0.550 OA
ATOM      4  O   UNL     1       3.015   9.359  -9.946  1.00  0.00    -0.550 OA
ENDBRANCH   1   2
BRANCH   1   5
ATOM      5  C   UNL     1       0.733  11.589  -8.402  1.00  0.00     0.006 C 
BRANCH   5   6
ATOM      6  C   UNL     1      -0.785  11.789  -8.524  1.00  0.00    -0.003 C 
ATOM      7  C   UNL     1      -1.544  10.471  -8.684  1.00  0.00     0.004 C 
ENDBRANCH   5   6
ENDBRANCH   1   5
TORSDOF 3
ENDMDL
MODEL 5
REMARK VINA RESULT:    -3.542     13.185     14.386
REMARK INTER + INTRA:          -4.183
REMARK INTER:                  -4.098
REMARK INTRA:                  -0.086
REMARK UNBOUND:                -0.020
REMARK SMILES CCCCC(=O)[O-]
REMARK SMILES IDX 4 1 5 2 6 3 7 4 3 5 2 6 1 7
REMARK H PARENT
REMARK Flexibility Score: inf
ROOT
ATOM      1  C   UNL     1       7.585  11.084 -21.336  1.00  0.00     0.053 C 
ENDROOT
BRANCH   1   2
ATOM      2  C   UNL     1       9.034  11.275 -21.013  1.00  0.00     0.041 C 
ATOM      3  O   UNL     1       9.710  12.144 -21.622  1.00  0.00    -0.550 OA
ATOM      4  O   UNL     1       9.625  10.524 -20.004  1.00  0.00    -0.550 OA
ENDBRANCH   1   2
BRANCH   1   5
ATOM      5  C   UNL     1       6.791  12.353 -21.000  1.00  0.00     0.006 C 
BRANCH   5   6
ATOM      6  C   UNL     1       6.839  12.699 -19.503  1.00  0.00    -0.003 C 
ATOM      7  C   UNL     1       6.080  13.983 -19.169  1.00  0.00     0.004 C 
ENDBRANCH   5   6
ENDBRANCH   1   5
TORSDOF 3
ENDMDL
MODEL 6
REMARK VINA RESULT:    -3.492      2.728      3.887
REMARK INTER + INTRA:          -4.125
REMARK INTER:                  -4.028
REMARK INTRA:                  -0.096
REMARK UNBOUND:                -0.020
REMARK SMILES CCCCC(=O)[O-]
REMARK SMILES IDX 4 1 5 2 6 3 7 4 3 5 2 6 1 7
REMARK H PARENT
REMARK Flexibility Score: inf
ROOT
ATOM      1  C   UNL     1       1.047  10.054  -8.352  1.00  0.00     0.053 C 
ENDROOT
BRANCH   1   2
ATOM      2  C   UNL     1       2.488   9.912  -8.729  1.00  0.00     0.041 C 
ATOM      3  O   UNL     1       3.389  10.328  -7.955  1.00  0.00    -0.550 OA
ATOM      4  O   UNL     1       2.837   9.274  -9.913  1.00  0.00    -0.550 OA
ENDBRANCH   1   2
BRANCH   1   5
ATOM      5  C   UNL     1       0.641  11.534  -8.342  1.00  0.00     0.006 C 
BRANCH   5   6
ATOM      6  C   UNL     1       0.181  12.009  -6.955  1.00  0.00    -0.003 C 
ATOM      7  C   UNL     1       1.347  12.398  -6.046  1.00  0.00     0.004 C 
ENDBRANCH   5   6
ENDBRANCH   1   5
TORSDOF 3
ENDMDL
MODEL 7
REMARK VINA RESULT:    -3.489     13.296     14.515
REMARK INTER + INTRA:          -4.121
REMARK INTER:                  -4.087
REMARK INTRA:                  -0.034
REMARK UNBOUND:                -0.020
REMARK SMILES CCCCC(=O)[O-]
REMARK SMILES IDX 4 1 5 2 6 3 7 4 3 5 2 6 1 7
REMARK H PARENT
REMARK Flexibility Score: inf
ROOT
ATOM      1  C   UNL     1       6.780  12.198 -21.707  1.00  0.00     0.053 C 
ENDROOT
BRANCH   1   2
ATOM      2  C   UNL     1       7.111  10.994 -22.532  1.00  0.00     0.041 C 
ATOM      3  O   UNL     1       7.249  11.098 -23.779  1.00  0.00    -0.550 OA
ATOM      4  O   UNL     1       7.315   9.765 -21.917  1.00  0.00    -0.550 OA
ENDBRANCH   1   2
BRANCH   1   5
ATOM      5  C   UNL     1       7.470  12.114 -20.339  1.00  0.00     0.006 C 
BRANCH   5   6
ATOM      6  C   UNL     1       6.708  12.881 -19.247  1.00  0.00    -0.003 C 
ATOM      7  C   UNL     1       6.012  14.133 -19.780  1.00  0.00     0.004 C 
ENDBRANCH   5   6
ENDBRANCH   1   5
TORSDOF 3
ENDMDL
MODEL 8
REMARK VINA RESULT:    -3.416     13.112     14.213
REMARK INTER + INTRA:          -4.035
REMARK INTER:                  -3.925
REMARK INTRA:                  -0.110
REMARK UNBOUND:                -0.020
REMARK SMILES CCCCC(=O)[O-]
REMARK SMILES IDX 4 1 5 2 6 3 7 4 3 5 2 6 1 7
REMARK H PARENT
REMARK Flexibility Score: inf
ROOT
ATOM      1  C   UNL     1       6.728  12.270 -21.474  1.00  0.00     0.053 C 
ENDROOT
BRANCH   1   2
ATOM      2  C   UNL     1       6.787  12.971 -20.153  1.00  0.00     0.041 C 
ATOM      3  O   UNL     1       7.555  12.553 -19.247  1.00  0.00    -0.550 OA
ATOM      4  O   UNL     1       6.030  14.116 -19.940  1.00  0.00    -0.550 OA
ENDBRANCH   1   2
BRANCH   1   5
ATOM      5  C   UNL     1       7.648  11.042 -21.469  1.00  0.00     0.006 C 
BRANCH   5   6
ATOM      6  C   UNL     1       8.796  11.162 -22.483  1.00  0.00    -0.003 C 
ATOM      7  C   UNL     1       9.995  11.933 -21.930  1.00  0.00     0.004 C 
ENDBRANCH   5   6
ENDBRANCH   1   5
TORSDOF 3
ENDMDL
MODEL 9
REMARK VINA RESULT:    -3.399     13.038     14.270
REMARK INTER + INTRA:          -4.015
REMARK INTER:                  -3.985
REMARK INTRA:                  -0.030
REMARK UNBOUND:                -0.020
REMARK SMILES CCCCC(=O)[O-]
REMARK SMILES IDX 4 1 5 2 6 3 7 4 3 5 2 6 1 7
REMARK H PARENT
REMARK Flexibility Score: inf
ROOT
ATOM      1  C   UNL     1       8.095  11.952 -21.082  1.00  0.00     0.053 C 
ENDROOT
BRANCH   1   2
ATOM      2  C   UNL     1       8.017  12.251 -19.618  1.00  0.00     0.041 C 
ATOM      3  O   UNL     1       8.962  11.925 -18.853  1.00  0.00    -0.550 OA
ATOM      4  O   UNL     1       6.922  12.936 -19.105  1.00  0.00    -0.550 OA
ENDBRANCH   1   2
BRANCH   1   5
ATOM      5  C   UNL     1       6.736  12.201 -21.750  1.00  0.00     0.006 C 
BRANCH   5   6
ATOM      6  C   UNL     1       6.627  11.531 -23.129  1.00  0.00    -0.003 C 
ATOM      7  C   UNL     1       6.798  10.013 -23.064  1.00  0.00     0.004 C 
ENDBRANCH   5   6
ENDBRANCH   1   5
TORSDOF 3
ENDMDL
