MODEL 1
REMARK VINA RESULT:    -3.186      0.000      0.000
REMARK INTER + INTRA:          -3.857
REMARK INTER:                  -3.745
REMARK INTRA:                  -0.111
REMARK UNBOUND:                -0.111
REMARK SMILES O=C([O-])CCC(=O)[O-]
REMARK SMILES IDX 4 1 2 2 1 3 3 4 5 5 6 6 7 7 8 8
REMARK H PARENT
REMARK Flexibility Score: inf
ROOT
ATOM      1  C   UNL     1      14.125  15.894  16.394  1.00  0.00     0.059 C 
ENDROOT
BRANCH   1   2
ATOM      2  C   UNL     1      15.135  16.542  15.499  1.00  0.00     0.042 C 
ATOM      3  O   UNL     1      15.617  17.666  15.797  1.00  0.00    -0.550 OA
ATOM      4  O   UNL     1      15.579  15.881  14.360  1.00  0.00    -0.550 OA
ENDBRANCH   1   2
BRANCH   1   5
ATOM      5  C   UNL     1      12.733  16.470  16.135  1.00  0.00     0.059 C 
BRANCH   5   6
ATOM      6  C   UNL     1      11.865  15.457  15.457  1.00  0.00     0.042 C 
ATOM      7  O   UNL     1      12.075  15.144  14.256  1.00  0.00    -0.550 OA
ATOM      8  O   UNL     1      10.792  14.894  16.137  1.00  0.00    -0.550 OA
ENDBRANCH   5   6
ENDBRANCH   1   5
TORSDOF 3
ENDMDL
MODEL 2
REMARK VINA RESULT:    -3.179      1.016      4.044
REMARK INTER + INTRA:          -3.848
REMARK INTER:                  -3.819
REMARK INTRA:                  -0.028
REMARK UNBOUND:                -0.111
REMARK SMILES O=C([O-])CCC(=O)[O-]
REMARK SMILES IDX 4 1 2 2 1 3 3 4 5 5 6 6 7 7 8 8
REMARK H PARENT
REMARK Flexibility Score: inf
ROOT
ATOM      1  C   UNL     1      12.754  16.843  16.118  1.00  0.00     0.059 C 
ENDROOT
BRANCH   1   2
ATOM      2  C   UNL     1      11.557  16.211  16.756  1.00  0.00     0.042 C 
ATOM      3  O   UNL     1      10.995  16.765  17.736  1.00  0.00    -0.550 OA
ATOM      4  O   UNL     1      11.034  15.033  16.236  1.00  0.00    -0.550 OA
ENDBRANCH   1   2
BRANCH   1   5
ATOM      5  C   UNL     1      13.956  15.899  16.182  1.00  0.00     0.059 C 
BRANCH   5   6
ATOM      6  C   UNL     1      15.132  16.501  15.479  1.00  0.00     0.042 C 
ATOM      7  O   UNL     1      15.626  17.585  15.884  1.00  0.00    -0.550 OA
ATOM      8  O   UNL     1      15.653  15.889  14.346  1.00  0.00    -0.550 OA
ENDBRANCH   5   6
ENDBRANCH   1   5
TORSDOF 3
ENDMDL
MODEL 3
REMARK VINA RESULT:    -3.174      1.530      4.184
REMARK INTER + INTRA:          -3.842
REMARK INTER:                  -3.729
REMARK INTRA:                  -0.113
REMARK UNBOUND:                -0.111
REMARK SMILES O=C([O-])CCC(=O)[O-]
REMARK SMILES IDX 4 1 2 2 1 3 3 4 5 5 6 6 7 7 8 8
REMARK H PARENT
REMARK Flexibility Score: inf
ROOT
ATOM      1  C   UNL     1      11.962  16.506  17.439  1.00  0.00     0.059 C 
ENDROOT
BRANCH   1   2
ATOM      2  C   UNL     1      10.793  15.594  17.237  1.00  0.00     0.042 C 
ATOM      3  O   UNL     1       9.795  15.663  18.001  1.00  0.00    -0.550 OA
ATOM      4  O   UNL     1      10.786  14.699  16.174  1.00  0.00    -0.550 OA
ENDBRANCH   1   2
BRANCH   1   5
ATOM      5  C   UNL     1      12.607  16.854  16.097  1.00  0.00     0.059 C 
BRANCH   5   6
ATOM      6  C   UNL     1      14.050  16.459  16.093  1.00  0.00     0.042 C 
ATOM      7  O   UNL     1      14.390  15.292  16.416  1.00  0.00    -0.550 OA
ATOM      8  O   UNL     1      15.026  17.398  15.779  1.00  0.00    -0.550 OA
ENDBRANCH   5   6
ENDBRANCH   1   5
TORSDOF 3
ENDMDL
MODEL 4
REMARK VINA RESULT:    -3.167      1.496      2.035
REMARK INTER + INTRA:          -3.834
REMARK INTER:                  -3.719
REMARK INTRA:                  -0.115
REMARK UNBOUND:                -0.111
REMARK SMILES O=C([O-])CCC(=O)[O-]
REMARK SMILES IDX 4 1 2 2 1 3 3 4 5 5 6 6 7 7 8 8
REMARK H PARENT
REMARK Flexibility Score: inf
ROOT
ATOM      1  C   UNL     1      12.673  16.882  16.056  1.00  0.00     0.059 C 
ENDROOT
BRANCH   1   2
ATOM      2  C   UNL     1      14.121  16.508  16.093  1.00  0.00     0.042 C 
ATOM      3  O   UNL     1      14.465  15.334  16.387  1.00  0.00    -0.550 OA
ATOM      4  O   UNL     1      15.089  17.446  15.755  1.00  0.00    -0.550 OA
ENDBRANCH   1   2
BRANCH   1   5
ATOM      5  C   UNL     1      11.997  16.538  17.383  1.00  0.00     0.059 C 
BRANCH   5   6
ATOM      6  C   UNL     1      10.837  15.620  17.158  1.00  0.00     0.042 C 
ATOM      7  O   UNL     1      10.888  14.745  16.255  1.00  0.00    -0.550 OA
ATOM      8  O   UNL     1       9.680  15.763  17.914  1.00  0.00    -0.550 OA
ENDBRANCH   5   6
ENDBRANCH   1   5
TORSDOF 3
ENDMDL
MODEL 5
REMARK VINA RESULT:    -3.164      2.607      3.458
REMARK INTER + INTRA:          -3.830
REMARK INTER:                  -3.728
REMARK INTRA:                  -0.102
REMARK UNBOUND:                -0.111
REMARK SMILES O=C([O-])CCC(=O)[O-]
REMARK SMILES IDX 4 1 2 2 1 3 3 4 5 5 6 6 7 7 8 8
REMARK H PARENT
REMARK Flexibility Score: inf
ROOT
ATOM      1  C   UNL     1      11.914  14.913  17.040  1.00  0.00     0.059 C 
ENDROOT
BRANCH   1   2
ATOM      2  C   UNL     1      12.215  16.379  17.005  1.00  0.00     0.042 C 
ATOM      3  O   UNL     1      12.233  17.048  18.070  1.00  0.00    -0.550 OA
ATOM      4  O   UNL     1      12.525  16.995  15.798  1.00  0.00    -0.550 OA
ENDBRANCH   1   2
BRANCH   1   5
ATOM      5  C   UNL     1      10.633  14.611  16.262  1.00  0.00     0.059 C 
BRANCH   5   6
ATOM      6  C   UNL     1       9.477  14.450  17.198  1.00  0.00     0.042 C 
ATOM      7  O   UNL     1       9.664  14.445  18.442  1.00  0.00    -0.550 OA
ATOM      8  O   UNL     1       8.197  14.254  16.694  1.00  0.00    -0.550 OA
ENDBRANCH   5   6
ENDBRANCH   1   5
TORSDOF 3
ENDMDL
MODEL 6
REMARK VINA RESULT:    -3.163      1.554      2.336
REMARK INTER + INTRA:          -3.829
REMARK INTER:                  -3.710
REMARK INTRA:                  -0.119
REMARK UNBOUND:                -0.111
REMARK SMILES O=C([O-])CCC(=O)[O-]
REMARK SMILES IDX 4 1 2 2 1 3 3 4 5 5 6 6 7 7 8 8
REMARK H PARENT
REMARK Flexibility Score: inf
ROOT
ATOM      1  C   UNL     1      12.619  16.854  16.126  1.00  0.00     0.059 C 
ENDROOT
BRANCH   1   2
ATOM      2  C   UNL     1      14.053  16.428  16.147  1.00  0.00     0.042 C 
ATOM      3  O   UNL     1      14.360  15.250  16.467  1.00  0.00    -0.550 OA
ATOM      4  O   UNL     1      15.048  17.319  15.763  1.00  0.00    -0.550 OA
ENDBRANCH   1   2
BRANCH   1   5
ATOM      5  C   UNL     1      11.948  16.539  17.463  1.00  0.00     0.059 C 
BRANCH   5   6
ATOM      6  C   UNL     1      10.797  15.604  17.264  1.00  0.00     0.042 C 
ATOM      7  O   UNL     1       9.806  15.643  18.039  1.00  0.00    -0.550 OA
ATOM      8  O   UNL     1      10.842  14.653  16.252  1.00  0.00    -0.550 OA
ENDBRANCH   5   6
ENDBRANCH   1   5
TORSDOF 3
ENDMDL
MODEL 7
REMARK VINA RESULT:    -3.147      1.560      4.238
REMARK INTER + INTRA:          -3.810
REMARK INTER:                  -3.693
REMARK INTRA:                  -0.117
REMARK UNBOUND:                -0.111
REMARK SMILES O=C([O-])CCC(=O)[O-]
REMARK SMILES IDX 4 1 2 2 1 3 3 4 5 5 6 6 7 7 8 8
REMARK H PARENT
REMARK Flexibility Score: inf
ROOT
ATOM      1  C   UNL     1      11.937  16.545  17.401  1.00  0.00     0.059 C 
ENDROOT
BRANCH   1   2
ATOM      2  C   UNL     1      10.805  15.591  17.182  1.00  0.00     0.042 C 
ATOM      3  O   UNL     1      10.876  14.720  16.276  1.00  0.00    -0.550 OA
ATOM      4  O   UNL     1       9.692  15.631  18.013  1.00  0.00    -0.550 OA
ENDBRANCH   1   2
BRANCH   1   5
ATOM      5  C   UNL     1      12.643  16.849  16.079  1.00  0.00     0.059 C 
BRANCH   5   6
ATOM      6  C   UNL     1      14.086  16.460  16.155  1.00  0.00     0.042 C 
ATOM      7  O   UNL     1      14.981  17.270  15.800  1.00  0.00    -0.550 OA
ATOM      8  O   UNL     1      14.440  15.182  16.571  1.00  0.00    -0.550 OA
ENDBRANCH   5   6
ENDBRANCH   1   5
TORSDOF 3
ENDMDL
MODEL 8
REMARK VINA RESULT:    -3.143      2.576      4.990
REMARK INTER + INTRA:          -3.806
REMARK INTER:                  -3.706
REMARK INTRA:                  -0.100
REMARK UNBOUND:                -0.111
REMARK SMILES O=C([O-])CCC(=O)[O-]
REMARK SMILES IDX 4 1 2 2 1 3 3 4 5 5 6 6 7 7 8 8
REMARK H PARENT
REMARK Flexibility Score: inf
ROOT
ATOM      1  C   UNL     1      10.694  14.589  16.259  1.00  0.00     0.059 C 
ENDROOT
BRANCH   1   2
ATOM      2  C   UNL     1       9.507  14.441  17.157  1.00  0.00     0.042 C 
ATOM      3  O   UNL     1       9.638  14.551  18.404  1.00  0.00    -0.550 OA
ATOM      4  O   UNL     1       8.246  14.231  16.613  1.00  0.00    -0.550 OA
ENDBRANCH   1   2
BRANCH   1   5
ATOM      5  C   UNL     1      11.951  14.890  17.076  1.00  0.00     0.059 C 
BRANCH   5   6
ATOM      6  C   UNL     1      12.273  16.350  17.022  1.00  0.00     0.042 C 
ATOM      7  O   UNL     1      12.246  17.045  18.071  1.00  0.00    -0.550 OA
ATOM      8  O   UNL     1      12.556  16.955  15.803  1.00  0.00    -0.550 OA
ENDBRANCH   5   6
ENDBRANCH   1   5
TORSDOF 3
ENDMDL
MODEL 9
REMARK VINA RESULT:    -2.956      1.411      3.538
REMARK INTER + INTRA:          -3.585
REMARK INTER:                  -3.466
REMARK INTRA:                  -0.119
REMARK UNBOUND:                -0.111
REMARK SMILES O=C([O-])CCC(=O)[O-]
REMARK SMILES IDX 4 1 2 2 1 3 3 4 5 5 6 6 7 7 8 8
REMARK H PARENT
REMARK Flexibility Score: inf
ROOT
ATOM      1  C   UNL     1      13.212  16.825  16.040  1.00  0.00     0.059 C 
ENDROOT
BRANCH   1   2
ATOM      2  C   UNL     1      11.963  16.328  16.696  1.00  0.00     0.042 C 
ATOM      3  O   UNL     1      11.557  16.852  17.765  1.00  0.00    -0.550 OA
ATOM      4  O   UNL     1      11.219  15.318  16.098  1.00  0.00    -0.550 OA
ENDBRANCH   1   2
BRANCH   1   5
ATOM      5  C   UNL     1      14.297  15.748  16.071  1.00  0.00     0.059 C 
BRANCH   5   6
ATOM      6  C   UNL     1      14.554  15.223  14.693  1.00  0.00     0.042 C 
ATOM      7  O   UNL     1      13.778  14.373  14.184  1.00  0.00    -0.550 OA
ATOM      8  O   UNL     1      15.679  15.636  13.990  1.00  0.00    -0.550 OA
ENDBRANCH   5   6
ENDBRANCH   1   5
TORSDOF 3
ENDMDL
