MODEL 1
REMARK VINA RESULT:    -3.414      0.000      0.000
REMARK INTER + INTRA:          -7.953
REMARK INTER:                  -6.008
REMARK INTRA:                  -1.945
REMARK UNBOUND:                -1.945
REMARK SMILES CCCCCCC=CCCCCCCCC(=O)[O-]
REMARK SMILES IDX 10 1 11 2 12 3 13 4 14 5 15 6 16 7 17 8 18 9 9 10 8 11 7 12
REMARK SMILES IDX 6 13 5 14 4 15 3 16 2 17 1 18
REMARK H PARENT
REMARK Flexibility Score: inf
ROOT
ATOM      1  C   UNL     1      59.138  29.512  49.527  1.00  0.00     0.004 C 
ENDROOT
BRANCH   1   2
ATOM      2  C   UNL     1      58.808  29.384  51.026  1.00  0.00     0.000 C 
BRANCH   2   3
ATOM      3  C   UNL     1      57.296  29.327  51.301  1.00  0.00     0.000 C 
BRANCH   3   4
ATOM      4  C   UNL     1      56.728  27.898  51.231  1.00  0.00     0.000 C 
BRANCH   4   5
ATOM      5  C   UNL     1      55.979  27.554  49.930  1.00  0.00     0.006 C 
BRANCH   5   6
ATOM      6  C   UNL     1      56.018  26.057  49.595  1.00  0.00     0.053 C 
BRANCH   6   7
ATOM      7  C   UNL     1      54.630  25.510  49.483  1.00  0.00     0.041 C 
ATOM      8  O   UNL     1      54.003  25.591  48.395  1.00  0.00    -0.550 OA
ATOM      9  O   UNL     1      54.043  24.874  50.572  1.00  0.00    -0.550 OA
ENDBRANCH   6   7
ENDBRANCH   5   6
ENDBRANCH   4   5
ENDBRANCH   3   4
ENDBRANCH   2   3
ENDBRANCH   1   2
BRANCH   1  10
ATOM     10  C   UNL     1      60.014  28.377  48.965  1.00  0.00     0.027 C 
BRANCH  10  11
ATOM     11  C   UNL     1      60.150  27.224  49.922  1.00  0.00    -0.031 C 
ATOM     12  C   UNL     1      59.729  25.991  49.604  1.00  0.00    -0.031 C 
BRANCH  12  13
ATOM     13  C   UNL     1      59.824  24.853  50.582  1.00  0.00     0.027 C 
BRANCH  13  14
ATOM     14  C   UNL     1      60.892  23.842  50.144  1.00  0.00     0.004 C 
BRANCH  14  15
ATOM     15  C   UNL     1      62.170  23.992  50.981  1.00  0.00     0.000 C 
BRANCH  15  16
ATOM     16  C   UNL     1      63.309  24.691  50.214  1.00  0.00    -0.000 C 
BRANCH  16  17
ATOM     17  C   UNL     1      63.550  26.159  50.608  1.00  0.00    -0.003 C 
ATOM     18  C   UNL     1      63.798  27.068  49.404  1.00  0.00     0.004 C 
ENDBRANCH  16  17
ENDBRANCH  15  16
ENDBRANCH  14  15
ENDBRANCH  13  14
ENDBRANCH  12  13
ENDBRANCH  10  11
ENDBRANCH   1  10
TORSDOF 13
ENDMDL
MODEL 2
REMARK VINA RESULT:    -3.338      3.132      6.954
REMARK INTER + INTRA:          -7.819
REMARK INTER:                  -7.147
REMARK INTRA:                  -0.672
REMARK UNBOUND:                -1.945
REMARK SMILES CCCCCCC=CCCCCCCCC(=O)[O-]
REMARK SMILES IDX 10 1 11 2 12 3 13 4 14 5 15 6 16 7 17 8 18 9 9 10 8 11 7 12
REMARK SMILES IDX 6 13 5 14 4 15 3 16 2 17 1 18
REMARK H PARENT
REMARK Flexibility Score: inf
ROOT
ATOM      1  C   UNL     1      61.029  26.381  49.674  1.00  0.00     0.004 C 
ENDROOT
BRANCH   1   2
ATOM      2  C   UNL     1      62.353  25.950  50.332  1.00  0.00     0.000 C 
BRANCH   2   3
ATOM      3  C   UNL     1      62.679  24.466  50.099  1.00  0.00     0.000 C 
BRANCH   3   4
ATOM      4  C   UNL     1      61.439  23.631  49.729  1.00  0.00     0.000 C 
BRANCH   4   5
ATOM      5  C   UNL     1      61.410  22.206  50.314  1.00  0.00     0.006 C 
BRANCH   5   6
ATOM      6  C   UNL     1      61.114  21.132  49.259  1.00  0.00     0.053 C 
BRANCH   6   7
ATOM      7  C   UNL     1      60.400  19.973  49.881  1.00  0.00     0.041 C 
ATOM      8  O   UNL     1      60.539  19.728  51.107  1.00  0.00    -0.550 OA
ATOM      9  O   UNL     1      59.549  19.187  49.112  1.00  0.00    -0.550 OA
ENDBRANCH   6   7
ENDBRANCH   5   6
ENDBRANCH   4   5
ENDBRANCH   3   4
ENDBRANCH   2   3
ENDBRANCH   1   2
BRANCH   1  10
ATOM     10  C   UNL     1      61.032  27.812  49.103  1.00  0.00     0.027 C 
BRANCH  10  11
ATOM     11  C   UNL     1      59.677  28.461  49.163  1.00  0.00    -0.031 C 
ATOM     12  C   UNL     1      58.837  28.245  50.187  1.00  0.00    -0.031 C 
BRANCH  12  13
ATOM     13  C   UNL     1      57.466  28.859  50.220  1.00  0.00     0.027 C 
BRANCH  13  14
ATOM     14  C   UNL     1      56.386  27.780  50.374  1.00  0.00     0.004 C 
BRANCH  14  15
ATOM     15  C   UNL     1      54.985  28.366  50.151  1.00  0.00     0.000 C 
BRANCH  15  16
ATOM     16  C   UNL     1      54.054  27.414  49.376  1.00  0.00    -0.000 C 
BRANCH  16  17
ATOM     17  C   UNL     1      54.685  26.064  48.990  1.00  0.00    -0.003 C 
ATOM     18  C   UNL     1      54.067  24.881  49.735  1.00  0.00     0.004 C 
ENDBRANCH  16  17
ENDBRANCH  15  16
ENDBRANCH  14  15
ENDBRANCH  13  14
ENDBRANCH  12  13
ENDBRANCH  10  11
ENDBRANCH   1  10
TORSDOF 13
ENDMDL
MODEL 3
REMARK VINA RESULT:    -3.318     11.214     13.210
REMARK INTER + INTRA:          -7.784
REMARK INTER:                  -6.039
REMARK INTRA:                  -1.746
REMARK UNBOUND:                -1.945
REMARK SMILES CCCCCCC=CCCCCCCCC(=O)[O-]
REMARK SMILES IDX 10 1 11 2 12 3 13 4 14 5 15 6 16 7 17 8 18 9 9 10 8 11 7 12
REMARK SMILES IDX 6 13 5 14 4 15 3 16 2 17 1 18
REMARK H PARENT
REMARK Flexibility Score: inf
ROOT
ATOM      1  C   UNL     1      60.988  31.919  59.029  1.00  0.00     0.004 C 
ENDROOT
BRANCH   1   2
ATOM      2  C   UNL     1      61.609  31.975  60.438  1.00  0.00     0.000 C 
BRANCH   2   3
ATOM      3  C   UNL     1      61.196  30.785  61.319  1.00  0.00     0.000 C 
BRANCH   3   4
ATOM      4  C   UNL     1      62.310  29.731  61.464  1.00  0.00     0.000 C 
BRANCH   4   5
ATOM      5  C   UNL     1      63.725  30.220  61.100  1.00  0.00     0.006 C 
BRANCH   5   6
ATOM      6  C   UNL     1      64.626  29.100  60.564  1.00  0.00     0.053 C 
BRANCH   6   7
ATOM      7  C   UNL     1      64.346  28.853  59.115  1.00  0.00     0.041 C 
ATOM      8  O   UNL     1      63.877  29.773  58.396  1.00  0.00    -0.550 OA
ATOM      9  O   UNL     1      64.643  27.618  58.549  1.00  0.00    -0.550 OA
ENDBRANCH   6   7
ENDBRANCH   5   6
ENDBRANCH   4   5
ENDBRANCH   3   4
ENDBRANCH   2   3
ENDBRANCH   1   2
BRANCH   1  10
ATOM     10  C   UNL     1      60.676  33.295  58.411  1.00  0.00     0.027 C 
BRANCH  10  11
ATOM     11  C   UNL     1      61.448  34.409  59.063  1.00  0.00    -0.031 C 
ATOM     12  C   UNL     1      60.836  35.367  59.776  1.00  0.00    -0.031 C 
BRANCH  12  13
ATOM     13  C   UNL     1      61.607  36.504  60.386  1.00  0.00     0.027 C 
BRANCH  13  14
ATOM     14  C   UNL     1      63.096  36.409  60.033  1.00  0.00     0.004 C 
BRANCH  14  15
ATOM     15  C   UNL     1      63.917  35.910  61.231  1.00  0.00     0.000 C 
BRANCH  15  16
ATOM     16  C   UNL     1      65.025  34.920  60.827  1.00  0.00    -0.000 C 
BRANCH  16  17
ATOM     17  C   UNL     1      65.080  34.586  59.325  1.00  0.00    -0.003 C 
ATOM     18  C   UNL     1      64.823  33.108  59.032  1.00  0.00     0.004 C 
ENDBRANCH  16  17
ENDBRANCH  15  16
ENDBRANCH  14  15
ENDBRANCH  13  14
ENDBRANCH  12  13
ENDBRANCH  10  11
ENDBRANCH   1  10
TORSDOF 13
ENDMDL
MODEL 4
REMARK VINA RESULT:    -3.297      3.278      6.738
REMARK INTER + INTRA:          -7.748
REMARK INTER:                  -6.299
REMARK INTRA:                  -1.450
REMARK UNBOUND:                -1.945
REMARK SMILES CCCCCCC=CCCCCCCCC(=O)[O-]
REMARK SMILES IDX 10 1 11 2 12 3 13 4 14 5 15 6 16 7 17 8 18 9 9 10 8 11 7 12
REMARK SMILES IDX 6 13 5 14 4 15 3 16 2 17 1 18
REMARK H PARENT
REMARK Flexibility Score: inf
ROOT
ATOM      1  C   UNL     1      59.500  29.246  51.035  1.00  0.00     0.004 C 
ENDROOT
BRANCH   1   2
ATOM      2  C   UNL     1      60.859  28.566  50.780  1.00  0.00     0.000 C 
BRANCH   2   3
ATOM      3  C   UNL     1      60.967  27.959  49.371  1.00  0.00     0.000 C 
BRANCH   3   4
ATOM      4  C   UNL     1      60.751  26.434  49.358  1.00  0.00     0.000 C 
BRANCH   4   5
ATOM      5  C   UNL     1      61.393  25.672  50.533  1.00  0.00     0.006 C 
BRANCH   5   6
ATOM      6  C   UNL     1      62.717  24.995  50.155  1.00  0.00     0.053 C 
BRANCH   6   7
ATOM      7  C   UNL     1      62.541  23.512  50.074  1.00  0.00     0.041 C 
ATOM      8  O   UNL     1      63.337  22.746  50.677  1.00  0.00    -0.550 OA
ATOM      9  O   UNL     1      61.471  22.976  49.366  1.00  0.00    -0.550 OA
ENDBRANCH   6   7
ENDBRANCH   5   6
ENDBRANCH   4   5
ENDBRANCH   3   4
ENDBRANCH   2   3
ENDBRANCH   1   2
BRANCH   1  10
ATOM     10  C   UNL     1      58.511  29.165  49.856  1.00  0.00     0.027 C 
BRANCH  10  11
ATOM     11  C   UNL     1      57.315  28.307  50.164  1.00  0.00    -0.031 C 
ATOM     12  C   UNL     1      57.396  26.969  50.192  1.00  0.00    -0.031 C 
BRANCH  12  13
ATOM     13  C   UNL     1      56.187  26.115  50.454  1.00  0.00     0.027 C 
BRANCH  13  14
ATOM     14  C   UNL     1      55.288  26.043  49.213  1.00  0.00     0.004 C 
BRANCH  14  15
ATOM     15  C   UNL     1      53.846  26.449  49.551  1.00  0.00     0.000 C 
BRANCH  15  16
ATOM     16  C   UNL     1      53.600  27.962  49.402  1.00  0.00    -0.000 C 
BRANCH  16  17
ATOM     17  C   UNL     1      53.598  28.752  50.723  1.00  0.00    -0.003 C 
ATOM     18  C   UNL     1      54.273  30.118  50.604  1.00  0.00     0.004 C 
ENDBRANCH  16  17
ENDBRANCH  15  16
ENDBRANCH  14  15
ENDBRANCH  13  14
ENDBRANCH  12  13
ENDBRANCH  10  11
ENDBRANCH   1  10
TORSDOF 13
ENDMDL
MODEL 5
REMARK VINA RESULT:    -3.275     11.730     13.901
REMARK INTER + INTRA:          -7.708
REMARK INTER:                  -5.764
REMARK INTRA:                  -1.944
REMARK UNBOUND:                -1.945
REMARK SMILES CCCCCCC=CCCCCCCCC(=O)[O-]
REMARK SMILES IDX 10 1 11 2 12 3 13 4 14 5 15 6 16 7 17 8 18 9 9 10 8 11 7 12
REMARK SMILES IDX 6 13 5 14 4 15 3 16 2 17 1 18
REMARK H PARENT
REMARK Flexibility Score: inf
ROOT
ATOM      1  C   UNL     1      61.315  30.095  59.594  1.00  0.00     0.004 C 
ENDROOT
BRANCH   1   2
ATOM      2  C   UNL     1      61.337  28.807  60.439  1.00  0.00     0.000 C 
BRANCH   2   3
ATOM      3  C   UNL     1      62.688  28.573  61.134  1.00  0.00     0.000 C 
BRANCH   3   4
ATOM      4  C   UNL     1      63.861  28.462  60.142  1.00  0.00     0.000 C 
BRANCH   4   5
ATOM      5  C   UNL     1      65.148  29.195  60.565  1.00  0.00     0.006 C 
BRANCH   5   6
ATOM      6  C   UNL     1      66.261  29.104  59.513  1.00  0.00     0.053 C 
BRANCH   6   7
ATOM      7  C   UNL     1      67.574  28.811  60.167  1.00  0.00     0.041 C 
ATOM      8  O   UNL     1      68.650  29.000  59.541  1.00  0.00    -0.550 OA
ATOM      9  O   UNL     1      67.612  28.368  61.485  1.00  0.00    -0.550 OA
ENDBRANCH   6   7
ENDBRANCH   5   6
ENDBRANCH   4   5
ENDBRANCH   3   4
ENDBRANCH   2   3
ENDBRANCH   1   2
BRANCH   1  10
ATOM     10  C   UNL     1      61.089  31.387  60.401  1.00  0.00     0.027 C 
BRANCH  10  11
ATOM     11  C   UNL     1      62.323  32.245  60.474  1.00  0.00    -0.031 C 
ATOM     12  C   UNL     1      63.281  32.182  59.537  1.00  0.00    -0.031 C 
BRANCH  12  13
ATOM     13  C   UNL     1      64.534  33.006  59.639  1.00  0.00     0.027 C 
BRANCH  13  14
ATOM     14  C   UNL     1      64.413  34.051  60.756  1.00  0.00     0.004 C 
BRANCH  14  15
ATOM     15  C   UNL     1      64.148  35.449  60.177  1.00  0.00     0.000 C 
BRANCH  15  16
ATOM     16  C   UNL     1      62.946  36.151  60.835  1.00  0.00    -0.000 C 
BRANCH  16  17
ATOM     17  C   UNL     1      61.573  35.767  60.253  1.00  0.00    -0.003 C 
ATOM     18  C   UNL     1      61.609  35.537  58.742  1.00  0.00     0.004 C 
ENDBRANCH  16  17
ENDBRANCH  15  16
ENDBRANCH  14  15
ENDBRANCH  13  14
ENDBRANCH  12  13
ENDBRANCH  10  11
ENDBRANCH   1  10
TORSDOF 13
ENDMDL
MODEL 6
REMARK VINA RESULT:    -3.222      2.878      4.847
REMARK INTER + INTRA:          -7.617
REMARK INTER:                  -5.741
REMARK INTRA:                  -1.875
REMARK UNBOUND:                -1.945
REMARK SMILES CCCCCCC=CCCCCCCCC(=O)[O-]
REMARK SMILES IDX 10 1 11 2 12 3 13 4 14 5 15 6 16 7 17 8 18 9 9 10 8 11 7 12
REMARK SMILES IDX 6 13 5 14 4 15 3 16 2 17 1 18
REMARK H PARENT
REMARK Flexibility Score: inf
ROOT
ATOM      1  C   UNL     1      53.660  26.763  50.240  1.00  0.00     0.004 C 
ENDROOT
BRANCH   1   2
ATOM      2  C   UNL     1      53.035  27.808  49.296  1.00  0.00     0.000 C 
BRANCH   2   3
ATOM      3  C   UNL     1      53.186  29.247  49.816  1.00  0.00     0.000 C 
BRANCH   3   4
ATOM      4  C   UNL     1      54.633  29.591  50.214  1.00  0.00     0.000 C 
BRANCH   4   5
ATOM      5  C   UNL     1      54.805  30.150  51.639  1.00  0.00     0.006 C 
BRANCH   5   6
ATOM      6  C   UNL     1      55.314  29.100  52.636  1.00  0.00     0.053 C 
BRANCH   6   7
ATOM      7  C   UNL     1      54.260  28.790  53.651  1.00  0.00     0.041 C 
ATOM      8  O   UNL     1      54.532  28.830  54.879  1.00  0.00    -0.550 OA
ATOM      9  O   UNL     1      52.964  28.496  53.241  1.00  0.00    -0.550 OA
ENDBRANCH   6   7
ENDBRANCH   5   6
ENDBRANCH   4   5
ENDBRANCH   3   4
ENDBRANCH   2   3
ENDBRANCH   1   2
BRANCH   1  10
ATOM     10  C   UNL     1      54.526  25.700  49.537  1.00  0.00     0.027 C 
BRANCH  10  11
ATOM     11  C   UNL     1      55.955  26.139  49.370  1.00  0.00    -0.031 C 
ATOM     12  C   UNL     1      56.698  26.534  50.415  1.00  0.00    -0.031 C 
BRANCH  12  13
ATOM     13  C   UNL     1      58.110  27.016  50.236  1.00  0.00     0.027 C 
BRANCH  13  14
ATOM     14  C   UNL     1      58.175  28.549  50.274  1.00  0.00     0.004 C 
BRANCH  14  15
ATOM     15  C   UNL     1      59.183  29.083  49.246  1.00  0.00     0.000 C 
BRANCH  15  16
ATOM     16  C   UNL     1      60.318  28.087  48.947  1.00  0.00    -0.000 C 
BRANCH  16  17
ATOM     17  C   UNL     1      61.657  28.403  49.639  1.00  0.00    -0.003 C 
ATOM     18  C   UNL     1      61.739  29.840  50.152  1.00  0.00     0.004 C 
ENDBRANCH  16  17
ENDBRANCH  15  16
ENDBRANCH  14  15
ENDBRANCH  13  14
ENDBRANCH  12  13
ENDBRANCH  10  11
ENDBRANCH   1  10
TORSDOF 13
ENDMDL
MODEL 7
REMARK VINA RESULT:    -3.214      3.311      6.135
REMARK INTER + INTRA:          -7.602
REMARK INTER:                  -5.514
REMARK INTRA:                  -2.088
REMARK UNBOUND:                -1.945
REMARK SMILES CCCCCCC=CCCCCCCCC(=O)[O-]
REMARK SMILES IDX 10 1 11 2 12 3 13 4 14 5 15 6 16 7 17 8 18 9 9 10 8 11 7 12
REMARK SMILES IDX 6 13 5 14 4 15 3 16 2 17 1 18
REMARK H PARENT
REMARK Flexibility Score: inf
ROOT
ATOM      1  C   UNL     1      57.735  30.367  53.531  1.00  0.00     0.004 C 
ENDROOT
BRANCH   1   2
ATOM      2  C   UNL     1      58.648  31.302  52.715  1.00  0.00     0.000 C 
BRANCH   2   3
ATOM      3  C   UNL     1      59.770  30.549  51.982  1.00  0.00     0.000 C 
BRANCH   3   4
ATOM      4  C   UNL     1      59.312  29.189  51.421  1.00  0.00     0.000 C 
BRANCH   4   5
ATOM      5  C   UNL     1      58.631  29.246  50.041  1.00  0.00     0.006 C 
BRANCH   5   6
ATOM      6  C   UNL     1      59.624  29.114  48.878  1.00  0.00     0.053 C 
BRANCH   6   7
ATOM      7  C   UNL     1      60.561  27.973  49.119  1.00  0.00     0.041 C 
ATOM      8  O   UNL     1      60.149  26.787  49.037  1.00  0.00    -0.550 OA
ATOM      9  O   UNL     1      61.901  28.220  49.395  1.00  0.00    -0.550 OA
ENDBRANCH   6   7
ENDBRANCH   5   6
ENDBRANCH   4   5
ENDBRANCH   3   4
ENDBRANCH   2   3
ENDBRANCH   1   2
BRANCH   1  10
ATOM     10  C   UNL     1      56.232  30.508  53.221  1.00  0.00     0.027 C 
BRANCH  10  11
ATOM     11  C   UNL     1      55.758  29.509  52.201  1.00  0.00    -0.031 C 
ATOM     12  C   UNL     1      55.084  29.888  51.105  1.00  0.00    -0.031 C 
BRANCH  12  13
ATOM     13  C   UNL     1      54.571  28.882  50.113  1.00  0.00     0.027 C 
BRANCH  13  14
ATOM     14  C   UNL     1      53.763  27.783  50.815  1.00  0.00     0.004 C 
BRANCH  14  15
ATOM     15  C   UNL     1      54.330  26.392  50.495  1.00  0.00     0.000 C 
BRANCH  15  16
ATOM     16  C   UNL     1      55.439  26.429  49.428  1.00  0.00    -0.000 C 
BRANCH  16  17
ATOM     17  C   UNL     1      56.851  26.108  49.949  1.00  0.00    -0.003 C 
ATOM     18  C   UNL     1      56.922  26.030  51.474  1.00  0.00     0.004 C 
ENDBRANCH  16  17
ENDBRANCH  15  16
ENDBRANCH  14  15
ENDBRANCH  13  14
ENDBRANCH  12  13
ENDBRANCH  10  11
ENDBRANCH   1  10
TORSDOF 13
ENDMDL
MODEL 8
REMARK VINA RESULT:    -3.167     11.520     13.649
REMARK INTER + INTRA:          -7.520
REMARK INTER:                  -5.285
REMARK INTRA:                  -2.234
REMARK UNBOUND:                -1.945
REMARK SMILES CCCCCCC=CCCCCCCCC(=O)[O-]
REMARK SMILES IDX 10 1 11 2 12 3 13 4 14 5 15 6 16 7 17 8 18 9 9 10 8 11 7 12
REMARK SMILES IDX 6 13 5 14 4 15 3 16 2 17 1 18
REMARK H PARENT
REMARK Flexibility Score: inf
ROOT
ATOM      1  C   UNL     1      63.192  29.890  60.775  1.00  0.00     0.004 C 
ENDROOT
BRANCH   1   2
ATOM      2  C   UNL     1      64.362  30.886  60.882  1.00  0.00     0.000 C 
BRANCH   2   3
ATOM      3  C   UNL     1      64.823  31.413  59.514  1.00  0.00     0.000 C 
BRANCH   3   4
ATOM      4  C   UNL     1      64.581  32.924  59.341  1.00  0.00     0.000 C 
BRANCH   4   5
ATOM      5  C   UNL     1      64.141  33.667  60.617  1.00  0.00     0.006 C 
BRANCH   5   6
ATOM      6  C   UNL     1      63.023  34.686  60.361  1.00  0.00     0.053 C 
BRANCH   6   7
ATOM      7  C   UNL     1      63.568  36.079  60.396  1.00  0.00     0.041 C 
ATOM      8  O   UNL     1      64.424  36.445  59.550  1.00  0.00    -0.550 OA
ATOM      9  O   UNL     1      63.099  36.986  61.340  1.00  0.00    -0.550 OA
ENDBRANCH   6   7
ENDBRANCH   5   6
ENDBRANCH   4   5
ENDBRANCH   3   4
ENDBRANCH   2   3
ENDBRANCH   1   2
BRANCH   1  10
ATOM     10  C   UNL     1      61.881  30.368  61.429  1.00  0.00     0.027 C 
BRANCH  10  11
ATOM     11  C   UNL     1      61.159  31.390  60.594  1.00  0.00    -0.031 C 
ATOM     12  C   UNL     1      61.063  31.270  59.261  1.00  0.00    -0.031 C 
BRANCH  12  13
ATOM     13  C   UNL     1      60.382  32.318  58.427  1.00  0.00     0.027 C 
BRANCH  13  14
ATOM     14  C   UNL     1      61.389  33.035  57.518  1.00  0.00     0.004 C 
BRANCH  14  15
ATOM     15  C   UNL     1      60.784  34.316  56.926  1.00  0.00     0.000 C 
BRANCH  15  16
ATOM     16  C   UNL     1      59.273  34.444  57.193  1.00  0.00    -0.000 C 
BRANCH  16  17
ATOM     17  C   UNL     1      58.860  35.690  57.996  1.00  0.00    -0.003 C 
ATOM     18  C   UNL     1      59.939  36.157  58.973  1.00  0.00     0.004 C 
ENDBRANCH  16  17
ENDBRANCH  15  16
ENDBRANCH  14  15
ENDBRANCH  13  14
ENDBRANCH  12  13
ENDBRANCH  10  11
ENDBRANCH   1  10
TORSDOF 13
ENDMDL
MODEL 9
REMARK VINA RESULT:    -3.167     11.105     13.060
REMARK INTER + INTRA:          -7.519
REMARK INTER:                  -5.546
REMARK INTRA:                  -1.974
REMARK UNBOUND:                -1.945
REMARK SMILES CCCCCCC=CCCCCCCCC(=O)[O-]
REMARK SMILES IDX 10 1 11 2 12 3 13 4 14 5 15 6 16 7 17 8 18 9 9 10 8 11 7 12
REMARK SMILES IDX 6 13 5 14 4 15 3 16 2 17 1 18
REMARK H PARENT
REMARK Flexibility Score: inf
ROOT
ATOM      1  C   UNL     1      64.835  31.762  59.867  1.00  0.00     0.004 C 
ENDROOT
BRANCH   1   2
ATOM      2  C   UNL     1      64.529  30.762  60.999  1.00  0.00     0.000 C 
BRANCH   2   3
ATOM      3  C   UNL     1      64.125  29.374  60.474  1.00  0.00     0.000 C 
BRANCH   3   4
ATOM      4  C   UNL     1      62.773  28.893  61.033  1.00  0.00     0.000 C 
BRANCH   4   5
ATOM      5  C   UNL     1      61.753  30.008  61.331  1.00  0.00     0.006 C 
BRANCH   5   6
ATOM      6  C   UNL     1      60.384  29.754  60.686  1.00  0.00     0.053 C 
BRANCH   6   7
ATOM      7  C   UNL     1      60.552  29.175  59.317  1.00  0.00     0.041 C 
ATOM      8  O   UNL     1      60.281  27.964  59.104  1.00  0.00    -0.550 OA
ATOM      9  O   UNL     1      60.969  29.983  58.265  1.00  0.00    -0.550 OA
ENDBRANCH   6   7
ENDBRANCH   5   6
ENDBRANCH   4   5
ENDBRANCH   3   4
ENDBRANCH   2   3
ENDBRANCH   1   2
BRANCH   1  10
ATOM     10  C   UNL     1      63.729  31.883  58.802  1.00  0.00     0.027 C 
BRANCH  10  11
ATOM     11  C   UNL     1      62.960  33.170  58.912  1.00  0.00    -0.031 C 
ATOM     12  C   UNL     1      61.919  33.300  59.748  1.00  0.00    -0.031 C 
BRANCH  12  13
ATOM     13  C   UNL     1      61.124  34.574  59.820  1.00  0.00     0.027 C 
BRANCH  13  14
ATOM     14  C   UNL     1      61.996  35.785  59.465  1.00  0.00     0.004 C 
BRANCH  14  15
ATOM     15  C   UNL     1      62.001  36.814  60.605  1.00  0.00     0.000 C 
BRANCH  15  16
ATOM     16  C   UNL     1      63.402  37.040  61.202  1.00  0.00    -0.000 C 
BRANCH  16  17
ATOM     17  C   UNL     1      64.521  36.197  60.566  1.00  0.00    -0.003 C 
ATOM     18  C   UNL     1      65.049  35.105  61.496  1.00  0.00     0.004 C 
ENDBRANCH  16  17
ENDBRANCH  15  16
ENDBRANCH  14  15
ENDBRANCH  13  14
ENDBRANCH  12  13
ENDBRANCH  10  11
ENDBRANCH   1  10
TORSDOF 13
ENDMDL
