MODEL 1
REMARK VINA RESULT:    -3.631      0.000      0.000
REMARK INTER + INTRA:          -5.175
REMARK INTER:                  -5.117
REMARK INTRA:                  -0.058
REMARK UNBOUND:                -0.058
REMARK SMILES CC1=CCC(=C(C)C)C(=O)CC(C)=CCC1
REMARK SMILES IDX 12 1 14 2 13 3 15 4 16 5 2 6 1 7 3 8 11 10 9 11 10 12 5 13
REMARK SMILES IDX 6 14 7 15 8 16 4 17
REMARK H PARENT
REMARK Flexibility Score: 60.00
ROOT
ATOM      1  C   UNL     1     -20.102  -3.454  20.906  1.00  0.00    -0.070 C 
ATOM      2  C   UNL     1     -21.037  -3.031  20.025  1.00  0.00    -0.027 C 
ATOM      3  C   UNL     1     -20.159  -4.889  21.368  1.00  0.00     0.039 C 
ENDROOT
BRANCH   2   4
ATOM      4  C   UNL     1     -21.042  -1.682  19.351  1.00  0.00     0.032 C 
BRANCH   4   5
ATOM      5  C   UNL     1     -21.918  -0.707  20.144  1.00  0.00     0.034 C 
BRANCH   5   6
ATOM      6  C   UNL     1     -21.233   0.623  20.386  1.00  0.00    -0.077 C 
ATOM      7  C   UNL     1     -21.131   1.602  19.242  1.00  0.00     0.039 C 
ATOM      8  C   UNL     1     -20.638   0.959  21.558  1.00  0.00    -0.023 CG0
ATOM      9  G   UNL     1     -20.654   0.176  22.858  1.00  0.00     0.000 G0
ENDBRANCH   5   6
ENDBRANCH   4   5
ENDBRANCH   2   4
BRANCH   1  10
ATOM     10  C   UNL     1     -19.016  -2.557  21.463  1.00  0.00     0.111 C 
BRANCH  10  11
ATOM     11  C   UNL     1     -19.357  -2.048  22.843  1.00  0.00     0.163 C 
ATOM     12  O   UNL     1     -19.641  -2.908  23.719  1.00  0.00    -0.294 OA
BRANCH  11  13
ATOM     13  C   UNL     1     -19.393  -0.592  23.209  1.00  0.00    -0.002 C 
ATOM     14  C   UNL     1     -18.393  -0.040  23.962  1.00  0.00    -0.069 C 
ATOM     15  C   UNL     1     -18.504   1.350  24.546  1.00  0.00     0.039 C 
ATOM     16  C   UNL     1     -17.094  -0.773  24.211  1.00  0.00     0.039 C 
BRANCH  13  17
ATOM     17  C   UNL     1     -20.655   0.194  22.875  1.00  0.00     0.066 CG0
ATOM     18  G   UNL     1     -20.656   0.945  21.556  1.00  0.00     0.000 G0
ENDBRANCH  13  17
ENDBRANCH  11  13
ENDBRANCH  10  11
ENDBRANCH   1  10
TORSDOF 0
ENDMDL
MODEL 2
REMARK VINA RESULT:    -3.456     10.996     13.028
REMARK INTER + INTRA:          -4.928
REMARK INTER:                  -4.786
REMARK INTRA:                  -0.142
REMARK UNBOUND:                -0.058
REMARK SMILES CC1=CCC(=C(C)C)C(=O)CC(C)=CCC1
REMARK SMILES IDX 12 1 14 2 13 3 15 4 16 5 2 6 1 7 3 8 11 10 9 11 10 12 5 13
REMARK SMILES IDX 6 14 7 15 8 16 4 17
REMARK H PARENT
REMARK Flexibility Score: 60.00
ROOT
ATOM      1  C   UNL     1     -17.595   4.627  34.159  1.00  0.00    -0.070 C 
ATOM      2  C   UNL     1     -18.737   5.225  34.569  1.00  0.00    -0.027 C 
ATOM      3  C   UNL     1     -16.517   5.492  33.557  1.00  0.00     0.039 C 
ENDROOT
BRANCH   2   4
ATOM      4  C   UNL     1     -19.849   4.540  35.322  1.00  0.00     0.032 C 
BRANCH   4   5
ATOM      5  C   UNL     1     -21.039   4.299  34.387  1.00  0.00     0.034 C 
BRANCH   5   6
ATOM      6  C   UNL     1     -21.603   2.898  34.515  1.00  0.00    -0.077 C 
ATOM      7  C   UNL     1     -22.628   2.627  35.588  1.00  0.00     0.039 C 
ATOM      8  C   UNL     1     -21.185   1.849  33.763  1.00  0.00    -0.023 CG0
ATOM      9  G   UNL     1     -20.216   1.880  32.595  1.00  0.00     0.000 G0
ENDBRANCH   5   6
ENDBRANCH   4   5
ENDBRANCH   2   4
BRANCH   1  10
ATOM     10  C   UNL     1     -17.354   3.134  34.260  1.00  0.00     0.111 C 
BRANCH  10  11
ATOM     11  C   UNL     1     -17.700   2.419  32.976  1.00  0.00     0.163 C 
ATOM     12  O   UNL     1     -17.047   2.738  31.946  1.00  0.00    -0.294 OA
BRANCH  11  13
ATOM     13  C   UNL     1     -18.779   1.381  32.865  1.00  0.00    -0.002 C 
ATOM     14  C   UNL     1     -18.462   0.049  32.846  1.00  0.00    -0.069 C 
ATOM     15  C   UNL     1     -19.483  -1.012  32.504  1.00  0.00     0.039 C 
ATOM     16  C   UNL     1     -17.081  -0.440  33.218  1.00  0.00     0.039 C 
BRANCH  13  17
ATOM     17  C   UNL     1     -20.200   1.857  32.592  1.00  0.00     0.066 CG0
ATOM     18  G   UNL     1     -21.153   1.859  33.774  1.00  0.00     0.000 G0
ENDBRANCH  13  17
ENDBRANCH  11  13
ENDBRANCH  10  11
ENDBRANCH   1  10
TORSDOF 0
ENDMDL
MODEL 3
REMARK VINA RESULT:    -3.333      9.069     11.193
REMARK INTER + INTRA:          -4.755
REMARK INTER:                  -4.614
REMARK INTRA:                  -0.141
REMARK UNBOUND:                -0.058
REMARK SMILES CC1=CCC(=C(C)C)C(=O)CC(C)=CCC1
REMARK SMILES IDX 12 1 14 2 13 3 15 4 16 5 2 6 1 7 3 8 11 10 9 11 10 12 5 13
REMARK SMILES IDX 6 14 7 15 8 16 4 17
REMARK H PARENT
REMARK Flexibility Score: 60.00
ROOT
ATOM      1  C   UNL     1     -14.895   8.500  26.245  1.00  0.00    -0.070 C 
ATOM      2  C   UNL     1     -13.868   7.627  26.131  1.00  0.00    -0.027 C 
ATOM      3  C   UNL     1     -14.578   9.974  26.233  1.00  0.00     0.039 C 
ENDROOT
BRANCH   2   4
ATOM      4  C   UNL     1     -14.015   6.135  25.976  1.00  0.00     0.032 C 
BRANCH   4   5
ATOM      5  C   UNL     1     -13.919   5.458  27.348  1.00  0.00     0.034 C 
BRANCH   5   6
ATOM      6  C   UNL     1     -14.954   4.366  27.529  1.00  0.00    -0.077 C 
ATOM      7  C   UNL     1     -14.764   3.062  26.796  1.00  0.00     0.039 C 
ATOM      8  C   UNL     1     -16.086   4.518  28.261  1.00  0.00    -0.023 CG0
ATOM      9  G   UNL     1     -16.471   5.704  29.128  1.00  0.00     0.000 G0
ENDBRANCH   5   6
ENDBRANCH   4   5
ENDBRANCH   2   4
BRANCH   1  10
ATOM     10  C   UNL     1     -16.340   8.071  26.400  1.00  0.00     0.111 C 
BRANCH  10  11
ATOM     11  C   UNL     1     -16.746   7.970  27.850  1.00  0.00     0.163 C 
ATOM     12  O   UNL     1     -16.505   8.966  28.585  1.00  0.00    -0.294 OA
BRANCH  11  13
ATOM     13  C   UNL     1     -17.390   6.756  28.453  1.00  0.00    -0.002 C 
ATOM     14  C   UNL     1     -18.753   6.667  28.548  1.00  0.00    -0.069 C 
ATOM     15  C   UNL     1     -19.431   5.580  29.351  1.00  0.00     0.039 C 
ATOM     16  C   UNL     1     -19.661   7.625  27.811  1.00  0.00     0.039 C 
BRANCH  13  17
ATOM     17  C   UNL     1     -16.485   5.723  29.113  1.00  0.00     0.066 CG0
ATOM     18  G   UNL     1     -16.088   4.529  28.263  1.00  0.00     0.000 G0
ENDBRANCH  13  17
ENDBRANCH  11  13
ENDBRANCH  10  11
ENDBRANCH   1  10
TORSDOF 0
ENDMDL
MODEL 4
REMARK VINA RESULT:    -3.327      9.543     10.771
REMARK INTER + INTRA:          -4.747
REMARK INTER:                  -4.690
REMARK INTRA:                  -0.057
REMARK UNBOUND:                -0.058
REMARK SMILES CC1=CCC(=C(C)C)C(=O)CC(C)=CCC1
REMARK SMILES IDX 12 1 14 2 13 3 15 4 16 5 2 6 1 7 3 8 11 10 9 11 10 12 5 13
REMARK SMILES IDX 6 14 7 15 8 16 4 17
REMARK H PARENT
REMARK Flexibility Score: 60.00
ROOT
ATOM      1  C   UNL     1     -16.041   3.855  29.223  1.00  0.00    -0.070 C 
ATOM      2  C   UNL     1     -15.168   3.154  28.465  1.00  0.00    -0.027 C 
ATOM      3  C   UNL     1     -17.174   3.106  29.879  1.00  0.00     0.039 C 
ENDROOT
BRANCH   2   4
ATOM      4  C   UNL     1     -13.904   3.712  27.862  1.00  0.00     0.032 C 
BRANCH   4   5
ATOM      5  C   UNL     1     -14.226   4.418  26.540  1.00  0.00     0.034 C 
BRANCH   5   6
ATOM      6  C   UNL     1     -13.499   5.740  26.397  1.00  0.00    -0.077 C 
ATOM      7  C   UNL     1     -11.992   5.733  26.339  1.00  0.00     0.039 C 
ATOM      8  C   UNL     1     -14.125   6.943  26.389  1.00  0.00    -0.023 CG0
ATOM      9  G   UNL     1     -15.620   7.206  26.377  1.00  0.00     0.000 G0
ENDBRANCH   5   6
ENDBRANCH   4   5
ENDBRANCH   2   4
BRANCH   1  10
ATOM     10  C   UNL     1     -15.947   5.354  29.431  1.00  0.00     0.111 C 
BRANCH  10  11
ATOM     11  C   UNL     1     -16.781   6.116  28.430  1.00  0.00     0.163 C 
ATOM     12  O   UNL     1     -17.920   5.649  28.157  1.00  0.00    -0.294 OA
BRANCH  11  13
ATOM     13  C   UNL     1     -16.319   7.366  27.741  1.00  0.00    -0.002 C 
ATOM     14  C   UNL     1     -16.654   8.597  28.236  1.00  0.00    -0.069 C 
ATOM     15  C   UNL     1     -16.412   9.869  27.455  1.00  0.00     0.039 C 
ATOM     16  C   UNL     1     -17.241   8.759  29.621  1.00  0.00     0.039 C 
BRANCH  13  17
ATOM     17  C   UNL     1     -15.632   7.221  26.388  1.00  0.00     0.066 CG0
ATOM     18  G   UNL     1     -14.141   6.932  26.414  1.00  0.00     0.000 G0
ENDBRANCH  13  17
ENDBRANCH  11  13
ENDBRANCH  10  11
ENDBRANCH   1  10
TORSDOF 0
ENDMDL
MODEL 5
REMARK VINA RESULT:    -3.266      8.704     10.315
REMARK INTER + INTRA:          -4.661
REMARK INTER:                  -4.592
REMARK INTRA:                  -0.069
REMARK UNBOUND:                -0.058
REMARK SMILES CC1=CCC(=C(C)C)C(=O)CC(C)=CCC1
REMARK SMILES IDX 12 1 14 2 13 3 15 4 16 5 2 6 1 7 3 8 11 10 9 11 10 12 5 13
REMARK SMILES IDX 6 14 7 15 8 16 4 17
REMARK H PARENT
REMARK Flexibility Score: 60.00
ROOT
ATOM      1  C   UNL     1     -13.481   6.833  26.305  1.00  0.00    -0.070 C 
ATOM      2  C   UNL     1     -14.203   7.972  26.211  1.00  0.00    -0.027 C 
ATOM      3  C   UNL     1     -12.344   6.631  25.335  1.00  0.00     0.039 C 
ENDROOT
BRANCH   2   4
ATOM      4  C   UNL     1     -15.271   8.401  27.185  1.00  0.00     0.032 C 
BRANCH   4   5
ATOM      5  C   UNL     1     -16.628   7.836  26.751  1.00  0.00     0.034 C 
BRANCH   5   6
ATOM      6  C   UNL     1     -17.460   7.358  27.925  1.00  0.00    -0.077 C 
ATOM      7  C   UNL     1     -18.003   8.382  28.890  1.00  0.00     0.039 C 
ATOM      8  C   UNL     1     -17.686   6.050  28.201  1.00  0.00    -0.023 CG0
ATOM      9  G   UNL     1     -17.297   4.848  27.358  1.00  0.00     0.000 G0
ENDBRANCH   5   6
ENDBRANCH   4   5
ENDBRANCH   2   4
BRANCH   1  10
ATOM     10  C   UNL     1     -13.769   5.745  27.320  1.00  0.00     0.111 C 
BRANCH  10  11
ATOM     11  C   UNL     1     -14.778   4.747  26.807  1.00  0.00     0.163 C 
ATOM     12  O   UNL     1     -14.634   4.341  25.622  1.00  0.00    -0.294 OA
BRANCH  11  13
ATOM     13  C   UNL     1     -15.936   4.241  27.617  1.00  0.00    -0.002 C 
ATOM     14  C   UNL     1     -15.786   3.159  28.443  1.00  0.00    -0.069 C 
ATOM     15  C   UNL     1     -16.969   2.477  29.093  1.00  0.00     0.039 C 
ATOM     16  C   UNL     1     -14.419   2.616  28.793  1.00  0.00     0.039 C 
BRANCH  13  17
ATOM     17  C   UNL     1     -17.309   4.847  27.353  1.00  0.00     0.066 CG0
ATOM     18  G   UNL     1     -17.683   6.061  28.184  1.00  0.00     0.000 G0
ENDBRANCH  13  17
ENDBRANCH  11  13
ENDBRANCH  10  11
ENDBRANCH   1  10
TORSDOF 0
ENDMDL
MODEL 6
REMARK VINA RESULT:    -3.248      9.461     10.536
REMARK INTER + INTRA:          -4.636
REMARK INTER:                  -4.727
REMARK INTRA:                   0.091
REMARK UNBOUND:                -0.058
REMARK SMILES CC1=CCC(=C(C)C)C(=O)CC(C)=CCC1
REMARK SMILES IDX 12 1 14 2 13 3 15 4 16 5 2 6 1 7 3 8 11 10 9 11 10 12 5 13
REMARK SMILES IDX 6 14 7 15 8 16 4 17
REMARK H PARENT
REMARK Flexibility Score: 60.00
ROOT
ATOM      1  C   UNL     1     -13.953   4.112  27.835  1.00  0.00    -0.070 C 
ATOM      2  C   UNL     1     -13.444   4.737  26.748  1.00  0.00    -0.027 C 
ATOM      3  C   UNL     1     -13.916   2.605  27.870  1.00  0.00     0.039 C 
ENDROOT
BRANCH   2   4
ATOM      4  C   UNL     1     -13.267   6.228  26.613  1.00  0.00     0.032 C 
BRANCH   4   5
ATOM      5  C   UNL     1     -14.411   6.814  25.778  1.00  0.00     0.034 C 
BRANCH   5   6
ATOM      6  C   UNL     1     -15.133   7.939  26.492  1.00  0.00    -0.077 C 
ATOM      7  C   UNL     1     -14.546   9.327  26.432  1.00  0.00     0.039 C 
ATOM      8  C   UNL     1     -16.245   7.757  27.247  1.00  0.00    -0.023 CG0
ATOM      9  G   UNL     1     -17.048   6.479  27.414  1.00  0.00     0.000 G0
ENDBRANCH   5   6
ENDBRANCH   4   5
ENDBRANCH   2   4
BRANCH   1  10
ATOM     10  C   UNL     1     -14.573   4.848  29.006  1.00  0.00     0.111 C 
BRANCH  10  11
ATOM     11  C   UNL     1     -16.075   4.707  29.030  1.00  0.00     0.163 C 
ATOM     12  O   UNL     1     -16.541   3.552  29.225  1.00  0.00    -0.294 OA
BRANCH  11  13
ATOM     13  C   UNL     1     -17.024   5.850  28.816  1.00  0.00    -0.002 C 
ATOM     14  C   UNL     1     -17.929   6.193  29.783  1.00  0.00    -0.069 C 
ATOM     15  C   UNL     1     -19.048   7.175  29.521  1.00  0.00     0.039 C 
ATOM     16  C   UNL     1     -17.830   5.644  31.188  1.00  0.00     0.039 C 
BRANCH  13  17
ATOM     17  C   UNL     1     -17.068   6.489  27.432  1.00  0.00     0.066 CG0
ATOM     18  G   UNL     1     -16.249   7.753  27.243  1.00  0.00     0.000 G0
ENDBRANCH  13  17
ENDBRANCH  11  13
ENDBRANCH  10  11
ENDBRANCH   1  10
TORSDOF 0
ENDMDL
MODEL 7
REMARK VINA RESULT:    -3.186      7.323      9.177
REMARK INTER + INTRA:          -4.547
REMARK INTER:                  -4.547
REMARK INTRA:                  -0.000
REMARK UNBOUND:                -0.058
REMARK SMILES CC1=CCC(=C(C)C)C(=O)CC(C)=CCC1
REMARK SMILES IDX 12 1 14 2 13 3 15 4 16 5 2 6 1 7 3 8 11 10 9 11 10 12 5 13
REMARK SMILES IDX 6 14 7 15 8 16 4 17
REMARK H PARENT
REMARK Flexibility Score: 60.00
ROOT
ATOM      1  C   UNL     1     -15.492  -0.120  28.601  1.00  0.00    -0.070 C 
ATOM      2  C   UNL     1     -16.348  -0.796  27.802  1.00  0.00    -0.027 C 
ATOM      3  C   UNL     1     -14.013  -0.263  28.338  1.00  0.00     0.039 C 
ENDROOT
BRANCH   2   4
ATOM      4  C   UNL     1     -17.849  -0.654  27.828  1.00  0.00     0.032 C 
BRANCH   4   5
ATOM      5  C   UNL     1     -18.476  -1.877  28.506  1.00  0.00     0.034 C 
BRANCH   5   6
ATOM      6  C   UNL     1     -19.742  -1.534  29.265  1.00  0.00    -0.077 C 
ATOM      7  C   UNL     1     -21.050  -1.505  28.514  1.00  0.00     0.039 C 
ATOM      8  C   UNL     1     -19.759  -1.179  30.574  1.00  0.00    -0.023 CG0
ATOM      9  G   UNL     1     -18.594  -1.187  31.547  1.00  0.00     0.000 G0
ENDBRANCH   5   6
ENDBRANCH   4   5
ENDBRANCH   2   4
BRANCH   1  10
ATOM     10  C   UNL     1     -15.941   0.757  29.752  1.00  0.00     0.111 C 
BRANCH  10  11
ATOM     11  C   UNL     1     -16.354  -0.057  30.954  1.00  0.00     0.163 C 
ATOM     12  O   UNL     1     -15.511  -0.875  31.411  1.00  0.00    -0.294 OA
BRANCH  11  13
ATOM     13  C   UNL     1     -17.703   0.042  31.605  1.00  0.00    -0.002 C 
ATOM     14  C   UNL     1     -18.039   1.145  32.342  1.00  0.00    -0.069 C 
ATOM     15  C   UNL     1     -19.283   1.187  33.200  1.00  0.00     0.039 C 
ATOM     16  C   UNL     1     -17.208   2.408  32.299  1.00  0.00     0.039 C 
BRANCH  13  17
ATOM     17  C   UNL     1     -18.602  -1.188  31.572  1.00  0.00     0.066 CG0
ATOM     18  G   UNL     1     -19.752  -1.159  30.580  1.00  0.00     0.000 G0
ENDBRANCH  13  17
ENDBRANCH  11  13
ENDBRANCH  10  11
ENDBRANCH   1  10
TORSDOF 0
ENDMDL
MODEL 8
REMARK VINA RESULT:    -3.185      6.370      8.221
REMARK INTER + INTRA:          -4.546
REMARK INTER:                  -4.558
REMARK INTRA:                   0.012
REMARK UNBOUND:                -0.058
REMARK SMILES CC1=CCC(=C(C)C)C(=O)CC(C)=CCC1
REMARK SMILES IDX 12 1 14 2 13 3 15 4 16 5 2 6 1 7 3 8 11 10 9 11 10 12 5 13
REMARK SMILES IDX 6 14 7 15 8 16 4 17
REMARK H PARENT
REMARK Flexibility Score: 60.00
ROOT
ATOM      1  C   UNL     1     -13.764   0.419  28.770  1.00  0.00    -0.070 C 
ATOM      2  C   UNL     1     -13.385   1.690  28.509  1.00  0.00    -0.027 C 
ATOM      3  C   UNL     1     -12.693  -0.640  28.845  1.00  0.00     0.039 C 
ENDROOT
BRANCH   2   4
ATOM      4  C   UNL     1     -14.298   2.889  28.545  1.00  0.00     0.032 C 
BRANCH   4   5
ATOM      5  C   UNL     1     -14.605   3.352  27.116  1.00  0.00     0.034 C 
BRANCH   5   6
ATOM      6  C   UNL     1     -16.000   3.928  26.979  1.00  0.00    -0.077 C 
ATOM      7  C   UNL     1     -16.213   5.388  27.290  1.00  0.00     0.039 C 
ATOM      8  C   UNL     1     -17.090   3.185  26.661  1.00  0.00    -0.023 CG0
ATOM      9  G   UNL     1     -17.123   1.723  26.253  1.00  0.00     0.000 G0
ENDBRANCH   5   6
ENDBRANCH   4   5
ENDBRANCH   2   4
BRANCH   1  10
ATOM     10  C   UNL     1     -15.208   0.004  28.971  1.00  0.00     0.111 C 
BRANCH  10  11
ATOM     11  C   UNL     1     -15.953  -0.098  27.663  1.00  0.00     0.163 C 
ATOM     12  O   UNL     1     -15.478  -0.873  26.789  1.00  0.00    -0.294 OA
BRANCH  11  13
ATOM     13  C   UNL     1     -17.198   0.680  27.350  1.00  0.00    -0.002 C 
ATOM     14  C   UNL     1     -18.392   0.344  27.929  1.00  0.00    -0.069 C 
ATOM     15  C   UNL     1     -19.702   0.944  27.471  1.00  0.00     0.039 C 
ATOM     16  C   UNL     1     -18.462  -0.613  29.098  1.00  0.00     0.039 C 
BRANCH  13  17
ATOM     17  C   UNL     1     -17.125   1.724  26.242  1.00  0.00     0.066 CG0
ATOM     18  G   UNL     1     -17.099   3.177  26.682  1.00  0.00     0.000 G0
ENDBRANCH  13  17
ENDBRANCH  11  13
ENDBRANCH  10  11
ENDBRANCH   1  10
TORSDOF 0
ENDMDL
MODEL 9
REMARK VINA RESULT:    -3.046      5.932      8.555
REMARK INTER + INTRA:          -4.350
REMARK INTER:                  -4.362
REMARK INTRA:                   0.012
REMARK UNBOUND:                -0.058
REMARK SMILES CC1=CCC(=C(C)C)C(=O)CC(C)=CCC1
REMARK SMILES IDX 12 1 14 2 13 3 15 4 16 5 2 6 1 7 3 8 11 10 9 11 10 12 5 13
REMARK SMILES IDX 6 14 7 15 8 16 4 17
REMARK H PARENT
REMARK Flexibility Score: 60.00
ROOT
ATOM      1  C   UNL     1     -14.514  -0.377  29.173  1.00  0.00    -0.070 C 
ATOM      2  C   UNL     1     -14.620  -0.744  27.876  1.00  0.00    -0.027 C 
ATOM      3  C   UNL     1     -13.316  -0.858  29.952  1.00  0.00     0.039 C 
ENDROOT
BRANCH   2   4
ATOM      4  C   UNL     1     -15.666  -0.236  26.916  1.00  0.00     0.032 C 
BRANCH   4   5
ATOM      5  C   UNL     1     -16.883  -1.168  26.932  1.00  0.00     0.034 C 
BRANCH   5   6
ATOM      6  C   UNL     1     -18.188  -0.414  27.094  1.00  0.00    -0.077 C 
ATOM      7  C   UNL     1     -18.712   0.383  25.925  1.00  0.00     0.039 C 
ATOM      8  C   UNL     1     -18.881  -0.355  28.259  1.00  0.00    -0.023 CG0
ATOM      9  G   UNL     1     -18.591  -1.109  29.544  1.00  0.00     0.000 G0
ENDBRANCH   5   6
ENDBRANCH   4   5
ENDBRANCH   2   4
BRANCH   1  10
ATOM     10  C   UNL     1     -15.545   0.477  29.884  1.00  0.00     0.111 C 
BRANCH  10  11
ATOM     11  C   UNL     1     -16.453  -0.349  30.763  1.00  0.00     0.163 C 
ATOM     12  O   UNL     1     -15.902  -1.110  31.603  1.00  0.00    -0.294 OA
BRANCH  11  13
ATOM     13  C   UNL     1     -17.951  -0.323  30.670  1.00  0.00    -0.002 C 
ATOM     14  C   UNL     1     -18.698   0.255  31.661  1.00  0.00    -0.069 C 
ATOM     15  C   UNL     1     -20.201   0.100  31.725  1.00  0.00     0.039 C 
ATOM     16  C   UNL     1     -18.066   1.128  32.721  1.00  0.00     0.039 C 
BRANCH  13  17
ATOM     17  C   UNL     1     -18.609  -1.114  29.546  1.00  0.00     0.066 CG0
ATOM     18  G   UNL     1     -18.865  -0.364  28.251  1.00  0.00     0.000 G0
ENDBRANCH  13  17
ENDBRANCH  11  13
ENDBRANCH  10  11
ENDBRANCH   1  10
TORSDOF 0
ENDMDL
