MODEL 1
REMARK VINA RESULT:    -3.215      0.000      0.000
REMARK INTER + INTRA:          -5.462
REMARK INTER:                  -4.906
REMARK INTRA:                  -0.556
REMARK UNBOUND:                -0.556
REMARK SMILES CC1=CCC[C@H](C)C(=O)C[C@H](C(C)C)C(=O)C1
REMARK SMILES IDX 8 1 9 2 6 3 7 4 5 5 4 6 3 7 2 8 1 9 10 11 11 12 15 13 16 14
REMARK SMILES IDX 17 15 12 17 13 18 14 19
REMARK H PARENT
REMARK Flexibility Score: 70.00
ROOT
ATOM      1  C   UNL     1     -17.368   2.787  31.645  1.00  0.00     0.136 C 
ATOM      2  O   UNL     1     -16.831   3.766  31.151  1.00  0.00    -0.299 OA
ENDROOT
BRANCH   1   3
ATOM      3  C   UNL     1     -17.627   2.777  33.159  1.00  0.00     0.053 C 
ATOM      4  C   UNL     1     -16.762   3.826  33.862  1.00  0.00     0.016 C 
BRANCH   3   5
ATOM      5  C   UNL     1     -19.107   3.045  33.345  1.00  0.00     0.015 C 
BRANCH   5   6
ATOM      6  C   UNL     1     -20.091   2.159  34.062  1.00  0.00     0.028 C 
BRANCH   6   7
ATOM      7  C   UNL     1     -20.853   1.342  33.017  1.00  0.00    -0.028 C 
ATOM      8  C   UNL     1     -20.463   0.193  32.364  1.00  0.00    -0.070 CG0
ATOM      9  C   UNL     1     -21.383  -0.301  31.272  1.00  0.00     0.039 C 
ATOM     10  G   UNL     1     -19.207  -0.660  32.655  1.00  0.00     0.000 G0
ENDBRANCH   6   7
ENDBRANCH   5   6
ENDBRANCH   3   5
ENDBRANCH   1   3
BRANCH   1  11
ATOM     11  C   UNL     1     -17.745   1.611  30.724  1.00  0.00     0.087 C 
BRANCH  11  12
ATOM     12  C   UNL     1     -17.131   0.209  31.131  1.00  0.00     0.066 C 
BRANCH  12  13
ATOM     13  C   UNL     1     -18.237  -0.827  31.443  1.00  0.00     0.140 C 
ATOM     14  O   UNL     1     -18.328  -1.824  30.741  1.00  0.00    -0.299 OA
BRANCH  13  15
ATOM     15  C   UNL     1     -19.190  -0.682  32.638  1.00  0.00     0.106 CG0
ATOM     16  G   UNL     1     -20.448   0.173  32.364  1.00  0.00     0.000 G0
ENDBRANCH  13  15
ENDBRANCH  12  13
BRANCH  12  17
ATOM     17  C   UNL     1     -16.155  -0.331  30.035  1.00  0.00    -0.006 C 
ATOM     18  C   UNL     1     -16.145   0.584  28.793  1.00  0.00     0.008 C 
ATOM     19  C   UNL     1     -14.708  -0.460  30.550  1.00  0.00     0.008 C 
ENDBRANCH  12  17
ENDBRANCH  11  12
ENDBRANCH   1  11
TORSDOF 1
ENDMDL
MODEL 2
REMARK VINA RESULT:    -3.017      5.586      7.348
REMARK INTER + INTRA:          -5.159
REMARK INTER:                  -4.584
REMARK INTRA:                  -0.575
REMARK UNBOUND:                -0.556
REMARK SMILES CC1=CCC[C@H](C)C(=O)C[C@H](C(C)C)C(=O)C1
REMARK SMILES IDX 8 1 9 2 6 3 7 4 5 5 4 6 3 7 2 8 1 9 10 11 11 12 15 13 16 14
REMARK SMILES IDX 17 15 12 17 13 18 14 19
REMARK H PARENT
REMARK Flexibility Score: 70.00
ROOT
ATOM      1  C   UNL     1     -14.935   5.235  28.157  1.00  0.00     0.136 C 
ATOM      2  O   UNL     1     -14.218   4.729  29.006  1.00  0.00    -0.299 OA
ENDROOT
BRANCH   1   3
ATOM      3  C   UNL     1     -14.534   5.094  26.680  1.00  0.00     0.053 C 
ATOM      4  C   UNL     1     -13.016   5.191  26.521  1.00  0.00     0.016 C 
BRANCH   3   5
ATOM      5  C   UNL     1     -15.069   3.755  26.215  1.00  0.00     0.015 C 
BRANCH   5   6
ATOM      6  C   UNL     1     -15.812   2.750  27.055  1.00  0.00     0.028 C 
BRANCH   6   7
ATOM      7  C   UNL     1     -17.215   2.577  26.470  1.00  0.00    -0.028 C 
ATOM      8  C   UNL     1     -18.409   3.105  26.911  1.00  0.00    -0.070 CG0
ATOM      9  C   UNL     1     -19.654   2.629  26.200  1.00  0.00     0.039 C 
ATOM     10  G   UNL     1     -18.602   4.157  28.027  1.00  0.00     0.000 G0
ENDBRANCH   6   7
ENDBRANCH   5   6
ENDBRANCH   3   5
ENDBRANCH   1   3
BRANCH   1  11
ATOM     11  C   UNL     1     -16.195   5.995  28.614  1.00  0.00     0.087 C 
BRANCH  11  12
ATOM     12  C   UNL     1     -17.197   6.400  27.457  1.00  0.00     0.066 C 
BRANCH  12  13
ATOM     13  C   UNL     1     -18.538   5.638  27.572  1.00  0.00     0.140 C 
ATOM     14  O   UNL     1     -19.570   6.203  27.240  1.00  0.00    -0.299 OA
BRANCH  13  15
ATOM     15  C   UNL     1     -18.618   4.175  28.032  1.00  0.00     0.106 CG0
ATOM     16  G   UNL     1     -18.419   3.131  26.909  1.00  0.00     0.000 G0
ENDBRANCH  13  15
ENDBRANCH  12  13
BRANCH  12  17
ATOM     17  C   UNL     1     -17.436   7.946  27.421  1.00  0.00    -0.006 C 
ATOM     18  C   UNL     1     -17.409   8.551  28.839  1.00  0.00     0.008 C 
ATOM     19  C   UNL     1     -16.388   8.681  26.563  1.00  0.00     0.008 C 
ENDBRANCH  12  17
ENDBRANCH  11  12
ENDBRANCH   1  11
TORSDOF 1
ENDMDL
MODEL 3
REMARK VINA RESULT:    -3.013      1.795      4.524
REMARK INTER + INTRA:          -5.154
REMARK INTER:                  -4.662
REMARK INTRA:                  -0.493
REMARK UNBOUND:                -0.556
REMARK SMILES CC1=CCC[C@H](C)C(=O)C[C@H](C(C)C)C(=O)C1
REMARK SMILES IDX 8 1 9 2 6 3 7 4 5 5 4 6 3 7 2 8 1 9 10 11 11 12 15 13 16 14
REMARK SMILES IDX 17 15 12 17 13 18 14 19
REMARK H PARENT
REMARK Flexibility Score: 70.00
ROOT
ATOM      1  C   UNL     1     -20.678   1.635  32.737  1.00  0.00     0.136 C 
ATOM      2  O   UNL     1     -21.015   1.396  33.885  1.00  0.00    -0.299 OA
ENDROOT
BRANCH   1   3
ATOM      3  C   UNL     1     -21.321   0.826  31.600  1.00  0.00     0.053 C 
ATOM      4  C   UNL     1     -20.845   1.334  30.238  1.00  0.00     0.016 C 
BRANCH   3   5
ATOM      5  C   UNL     1     -20.936  -0.622  31.831  1.00  0.00     0.015 C 
BRANCH   5   6
ATOM      6  C   UNL     1     -19.610  -1.121  32.342  1.00  0.00     0.028 C 
BRANCH   6   7
ATOM      7  C   UNL     1     -18.616  -1.122  31.179  1.00  0.00    -0.028 C 
ATOM      8  C   UNL     1     -17.446  -0.408  31.039  1.00  0.00    -0.070 CG0
ATOM      9  C   UNL     1     -16.753  -0.515  29.701  1.00  0.00     0.039 C 
ATOM     10  G   UNL     1     -16.754   0.460  32.116  1.00  0.00     0.000 G0
ENDBRANCH   6   7
ENDBRANCH   5   6
ENDBRANCH   3   5
ENDBRANCH   1   3
BRANCH   1  11
ATOM     11  C   UNL     1     -19.619   2.727  32.492  1.00  0.00     0.087 C 
BRANCH  11  12
ATOM     12  C   UNL     1     -18.214   2.471  33.175  1.00  0.00     0.066 C 
BRANCH  12  13
ATOM     13  C   UNL     1     -17.174   1.943  32.159  1.00  0.00     0.140 C 
ATOM     14  O   UNL     1     -16.644   2.733  31.392  1.00  0.00    -0.299 OA
BRANCH  13  15
ATOM     15  C   UNL     1     -16.737   0.472  32.115  1.00  0.00     0.106 CG0
ATOM     16  G   UNL     1     -17.454  -0.386  31.047  1.00  0.00     0.000 G0
ENDBRANCH  13  15
ENDBRANCH  12  13
BRANCH  12  17
ATOM     17  C   UNL     1     -17.686   3.755  33.897  1.00  0.00    -0.006 C 
ATOM     18  C   UNL     1     -18.824   4.500  34.621  1.00  0.00     0.008 C 
ATOM     19  C   UNL     1     -16.585   3.437  34.928  1.00  0.00     0.008 C 
ENDBRANCH  12  17
ENDBRANCH  11  12
ENDBRANCH   1  11
TORSDOF 1
ENDMDL
MODEL 4
REMARK VINA RESULT:    -3.013      2.828      5.094
REMARK INTER + INTRA:          -5.154
REMARK INTER:                  -4.610
REMARK INTRA:                  -0.544
REMARK UNBOUND:                -0.556
REMARK SMILES CC1=CCC[C@H](C)C(=O)C[C@H](C(C)C)C(=O)C1
REMARK SMILES IDX 8 1 9 2 6 3 7 4 5 5 4 6 3 7 2 8 1 9 10 11 11 12 15 13 16 14
REMARK SMILES IDX 17 15 12 17 13 18 14 19
REMARK H PARENT
REMARK Flexibility Score: 70.00
ROOT
ATOM      1  C   UNL     1     -15.152  -0.047  29.623  1.00  0.00     0.136 C 
ATOM      2  O   UNL     1     -14.094  -0.600  29.880  1.00  0.00    -0.299 OA
ENDROOT
BRANCH   1   3
ATOM      3  C   UNL     1     -15.175   1.010  28.509  1.00  0.00     0.053 C 
ATOM      4  C   UNL     1     -13.871   1.812  28.497  1.00  0.00     0.016 C 
BRANCH   3   5
ATOM      5  C   UNL     1     -15.391   0.261  27.209  1.00  0.00     0.015 C 
BRANCH   5   6
ATOM      6  C   UNL     1     -16.031  -1.093  27.056  1.00  0.00     0.028 C 
BRANCH   6   7
ATOM      7  C   UNL     1     -17.472  -0.894  26.581  1.00  0.00    -0.028 C 
ATOM      8  C   UNL     1     -18.642  -0.977  27.304  1.00  0.00    -0.070 CG0
ATOM      9  C   UNL     1     -19.925  -0.870  26.514  1.00  0.00     0.039 C 
ATOM     10  G   UNL     1     -18.777  -1.131  28.837  1.00  0.00     0.000 G0
ENDBRANCH   6   7
ENDBRANCH   5   6
ENDBRANCH   3   5
ENDBRANCH   1   3
BRANCH   1  11
ATOM     11  C   UNL     1     -16.401  -0.433  30.437  1.00  0.00     0.087 C 
BRANCH  11  12
ATOM     12  C   UNL     1     -17.560   0.646  30.448  1.00  0.00     0.066 C 
BRANCH  12  13
ATOM     13  C   UNL     1     -18.792   0.167  29.643  1.00  0.00     0.140 C 
ATOM     14  O   UNL     1     -19.782   0.882  29.596  1.00  0.00    -0.299 OA
BRANCH  13  15
ATOM     15  C   UNL     1     -18.797  -1.147  28.850  1.00  0.00     0.106 CG0
ATOM     16  G   UNL     1     -18.637  -0.982  27.320  1.00  0.00     0.000 G0
ENDBRANCH  13  15
ENDBRANCH  12  13
BRANCH  12  17
ATOM     17  C   UNL     1     -17.967   1.036  31.907  1.00  0.00    -0.006 C 
ATOM     18  C   UNL     1     -17.810  -0.157  32.872  1.00  0.00     0.008 C 
ATOM     19  C   UNL     1     -17.132   2.211  32.454  1.00  0.00     0.008 C 
ENDBRANCH  12  17
ENDBRANCH  11  12
ENDBRANCH   1  11
TORSDOF 1
ENDMDL
MODEL 5
REMARK VINA RESULT:    -3.002      3.246      5.796
REMARK INTER + INTRA:          -5.137
REMARK INTER:                  -4.633
REMARK INTRA:                  -0.504
REMARK UNBOUND:                -0.556
REMARK SMILES CC1=CCC[C@H](C)C(=O)C[C@H](C(C)C)C(=O)C1
REMARK SMILES IDX 8 1 9 2 6 3 7 4 5 5 4 6 3 7 2 8 1 9 10 11 11 12 15 13 16 14
REMARK SMILES IDX 17 15 12 17 13 18 14 19
REMARK H PARENT
REMARK Flexibility Score: 70.00
ROOT
ATOM      1  C   UNL     1     -15.135  -0.101  28.199  1.00  0.00     0.136 C 
ATOM      2  O   UNL     1     -14.882  -0.800  27.230  1.00  0.00    -0.299 OA
ENDROOT
BRANCH   1   3
ATOM      3  C   UNL     1     -13.974   0.355  29.097  1.00  0.00     0.053 C 
ATOM      4  C   UNL     1     -12.874  -0.707  29.139  1.00  0.00     0.016 C 
BRANCH   3   5
ATOM      5  C   UNL     1     -13.476   1.667  28.523  1.00  0.00     0.015 C 
BRANCH   5   6
ATOM      6  C   UNL     1     -14.256   2.610  27.646  1.00  0.00     0.028 C 
BRANCH   6   7
ATOM      7  C   UNL     1     -14.720   3.790  28.502  1.00  0.00    -0.028 C 
ATOM      8  C   UNL     1     -15.975   4.054  29.005  1.00  0.00    -0.070 CG0
ATOM      9  C   UNL     1     -16.152   5.385  29.698  1.00  0.00     0.039 C 
ATOM     10  G   UNL     1     -17.206   3.119  28.967  1.00  0.00     0.000 G0
ENDBRANCH   6   7
ENDBRANCH   5   6
ENDBRANCH   3   5
ENDBRANCH   1   3
BRANCH   1  11
ATOM     11  C   UNL     1     -16.603   0.275  28.473  1.00  0.00     0.087 C 
BRANCH  11  12
ATOM     12  C   UNL     1     -16.937   0.646  29.976  1.00  0.00     0.066 C 
BRANCH  12  13
ATOM     13  C   UNL     1     -17.324   2.136  30.122  1.00  0.00     0.140 C 
ATOM     14  O   UNL     1     -17.675   2.551  31.217  1.00  0.00    -0.299 OA
BRANCH  13  15
ATOM     15  C   UNL     1     -17.227   3.131  28.957  1.00  0.00     0.106 CG0
ATOM     16  G   UNL     1     -15.997   4.067  29.004  1.00  0.00     0.000 G0
ENDBRANCH  13  15
ENDBRANCH  12  13
BRANCH  12  17
ATOM     17  C   UNL     1     -18.055  -0.280  30.560  1.00  0.00    -0.006 C 
ATOM     18  C   UNL     1     -18.715  -1.128  29.454  1.00  0.00     0.008 C 
ATOM     19  C   UNL     1     -17.519  -1.234  31.644  1.00  0.00     0.008 C 
ENDBRANCH  12  17
ENDBRANCH  11  12
ENDBRANCH   1  11
TORSDOF 1
ENDMDL
MODEL 6
REMARK VINA RESULT:    -2.989      8.965     11.187
REMARK INTER + INTRA:          -5.118
REMARK INTER:                  -4.623
REMARK INTRA:                  -0.495
REMARK UNBOUND:                -0.556
REMARK SMILES CC1=CCC[C@H](C)C(=O)C[C@H](C(C)C)C(=O)C1
REMARK SMILES IDX 8 1 9 2 6 3 7 4 5 5 4 6 3 7 2 8 1 9 10 11 11 12 15 13 16 14
REMARK SMILES IDX 17 15 12 17 13 18 14 19
REMARK H PARENT
REMARK Flexibility Score: 70.00
ROOT
ATOM      1  C   UNL     1     -19.153  -3.319  23.006  1.00  0.00     0.136 C 
ATOM      2  O   UNL     1     -17.971  -3.165  23.272  1.00  0.00    -0.299 OA
ENDROOT
BRANCH   1   3
ATOM      3  C   UNL     1     -19.573  -4.582  22.239  1.00  0.00     0.053 C 
ATOM      4  C   UNL     1     -20.325  -5.547  23.159  1.00  0.00     0.016 C 
BRANCH   3   5
ATOM      5  C   UNL     1     -20.433  -4.117  21.081  1.00  0.00     0.015 C 
BRANCH   5   6
ATOM      6  C   UNL     1     -20.099  -3.016  20.109  1.00  0.00     0.028 C 
BRANCH   6   7
ATOM      7  C   UNL     1     -21.384  -2.248  19.792  1.00  0.00    -0.028 C 
ATOM      8  C   UNL     1     -21.741  -0.969  20.159  1.00  0.00    -0.070 CG0
ATOM      9  C   UNL     1     -23.148  -0.542  19.813  1.00  0.00     0.039 C 
ATOM     10  G   UNL     1     -20.843   0.083  20.851  1.00  0.00     0.000 G0
ENDBRANCH   6   7
ENDBRANCH   5   6
ENDBRANCH   3   5
ENDBRANCH   1   3
BRANCH   1  11
ATOM     11  C   UNL     1     -20.154  -2.233  23.442  1.00  0.00     0.087 C 
BRANCH  11  12
ATOM     12  C   UNL     1     -19.711  -0.743  23.140  1.00  0.00     0.066 C 
BRANCH  12  13
ATOM     13  C   UNL     1     -20.810   0.034  22.377  1.00  0.00     0.140 C 
ATOM     14  O   UNL     1     -21.646   0.655  23.017  1.00  0.00    -0.299 OA
BRANCH  13  15
ATOM     15  C   UNL     1     -20.857   0.104  20.844  1.00  0.00     0.106 CG0
ATOM     16  G   UNL     1     -21.743  -0.971  20.173  1.00  0.00     0.000 G0
ENDBRANCH  13  15
ENDBRANCH  12  13
BRANCH  12  17
ATOM     17  C   UNL     1     -19.302   0.011  24.448  1.00  0.00    -0.006 C 
ATOM     18  C   UNL     1     -19.847  -0.704  25.701  1.00  0.00     0.008 C 
ATOM     19  C   UNL     1     -17.773   0.143  24.595  1.00  0.00     0.008 C 
ENDBRANCH  12  17
ENDBRANCH  11  12
ENDBRANCH   1  11
TORSDOF 1
ENDMDL
MODEL 7
REMARK VINA RESULT:    -2.940      1.986      2.711
REMARK INTER + INTRA:          -5.042
REMARK INTER:                  -4.636
REMARK INTRA:                  -0.406
REMARK UNBOUND:                -0.556
REMARK SMILES CC1=CCC[C@H](C)C(=O)C[C@H](C(C)C)C(=O)C1
REMARK SMILES IDX 8 1 9 2 6 3 7 4 5 5 4 6 3 7 2 8 1 9 10 11 11 12 15 13 16 14
REMARK SMILES IDX 17 15 12 17 13 18 14 19
REMARK H PARENT
REMARK Flexibility Score: 70.00
ROOT
ATOM      1  C   UNL     1     -16.393   0.378  31.341  1.00  0.00     0.136 C 
ATOM      2  O   UNL     1     -15.752  -0.649  31.506  1.00  0.00    -0.299 OA
ENDROOT
BRANCH   1   3
ATOM      3  C   UNL     1     -17.012   1.061  32.571  1.00  0.00     0.053 C 
ATOM      4  C   UNL     1     -17.361   2.518  32.261  1.00  0.00     0.016 C 
BRANCH   3   5
ATOM      5  C   UNL     1     -18.238   0.250  32.942  1.00  0.00     0.015 C 
BRANCH   5   6
ATOM      6  C   UNL     1     -19.672   0.644  32.704  1.00  0.00     0.028 C 
BRANCH   6   7
ATOM      7  C   UNL     1     -20.287  -0.351  31.719  1.00  0.00    -0.028 C 
ATOM      8  C   UNL     1     -20.296  -0.313  30.341  1.00  0.00    -0.070 CG0
ATOM      9  C   UNL     1     -21.116  -1.374  29.648  1.00  0.00     0.039 C 
ATOM     10  G   UNL     1     -19.527   0.677  29.435  1.00  0.00     0.000 G0
ENDBRANCH   6   7
ENDBRANCH   5   6
ENDBRANCH   3   5
ENDBRANCH   1   3
BRANCH   1  11
ATOM     11  C   UNL     1     -16.554   0.924  29.910  1.00  0.00     0.087 C 
BRANCH  11  12
ATOM     12  C   UNL     1     -17.006  -0.139  28.827  1.00  0.00     0.066 C 
BRANCH  12  13
ATOM     13  C   UNL     1     -18.506   0.007  28.477  1.00  0.00     0.140 C 
ATOM     14  O   UNL     1     -18.917  -0.467  27.428  1.00  0.00    -0.299 OA
BRANCH  13  15
ATOM     15  C   UNL     1     -19.513   0.673  29.426  1.00  0.00     0.106 CG0
ATOM     16  G   UNL     1     -20.283  -0.303  30.344  1.00  0.00     0.000 G0
ENDBRANCH  13  15
ENDBRANCH  12  13
BRANCH  12  17
ATOM     17  C   UNL     1     -16.123  -0.056  27.539  1.00  0.00    -0.006 C 
ATOM     18  C   UNL     1     -15.880   1.407  27.118  1.00  0.00     0.008 C 
ATOM     19  C   UNL     1     -14.754  -0.739  27.722  1.00  0.00     0.008 C 
ENDBRANCH  12  17
ENDBRANCH  11  12
ENDBRANCH   1  11
TORSDOF 1
ENDMDL
MODEL 8
REMARK VINA RESULT:    -2.912      3.007      4.148
REMARK INTER + INTRA:          -5.000
REMARK INTER:                  -4.486
REMARK INTRA:                  -0.514
REMARK UNBOUND:                -0.556
REMARK SMILES CC1=CCC[C@H](C)C(=O)C[C@H](C(C)C)C(=O)C1
REMARK SMILES IDX 8 1 9 2 6 3 7 4 5 5 4 6 3 7 2 8 1 9 10 11 11 12 15 13 16 14
REMARK SMILES IDX 17 15 12 17 13 18 14 19
REMARK H PARENT
REMARK Flexibility Score: 70.00
ROOT
ATOM      1  C   UNL     1     -17.046   1.038  30.875  1.00  0.00     0.136 C 
ATOM      2  O   UNL     1     -16.836   1.939  31.672  1.00  0.00    -0.299 OA
ENDROOT
BRANCH   1   3
ATOM      3  C   UNL     1     -17.475  -0.334  31.417  1.00  0.00     0.053 C 
ATOM      4  C   UNL     1     -17.474  -0.335  32.947  1.00  0.00     0.016 C 
BRANCH   3   5
ATOM      5  C   UNL     1     -18.854  -0.608  30.851  1.00  0.00     0.015 C 
BRANCH   5   6
ATOM      6  C   UNL     1     -19.275  -1.832  30.081  1.00  0.00     0.028 C 
BRANCH   6   7
ATOM      7  C   UNL     1     -20.005  -1.378  28.815  1.00  0.00    -0.028 C 
ATOM      8  C   UNL     1     -19.485  -1.089  27.572  1.00  0.00    -0.070 CG0
ATOM      9  C   UNL     1     -20.450  -0.521  26.559  1.00  0.00     0.039 C 
ATOM     10  G   UNL     1     -18.031  -1.320  27.098  1.00  0.00     0.000 G0
ENDBRANCH   6   7
ENDBRANCH   5   6
ENDBRANCH   3   5
ENDBRANCH   1   3
BRANCH   1  11
ATOM     11  C   UNL     1     -16.857   1.323  29.373  1.00  0.00     0.087 C 
BRANCH  11  12
ATOM     12  C   UNL     1     -16.267   0.123  28.526  1.00  0.00     0.066 C 
BRANCH  12  13
ATOM     13  C   UNL     1     -17.094  -0.128  27.243  1.00  0.00     0.140 C 
ATOM     14  O   UNL     1     -16.962   0.634  26.296  1.00  0.00    -0.299 OA
BRANCH  13  15
ATOM     15  C   UNL     1     -18.031  -1.334  27.089  1.00  0.00     0.106 CG0
ATOM     16  G   UNL     1     -19.478  -1.098  27.582  1.00  0.00     0.000 G0
ENDBRANCH  13  15
ENDBRANCH  12  13
BRANCH  12  17
ATOM     17  C   UNL     1     -14.758   0.351  28.181  1.00  0.00    -0.006 C 
ATOM     18  C   UNL     1     -14.424   1.854  28.094  1.00  0.00     0.008 C 
ATOM     19  C   UNL     1     -13.816  -0.294  29.216  1.00  0.00     0.008 C 
ENDBRANCH  12  17
ENDBRANCH  11  12
ENDBRANCH   1  11
TORSDOF 1
ENDMDL
MODEL 9
REMARK VINA RESULT:    -2.855      2.747      4.953
REMARK INTER + INTRA:          -4.913
REMARK INTER:                  -4.392
REMARK INTRA:                  -0.521
REMARK UNBOUND:                -0.556
REMARK SMILES CC1=CCC[C@H](C)C(=O)C[C@H](C(C)C)C(=O)C1
REMARK SMILES IDX 8 1 9 2 6 3 7 4 5 5 4 6 3 7 2 8 1 9 10 11 11 12 15 13 16 14
REMARK SMILES IDX 17 15 12 17 13 18 14 19
REMARK H PARENT
REMARK Flexibility Score: 70.00
ROOT
ATOM      1  C   UNL     1     -19.570  -1.298  27.077  1.00  0.00     0.136 C 
ATOM      2  O   UNL     1     -19.660  -0.958  25.908  1.00  0.00    -0.299 OA
ENDROOT
BRANCH   1   3
ATOM      3  C   UNL     1     -20.850  -1.703  27.823  1.00  0.00     0.053 C 
ATOM      4  C   UNL     1     -21.353  -3.063  27.334  1.00  0.00     0.016 C 
BRANCH   3   5
ATOM      5  C   UNL     1     -20.500  -1.725  29.298  1.00  0.00     0.015 C 
BRANCH   5   6
ATOM      6  C   UNL     1     -20.837  -0.661  30.310  1.00  0.00     0.028 C 
BRANCH   6   7
ATOM      7  C   UNL     1     -19.889  -0.814  31.501  1.00  0.00    -0.028 C 
ATOM      8  C   UNL     1     -18.630  -0.283  31.680  1.00  0.00    -0.070 CG0
ATOM      9  C   UNL     1     -17.881  -0.738  32.910  1.00  0.00     0.039 C 
ATOM     10  G   UNL     1     -17.923   0.753  30.776  1.00  0.00     0.000 G0
ENDBRANCH   6   7
ENDBRANCH   5   6
ENDBRANCH   3   5
ENDBRANCH   1   3
BRANCH   1  11
ATOM     11  C   UNL     1     -18.180  -1.290  27.742  1.00  0.00     0.087 C 
BRANCH  11  12
ATOM     12  C   UNL     1     -17.637   0.139  28.158  1.00  0.00     0.066 C 
BRANCH  12  13
ATOM     13  C   UNL     1     -17.109   0.146  29.612  1.00  0.00     0.140 C 
ATOM     14  O   UNL     1     -15.994  -0.301  29.837  1.00  0.00    -0.299 OA
BRANCH  13  15
ATOM     15  C   UNL     1     -17.908   0.749  30.776  1.00  0.00     0.106 CG0
ATOM     16  G   UNL     1     -18.644  -0.284  31.660  1.00  0.00     0.000 G0
ENDBRANCH  13  15
ENDBRANCH  12  13
BRANCH  12  17
ATOM     17  C   UNL     1     -16.541   0.647  27.164  1.00  0.00    -0.006 C 
ATOM     18  C   UNL     1     -15.890  -0.524  26.400  1.00  0.00     0.008 C 
ATOM     19  C   UNL     1     -17.103   1.643  26.131  1.00  0.00     0.008 C 
ENDBRANCH  12  17
ENDBRANCH  11  12
ENDBRANCH   1  11
TORSDOF 1
ENDMDL
