MODEL 1
REMARK VINA RESULT:    -6.394      0.000      0.000
REMARK INTER + INTRA:         -11.780
REMARK INTER:                  -9.758
REMARK INTRA:                  -2.023
REMARK UNBOUND:                -2.023
REMARK SMILES CC(=O)CCC=C(C)CCC=C(C)CCC=C(C)C
REMARK SMILES IDX 10 1 11 2 12 3 13 4 14 5 15 6 16 7 18 8 17 9 19 10 9 11 7 12
REMARK SMILES IDX 6 13 8 14 5 15 4 16 2 17 3 18 1 19
REMARK H PARENT
REMARK Flexibility Score: inf
ROOT
ATOM      1  C   UNL     1     -10.494 -34.861  29.917  1.00  0.00     0.032 C 
ENDROOT
BRANCH   1   2
ATOM      2  C   UNL     1     -10.244 -34.403  31.333  1.00  0.00    -0.028 C 
ATOM      3  C   UNL     1     -11.186 -33.915  32.174  1.00  0.00    -0.077 C 
ATOM      4  C   UNL     1     -10.750 -33.468  33.546  1.00  0.00     0.039 C 
BRANCH   3   5
ATOM      5  C   UNL     1     -12.657 -33.826  31.811  1.00  0.00     0.034 C 
BRANCH   5   6
ATOM      6  C   UNL     1     -13.398 -35.146  32.060  1.00  0.00     0.032 C 
BRANCH   6   7
ATOM      7  C   UNL     1     -13.608 -35.909  30.772  1.00  0.00    -0.028 C 
ATOM      8  C   UNL     1     -12.496 -37.991  31.614  1.00  0.00     0.039 C 
ATOM      9  C   UNL     1     -13.227 -37.190  30.566  1.00  0.00    -0.080 C 
ATOM     10  C   UNL     1     -13.558 -37.869  29.262  1.00  0.00     0.039 C 
ENDBRANCH   6   7
ENDBRANCH   5   6
ENDBRANCH   3   5
ENDBRANCH   1   2
BRANCH   1  11
ATOM     11  C   UNL     1     -10.747 -33.667  28.989  1.00  0.00     0.034 C 
BRANCH  11  12
ATOM     12  C   UNL     1     -11.798 -33.999  27.947  1.00  0.00    -0.077 C 
ATOM     13  C   UNL     1     -13.037 -33.454  27.941  1.00  0.00    -0.028 C 
ATOM     14  C   UNL     1     -11.456 -34.991  26.864  1.00  0.00     0.039 C 
BRANCH  13  15
ATOM     15  C   UNL     1     -13.544 -32.421  28.918  1.00  0.00     0.035 C 
BRANCH  15  16
ATOM     16  C   UNL     1     -14.697 -31.598  28.332  1.00  0.00     0.079 C 
BRANCH  16  17
ATOM     17  C   UNL     1     -15.607 -31.062  29.404  1.00  0.00     0.130 C 
ATOM     18  O   UNL     1     -16.438 -30.209  29.127  1.00  0.00    -0.300 OA
ATOM     19  C   UNL     1     -15.513 -31.578  30.808  1.00  0.00     0.087 C 
ENDBRANCH  16  17
ENDBRANCH  15  16
ENDBRANCH  13  15
ENDBRANCH  11  12
ENDBRANCH   1  11
TORSDOF 9
ENDMDL
MODEL 2
REMARK VINA RESULT:    -6.357      2.292      5.623
REMARK INTER + INTRA:         -11.724
REMARK INTER:                  -9.517
REMARK INTRA:                  -2.207
REMARK UNBOUND:                -2.023
REMARK SMILES CC(=O)CCC=C(C)CCC=C(C)CCC=C(C)C
REMARK SMILES IDX 10 1 11 2 12 3 13 4 14 5 15 6 16 7 18 8 17 9 19 10 9 11 7 12
REMARK SMILES IDX 6 13 8 14 5 15 4 16 2 17 3 18 1 19
REMARK H PARENT
REMARK Flexibility Score: inf
ROOT
ATOM      1  C   UNL     1      -9.884 -33.843  30.369  1.00  0.00     0.032 C 
ENDROOT
BRANCH   1   2
ATOM      2  C   UNL     1     -10.255 -34.444  29.035  1.00  0.00    -0.028 C 
ATOM      3  C   UNL     1     -11.308 -34.065  28.274  1.00  0.00    -0.077 C 
ATOM      4  C   UNL     1     -11.553 -34.801  26.981  1.00  0.00     0.039 C 
BRANCH   3   5
ATOM      5  C   UNL     1     -12.231 -32.918  28.645  1.00  0.00     0.034 C 
BRANCH   5   6
ATOM      6  C   UNL     1     -13.690 -33.198  28.263  1.00  0.00     0.032 C 
BRANCH   6   7
ATOM      7  C   UNL     1     -14.471 -31.915  28.098  1.00  0.00    -0.028 C 
ATOM      8  C   UNL     1     -15.154 -31.809  30.506  1.00  0.00     0.039 C 
ATOM      9  C   UNL     1     -15.114 -31.272  29.097  1.00  0.00    -0.080 C 
ATOM     10  C   UNL     1     -15.799 -29.957  28.823  1.00  0.00     0.039 C 
ENDBRANCH   6   7
ENDBRANCH   5   6
ENDBRANCH   3   5
ENDBRANCH   1   2
BRANCH   1  11
ATOM     11  C   UNL     1     -10.333 -34.748  31.523  1.00  0.00     0.034 C 
BRANCH  11  12
ATOM     12  C   UNL     1     -11.275 -34.012  32.457  1.00  0.00    -0.077 C 
ATOM     13  C   UNL     1     -12.623 -34.093  32.368  1.00  0.00    -0.028 C 
ATOM     14  C   UNL     1     -10.688 -33.139  33.537  1.00  0.00     0.039 C 
BRANCH  13  15
ATOM     15  C   UNL     1     -13.386 -34.940  31.379  1.00  0.00     0.035 C 
BRANCH  15  16
ATOM     16  C   UNL     1     -13.659 -36.347  31.924  1.00  0.00     0.079 C 
BRANCH  16  17
ATOM     17  C   UNL     1     -13.009 -37.412  31.082  1.00  0.00     0.130 C 
ATOM     18  O   UNL     1     -12.597 -38.436  31.608  1.00  0.00    -0.300 OA
ATOM     19  C   UNL     1     -12.877 -37.233  29.601  1.00  0.00     0.087 C 
ENDBRANCH  16  17
ENDBRANCH  15  16
ENDBRANCH  13  15
ENDBRANCH  11  12
ENDBRANCH   1  11
TORSDOF 9
ENDMDL
MODEL 3
REMARK VINA RESULT:    -6.203      2.356      4.459
REMARK INTER + INTRA:         -11.489
REMARK INTER:                  -9.383
REMARK INTRA:                  -2.106
REMARK UNBOUND:                -2.023
REMARK SMILES CC(=O)CCC=C(C)CCC=C(C)CCC=C(C)C
REMARK SMILES IDX 10 1 11 2 12 3 13 4 14 5 15 6 16 7 18 8 17 9 19 10 9 11 7 12
REMARK SMILES IDX 6 13 8 14 5 15 4 16 2 17 3 18 1 19
REMARK H PARENT
REMARK Flexibility Score: inf
ROOT
ATOM      1  C   UNL     1     -10.591 -32.984  29.978  1.00  0.00     0.032 C 
ENDROOT
BRANCH   1   2
ATOM      2  C   UNL     1     -10.070 -33.974  30.991  1.00  0.00    -0.028 C 
ATOM      3  C   UNL     1     -10.593 -34.182  32.222  1.00  0.00    -0.077 C 
ATOM      4  C   UNL     1      -9.919 -35.188  33.120  1.00  0.00     0.039 C 
BRANCH   3   5
ATOM      5  C   UNL     1     -11.840 -33.475  32.723  1.00  0.00     0.034 C 
BRANCH   5   6
ATOM      6  C   UNL     1     -13.116 -34.281  32.446  1.00  0.00     0.032 C 
BRANCH   6   7
ATOM      7  C   UNL     1     -14.101 -33.484  31.624  1.00  0.00    -0.028 C 
ATOM      8  C   UNL     1     -14.825 -32.053  33.550  1.00  0.00     0.039 C 
ATOM      9  C   UNL     1     -14.858 -32.470  32.101  1.00  0.00    -0.080 C 
ATOM     10  C   UNL     1     -15.753 -31.699  31.165  1.00  0.00     0.039 C 
ENDBRANCH   6   7
ENDBRANCH   5   6
ENDBRANCH   3   5
ENDBRANCH   1   2
BRANCH   1  11
ATOM     11  C   UNL     1     -11.042 -33.695  28.696  1.00  0.00     0.034 C 
BRANCH  11  12
ATOM     12  C   UNL     1     -12.552 -33.658  28.555  1.00  0.00    -0.077 C 
ATOM     13  C   UNL     1     -13.312 -34.769  28.417  1.00  0.00    -0.028 C 
ATOM     14  C   UNL     1     -13.247 -32.320  28.559  1.00  0.00     0.039 C 
BRANCH  13  15
ATOM     15  C   UNL     1     -12.799 -36.189  28.427  1.00  0.00     0.035 C 
BRANCH  15  16
ATOM     16  C   UNL     1     -13.372 -36.995  29.598  1.00  0.00     0.079 C 
BRANCH  16  17
ATOM     17  C   UNL     1     -12.320 -37.322  30.624  1.00  0.00     0.130 C 
ATOM     18  O   UNL     1     -11.166 -36.958  30.450  1.00  0.00    -0.300 OA
ATOM     19  C   UNL     1     -12.680 -38.082  31.864  1.00  0.00     0.087 C 
ENDBRANCH  16  17
ENDBRANCH  15  16
ENDBRANCH  13  15
ENDBRANCH  11  12
ENDBRANCH   1  11
TORSDOF 9
ENDMDL
MODEL 4
REMARK VINA RESULT:    -6.176      1.660      3.894
REMARK INTER + INTRA:         -11.448
REMARK INTER:                  -9.316
REMARK INTRA:                  -2.132
REMARK UNBOUND:                -2.023
REMARK SMILES CC(=O)CCC=C(C)CCC=C(C)CCC=C(C)C
REMARK SMILES IDX 10 1 11 2 12 3 13 4 14 5 15 6 16 7 18 8 17 9 19 10 9 11 7 12
REMARK SMILES IDX 6 13 8 14 5 15 4 16 2 17 3 18 1 19
REMARK H PARENT
REMARK Flexibility Score: inf
ROOT
ATOM      1  C   UNL     1     -10.244 -36.308  30.894  1.00  0.00     0.032 C 
ENDROOT
BRANCH   1   2
ATOM      2  C   UNL     1     -10.409 -35.337  32.038  1.00  0.00    -0.028 C 
ATOM      3  C   UNL     1     -10.220 -33.999  31.961  1.00  0.00    -0.077 C 
ATOM      4  C   UNL     1     -10.394 -33.183  33.216  1.00  0.00     0.039 C 
BRANCH   3   5
ATOM      5  C   UNL     1      -9.875 -33.283  30.667  1.00  0.00     0.034 C 
BRANCH   5   6
ATOM      6  C   UNL     1     -11.110 -33.040  29.790  1.00  0.00     0.032 C 
BRANCH   6   7
ATOM      7  C   UNL     1     -10.997 -33.767  28.470  1.00  0.00    -0.028 C 
ATOM      8  C   UNL     1     -13.421 -33.486  27.902  1.00  0.00     0.039 C 
ATOM      9  C   UNL     1     -12.019 -33.956  27.605  1.00  0.00    -0.080 C 
ATOM     10  C   UNL     1     -11.766 -34.632  26.283  1.00  0.00     0.039 C 
ENDBRANCH   6   7
ENDBRANCH   5   6
ENDBRANCH   3   5
ENDBRANCH   1   2
BRANCH   1  11
ATOM     11  C   UNL     1     -11.601 -36.665  30.276  1.00  0.00     0.034 C 
BRANCH  11  12
ATOM     12  C   UNL     1     -12.602 -37.057  31.347  1.00  0.00    -0.077 C 
ATOM     13  C   UNL     1     -13.581 -36.232  31.786  1.00  0.00    -0.028 C 
ATOM     14  C   UNL     1     -12.503 -38.429  31.963  1.00  0.00     0.039 C 
BRANCH  13  15
ATOM     15  C   UNL     1     -13.855 -34.842  31.263  1.00  0.00     0.035 C 
BRANCH  15  16
ATOM     16  C   UNL     1     -13.915 -33.809  32.394  1.00  0.00     0.079 C 
BRANCH  16  17
ATOM     17  C   UNL     1     -15.098 -32.889  32.253  1.00  0.00     0.130 C 
ATOM     18  O   UNL     1     -16.012 -32.945  33.063  1.00  0.00    -0.300 OA
ATOM     19  C   UNL     1     -15.158 -31.895  31.134  1.00  0.00     0.087 C 
ENDBRANCH  16  17
ENDBRANCH  15  16
ENDBRANCH  13  15
ENDBRANCH  11  12
ENDBRANCH   1  11
TORSDOF 9
ENDMDL
MODEL 5
REMARK VINA RESULT:    -6.111      2.084      4.750
REMARK INTER + INTRA:         -11.348
REMARK INTER:                  -9.865
REMARK INTRA:                  -1.484
REMARK UNBOUND:                -2.023
REMARK SMILES CC(=O)CCC=C(C)CCC=C(C)CCC=C(C)C
REMARK SMILES IDX 10 1 11 2 12 3 13 4 14 5 15 6 16 7 18 8 17 9 19 10 9 11 7 12
REMARK SMILES IDX 6 13 8 14 5 15 4 16 2 17 3 18 1 19
REMARK H PARENT
REMARK Flexibility Score: inf
ROOT
ATOM      1  C   UNL     1     -13.434 -36.742  31.672  1.00  0.00     0.032 C 
ENDROOT
BRANCH   1   2
ATOM      2  C   UNL     1     -12.487 -35.718  32.248  1.00  0.00    -0.028 C 
ATOM      3  C   UNL     1     -12.744 -34.395  32.365  1.00  0.00    -0.077 C 
ATOM      4  C   UNL     1     -11.665 -33.508  32.932  1.00  0.00     0.039 C 
BRANCH   3   5
ATOM      5  C   UNL     1     -14.075 -33.771  31.983  1.00  0.00     0.034 C 
BRANCH   5   6
ATOM      6  C   UNL     1     -13.947 -32.815  30.790  1.00  0.00     0.032 C 
BRANCH   6   7
ATOM      7  C   UNL     1     -15.166 -31.931  30.662  1.00  0.00    -0.028 C 
ATOM      8  C   UNL     1     -14.724 -31.363  28.262  1.00  0.00     0.039 C 
ATOM      9  C   UNL     1     -15.537 -31.290  29.531  1.00  0.00    -0.080 C 
ATOM     10  C   UNL     1     -16.816 -30.494  29.506  1.00  0.00     0.039 C 
ENDBRANCH   6   7
ENDBRANCH   5   6
ENDBRANCH   3   5
ENDBRANCH   1   2
BRANCH   1  11
ATOM     11  C   UNL     1     -12.755 -37.560  30.568  1.00  0.00     0.034 C 
BRANCH  11  12
ATOM     12  C   UNL     1     -13.313 -37.204  29.203  1.00  0.00    -0.077 C 
ATOM     13  C   UNL     1     -12.873 -36.155  28.471  1.00  0.00    -0.028 C 
ATOM     14  C   UNL     1     -14.419 -38.053  28.630  1.00  0.00     0.039 C 
BRANCH  13  15
ATOM     15  C   UNL     1     -11.754 -35.220  28.865  1.00  0.00     0.035 C 
BRANCH  15  16
ATOM     16  C   UNL     1     -11.733 -33.957  27.996  1.00  0.00     0.079 C 
BRANCH  16  17
ATOM     17  C   UNL     1     -12.179 -34.236  26.586  1.00  0.00     0.130 C 
ATOM     18  O   UNL     1     -11.395 -34.725  25.786  1.00  0.00    -0.300 OA
ATOM     19  C   UNL     1     -13.582 -33.932  26.159  1.00  0.00     0.087 C 
ENDBRANCH  16  17
ENDBRANCH  15  16
ENDBRANCH  13  15
ENDBRANCH  11  12
ENDBRANCH   1  11
TORSDOF 9
ENDMDL
MODEL 6
REMARK VINA RESULT:    -6.087      2.269      5.196
REMARK INTER + INTRA:         -11.312
REMARK INTER:                  -8.973
REMARK INTRA:                  -2.339
REMARK UNBOUND:                -2.023
REMARK SMILES CC(=O)CCC=C(C)CCC=C(C)CCC=C(C)C
REMARK SMILES IDX 10 1 11 2 12 3 13 4 14 5 15 6 16 7 18 8 17 9 19 10 9 11 7 12
REMARK SMILES IDX 6 13 8 14 5 15 4 16 2 17 3 18 1 19
REMARK H PARENT
REMARK Flexibility Score: inf
ROOT
ATOM      1  C   UNL     1     -10.246 -33.661  29.843  1.00  0.00     0.032 C 
ENDROOT
BRANCH   1   2
ATOM      2  C   UNL     1     -10.825 -34.102  28.521  1.00  0.00    -0.028 C 
ATOM      3  C   UNL     1     -12.073 -33.818  28.080  1.00  0.00    -0.077 C 
ATOM      4  C   UNL     1     -12.500 -34.373  26.745  1.00  0.00     0.039 C 
BRANCH   3   5
ATOM      5  C   UNL     1     -13.046 -32.943  28.851  1.00  0.00     0.034 C 
BRANCH   5   6
ATOM      6  C   UNL     1     -13.705 -33.693  30.015  1.00  0.00     0.032 C 
BRANCH   6   7
ATOM      7  C   UNL     1     -14.147 -32.741  31.102  1.00  0.00    -0.028 C 
ATOM      8  C   UNL     1     -14.800 -34.568  32.687  1.00  0.00     0.039 C 
ATOM      9  C   UNL     1     -14.621 -33.119  32.311  1.00  0.00    -0.080 C 
ATOM     10  C   UNL     1     -14.961 -32.074  33.342  1.00  0.00     0.039 C 
ENDBRANCH   6   7
ENDBRANCH   5   6
ENDBRANCH   3   5
ENDBRANCH   1   2
BRANCH   1  11
ATOM     11  C   UNL     1     -10.001 -34.862  30.764  1.00  0.00     0.034 C 
BRANCH  11  12
ATOM     12  C   UNL     1     -10.911 -34.811  31.978  1.00  0.00    -0.077 C 
ATOM     13  C   UNL     1     -11.704 -35.841  32.355  1.00  0.00    -0.028 C 
ATOM     14  C   UNL     1     -10.943 -33.553  32.806  1.00  0.00     0.039 C 
BRANCH  13  15
ATOM     15  C   UNL     1     -11.777 -37.186  31.672  1.00  0.00     0.035 C 
BRANCH  15  16
ATOM     16  C   UNL     1     -13.162 -37.444  31.068  1.00  0.00     0.079 C 
BRANCH  16  17
ATOM     17  C   UNL     1     -13.151 -37.331  29.567  1.00  0.00     0.130 C 
ATOM     18  O   UNL     1     -12.132 -36.980  28.991  1.00  0.00    -0.300 OA
ATOM     19  C   UNL     1     -14.378 -37.659  28.772  1.00  0.00     0.087 C 
ENDBRANCH  16  17
ENDBRANCH  15  16
ENDBRANCH  13  15
ENDBRANCH  11  12
ENDBRANCH   1  11
TORSDOF 9
ENDMDL
MODEL 7
REMARK VINA RESULT:    -6.078      1.678      3.931
REMARK INTER + INTRA:         -11.299
REMARK INTER:                  -9.513
REMARK INTRA:                  -1.786
REMARK UNBOUND:                -2.023
REMARK SMILES CC(=O)CCC=C(C)CCC=C(C)CCC=C(C)C
REMARK SMILES IDX 10 1 11 2 12 3 13 4 14 5 15 6 16 7 18 8 17 9 19 10 9 11 7 12
REMARK SMILES IDX 6 13 8 14 5 15 4 16 2 17 3 18 1 19
REMARK H PARENT
REMARK Flexibility Score: inf
ROOT
ATOM      1  C   UNL     1     -10.522 -33.436  29.529  1.00  0.00     0.032 C 
ENDROOT
BRANCH   1   2
ATOM      2  C   UNL     1     -11.828 -32.717  29.292  1.00  0.00    -0.028 C 
ATOM      3  C   UNL     1     -12.741 -33.047  28.349  1.00  0.00    -0.077 C 
ATOM      4  C   UNL     1     -13.978 -32.193  28.228  1.00  0.00     0.039 C 
BRANCH   3   5
ATOM      5  C   UNL     1     -12.592 -34.249  27.434  1.00  0.00     0.034 C 
BRANCH   5   6
ATOM      6  C   UNL     1     -13.582 -35.369  27.780  1.00  0.00     0.032 C 
BRANCH   6   7
ATOM      7  C   UNL     1     -13.220 -36.037  29.087  1.00  0.00    -0.028 C 
ATOM      8  C   UNL     1     -14.384 -38.182  28.519  1.00  0.00     0.039 C 
ATOM      9  C   UNL     1     -13.555 -37.303  29.422  1.00  0.00    -0.080 C 
ATOM     10  C   UNL     1     -13.072 -37.885  30.725  1.00  0.00     0.039 C 
ENDBRANCH   6   7
ENDBRANCH   5   6
ENDBRANCH   3   5
ENDBRANCH   1   2
BRANCH   1  11
ATOM     11  C   UNL     1     -10.644 -34.430  30.690  1.00  0.00     0.034 C 
BRANCH  11  12
ATOM     12  C   UNL     1     -10.958 -33.715  31.990  1.00  0.00    -0.077 C 
ATOM     13  C   UNL     1     -12.169 -33.768  32.594  1.00  0.00    -0.028 C 
ATOM     14  C   UNL     1      -9.875 -32.897  32.646  1.00  0.00     0.039 C 
BRANCH  13  15
ATOM     15  C   UNL     1     -13.357 -34.561  32.106  1.00  0.00     0.035 C 
BRANCH  15  16
ATOM     16  C   UNL     1     -14.655 -34.129  32.798  1.00  0.00     0.079 C 
BRANCH  16  17
ATOM     17  C   UNL     1     -14.870 -32.642  32.710  1.00  0.00     0.130 C 
ATOM     18  O   UNL     1     -14.755 -31.950  33.712  1.00  0.00    -0.300 OA
ATOM     19  C   UNL     1     -15.212 -32.000  31.400  1.00  0.00     0.087 C 
ENDBRANCH  16  17
ENDBRANCH  15  16
ENDBRANCH  13  15
ENDBRANCH  11  12
ENDBRANCH   1  11
TORSDOF 9
ENDMDL
MODEL 8
REMARK VINA RESULT:    -5.936      1.474      4.092
REMARK INTER + INTRA:         -11.082
REMARK INTER:                  -9.081
REMARK INTRA:                  -2.001
REMARK UNBOUND:                -2.023
REMARK SMILES CC(=O)CCC=C(C)CCC=C(C)CCC=C(C)C
REMARK SMILES IDX 10 1 11 2 12 3 13 4 14 5 15 6 16 7 18 8 17 9 19 10 9 11 7 12
REMARK SMILES IDX 6 13 8 14 5 15 4 16 2 17 3 18 1 19
REMARK H PARENT
REMARK Flexibility Score: inf
ROOT
ATOM      1  C   UNL     1     -10.262 -36.241  30.969  1.00  0.00     0.032 C 
ENDROOT
BRANCH   1   2
ATOM      2  C   UNL     1     -10.056 -34.756  30.795  1.00  0.00    -0.028 C 
ATOM      3  C   UNL     1     -10.183 -34.081  29.629  1.00  0.00    -0.077 C 
ATOM      4  C   UNL     1      -9.903 -32.600  29.631  1.00  0.00     0.039 C 
BRANCH   3   5
ATOM      5  C   UNL     1     -10.624 -34.739  28.333  1.00  0.00     0.034 C 
BRANCH   5   6
ATOM      6  C   UNL     1     -12.147 -34.904  28.254  1.00  0.00     0.032 C 
BRANCH   6   7
ATOM      7  C   UNL     1     -12.856 -33.597  28.522  1.00  0.00    -0.028 C 
ATOM      8  C   UNL     1     -14.125 -33.635  26.362  1.00  0.00     0.039 C 
ATOM      9  C   UNL     1     -13.759 -33.027  27.692  1.00  0.00    -0.080 C 
ATOM     10  C   UNL     1     -14.456 -31.756  28.104  1.00  0.00     0.039 C 
ENDBRANCH   6   7
ENDBRANCH   5   6
ENDBRANCH   3   5
ENDBRANCH   1   2
BRANCH   1  11
ATOM     11  C   UNL     1     -11.349 -36.527  32.012  1.00  0.00     0.034 C 
BRANCH  11  12
ATOM     12  C   UNL     1     -12.717 -36.615  31.362  1.00  0.00    -0.077 C 
ATOM     13  C   UNL     1     -13.690 -35.693  31.552  1.00  0.00    -0.028 C 
ATOM     14  C   UNL     1     -13.019 -37.788  30.465  1.00  0.00     0.039 C 
BRANCH  13  15
ATOM     15  C   UNL     1     -13.559 -34.440  32.383  1.00  0.00     0.035 C 
BRANCH  15  16
ATOM     16  C   UNL     1     -13.781 -33.174  31.547  1.00  0.00     0.079 C 
BRANCH  16  17
ATOM     17  C   UNL     1     -15.058 -32.470  31.918  1.00  0.00     0.130 C 
ATOM     18  O   UNL     1     -15.421 -31.492  31.282  1.00  0.00    -0.300 OA
ATOM     19  C   UNL     1     -15.896 -32.970  33.056  1.00  0.00     0.087 C 
ENDBRANCH  16  17
ENDBRANCH  15  16
ENDBRANCH  13  15
ENDBRANCH  11  12
ENDBRANCH   1  11
TORSDOF 9
ENDMDL
