MODEL 1
REMARK VINA RESULT:    -3.428      0.000      0.000
REMARK INTER + INTRA:          -4.132
REMARK INTER:                  -4.129
REMARK INTRA:                  -0.003
REMARK UNBOUND:                -0.003
REMARK SMILES OCC(O)CO
REMARK SMILES IDX 3 1 5 2 6 3 2 5 1 6 4 8
REMARK H PARENT 6 4 1 7 4 9
REMARK Flexibility Score: inf
ROOT
ATOM      1  C   UNL     1     -32.339  52.486 -50.550  1.00  0.00     0.165 C 
ENDROOT
BRANCH   1   2
ATOM      2  C   UNL     1     -31.630  53.677 -51.223  1.00  0.00     0.190 C 
BRANCH   2   3
ATOM      3  O   UNL     1     -31.967  54.875 -50.579  1.00  0.00    -0.394 OA
ATOM      4  H   UNL     1     -31.133  55.411 -50.523  1.00  0.00     0.210 HD
ENDBRANCH   2   3
ENDBRANCH   1   2
BRANCH   1   5
ATOM      5  C   UNL     1     -32.138  51.178 -51.333  1.00  0.00     0.190 C 
BRANCH   5   6
ATOM      6  O   UNL     1     -31.627  50.163 -50.509  1.00  0.00    -0.394 OA
ATOM      7  H   UNL     1     -31.983  49.303 -50.857  1.00  0.00     0.210 HD
ENDBRANCH   5   6
ENDBRANCH   1   5
BRANCH   1   8
ATOM      8  O   UNL     1     -31.928  52.338 -49.213  1.00  0.00    -0.388 OA
ATOM      9  H   UNL     1     -31.212  53.005 -49.039  1.00  0.00     0.211 HD
ENDBRANCH   1   8
TORSDOF 5
ENDMDL
MODEL 2
REMARK VINA RESULT:    -3.394     11.957     13.139
REMARK INTER + INTRA:          -4.091
REMARK INTER:                  -3.883
REMARK INTRA:                  -0.208
REMARK UNBOUND:                -0.003
REMARK SMILES OCC(O)CO
REMARK SMILES IDX 3 1 5 2 6 3 2 5 1 6 4 8
REMARK H PARENT 6 4 1 7 4 9
REMARK Flexibility Score: inf
ROOT
ATOM      1  C   UNL     1     -41.604  43.197 -52.446  1.00  0.00     0.165 C 
ENDROOT
BRANCH   1   2
ATOM      2  C   UNL     1     -40.612  44.365 -52.605  1.00  0.00     0.190 C 
BRANCH   2   3
ATOM      3  O   UNL     1     -39.374  44.037 -52.035  1.00  0.00    -0.394 OA
ATOM      4  H   UNL     1     -39.086  43.184 -52.453  1.00  0.00     0.210 HD
ENDBRANCH   2   3
ENDBRANCH   1   2
BRANCH   1   5
ATOM      5  C   UNL     1     -41.251  42.301 -51.246  1.00  0.00     0.190 C 
BRANCH   5   6
ATOM      6  O   UNL     1     -41.449  42.975 -50.030  1.00  0.00    -0.394 OA
ATOM      7  H   UNL     1     -40.624  42.847 -49.493  1.00  0.00     0.210 HD
ENDBRANCH   5   6
ENDBRANCH   1   5
BRANCH   1   8
ATOM      8  O   UNL     1     -42.928  43.662 -52.353  1.00  0.00    -0.388 OA
ATOM      9  H   UNL     1     -42.966  44.324 -51.614  1.00  0.00     0.211 HD
ENDBRANCH   1   8
TORSDOF 5
ENDMDL
MODEL 3
REMARK VINA RESULT:    -3.375      1.247      2.977
REMARK INTER + INTRA:          -4.068
REMARK INTER:                  -3.892
REMARK INTRA:                  -0.175
REMARK UNBOUND:                -0.003
REMARK SMILES OCC(O)CO
REMARK SMILES IDX 3 1 5 2 6 3 2 5 1 6 4 8
REMARK H PARENT 6 4 1 7 4 9
REMARK Flexibility Score: inf
ROOT
ATOM      1  C   UNL     1     -32.042  52.823 -51.062  1.00  0.00     0.165 C 
ENDROOT
BRANCH   1   2
ATOM      2  C   UNL     1     -32.250  52.459 -49.580  1.00  0.00     0.190 C 
BRANCH   2   3
ATOM      3  O   UNL     1     -31.548  53.348 -48.754  1.00  0.00    -0.394 OA
ATOM      4  H   UNL     1     -32.219  53.771 -48.157  1.00  0.00     0.210 HD
ENDBRANCH   2   3
ENDBRANCH   1   2
BRANCH   1   5
ATOM      5  C   UNL     1     -31.268  54.142 -51.228  1.00  0.00     0.190 C 
BRANCH   5   6
ATOM      6  O   UNL     1     -31.962  55.218 -50.651  1.00  0.00    -0.394 OA
ATOM      7  H   UNL     1     -32.914  54.943 -50.584  1.00  0.00     0.210 HD
ENDBRANCH   5   6
ENDBRANCH   1   5
BRANCH   1   8
ATOM      8  O   UNL     1     -31.409  51.779 -51.760  1.00  0.00    -0.388 OA
ATOM      9  H   UNL     1     -31.972  51.555 -52.547  1.00  0.00     0.211 HD
ENDBRANCH   1   8
TORSDOF 5
ENDMDL
MODEL 4
REMARK VINA RESULT:    -3.338      1.591      2.301
REMARK INTER + INTRA:          -4.023
REMARK INTER:                  -3.848
REMARK INTRA:                  -0.175
REMARK UNBOUND:                -0.003
REMARK SMILES OCC(O)CO
REMARK SMILES IDX 3 1 5 2 6 3 2 5 1 6 4 8
REMARK H PARENT 6 4 1 7 4 9
REMARK Flexibility Score: inf
ROOT
ATOM      1  C   UNL     1     -31.944  52.773 -50.490  1.00  0.00     0.165 C 
ENDROOT
BRANCH   1   2
ATOM      2  C   UNL     1     -31.436  54.044 -51.196  1.00  0.00     0.190 C 
BRANCH   2   3
ATOM      3  O   UNL     1     -32.008  55.187 -50.618  1.00  0.00    -0.394 OA
ATOM      4  H   UNL     1     -31.323  55.569 -50.008  1.00  0.00     0.210 HD
ENDBRANCH   2   3
ENDBRANCH   1   2
BRANCH   1   5
ATOM      5  C   UNL     1     -31.945  52.925 -48.959  1.00  0.00     0.190 C 
BRANCH   5   6
ATOM      6  O   UNL     1     -30.961  53.832 -48.536  1.00  0.00    -0.394 OA
ATOM      7  H   UNL     1     -30.288  53.888 -49.265  1.00  0.00     0.210 HD
ENDBRANCH   5   6
ENDBRANCH   1   5
BRANCH   1   8
ATOM      8  O   UNL     1     -33.218  52.404 -50.958  1.00  0.00    -0.388 OA
ATOM      9  H   UNL     1     -33.130  51.530 -51.421  1.00  0.00     0.211 HD
ENDBRANCH   1   8
TORSDOF 5
ENDMDL
MODEL 5
REMARK VINA RESULT:    -3.301     13.944     15.118
REMARK INTER + INTRA:          -3.979
REMARK INTER:                  -3.976
REMARK INTRA:                  -0.003
REMARK UNBOUND:                -0.003
REMARK SMILES OCC(O)CO
REMARK SMILES IDX 3 1 5 2 6 3 2 5 1 6 4 8
REMARK H PARENT 6 4 1 7 4 9
REMARK Flexibility Score: inf
ROOT
ATOM      1  C   UNL     1     -41.484  40.638 -49.635  1.00  0.00     0.165 C 
ENDROOT
BRANCH   1   2
ATOM      2  C   UNL     1     -41.032  41.780 -50.565  1.00  0.00     0.190 C 
BRANCH   2   3
ATOM      3  O   UNL     1     -41.479  43.016 -50.076  1.00  0.00    -0.394 OA
ATOM      4  H   UNL     1     -41.165  43.080 -49.137  1.00  0.00     0.210 HD
ENDBRANCH   2   3
ENDBRANCH   1   2
BRANCH   1   5
ATOM      5  C   UNL     1     -41.023  39.262 -50.146  1.00  0.00     0.190 C 
BRANCH   5   6
ATOM      6  O   UNL     1     -41.780  38.227 -49.576  1.00  0.00    -0.394 OA
ATOM      7  H   UNL     1     -42.727  38.525 -49.581  1.00  0.00     0.210 HD
ENDBRANCH   5   6
ENDBRANCH   1   5
BRANCH   1   8
ATOM      8  O   UNL     1     -41.050  40.854 -48.315  1.00  0.00    -0.388 OA
ATOM      9  H   UNL     1     -41.240  40.030 -47.794  1.00  0.00     0.211 HD
ENDBRANCH   1   8
TORSDOF 5
ENDMDL
MODEL 6
REMARK VINA RESULT:    -3.285     13.535     14.671
REMARK INTER + INTRA:          -3.959
REMARK INTER:                  -3.761
REMARK INTRA:                  -0.198
REMARK UNBOUND:                -0.003
REMARK SMILES OCC(O)CO
REMARK SMILES IDX 3 1 5 2 6 3 2 5 1 6 4 8
REMARK H PARENT 6 4 1 7 4 9
REMARK Flexibility Score: inf
ROOT
ATOM      1  C   UNL     1     -41.048  40.766 -50.863  1.00  0.00     0.165 C 
ENDROOT
BRANCH   1   2
ATOM      2  C   UNL     1     -41.740  40.490 -49.516  1.00  0.00     0.190 C 
BRANCH   2   3
ATOM      3  O   UNL     1     -40.969  40.988 -48.457  1.00  0.00    -0.394 OA
ATOM      4  H   UNL     1     -40.850  40.240 -47.815  1.00  0.00     0.210 HD
ENDBRANCH   2   3
ENDBRANCH   1   2
BRANCH   1   5
ATOM      5  C   UNL     1     -40.728  42.259 -51.052  1.00  0.00     0.190 C 
BRANCH   5   6
ATOM      6  O   UNL     1     -41.500  43.059 -50.194  1.00  0.00    -0.394 OA
ATOM      7  H   UNL     1     -42.255  43.415 -50.734  1.00  0.00     0.210 HD
ENDBRANCH   5   6
ENDBRANCH   1   5
BRANCH   1   8
ATOM      8  O   UNL     1     -39.889  39.983 -51.011  1.00  0.00    -0.388 OA
ATOM      9  H   UNL     1     -39.845  39.357 -50.241  1.00  0.00     0.211 HD
ENDBRANCH   1   8
TORSDOF 5
ENDMDL
MODEL 7
REMARK VINA RESULT:    -3.268     13.959     15.411
REMARK INTER + INTRA:          -3.940
REMARK INTER:                  -3.937
REMARK INTRA:                  -0.003
REMARK UNBOUND:                -0.003
REMARK SMILES OCC(O)CO
REMARK SMILES IDX 3 1 5 2 6 3 2 5 1 6 4 8
REMARK H PARENT 6 4 1 7 4 9
REMARK Flexibility Score: inf
ROOT
ATOM      1  C   UNL     1     -40.891  40.517 -49.592  1.00  0.00     0.165 C 
ENDROOT
BRANCH   1   2
ATOM      2  C   UNL     1     -41.729  39.260 -49.891  1.00  0.00     0.190 C 
BRANCH   2   3
ATOM      3  O   UNL     1     -40.893  38.165 -50.154  1.00  0.00    -0.394 OA
ATOM      4  H   UNL     1     -40.343  38.411 -50.943  1.00  0.00     0.210 HD
ENDBRANCH   2   3
ENDBRANCH   1   2
BRANCH   1   5
ATOM      5  C   UNL     1     -41.187  41.656 -50.582  1.00  0.00     0.190 C 
BRANCH   5   6
ATOM      6  O   UNL     1     -41.426  42.866 -49.911  1.00  0.00    -0.394 OA
ATOM      7  H   UNL     1     -41.298  43.594 -50.575  1.00  0.00     0.210 HD
ENDBRANCH   5   6
ENDBRANCH   1   5
BRANCH   1   8
ATOM      8  O   UNL     1     -41.071  40.946 -48.265  1.00  0.00    -0.388 OA
ATOM      9  H   UNL     1     -41.107  41.938 -48.269  1.00  0.00     0.211 HD
ENDBRANCH   1   8
TORSDOF 5
ENDMDL
MODEL 8
REMARK VINA RESULT:    -3.239      1.438      2.011
REMARK INTER + INTRA:          -3.904
REMARK INTER:                  -3.901
REMARK INTRA:                  -0.003
REMARK UNBOUND:                -0.003
REMARK SMILES OCC(O)CO
REMARK SMILES IDX 3 1 5 2 6 3 2 5 1 6 4 8
REMARK H PARENT 6 4 1 7 4 9
REMARK Flexibility Score: inf
ROOT
ATOM      1  C   UNL     1     -32.708  50.868 -51.107  1.00  0.00     0.165 C 
ENDROOT
BRANCH   1   2
ATOM      2  C   UNL     1     -32.370  52.340 -51.409  1.00  0.00     0.190 C 
BRANCH   2   3
ATOM      3  O   UNL     1     -32.404  53.101 -50.233  1.00  0.00    -0.394 OA
ATOM      4  H   UNL     1     -32.337  54.053 -50.509  1.00  0.00     0.210 HD
ENDBRANCH   2   3
ENDBRANCH   1   2
BRANCH   1   5
ATOM      5  C   UNL     1     -33.109  50.096 -52.377  1.00  0.00     0.190 C 
BRANCH   5   6
ATOM      6  O   UNL     1     -32.372  48.909 -52.506  1.00  0.00    -0.394 OA
ATOM      7  H   UNL     1     -33.029  48.174 -52.632  1.00  0.00     0.210 HD
ENDBRANCH   5   6
ENDBRANCH   1   5
BRANCH   1   8
ATOM      8  O   UNL     1     -31.647  50.226 -50.445  1.00  0.00    -0.388 OA
ATOM      9  H   UNL     1     -31.271  50.864 -49.783  1.00  0.00     0.211 HD
ENDBRANCH   1   8
TORSDOF 5
ENDMDL
MODEL 9
REMARK VINA RESULT:    -3.223     13.903     14.748
REMARK INTER + INTRA:          -3.886
REMARK INTER:                  -3.672
REMARK INTRA:                  -0.214
REMARK UNBOUND:                -0.003
REMARK SMILES OCC(O)CO
REMARK SMILES IDX 3 1 5 2 6 3 2 5 1 6 4 8
REMARK H PARENT 6 4 1 7 4 9
REMARK Flexibility Score: inf
ROOT
ATOM      1  C   UNL     1     -40.619  40.626 -50.435  1.00  0.00     0.165 C 
ENDROOT
BRANCH   1   2
ATOM      2  C   UNL     1     -41.281  41.904 -50.984  1.00  0.00     0.190 C 
BRANCH   2   3
ATOM      3  O   UNL     1     -41.442  42.850 -49.962  1.00  0.00    -0.394 OA
ATOM      4  H   UNL     1     -42.117  43.503 -50.284  1.00  0.00     0.210 HD
ENDBRANCH   2   3
ENDBRANCH   1   2
BRANCH   1   5
ATOM      5  C   UNL     1     -41.280  40.149 -49.130  1.00  0.00     0.190 C 
BRANCH   5   6
ATOM      6  O   UNL     1     -40.826  40.890 -48.028  1.00  0.00    -0.394 OA
ATOM      7  H   UNL     1     -40.246  40.286 -47.494  1.00  0.00     0.210 HD
ENDBRANCH   5   6
ENDBRANCH   1   5
BRANCH   1   8
ATOM      8  O   UNL     1     -40.612  39.601 -51.397  1.00  0.00    -0.388 OA
ATOM      9  H   UNL     1     -40.978  38.781 -50.971  1.00  0.00     0.211 HD
ENDBRANCH   1   8
TORSDOF 5
ENDMDL
