MODEL 1
REMARK VINA RESULT:    -5.641      0.000      0.000
REMARK INTER + INTRA:          -5.970
REMARK INTER:                  -5.970
REMARK INTRA:                   0.000
REMARK UNBOUND:                 0.000
REMARK SMILES Cc1cc(O)c(C)c(C)c1O
REMARK SMILES IDX 1 1 2 2 3 3 4 4 6 5 8 6 10 7 9 8 7 9 11 10 5 12
REMARK H PARENT 11 11 5 13
REMARK Flexibility Score: inf
ROOT
ATOM      1  C   UNL     1     -34.825  67.619 -18.644  1.00  0.00     0.048 C 
ATOM      2  C   UNL     1     -35.414  69.003 -18.664  1.00  0.00    -0.005 A 
ATOM      3  C   UNL     1     -36.800  69.171 -18.618  1.00  0.00     0.053 A 
ATOM      4  C   UNL     1     -37.371  70.443 -18.672  1.00  0.00     0.119 A 
ATOM      5  C   UNL     1     -36.546  71.587 -18.789  1.00  0.00    -0.003 A 
ATOM      6  C   UNL     1     -35.133  71.432 -18.710  1.00  0.00    -0.002 A 
ATOM      7  C   UNL     1     -34.576  70.128 -18.720  1.00  0.00     0.121 A 
ATOM      8  C   UNL     1     -34.220  72.635 -18.629  1.00  0.00     0.049 C 
ATOM      9  C   UNL     1     -37.175  72.949 -18.980  1.00  0.00     0.049 C 
ENDROOT
BRANCH   7  10
ATOM     10  O   UNL     1     -33.193  69.918 -18.796  1.00  0.00    -0.507 OA
ATOM     11  H   UNL     1     -32.516  70.662 -18.900  1.00  0.00     0.293 HD
ENDBRANCH   7  10
BRANCH   4  12
ATOM     12  O   UNL     1     -38.764  70.530 -18.592  1.00  0.00    -0.508 OA
ATOM     13  H   UNL     1     -39.368  69.734 -18.438  1.00  0.00     0.293 HD
ENDBRANCH   4  12
TORSDOF 2
ENDMDL
MODEL 2
REMARK VINA RESULT:    -5.588      1.487      2.929
REMARK INTER + INTRA:          -5.914
REMARK INTER:                  -5.914
REMARK INTRA:                   0.000
REMARK UNBOUND:                 0.000
REMARK SMILES Cc1cc(O)c(C)c(C)c1O
REMARK SMILES IDX 1 1 2 2 3 3 4 4 6 5 8 6 10 7 9 8 7 9 11 10 5 12
REMARK H PARENT 11 11 5 13
REMARK Flexibility Score: inf
ROOT
ATOM      1  C   UNL     1     -33.959  67.969 -18.945  1.00  0.00     0.048 C 
ATOM      2  C   UNL     1     -34.712  69.271 -18.912  1.00  0.00    -0.005 A 
ATOM      3  C   UNL     1     -34.013  70.481 -18.928  1.00  0.00     0.053 A 
ATOM      4  C   UNL     1     -34.687  71.700 -18.862  1.00  0.00     0.119 A 
ATOM      5  C   UNL     1     -36.099  71.725 -18.760  1.00  0.00    -0.003 A 
ATOM      6  C   UNL     1     -36.823  70.505 -18.869  1.00  0.00    -0.002 A 
ATOM      7  C   UNL     1     -36.115  69.275 -18.872  1.00  0.00     0.121 A 
ATOM      8  C   UNL     1     -38.333  70.499 -18.968  1.00  0.00     0.049 C 
ATOM      9  C   UNL     1     -36.812  73.044 -18.555  1.00  0.00     0.049 C 
ENDROOT
BRANCH   7  10
ATOM     10  O   UNL     1     -36.779  68.043 -18.824  1.00  0.00    -0.507 OA
ATOM     11  H   UNL     1     -36.455  67.210 -19.296  1.00  0.00     0.293 HD
ENDBRANCH   7  10
BRANCH   4  12
ATOM     12  O   UNL     1     -33.919  72.867 -18.913  1.00  0.00    -0.508 OA
ATOM     13  H   UNL     1     -34.262  73.748 -19.268  1.00  0.00     0.293 HD
ENDBRANCH   4  12
TORSDOF 2
ENDMDL
MODEL 3
REMARK VINA RESULT:    -4.753      9.082     10.032
REMARK INTER + INTRA:          -5.031
REMARK INTER:                  -5.031
REMARK INTRA:                   0.000
REMARK UNBOUND:                 0.000
REMARK SMILES Cc1cc(O)c(C)c(C)c1O
REMARK SMILES IDX 1 1 2 2 3 3 4 4 6 5 8 6 10 7 9 8 7 9 11 10 5 12
REMARK H PARENT 11 11 5 13
REMARK Flexibility Score: inf
ROOT
ATOM      1  C   UNL     1     -37.569  75.385 -10.525  1.00  0.00     0.048 C 
ATOM      2  C   UNL     1     -38.677  74.370 -10.445  1.00  0.00    -0.005 A 
ATOM      3  C   UNL     1     -40.008  74.793 -10.409  1.00  0.00     0.053 A 
ATOM      4  C   UNL     1     -41.051  73.873 -10.298  1.00  0.00     0.119 A 
ATOM      5  C   UNL     1     -40.769  72.489 -10.205  1.00  0.00    -0.003 A 
ATOM      6  C   UNL     1     -39.427  72.044 -10.367  1.00  0.00    -0.002 A 
ATOM      7  C   UNL     1     -38.379  72.999 -10.414  1.00  0.00     0.121 A 
ATOM      8  C   UNL     1     -39.102  70.570 -10.475  1.00  0.00     0.049 C 
ATOM      9  C   UNL     1     -41.894  71.511  -9.953  1.00  0.00     0.049 C 
ENDROOT
BRANCH   7  10
ATOM     10  O   UNL     1     -37.032  72.615 -10.419  1.00  0.00    -0.507 OA
ATOM     11  H   UNL     1     -36.708  71.703 -10.713  1.00  0.00     0.293 HD
ENDBRANCH   7  10
BRANCH   4  12
ATOM     12  O   UNL     1     -42.356  74.373 -10.298  1.00  0.00    -0.508 OA
ATOM     13  H   UNL     1     -43.088  74.029  -9.691  1.00  0.00     0.293 HD
ENDBRANCH   4  12
TORSDOF 2
ENDMDL
MODEL 4
REMARK VINA RESULT:    -4.709      9.163      9.613
REMARK INTER + INTRA:          -4.984
REMARK INTER:                  -4.984
REMARK INTRA:                   0.000
REMARK UNBOUND:                 0.000
REMARK SMILES Cc1cc(O)c(C)c(C)c1O
REMARK SMILES IDX 1 1 2 2 3 3 4 4 6 5 8 6 10 7 9 8 7 9 11 10 5 12
REMARK H PARENT 11 11 5 13
REMARK Flexibility Score: inf
ROOT
ATOM      1  C   UNL     1     -39.258  70.399 -10.041  1.00  0.00     0.048 C 
ATOM      2  C   UNL     1     -39.276  71.861 -10.395  1.00  0.00    -0.005 A 
ATOM      3  C   UNL     1     -38.209  72.682 -10.025  1.00  0.00     0.053 A 
ATOM      4  C   UNL     1     -38.220  74.047 -10.311  1.00  0.00     0.119 A 
ATOM      5  C   UNL     1     -39.331  74.624 -10.972  1.00  0.00    -0.003 A 
ATOM      6  C   UNL     1     -40.363  73.775 -11.462  1.00  0.00    -0.002 A 
ATOM      7  C   UNL     1     -40.361  72.402 -11.104  1.00  0.00     0.121 A 
ATOM      8  C   UNL     1     -41.466  74.317 -12.344  1.00  0.00     0.049 C 
ATOM      9  C   UNL     1     -39.395  76.124 -11.159  1.00  0.00     0.049 C 
ENDROOT
BRANCH   7  10
ATOM     10  O   UNL     1     -41.427  71.555 -11.430  1.00  0.00    -0.507 OA
ATOM     11  H   UNL     1     -42.399  71.786 -11.270  1.00  0.00     0.293 HD
ENDBRANCH   7  10
BRANCH   4  12
ATOM     12  O   UNL     1     -37.102  74.796  -9.933  1.00  0.00    -0.508 OA
ATOM     13  H   UNL     1     -37.098  75.447  -9.160  1.00  0.00     0.293 HD
ENDBRANCH   4  12
TORSDOF 2
ENDMDL
MODEL 5
REMARK VINA RESULT:    -4.703      9.177      9.586
REMARK INTER + INTRA:          -4.978
REMARK INTER:                  -4.978
REMARK INTRA:                   0.000
REMARK UNBOUND:                 0.000
REMARK SMILES Cc1cc(O)c(C)c(C)c1O
REMARK SMILES IDX 1 1 2 2 3 3 4 4 6 5 8 6 10 7 9 8 7 9 11 10 5 12
REMARK H PARENT 11 11 5 13
REMARK Flexibility Score: inf
ROOT
ATOM      1  C   UNL     1     -39.118  70.748  -9.859  1.00  0.00     0.048 C 
ATOM      2  C   UNL     1     -39.423  72.192 -10.150  1.00  0.00    -0.005 A 
ATOM      3  C   UNL     1     -40.746  72.641 -10.137  1.00  0.00     0.053 A 
ATOM      4  C   UNL     1     -41.057  73.966 -10.440  1.00  0.00     0.119 A 
ATOM      5  C   UNL     1     -40.028  74.876 -10.780  1.00  0.00    -0.003 A 
ATOM      6  C   UNL     1     -38.671  74.459 -10.673  1.00  0.00    -0.002 A 
ATOM      7  C   UNL     1     -38.383  73.093 -10.427  1.00  0.00     0.121 A 
ATOM      8  C   UNL     1     -37.537  75.447 -10.831  1.00  0.00     0.049 C 
ATOM      9  C   UNL     1     -40.385  76.274 -11.235  1.00  0.00     0.049 C 
ENDROOT
BRANCH   7  10
ATOM     10  O   UNL     1     -37.073  72.599 -10.462  1.00  0.00    -0.507 OA
ATOM     11  H   UNL     1     -36.392  72.860 -11.162  1.00  0.00     0.293 HD
ENDBRANCH   7  10
BRANCH   4  12
ATOM     12  O   UNL     1     -42.402  74.345 -10.378  1.00  0.00    -0.508 OA
ATOM     13  H   UNL     1     -42.760  75.036  -9.734  1.00  0.00     0.293 HD
ENDBRANCH   4  12
TORSDOF 2
ENDMDL
MODEL 6
REMARK VINA RESULT:    -4.566      9.199     10.193
REMARK INTER + INTRA:          -4.833
REMARK INTER:                  -4.833
REMARK INTRA:                   0.000
REMARK UNBOUND:                 0.000
REMARK SMILES Cc1cc(O)c(C)c(C)c1O
REMARK SMILES IDX 1 1 2 2 3 3 4 4 6 5 8 6 10 7 9 8 7 9 11 10 5 12
REMARK H PARENT 11 11 5 13
REMARK Flexibility Score: inf
ROOT
ATOM      1  C   UNL     1     -40.888  76.454 -11.564  1.00  0.00     0.048 C 
ATOM      2  C   UNL     1     -40.483  75.057 -11.182  1.00  0.00    -0.005 A 
ATOM      3  C   UNL     1     -41.075  73.962 -11.815  1.00  0.00     0.053 A 
ATOM      4  C   UNL     1     -40.743  72.657 -11.453  1.00  0.00     0.119 A 
ATOM      5  C   UNL     1     -39.803  72.425 -10.419  1.00  0.00    -0.003 A 
ATOM      6  C   UNL     1     -39.105  73.530  -9.858  1.00  0.00    -0.002 A 
ATOM      7  C   UNL     1     -39.505  74.849 -10.196  1.00  0.00     0.121 A 
ATOM      8  C   UNL     1     -37.954  73.321  -8.898  1.00  0.00     0.049 C 
ATOM      9  C   UNL     1     -39.547  71.012  -9.943  1.00  0.00     0.049 C 
ENDROOT
BRANCH   7  10
ATOM     10  O   UNL     1     -38.957  75.970  -9.561  1.00  0.00    -0.507 OA
ATOM     11  H   UNL     1     -38.438  75.929  -8.695  1.00  0.00     0.293 HD
ENDBRANCH   7  10
BRANCH   4  12
ATOM     12  O   UNL     1     -41.358  71.615 -12.153  1.00  0.00    -0.508 OA
ATOM     13  H   UNL     1     -41.865  70.862 -11.707  1.00  0.00     0.293 HD
ENDBRANCH   4  12
TORSDOF 2
ENDMDL
MODEL 7
REMARK VINA RESULT:    -4.527      8.729      9.698
REMARK INTER + INTRA:          -4.791
REMARK INTER:                  -4.791
REMARK INTRA:                   0.000
REMARK UNBOUND:                 0.000
REMARK SMILES Cc1cc(O)c(C)c(C)c1O
REMARK SMILES IDX 1 1 2 2 3 3 4 4 6 5 8 6 10 7 9 8 7 9 11 10 5 12
REMARK H PARENT 11 11 5 13
REMARK Flexibility Score: inf
ROOT
ATOM      1  C   UNL     1     -38.786  75.632 -25.388  1.00  0.00     0.048 C 
ATOM      2  C   UNL     1     -37.357  75.396 -25.792  1.00  0.00    -0.005 A 
ATOM      3  C   UNL     1     -36.320  75.984 -25.064  1.00  0.00     0.053 A 
ATOM      4  C   UNL     1     -34.989  75.809 -25.441  1.00  0.00     0.119 A 
ATOM      5  C   UNL     1     -34.671  75.039 -26.586  1.00  0.00    -0.003 A 
ATOM      6  C   UNL     1     -35.711  74.336 -27.258  1.00  0.00    -0.002 A 
ATOM      7  C   UNL     1     -37.060  74.580 -26.896  1.00  0.00     0.121 A 
ATOM      8  C   UNL     1     -35.398  73.346 -28.358  1.00  0.00     0.049 C 
ATOM      9  C   UNL     1     -33.238  74.964 -27.064  1.00  0.00     0.049 C 
ENDROOT
BRANCH   7  10
ATOM     10  O   UNL     1     -38.127  74.034 -27.620  1.00  0.00    -0.507 OA
ATOM     11  H   UNL     1     -38.945  74.559 -27.899  1.00  0.00     0.293 HD
ENDBRANCH   7  10
BRANCH   4  12
ATOM     12  O   UNL     1     -34.008  76.406 -24.644  1.00  0.00    -0.508 OA
ATOM     13  H   UNL     1     -33.353  77.097 -24.985  1.00  0.00     0.293 HD
ENDBRANCH   4  12
TORSDOF 2
ENDMDL
MODEL 8
REMARK VINA RESULT:    -4.523      9.134     10.594
REMARK INTER + INTRA:          -4.788
REMARK INTER:                  -4.788
REMARK INTRA:                   0.000
REMARK UNBOUND:                 0.000
REMARK SMILES Cc1cc(O)c(C)c(C)c1O
REMARK SMILES IDX 1 1 2 2 3 3 4 4 6 5 8 6 10 7 9 8 7 9 11 10 5 12
REMARK H PARENT 11 11 5 13
REMARK Flexibility Score: inf
ROOT
ATOM      1  C   UNL     1     -40.207  76.277 -11.138  1.00  0.00     0.048 C 
ATOM      2  C   UNL     1     -39.963  74.834 -10.788  1.00  0.00    -0.005 A 
ATOM      3  C   UNL     1     -38.660  74.333 -10.762  1.00  0.00     0.053 A 
ATOM      4  C   UNL     1     -38.412  72.991 -10.476  1.00  0.00     0.119 A 
ATOM      5  C   UNL     1     -39.490  72.109 -10.223  1.00  0.00    -0.003 A 
ATOM      6  C   UNL     1     -40.808  72.637 -10.124  1.00  0.00    -0.002 A 
ATOM      7  C   UNL     1     -41.043  73.990 -10.480  1.00  0.00     0.121 A 
ATOM      8  C   UNL     1     -41.961  71.775  -9.659  1.00  0.00     0.049 C 
ATOM      9  C   UNL     1     -39.223  70.631 -10.045  1.00  0.00     0.049 C 
ENDROOT
BRANCH   7  10
ATOM     10  O   UNL     1     -42.337  74.520 -10.549  1.00  0.00    -0.507 OA
ATOM     11  H   UNL     1     -42.548  75.447 -10.891  1.00  0.00     0.293 HD
ENDBRANCH   7  10
BRANCH   4  12
ATOM     12  O   UNL     1     -37.079  72.573 -10.441  1.00  0.00    -0.508 OA
ATOM     13  H   UNL     1     -36.321  73.143 -10.090  1.00  0.00     0.293 HD
ENDBRANCH   4  12
TORSDOF 2
ENDMDL
MODEL 9
REMARK VINA RESULT:    -4.447      9.254     10.200
REMARK INTER + INTRA:          -4.707
REMARK INTER:                  -4.707
REMARK INTRA:                   0.000
REMARK UNBOUND:                 0.000
REMARK SMILES Cc1cc(O)c(C)c(C)c1O
REMARK SMILES IDX 1 1 2 2 3 3 4 4 6 5 8 6 10 7 9 8 7 9 11 10 5 12
REMARK H PARENT 11 11 5 13
REMARK Flexibility Score: inf
ROOT
ATOM      1  C   UNL     1     -42.479  74.097 -12.574  1.00  0.00     0.048 C 
ATOM      2  C   UNL     1     -41.304  73.883 -11.660  1.00  0.00    -0.005 A 
ATOM      3  C   UNL     1     -40.670  74.980 -11.071  1.00  0.00     0.053 A 
ATOM      4  C   UNL     1     -39.556  74.809 -10.250  1.00  0.00     0.119 A 
ATOM      5  C   UNL     1     -39.041  73.512 -10.013  1.00  0.00    -0.003 A 
ATOM      6  C   UNL     1     -39.755  72.383 -10.506  1.00  0.00    -0.002 A 
ATOM      7  C   UNL     1     -40.846  72.583 -11.390  1.00  0.00     0.121 A 
ATOM      8  C   UNL     1     -39.359  70.977 -10.113  1.00  0.00     0.049 C 
ATOM      9  C   UNL     1     -37.757  73.346  -9.231  1.00  0.00     0.049 C 
ENDROOT
BRANCH   7  10
ATOM     10  O   UNL     1     -41.486  71.512 -12.024  1.00  0.00    -0.507 OA
ATOM     11  H   UNL     1     -41.012  70.670 -12.323  1.00  0.00     0.293 HD
ENDBRANCH   7  10
BRANCH   4  12
ATOM     12  O   UNL     1     -38.995  75.953  -9.675  1.00  0.00    -0.508 OA
ATOM     13  H   UNL     1     -39.531  76.770  -9.415  1.00  0.00     0.293 HD
ENDBRANCH   4  12
TORSDOF 2
ENDMDL
