MODEL 1
REMARK VINA RESULT:    -4.768      0.000      0.000
REMARK INTER + INTRA:          -5.511
REMARK INTER:                  -5.465
REMARK INTRA:                  -0.046
REMARK UNBOUND:                -0.046
REMARK SMILES O=C([O-])c1cc(O)c(O)c(O)c1
REMARK SMILES IDX 4 1 5 2 12 3 6 4 10 5 8 6 2 7 1 8 3 9 7 10 11 12 9 14
REMARK H PARENT 7 11 11 13 9 15
REMARK Flexibility Score: inf
ROOT
ATOM      1  C   UNL     1       8.441  -7.120  -9.332  1.00  0.00     0.005 A 
ATOM      2  C   UNL     1       9.836  -6.951  -9.367  1.00  0.00     0.060 A 
ATOM      3  C   UNL     1       7.714  -6.573  -8.263  1.00  0.00     0.060 A 
ATOM      4  C   UNL     1      10.494  -6.248  -8.348  1.00  0.00     0.162 A 
ATOM      5  C   UNL     1       8.367  -5.868  -7.241  1.00  0.00     0.162 A 
ATOM      6  C   UNL     1       9.762  -5.706  -7.285  1.00  0.00     0.200 A 
ENDROOT
BRANCH   1   7
ATOM      7  C   UNL     1       7.744  -7.863 -10.406  1.00  0.00     0.072 C 
ATOM      8  O   UNL     1       7.143  -8.941 -10.154  1.00  0.00    -0.545 OA
ATOM      9  O   UNL     1       7.742  -7.380 -11.710  1.00  0.00    -0.545 OA
ENDBRANCH   1   7
BRANCH   4  10
ATOM     10  O   UNL     1      11.878  -6.083  -8.387  1.00  0.00    -0.504 OA
ATOM     11  H   UNL     1      12.319  -5.225  -8.079  1.00  0.00     0.293 HD
ENDBRANCH   4  10
BRANCH   5  12
ATOM     12  O   UNL     1       7.635  -5.330  -6.184  1.00  0.00    -0.504 OA
ATOM     13  H   UNL     1       6.630  -5.210  -6.240  1.00  0.00     0.293 HD
ENDBRANCH   5  12
BRANCH   6  14
ATOM     14  O   UNL     1      10.434  -5.008  -6.281  1.00  0.00    -0.502 OA
ATOM     15  H   UNL     1      10.533  -5.375  -5.342  1.00  0.00     0.293 HD
ENDBRANCH   6  14
TORSDOF 4
ENDMDL
MODEL 2
REMARK VINA RESULT:    -4.755      0.069      2.422
REMARK INTER + INTRA:          -5.496
REMARK INTER:                  -5.451
REMARK INTRA:                  -0.046
REMARK UNBOUND:                -0.046
REMARK SMILES O=C([O-])c1cc(O)c(O)c(O)c1
REMARK SMILES IDX 4 1 5 2 12 3 6 4 10 5 8 6 2 7 1 8 3 9 7 10 11 12 9 14
REMARK H PARENT 7 11 11 13 9 15
REMARK Flexibility Score: inf
ROOT
ATOM      1  C   UNL     1       8.459  -7.150  -9.276  1.00  0.00     0.005 A 
ATOM      2  C   UNL     1       7.723  -6.597  -8.214  1.00  0.00     0.060 A 
ATOM      3  C   UNL     1       9.852  -6.974  -9.305  1.00  0.00     0.060 A 
ATOM      4  C   UNL     1       8.368  -5.879  -7.198  1.00  0.00     0.162 A 
ATOM      5  C   UNL     1      10.503  -6.256  -8.291  1.00  0.00     0.162 A 
ATOM      6  C   UNL     1       9.757  -5.707  -7.234  1.00  0.00     0.200 A 
ENDROOT
BRANCH   1   7
ATOM      7  C   UNL     1       7.780  -7.910 -10.350  1.00  0.00     0.072 C 
ATOM      8  O   UNL     1       7.218  -9.009 -10.100  1.00  0.00    -0.545 OA
ATOM      9  O   UNL     1       7.752  -7.420 -11.650  1.00  0.00    -0.545 OA
ENDBRANCH   1   7
BRANCH   4  10
ATOM     10  O   UNL     1       7.633  -5.332  -6.147  1.00  0.00    -0.504 OA
ATOM     11  H   UNL     1       6.673  -5.033  -6.270  1.00  0.00     0.293 HD
ENDBRANCH   4  10
BRANCH   5  12
ATOM     12  O   UNL     1      11.886  -6.086  -8.331  1.00  0.00    -0.504 OA
ATOM     13  H   UNL     1      12.511  -6.860  -8.525  1.00  0.00     0.293 HD
ENDBRANCH   5  12
BRANCH   6  14
ATOM     14  O   UNL     1      10.381  -4.989  -6.214  1.00  0.00    -0.502 OA
ATOM     15  H   UNL     1      10.589  -5.403  -5.312  1.00  0.00     0.293 HD
ENDBRANCH   6  14
TORSDOF 4
ENDMDL
MODEL 3
REMARK VINA RESULT:    -4.607      2.431      3.354
REMARK INTER + INTRA:          -5.327
REMARK INTER:                  -5.281
REMARK INTRA:                  -0.046
REMARK UNBOUND:                -0.046
REMARK SMILES O=C([O-])c1cc(O)c(O)c(O)c1
REMARK SMILES IDX 4 1 5 2 12 3 6 4 10 5 8 6 2 7 1 8 3 9 7 10 11 12 9 14
REMARK H PARENT 7 11 11 13 9 15
REMARK Flexibility Score: inf
ROOT
ATOM      1  C   UNL     1       8.119  -7.288  -7.135  1.00  0.00     0.005 A 
ATOM      2  C   UNL     1       8.504  -5.988  -6.766  1.00  0.00     0.060 A 
ATOM      3  C   UNL     1       7.600  -8.149  -6.155  1.00  0.00     0.060 A 
ATOM      4  C   UNL     1       8.374  -5.556  -5.439  1.00  0.00     0.162 A 
ATOM      5  C   UNL     1       7.468  -7.723  -4.826  1.00  0.00     0.162 A 
ATOM      6  C   UNL     1       7.857  -6.421  -4.468  1.00  0.00     0.200 A 
ENDROOT
BRANCH   1   7
ATOM      7  C   UNL     1       8.254  -7.746  -8.536  1.00  0.00     0.072 C 
ATOM      8  O   UNL     1       7.608  -7.183  -9.460  1.00  0.00    -0.545 OA
ATOM      9  O   UNL     1       9.098  -8.803  -8.854  1.00  0.00    -0.545 OA
ENDBRANCH   1   7
BRANCH   4  10
ATOM     10  O   UNL     1       8.759  -4.265  -5.078  1.00  0.00    -0.504 OA
ATOM     11  H   UNL     1       9.556  -3.809  -5.507  1.00  0.00     0.293 HD
ENDBRANCH   4  10
BRANCH   5  12
ATOM     12  O   UNL     1       6.952  -8.587  -3.862  1.00  0.00    -0.504 OA
ATOM     13  H   UNL     1       6.607  -8.247  -2.972  1.00  0.00     0.293 HD
ENDBRANCH   5  12
BRANCH   6  14
ATOM     14  O   UNL     1       7.735  -5.973  -3.152  1.00  0.00    -0.502 OA
ATOM     15  H   UNL     1       8.159  -6.464  -2.373  1.00  0.00     0.293 HD
ENDBRANCH   6  14
TORSDOF 4
ENDMDL
MODEL 4
REMARK VINA RESULT:    -4.511     14.626     15.448
REMARK INTER + INTRA:          -5.217
REMARK INTER:                  -5.164
REMARK INTRA:                  -0.052
REMARK UNBOUND:                -0.046
REMARK SMILES O=C([O-])c1cc(O)c(O)c(O)c1
REMARK SMILES IDX 4 1 5 2 12 3 6 4 10 5 8 6 2 7 1 8 3 9 7 10 11 12 9 14
REMARK H PARENT 7 11 11 13 9 15
REMARK Flexibility Score: inf
ROOT
ATOM      1  C   UNL     1      10.778   4.478 -18.473  1.00  0.00     0.005 A 
ATOM      2  C   UNL     1      11.135   3.759 -19.627  1.00  0.00     0.060 A 
ATOM      3  C   UNL     1       9.432   4.508 -18.077  1.00  0.00     0.060 A 
ATOM      4  C   UNL     1      10.161   3.081 -20.373  1.00  0.00     0.162 A 
ATOM      5  C   UNL     1       8.453   3.832 -18.820  1.00  0.00     0.162 A 
ATOM      6  C   UNL     1       8.821   3.116 -19.972  1.00  0.00     0.200 A 
ENDROOT
BRANCH   1   7
ATOM      7  C   UNL     1      11.805   5.194 -17.683  1.00  0.00     0.072 C 
ATOM      8  O   UNL     1      11.534   5.645 -16.538  1.00  0.00    -0.545 OA
ATOM      9  O   UNL     1      13.085   5.378 -18.192  1.00  0.00    -0.545 OA
ENDBRANCH   1   7
BRANCH   4  10
ATOM     10  O   UNL     1      10.520   2.369 -21.517  1.00  0.00    -0.504 OA
ATOM     11  H   UNL     1      11.484   2.118 -21.705  1.00  0.00     0.293 HD
ENDBRANCH   4  10
BRANCH   5  12
ATOM     12  O   UNL     1       7.119   3.869 -18.418  1.00  0.00    -0.504 OA
ATOM     13  H   UNL     1       6.378   4.132 -19.057  1.00  0.00     0.293 HD
ENDBRANCH   5  12
BRANCH   6  14
ATOM     14  O   UNL     1       7.865   2.435 -20.727  1.00  0.00    -0.502 OA
ATOM     15  H   UNL     1       7.526   1.517 -20.467  1.00  0.00     0.293 HD
ENDBRANCH   6  14
TORSDOF 4
ENDMDL
MODEL 5
REMARK VINA RESULT:    -4.491     14.365     15.473
REMARK INTER + INTRA:          -5.193
REMARK INTER:                  -5.141
REMARK INTRA:                  -0.052
REMARK UNBOUND:                -0.046
REMARK SMILES O=C([O-])c1cc(O)c(O)c(O)c1
REMARK SMILES IDX 4 1 5 2 12 3 6 4 10 5 8 6 2 7 1 8 3 9 7 10 11 12 9 14
REMARK H PARENT 7 11 11 13 9 15
REMARK Flexibility Score: inf
ROOT
ATOM      1  C   UNL     1      10.837   4.240 -18.346  1.00  0.00     0.005 A 
ATOM      2  C   UNL     1       9.488   4.278 -17.953  1.00  0.00     0.060 A 
ATOM      3  C   UNL     1      11.177   3.624 -19.561  1.00  0.00     0.060 A 
ATOM      4  C   UNL     1       8.494   3.709 -18.762  1.00  0.00     0.162 A 
ATOM      5  C   UNL     1      10.186   3.053 -20.374  1.00  0.00     0.162 A 
ATOM      6  C   UNL     1       8.841   3.097 -19.972  1.00  0.00     0.200 A 
ENDROOT
BRANCH   1   7
ATOM      7  C   UNL     1      11.888   4.840 -17.493  1.00  0.00     0.072 C 
ATOM      8  O   UNL     1      11.659   5.101 -16.282  1.00  0.00    -0.545 OA
ATOM      9  O   UNL     1      13.143   5.124 -18.017  1.00  0.00    -0.545 OA
ENDBRANCH   1   7
BRANCH   4  10
ATOM     10  O   UNL     1       7.157   3.749 -18.368  1.00  0.00    -0.504 OA
ATOM     11  H   UNL     1       6.765   3.047 -17.752  1.00  0.00     0.293 HD
ENDBRANCH   4  10
BRANCH   5  12
ATOM     12  O   UNL     1      10.536   2.444 -21.578  1.00  0.00    -0.504 OA
ATOM     13  H   UNL     1       9.892   1.838 -22.074  1.00  0.00     0.293 HD
ENDBRANCH   5  12
BRANCH   6  14
ATOM     14  O   UNL     1       7.838   2.536 -20.764  1.00  0.00    -0.502 OA
ATOM     15  H   UNL     1       7.215   3.104 -21.326  1.00  0.00     0.293 HD
ENDBRANCH   6  14
TORSDOF 4
ENDMDL
MODEL 6
REMARK VINA RESULT:    -4.428      1.588      2.956
REMARK INTER + INTRA:          -5.121
REMARK INTER:                  -5.068
REMARK INTRA:                  -0.053
REMARK UNBOUND:                -0.046
REMARK SMILES O=C([O-])c1cc(O)c(O)c(O)c1
REMARK SMILES IDX 4 1 5 2 12 3 6 4 10 5 8 6 2 7 1 8 3 9 7 10 11 12 9 14
REMARK H PARENT 7 11 11 13 9 15
REMARK Flexibility Score: inf
ROOT
ATOM      1  C   UNL     1       8.754  -6.108 -10.247  1.00  0.00     0.005 A 
ATOM      2  C   UNL     1       7.509  -5.607  -9.831  1.00  0.00     0.060 A 
ATOM      3  C   UNL     1       9.818  -6.136  -9.331  1.00  0.00     0.060 A 
ATOM      4  C   UNL     1       7.330  -5.140  -8.522  1.00  0.00     0.162 A 
ATOM      5  C   UNL     1       9.645  -5.670  -8.019  1.00  0.00     0.162 A 
ATOM      6  C   UNL     1       8.395  -5.170  -7.615  1.00  0.00     0.200 A 
ENDROOT
BRANCH   1   7
ATOM      7  C   UNL     1       8.946  -6.602 -11.629  1.00  0.00     0.072 C 
ATOM      8  O   UNL     1       8.031  -6.477 -12.487  1.00  0.00    -0.545 OA
ATOM      9  O   UNL     1      10.138  -7.212 -12.001  1.00  0.00    -0.545 OA
ENDBRANCH   1   7
BRANCH   4  10
ATOM     10  O   UNL     1       6.092  -4.643  -8.115  1.00  0.00    -0.504 OA
ATOM     11  H   UNL     1       5.445  -5.207  -7.576  1.00  0.00     0.293 HD
ENDBRANCH   4  10
BRANCH   5  12
ATOM     12  O   UNL     1      10.708  -5.702  -7.119  1.00  0.00    -0.504 OA
ATOM     13  H   UNL     1      11.286  -4.887  -6.950  1.00  0.00     0.293 HD
ENDBRANCH   5  12
BRANCH   6  14
ATOM     14  O   UNL     1       8.198  -4.702  -6.316  1.00  0.00    -0.502 OA
ATOM     15  H   UNL     1       8.598  -5.165  -5.508  1.00  0.00     0.293 HD
ENDBRANCH   6  14
TORSDOF 4
ENDMDL
MODEL 7
REMARK VINA RESULT:    -4.415      1.587      2.009
REMARK INTER + INTRA:          -5.106
REMARK INTER:                  -5.053
REMARK INTRA:                  -0.053
REMARK UNBOUND:                -0.046
REMARK SMILES O=C([O-])c1cc(O)c(O)c(O)c1
REMARK SMILES IDX 4 1 5 2 12 3 6 4 10 5 8 6 2 7 1 8 3 9 7 10 11 12 9 14
REMARK H PARENT 7 11 11 13 9 15
REMARK Flexibility Score: inf
ROOT
ATOM      1  C   UNL     1       8.794  -6.112 -10.214  1.00  0.00     0.005 A 
ATOM      2  C   UNL     1       9.854  -6.196  -9.295  1.00  0.00     0.060 A 
ATOM      3  C   UNL     1       7.572  -5.560  -9.796  1.00  0.00     0.060 A 
ATOM      4  C   UNL     1       9.696  -5.738  -7.980  1.00  0.00     0.162 A 
ATOM      5  C   UNL     1       7.408  -5.100  -8.481  1.00  0.00     0.162 A 
ATOM      6  C   UNL     1       8.474  -5.190  -7.571  1.00  0.00     0.200 A 
ENDROOT
BRANCH   1   7
ATOM      7  C   UNL     1       8.959  -6.594 -11.603  1.00  0.00     0.072 C 
ATOM      8  O   UNL     1       8.037  -6.442 -12.448  1.00  0.00    -0.545 OA
ATOM      9  O   UNL     1      10.134  -7.222 -11.997  1.00  0.00    -0.545 OA
ENDBRANCH   1   7
BRANCH   4  10
ATOM     10  O   UNL     1      10.751  -5.825  -7.073  1.00  0.00    -0.504 OA
ATOM     11  H   UNL     1      10.709  -5.374  -6.166  1.00  0.00     0.293 HD
ENDBRANCH   4  10
BRANCH   5  12
ATOM     12  O   UNL     1       6.190  -4.556  -8.078  1.00  0.00    -0.504 OA
ATOM     13  H   UNL     1       6.077  -3.560  -7.924  1.00  0.00     0.293 HD
ENDBRANCH   5  12
BRANCH   6  14
ATOM     14  O   UNL     1       8.336  -4.739  -6.258  1.00  0.00    -0.502 OA
ATOM     15  H   UNL     1       7.446  -4.755  -5.773  1.00  0.00     0.293 HD
ENDBRANCH   6  14
TORSDOF 4
ENDMDL
MODEL 8
REMARK VINA RESULT:    -4.363      1.880      3.638
REMARK INTER + INTRA:          -5.046
REMARK INTER:                  -5.002
REMARK INTRA:                  -0.045
REMARK UNBOUND:                -0.046
REMARK SMILES O=C([O-])c1cc(O)c(O)c(O)c1
REMARK SMILES IDX 4 1 5 2 12 3 6 4 10 5 8 6 2 7 1 8 3 9 7 10 11 12 9 14
REMARK H PARENT 7 11 11 13 9 15
REMARK Flexibility Score: inf
ROOT
ATOM      1  C   UNL     1       8.604  -6.093  -7.483  1.00  0.00     0.005 A 
ATOM      2  C   UNL     1      10.007  -6.171  -7.526  1.00  0.00     0.060 A 
ATOM      3  C   UNL     1       7.902  -5.770  -8.656  1.00  0.00     0.060 A 
ATOM      4  C   UNL     1      10.697  -5.930  -8.722  1.00  0.00     0.162 A 
ATOM      5  C   UNL     1       8.588  -5.528  -9.855  1.00  0.00     0.162 A 
ATOM      6  C   UNL     1       9.990  -5.608  -9.887  1.00  0.00     0.200 A 
ENDROOT
BRANCH   1   7
ATOM      7  C   UNL     1       7.872  -6.349  -6.222  1.00  0.00     0.072 C 
ATOM      8  O   UNL     1       7.731  -5.434  -5.367  1.00  0.00    -0.545 OA
ATOM      9  O   UNL     1       7.330  -7.602  -5.963  1.00  0.00    -0.545 OA
ENDBRANCH   1   7
BRANCH   4  10
ATOM     10  O   UNL     1      12.089  -6.008  -8.759  1.00  0.00    -0.504 OA
ATOM     11  H   UNL     1      12.670  -5.375  -8.223  1.00  0.00     0.293 HD
ENDBRANCH   4  10
BRANCH   5  12
ATOM     12  O   UNL     1       7.881  -5.207 -11.013  1.00  0.00    -0.504 OA
ATOM     13  H   UNL     1       8.328  -5.192 -11.922  1.00  0.00     0.293 HD
ENDBRANCH   5  12
BRANCH   6  14
ATOM     14  O   UNL     1      10.695  -5.371 -11.067  1.00  0.00    -0.502 OA
ATOM     15  H   UNL     1      11.197  -4.506 -11.232  1.00  0.00     0.293 HD
ENDBRANCH   6  14
TORSDOF 4
ENDMDL
MODEL 9
REMARK VINA RESULT:    -4.200     15.354     16.285
REMARK INTER + INTRA:          -4.860
REMARK INTER:                  -4.810
REMARK INTRA:                  -0.050
REMARK UNBOUND:                -0.046
REMARK SMILES O=C([O-])c1cc(O)c(O)c(O)c1
REMARK SMILES IDX 4 1 5 2 12 3 6 4 10 5 8 6 2 7 1 8 3 9 7 10 11 12 9 14
REMARK H PARENT 7 11 11 13 9 15
REMARK Flexibility Score: inf
ROOT
ATOM      1  C   UNL     1      11.786   5.947 -19.059  1.00  0.00     0.005 A 
ATOM      2  C   UNL     1      12.586   5.221 -18.159  1.00  0.00     0.060 A 
ATOM      3  C   UNL     1      10.973   5.247 -19.965  1.00  0.00     0.060 A 
ATOM      4  C   UNL     1      12.574   3.820 -18.166  1.00  0.00     0.162 A 
ATOM      5  C   UNL     1      10.957   3.845 -19.976  1.00  0.00     0.162 A 
ATOM      6  C   UNL     1      11.761   3.130 -19.073  1.00  0.00     0.200 A 
ENDROOT
BRANCH   1   7
ATOM      7  C   UNL     1      11.796   7.427 -19.053  1.00  0.00     0.072 C 
ATOM      8  O   UNL     1      10.754   8.076 -19.336  1.00  0.00    -0.545 OA
ATOM      9  O   UNL     1      12.956   8.122 -18.735  1.00  0.00    -0.545 OA
ENDBRANCH   1   7
BRANCH   4  10
ATOM     10  O   UNL     1      13.370   3.105 -17.271  1.00  0.00    -0.504 OA
ATOM     11  H   UNL     1      14.293   2.777 -17.528  1.00  0.00     0.293 HD
ENDBRANCH   4  10
BRANCH   5  12
ATOM     12  O   UNL     1      10.146   3.162 -20.881  1.00  0.00    -0.504 OA
ATOM     13  H   UNL     1       9.682   2.296 -20.631  1.00  0.00     0.293 HD
ENDBRANCH   5  12
BRANCH   6  14
ATOM     14  O   UNL     1      11.762   1.735 -19.064  1.00  0.00    -0.502 OA
ATOM     15  H   UNL     1      12.310   1.191 -19.722  1.00  0.00     0.293 HD
ENDBRANCH   6  14
TORSDOF 4
ENDMDL
