MODEL 1
REMARK VINA RESULT:    -8.102      0.000      0.000
REMARK INTER + INTRA:          -8.339
REMARK INTER:                  -8.339
REMARK INTRA:                   0.000
REMARK UNBOUND:                 0.000
REMARK SMILES CC1(C)CC[C@]2(C)CC[C@@]3(C)C(=CC[C@@H]4[C@]5(C)CC[C@H](O)C(C)(C)[C@H]5CC[C@@]43C)[C@H]2C1
REMARK SMILES IDX 1 1 2 2 4 3 5 4 6 5 8 6 9 7 10 8 12 9 13 10 14 11 15 12
REMARK SMILES IDX 28 13 27 14 26 15 25 16 16 17 18 18 19 19 20 20 22 21 23 22
REMARK SMILES IDX 24 23 17 24 29 25 30 26 31 27 11 28 7 29 3 30 21 31
REMARK H PARENT 21 32
REMARK Flexibility Score: inf
ROOT
ATOM      1  C   UNL     1     187.229 185.777 190.375  1.00  0.00     0.011 C 
ATOM      2  C   UNL     1     185.904 186.439 190.851  1.00  0.00    -0.035 C 
ATOM      3  C   UNL     1     184.838 186.364 189.680  1.00  0.00     0.007 C 
ATOM      4  C   UNL     1     184.314 187.690 189.055  1.00  0.00     0.008 C 
ATOM      5  C   UNL     1     184.503 188.950 189.937  1.00  0.00    -0.026 C 
ATOM      6  C   UNL     1     184.189 190.224 189.132  1.00  0.00     0.008 C 
ATOM      7  C   UNL     1     184.355 191.469 190.016  1.00  0.00     0.012 C 
ATOM      8  C   UNL     1     185.802 191.681 190.608  1.00  0.00    -0.006 C 
ATOM      9  C   UNL     1     186.577 190.339 190.711  1.00  0.00    -0.064 C 
ATOM     10  C   UNL     1     187.909 190.397 190.927  1.00  0.00    -0.027 C 
ATOM     11  C   UNL     1     188.574 191.695 191.267  1.00  0.00     0.032 C 
ATOM     12  C   UNL     1     188.195 192.798 190.237  1.00  0.00     0.006 C 
ATOM     13  C   UNL     1     186.670 192.727 189.723  1.00  0.00    -0.020 C 
ATOM     14  C   UNL     1     185.979 194.123 189.695  1.00  0.00     0.008 C 
ATOM     15  C   UNL     1     186.910 195.236 189.222  1.00  0.00     0.005 C 
ATOM     16  C   UNL     1     187.953 195.465 190.321  1.00  0.00     0.003 C 
ATOM     17  C   UNL     1     188.929 194.242 190.476  1.00  0.00    -0.025 C 
ATOM     18  C   UNL     1     189.561 194.392 191.910  1.00  0.00     0.010 C 
ATOM     19  C   UNL     1     189.735 195.844 192.435  1.00  0.00     0.033 C 
ATOM     20  C   UNL     1     189.837 196.927 191.345  1.00  0.00     0.120 C 
ATOM     21  C   UNL     1     188.623 196.902 190.330  1.00  0.00    -0.006 C 
ATOM     22  C   UNL     1     189.120 197.340 188.928  1.00  0.00     0.014 C 
ATOM     23  C   UNL     1     187.561 197.951 190.770  1.00  0.00     0.014 C 
ATOM     24  C   UNL     1     190.105 194.284 189.448  1.00  0.00     0.012 C 
ATOM     25  C   UNL     1     186.684 192.234 188.234  1.00  0.00     0.012 C 
ATOM     26  C   UNL     1     186.008 188.962 190.335  1.00  0.00     0.022 C 
ATOM     27  C   UNL     1     186.243 187.869 191.390  1.00  0.00     0.015 C 
ATOM     28  C   UNL     1     185.628 192.224 192.063  1.00  0.00     0.017 C 
ATOM     29  C   UNL     1     183.499 188.870 191.137  1.00  0.00     0.012 C 
ATOM     30  C   UNL     1     185.378 185.603 192.042  1.00  0.00     0.011 C 
ENDROOT
BRANCH  20  31
ATOM     31  O   UNL     1     190.003 198.186 191.933  1.00  0.00    -0.393 OA
ATOM     32  H   UNL     1     189.606 198.883 191.343  1.00  0.00     0.210 HD
ENDBRANCH  20  31
TORSDOF 1
ENDMDL
MODEL 2
REMARK VINA RESULT:    -8.063      2.859      8.317
REMARK INTER + INTRA:          -8.299
REMARK INTER:                  -8.299
REMARK INTRA:                   0.000
REMARK UNBOUND:                 0.000
REMARK SMILES CC1(C)CC[C@]2(C)CC[C@@]3(C)C(=CC[C@@H]4[C@]5(C)CC[C@H](O)C(C)(C)[C@H]5CC[C@@]43C)[C@H]2C1
REMARK SMILES IDX 1 1 2 2 4 3 5 4 6 5 8 6 9 7 10 8 12 9 13 10 14 11 15 12
REMARK SMILES IDX 28 13 27 14 26 15 25 16 16 17 18 18 19 19 20 20 22 21 23 22
REMARK SMILES IDX 24 23 17 24 29 25 30 26 31 27 11 28 7 29 3 30 21 31
REMARK H PARENT 21 32
REMARK Flexibility Score: inf
ROOT
ATOM      1  C   UNL     1     187.063 199.751 191.475  1.00  0.00     0.011 C 
ATOM      2  C   UNL     1     187.416 198.856 192.697  1.00  0.00    -0.035 C 
ATOM      3  C   UNL     1     188.980 198.918 192.950  1.00  0.00     0.007 C 
ATOM      4  C   UNL     1     189.819 197.615 192.796  1.00  0.00     0.008 C 
ATOM      5  C   UNL     1     189.006 196.298 192.886  1.00  0.00    -0.026 C 
ATOM      6  C   UNL     1     189.877 195.098 192.473  1.00  0.00     0.008 C 
ATOM      7  C   UNL     1     189.076 193.793 192.587  1.00  0.00     0.012 C 
ATOM      8  C   UNL     1     187.785 193.719 191.682  1.00  0.00    -0.006 C 
ATOM      9  C   UNL     1     187.241 195.135 191.350  1.00  0.00    -0.064 C 
ATOM     10  C   UNL     1     186.323 195.242 190.365  1.00  0.00    -0.027 C 
ATOM     11  C   UNL     1     185.699 194.020 189.765  1.00  0.00     0.032 C 
ATOM     12  C   UNL     1     186.789 193.005 189.315  1.00  0.00     0.006 C 
ATOM     13  C   UNL     1     188.061 192.920 190.298  1.00  0.00    -0.020 C 
ATOM     14  C   UNL     1     188.497 191.454 190.593  1.00  0.00     0.008 C 
ATOM     15  C   UNL     1     188.397 190.548 189.368  1.00  0.00     0.005 C 
ATOM     16  C   UNL     1     186.909 190.340 189.066  1.00  0.00     0.003 C 
ATOM     17  C   UNL     1     186.213 191.662 188.575  1.00  0.00    -0.025 C 
ATOM     18  C   UNL     1     184.673 191.434 188.808  1.00  0.00     0.010 C 
ATOM     19  C   UNL     1     184.170 189.968 188.682  1.00  0.00     0.033 C 
ATOM     20  C   UNL     1     185.043 189.048 187.808  1.00  0.00     0.120 C 
ATOM     21  C   UNL     1     186.560 189.022 188.257  1.00  0.00    -0.006 C 
ATOM     22  C   UNL     1     187.460 188.830 187.008  1.00  0.00     0.014 C 
ATOM     23  C   UNL     1     186.805 187.788 189.173  1.00  0.00     0.014 C 
ATOM     24  C   UNL     1     186.416 191.910 187.047  1.00  0.00     0.012 C 
ATOM     25  C   UNL     1     189.281 193.585 189.571  1.00  0.00     0.012 C 
ATOM     26  C   UNL     1     187.840 196.453 191.867  1.00  0.00     0.022 C 
ATOM     27  C   UNL     1     186.810 197.434 192.448  1.00  0.00     0.015 C 
ATOM     28  C   UNL     1     186.683 192.987 192.515  1.00  0.00     0.017 C 
ATOM     29  C   UNL     1     188.564 196.091 194.375  1.00  0.00     0.012 C 
ATOM     30  C   UNL     1     186.700 199.460 193.928  1.00  0.00     0.011 C 
ENDROOT
BRANCH  20  31
ATOM     31  O   UNL     1     184.488 187.765 187.758  1.00  0.00    -0.393 OA
ATOM     32  H   UNL     1     185.151 187.104 188.099  1.00  0.00     0.210 HD
ENDBRANCH  20  31
TORSDOF 1
ENDMDL
MODEL 3
REMARK VINA RESULT:    -7.995      2.791      8.240
REMARK INTER + INTRA:          -8.228
REMARK INTER:                  -8.228
REMARK INTRA:                   0.000
REMARK UNBOUND:                 0.000
REMARK SMILES CC1(C)CC[C@]2(C)CC[C@@]3(C)C(=CC[C@@H]4[C@]5(C)CC[C@H](O)C(C)(C)[C@H]5CC[C@@]43C)[C@H]2C1
REMARK SMILES IDX 1 1 2 2 4 3 5 4 6 5 8 6 9 7 10 8 12 9 13 10 14 11 15 12
REMARK SMILES IDX 28 13 27 14 26 15 25 16 16 17 18 18 19 19 20 20 22 21 23 22
REMARK SMILES IDX 24 23 17 24 29 25 30 26 31 27 11 28 7 29 3 30 21 31
REMARK H PARENT 21 32
REMARK Flexibility Score: inf
ROOT
ATOM      1  C   UNL     1     186.462 198.490 194.488  1.00  0.00     0.011 C 
ATOM      2  C   UNL     1     187.783 198.349 193.679  1.00  0.00    -0.035 C 
ATOM      3  C   UNL     1     187.720 199.305 192.415  1.00  0.00     0.007 C 
ATOM      4  C   UNL     1     187.748 198.672 190.993  1.00  0.00     0.008 C 
ATOM      5  C   UNL     1     188.313 197.231 190.928  1.00  0.00    -0.026 C 
ATOM      6  C   UNL     1     188.062 196.615 189.540  1.00  0.00     0.008 C 
ATOM      7  C   UNL     1     188.645 195.196 189.471  1.00  0.00     0.012 C 
ATOM      8  C   UNL     1     188.041 194.173 190.510  1.00  0.00    -0.006 C 
ATOM      9  C   UNL     1     187.470 194.900 191.757  1.00  0.00    -0.064 C 
ATOM     10  C   UNL     1     186.676 194.193 192.589  1.00  0.00    -0.027 C 
ATOM     11  C   UNL     1     186.527 192.711 192.429  1.00  0.00     0.032 C 
ATOM     12  C   UNL     1     186.153 192.347 190.964  1.00  0.00     0.006 C 
ATOM     13  C   UNL     1     186.876 193.259 189.850  1.00  0.00    -0.020 C 
ATOM     14  C   UNL     1     187.444 192.423 188.665  1.00  0.00     0.008 C 
ATOM     15  C   UNL     1     186.525 191.275 188.255  1.00  0.00     0.005 C 
ATOM     16  C   UNL     1     186.565 190.229 189.375  1.00  0.00     0.003 C 
ATOM     17  C   UNL     1     185.894 190.752 190.697  1.00  0.00    -0.025 C 
ATOM     18  C   UNL     1     186.455 189.829 191.843  1.00  0.00     0.010 C 
ATOM     19  C   UNL     1     186.796 188.367 191.440  1.00  0.00     0.033 C 
ATOM     20  C   UNL     1     186.036 187.831 190.213  1.00  0.00     0.120 C 
ATOM     21  C   UNL     1     186.191 188.752 188.936  1.00  0.00    -0.006 C 
ATOM     22  C   UNL     1     184.887 188.688 188.098  1.00  0.00     0.014 C 
ATOM     23  C   UNL     1     187.326 188.192 188.030  1.00  0.00     0.014 C 
ATOM     24  C   UNL     1     184.342 190.580 190.687  1.00  0.00     0.012 C 
ATOM     25  C   UNL     1     185.793 194.202 189.221  1.00  0.00     0.012 C 
ATOM     26  C   UNL     1     187.520 196.419 191.992  1.00  0.00     0.022 C 
ATOM     27  C   UNL     1     188.015 196.829 193.389  1.00  0.00     0.015 C 
ATOM     28  C   UNL     1     189.219 193.271 191.003  1.00  0.00     0.017 C 
ATOM     29  C   UNL     1     189.862 197.296 191.160  1.00  0.00     0.012 C 
ATOM     30  C   UNL     1     188.933 198.831 194.596  1.00  0.00     0.011 C 
ENDROOT
BRANCH  20  31
ATOM     31  O   UNL     1     186.413 186.508 189.954  1.00  0.00    -0.393 OA
ATOM     32  H   UNL     1     186.830 186.453 189.052  1.00  0.00     0.210 HD
ENDBRANCH  20  31
TORSDOF 1
ENDMDL
MODEL 4
REMARK VINA RESULT:    -7.598      2.595      4.066
REMARK INTER + INTRA:          -7.820
REMARK INTER:                  -7.820
REMARK INTRA:                   0.000
REMARK UNBOUND:                 0.000
REMARK SMILES CC1(C)CC[C@]2(C)CC[C@@]3(C)C(=CC[C@@H]4[C@]5(C)CC[C@H](O)C(C)(C)[C@H]5CC[C@@]43C)[C@H]2C1
REMARK SMILES IDX 1 1 2 2 4 3 5 4 6 5 8 6 9 7 10 8 12 9 13 10 14 11 15 12
REMARK SMILES IDX 28 13 27 14 26 15 25 16 16 17 18 18 19 19 20 20 22 21 23 22
REMARK SMILES IDX 24 23 17 24 29 25 30 26 31 27 11 28 7 29 3 30 21 31
REMARK H PARENT 21 32
REMARK Flexibility Score: inf
ROOT
ATOM      1  C   UNL     1     190.285 190.349 187.042  1.00  0.00     0.011 C 
ATOM      2  C   UNL     1     188.886 190.068 187.660  1.00  0.00    -0.035 C 
ATOM      3  C   UNL     1     187.771 190.357 186.570  1.00  0.00     0.007 C 
ATOM      4  C   UNL     1     186.745 191.499 186.828  1.00  0.00     0.008 C 
ATOM      5  C   UNL     1     186.598 191.925 188.311  1.00  0.00    -0.026 C 
ATOM      6  C   UNL     1     185.762 193.212 188.422  1.00  0.00     0.008 C 
ATOM      7  C   UNL     1     185.598 193.618 189.894  1.00  0.00     0.012 C 
ATOM      8  C   UNL     1     186.946 193.913 190.661  1.00  0.00    -0.006 C 
ATOM      9  C   UNL     1     188.143 193.165 190.015  1.00  0.00    -0.064 C 
ATOM     10  C   UNL     1     189.389 193.539 190.379  1.00  0.00    -0.027 C 
ATOM     11  C   UNL     1     189.601 194.488 191.518  1.00  0.00     0.032 C 
ATOM     12  C   UNL     1     188.735 195.768 191.341  1.00  0.00     0.006 C 
ATOM     13  C   UNL     1     187.277 195.499 190.712  1.00  0.00    -0.020 C 
ATOM     14  C   UNL     1     186.148 196.269 191.460  1.00  0.00     0.008 C 
ATOM     15  C   UNL     1     186.568 197.675 191.882  1.00  0.00     0.005 C 
ATOM     16  C   UNL     1     187.599 197.532 193.007  1.00  0.00     0.003 C 
ATOM     17  C   UNL     1     188.948 196.907 192.498  1.00  0.00    -0.025 C 
ATOM     18  C   UNL     1     189.667 196.359 193.788  1.00  0.00     0.010 C 
ATOM     19  C   UNL     1     189.393 197.134 195.107  1.00  0.00     0.033 C 
ATOM     20  C   UNL     1     188.974 198.605 194.928  1.00  0.00     0.120 C 
ATOM     21  C   UNL     1     187.725 198.782 193.973  1.00  0.00    -0.006 C 
ATOM     22  C   UNL     1     187.856 200.123 193.203  1.00  0.00     0.014 C 
ATOM     23  C   UNL     1     186.431 198.891 194.830  1.00  0.00     0.014 C 
ATOM     24  C   UNL     1     189.896 197.973 191.861  1.00  0.00     0.012 C 
ATOM     25  C   UNL     1     187.271 196.060 189.247  1.00  0.00     0.012 C 
ATOM     26  C   UNL     1     188.043 192.215 188.811  1.00  0.00     0.022 C 
ATOM     27  C   UNL     1     188.774 190.875 188.996  1.00  0.00     0.015 C 
ATOM     28  C   UNL     1     186.781 193.351 192.110  1.00  0.00     0.017 C 
ATOM     29  C   UNL     1     185.845 190.786 189.080  1.00  0.00     0.012 C 
ATOM     30  C   UNL     1     188.838 188.563 188.018  1.00  0.00     0.011 C 
ENDROOT
BRANCH  20  31
ATOM     31  O   UNL     1     188.768 199.201 196.177  1.00  0.00    -0.393 OA
ATOM     32  H   UNL     1     187.970 198.793 196.612  1.00  0.00     0.210 HD
ENDBRANCH  20  31
TORSDOF 1
ENDMDL
MODEL 5
REMARK VINA RESULT:    -7.598      1.566      2.617
REMARK INTER + INTRA:          -7.820
REMARK INTER:                  -7.820
REMARK INTRA:                   0.000
REMARK UNBOUND:                 0.000
REMARK SMILES CC1(C)CC[C@]2(C)CC[C@@]3(C)C(=CC[C@@H]4[C@]5(C)CC[C@H](O)C(C)(C)[C@H]5CC[C@@]43C)[C@H]2C1
REMARK SMILES IDX 1 1 2 2 4 3 5 4 6 5 8 6 9 7 10 8 12 9 13 10 14 11 15 12
REMARK SMILES IDX 28 13 27 14 26 15 25 16 16 17 18 18 19 19 20 20 22 21 23 22
REMARK SMILES IDX 24 23 17 24 29 25 30 26 31 27 11 28 7 29 3 30 21 31
REMARK H PARENT 21 32
REMARK Flexibility Score: inf
ROOT
ATOM      1  C   UNL     1     184.868 186.883 191.623  1.00  0.00     0.011 C 
ATOM      2  C   UNL     1     184.566 187.554 190.253  1.00  0.00    -0.035 C 
ATOM      3  C   UNL     1     185.565 186.981 189.163  1.00  0.00     0.007 C 
ATOM      4  C   UNL     1     186.575 187.952 188.485  1.00  0.00     0.008 C 
ATOM      5  C   UNL     1     186.201 189.453 188.572  1.00  0.00    -0.026 C 
ATOM      6  C   UNL     1     187.375 190.330 188.102  1.00  0.00     0.008 C 
ATOM      7  C   UNL     1     186.991 191.816 188.166  1.00  0.00     0.012 C 
ATOM      8  C   UNL     1     186.606 192.346 189.602  1.00  0.00    -0.006 C 
ATOM      9  C   UNL     1     186.095 191.198 190.514  1.00  0.00    -0.064 C 
ATOM     10  C   UNL     1     186.001 191.442 191.839  1.00  0.00    -0.027 C 
ATOM     11  C   UNL     1     186.178 192.829 192.377  1.00  0.00     0.032 C 
ATOM     12  C   UNL     1     187.498 193.461 191.853  1.00  0.00     0.006 C 
ATOM     13  C   UNL     1     187.855 193.084 190.328  1.00  0.00    -0.020 C 
ATOM     14  C   UNL     1     188.320 194.316 189.496  1.00  0.00     0.008 C 
ATOM     15  C   UNL     1     189.211 195.266 190.292  1.00  0.00     0.005 C 
ATOM     16  C   UNL     1     188.331 195.956 191.340  1.00  0.00     0.003 C 
ATOM     17  C   UNL     1     187.826 194.954 192.442  1.00  0.00    -0.025 C 
ATOM     18  C   UNL     1     186.577 195.653 193.100  1.00  0.00     0.010 C 
ATOM     19  C   UNL     1     186.602 197.206 193.139  1.00  0.00     0.033 C 
ATOM     20  C   UNL     1     188.005 197.841 193.094  1.00  0.00     0.120 C 
ATOM     21  C   UNL     1     188.865 197.356 191.858  1.00  0.00    -0.006 C 
ATOM     22  C   UNL     1     190.362 197.314 192.262  1.00  0.00     0.014 C 
ATOM     23  C   UNL     1     188.748 198.398 190.708  1.00  0.00     0.014 C 
ATOM     24  C   UNL     1     188.879 194.732 193.573  1.00  0.00     0.012 C 
ATOM     25  C   UNL     1     189.077 192.101 190.346  1.00  0.00     0.012 C 
ATOM     26  C   UNL     1     185.931 189.733 190.079  1.00  0.00     0.022 C 
ATOM     27  C   UNL     1     184.580 189.106 190.459  1.00  0.00     0.015 C 
ATOM     28  C   UNL     1     185.422 193.350 189.418  1.00  0.00     0.017 C 
ATOM     29  C   UNL     1     184.984 189.715 187.619  1.00  0.00     0.012 C 
ATOM     30  C   UNL     1     183.126 187.149 189.854  1.00  0.00     0.011 C 
ENDROOT
BRANCH  20  31
ATOM     31  O   UNL     1     187.903 199.235 193.148  1.00  0.00    -0.393 OA
ATOM     32  H   UNL     1     187.927 199.606 192.224  1.00  0.00     0.210 HD
ENDBRANCH  20  31
TORSDOF 1
ENDMDL
MODEL 6
REMARK VINA RESULT:    -7.569      3.084      8.744
REMARK INTER + INTRA:          -7.790
REMARK INTER:                  -7.790
REMARK INTRA:                   0.000
REMARK UNBOUND:                 0.000
REMARK SMILES CC1(C)CC[C@]2(C)CC[C@@]3(C)C(=CC[C@@H]4[C@]5(C)CC[C@H](O)C(C)(C)[C@H]5CC[C@@]43C)[C@H]2C1
REMARK SMILES IDX 1 1 2 2 4 3 5 4 6 5 8 6 9 7 10 8 12 9 13 10 14 11 15 12
REMARK SMILES IDX 28 13 27 14 26 15 25 16 16 17 18 18 19 19 20 20 22 21 23 22
REMARK SMILES IDX 24 23 17 24 29 25 30 26 31 27 11 28 7 29 3 30 21 31
REMARK H PARENT 21 32
REMARK Flexibility Score: inf
ROOT
ATOM      1  C   UNL     1     189.765 198.279 197.318  1.00  0.00     0.011 C 
ATOM      2  C   UNL     1     190.375 198.798 195.985  1.00  0.00    -0.035 C 
ATOM      3  C   UNL     1     189.621 200.123 195.551  1.00  0.00     0.007 C 
ATOM      4  C   UNL     1     188.809 200.125 194.223  1.00  0.00     0.008 C 
ATOM      5  C   UNL     1     189.197 199.013 193.216  1.00  0.00    -0.026 C 
ATOM      6  C   UNL     1     188.177 198.948 192.065  1.00  0.00     0.008 C 
ATOM      7  C   UNL     1     188.578 197.861 191.057  1.00  0.00     0.012 C 
ATOM      8  C   UNL     1     188.656 196.399 191.645  1.00  0.00    -0.006 C 
ATOM      9  C   UNL     1     188.926 196.414 193.174  1.00  0.00    -0.064 C 
ATOM     10  C   UNL     1     188.737 195.265 193.858  1.00  0.00    -0.027 C 
ATOM     11  C   UNL     1     188.486 193.977 193.135  1.00  0.00     0.032 C 
ATOM     12  C   UNL     1     187.328 194.134 192.109  1.00  0.00     0.006 C 
ATOM     13  C   UNL     1     187.301 195.557 191.355  1.00  0.00    -0.020 C 
ATOM     14  C   UNL     1     187.061 195.421 189.821  1.00  0.00     0.008 C 
ATOM     15  C   UNL     1     186.045 194.335 189.474  1.00  0.00     0.005 C 
ATOM     16  C   UNL     1     186.696 192.980 189.775  1.00  0.00     0.003 C 
ATOM     17  C   UNL     1     186.922 192.761 191.315  1.00  0.00    -0.025 C 
ATOM     18  C   UNL     1     188.016 191.633 191.420  1.00  0.00     0.010 C 
ATOM     19  C   UNL     1     188.026 190.579 190.278  1.00  0.00     0.033 C 
ATOM     20  C   UNL     1     186.684 190.396 189.544  1.00  0.00     0.120 C 
ATOM     21  C   UNL     1     186.100 191.750 188.972  1.00  0.00    -0.006 C 
ATOM     22  C   UNL     1     184.550 191.698 189.018  1.00  0.00     0.014 C 
ATOM     23  C   UNL     1     186.492 191.889 187.472  1.00  0.00     0.014 C 
ATOM     24  C   UNL     1     185.643 192.228 192.036  1.00  0.00     0.012 C 
ATOM     25  C   UNL     1     186.078 196.372 191.902  1.00  0.00     0.012 C 
ATOM     26  C   UNL     1     189.140 197.680 194.018  1.00  0.00     0.022 C 
ATOM     27  C   UNL     1     190.359 197.621 194.953  1.00  0.00     0.015 C 
ATOM     28  C   UNL     1     189.879 195.698 190.969  1.00  0.00     0.017 C 
ATOM     29  C   UNL     1     190.598 199.364 192.607  1.00  0.00     0.012 C 
ATOM     30  C   UNL     1     191.856 199.151 196.268  1.00  0.00     0.011 C 
ENDROOT
BRANCH  20  31
ATOM     31  O   UNL     1     186.810 189.418 188.551  1.00  0.00    -0.393 OA
ATOM     32  H   UNL     1     187.230 188.602 188.940  1.00  0.00     0.210 HD
ENDBRANCH  20  31
TORSDOF 1
ENDMDL
MODEL 7
REMARK VINA RESULT:    -7.501      2.843      8.222
REMARK INTER + INTRA:          -7.720
REMARK INTER:                  -7.720
REMARK INTRA:                   0.000
REMARK UNBOUND:                 0.000
REMARK SMILES CC1(C)CC[C@]2(C)CC[C@@]3(C)C(=CC[C@@H]4[C@]5(C)CC[C@H](O)C(C)(C)[C@H]5CC[C@@]43C)[C@H]2C1
REMARK SMILES IDX 1 1 2 2 4 3 5 4 6 5 8 6 9 7 10 8 12 9 13 10 14 11 15 12
REMARK SMILES IDX 28 13 27 14 26 15 25 16 16 17 18 18 19 19 20 20 22 21 23 22
REMARK SMILES IDX 24 23 17 24 29 25 30 26 31 27 11 28 7 29 3 30 21 31
REMARK H PARENT 21 32
REMARK Flexibility Score: inf
ROOT
ATOM      1  C   UNL     1     192.180 197.250 194.260  1.00  0.00     0.011 C 
ATOM      2  C   UNL     1     191.122 198.103 193.503  1.00  0.00    -0.035 C 
ATOM      3  C   UNL     1     189.983 198.534 194.518  1.00  0.00     0.007 C 
ATOM      4  C   UNL     1     188.532 198.020 194.281  1.00  0.00     0.008 C 
ATOM      5  C   UNL     1     188.233 197.544 192.837  1.00  0.00    -0.026 C 
ATOM      6  C   UNL     1     186.871 196.830 192.776  1.00  0.00     0.008 C 
ATOM      7  C   UNL     1     186.567 196.381 191.339  1.00  0.00     0.012 C 
ATOM      8  C   UNL     1     187.610 195.372 190.719  1.00  0.00    -0.006 C 
ATOM      9  C   UNL     1     189.003 195.508 191.391  1.00  0.00    -0.064 C 
ATOM     10  C   UNL     1     189.907 194.530 191.169  1.00  0.00    -0.027 C 
ATOM     11  C   UNL     1     189.650 193.468 190.144  1.00  0.00     0.032 C 
ATOM     12  C   UNL     1     188.258 192.810 190.366  1.00  0.00     0.006 C 
ATOM     13  C   UNL     1     187.110 193.834 190.843  1.00  0.00    -0.020 C 
ATOM     14  C   UNL     1     185.768 193.633 190.077  1.00  0.00     0.008 C 
ATOM     15  C   UNL     1     185.445 192.162 189.824  1.00  0.00     0.005 C 
ATOM     16  C   UNL     1     186.440 191.643 188.780  1.00  0.00     0.003 C 
ATOM     17  C   UNL     1     187.908 191.581 189.341  1.00  0.00    -0.025 C 
ATOM     18  C   UNL     1     188.838 191.544 188.071  1.00  0.00     0.010 C 
ATOM     19  C   UNL     1     188.251 190.849 186.811  1.00  0.00     0.033 C 
ATOM     20  C   UNL     1     187.151 189.807 187.090  1.00  0.00     0.120 C 
ATOM     21  C   UNL     1     185.954 190.384 187.949  1.00  0.00    -0.006 C 
ATOM     22  C   UNL     1     185.381 189.257 188.848  1.00  0.00     0.014 C 
ATOM     23  C   UNL     1     184.801 190.820 186.999  1.00  0.00     0.014 C 
ATOM     24  C   UNL     1     188.182 190.275 190.151  1.00  0.00     0.012 C 
ATOM     25  C   UNL     1     186.786 193.532 192.347  1.00  0.00     0.012 C 
ATOM     26  C   UNL     1     189.355 196.524 192.489  1.00  0.00     0.022 C 
ATOM     27  C   UNL     1     190.660 197.298 192.243  1.00  0.00     0.015 C 
ATOM     28  C   UNL     1     187.785 195.760 189.215  1.00  0.00     0.017 C 
ATOM     29  C   UNL     1     188.166 198.802 191.905  1.00  0.00     0.012 C 
ATOM     30  C   UNL     1     191.838 199.381 193.005  1.00  0.00     0.011 C 
ENDROOT
BRANCH  20  31
ATOM     31  O   UNL     1     186.710 189.242 185.888  1.00  0.00    -0.393 OA
ATOM     32  H   UNL     1     186.246 189.936 185.345  1.00  0.00     0.210 HD
ENDBRANCH  20  31
TORSDOF 1
ENDMDL
MODEL 8
REMARK VINA RESULT:    -7.464      3.538      8.751
REMARK INTER + INTRA:          -7.683
REMARK INTER:                  -7.683
REMARK INTRA:                   0.000
REMARK UNBOUND:                 0.000
REMARK SMILES CC1(C)CC[C@]2(C)CC[C@@]3(C)C(=CC[C@@H]4[C@]5(C)CC[C@H](O)C(C)(C)[C@H]5CC[C@@]43C)[C@H]2C1
REMARK SMILES IDX 1 1 2 2 4 3 5 4 6 5 8 6 9 7 10 8 12 9 13 10 14 11 15 12
REMARK SMILES IDX 28 13 27 14 26 15 25 16 16 17 18 18 19 19 20 20 22 21 23 22
REMARK SMILES IDX 24 23 17 24 29 25 30 26 31 27 11 28 7 29 3 30 21 31
REMARK H PARENT 21 32
REMARK Flexibility Score: inf
ROOT
ATOM      1  C   UNL     1     187.195 194.495 191.755  1.00  0.00     0.011 C 
ATOM      2  C   UNL     1     187.262 193.918 190.313  1.00  0.00    -0.035 C 
ATOM      3  C   UNL     1     185.851 194.104 189.614  1.00  0.00     0.007 C 
ATOM      4  C   UNL     1     185.046 192.838 189.199  1.00  0.00     0.008 C 
ATOM      5  C   UNL     1     185.886 191.543 189.061  1.00  0.00    -0.026 C 
ATOM      6  C   UNL     1     184.967 190.319 188.900  1.00  0.00     0.008 C 
ATOM      7  C   UNL     1     185.803 189.040 188.739  1.00  0.00     0.012 C 
ATOM      8  C   UNL     1     186.755 188.707 189.954  1.00  0.00    -0.006 C 
ATOM      9  C   UNL     1     187.127 189.985 190.753  1.00  0.00    -0.064 C 
ATOM     10  C   UNL     1     187.693 189.824 191.968  1.00  0.00    -0.027 C 
ATOM     11  C   UNL     1     188.139 188.471 192.432  1.00  0.00     0.032 C 
ATOM     12  C   UNL     1     186.995 187.429 192.281  1.00  0.00     0.006 C 
ATOM     13  C   UNL     1     186.090 187.625 190.963  1.00  0.00    -0.020 C 
ATOM     14  C   UNL     1     185.811 186.285 190.220  1.00  0.00     0.008 C 
ATOM     15  C   UNL     1     185.555 185.121 191.173  1.00  0.00     0.005 C 
ATOM     16  C   UNL     1     186.884 184.785 191.860  1.00  0.00     0.003 C 
ATOM     17  C   UNL     1     187.355 185.929 192.831  1.00  0.00    -0.025 C 
ATOM     18  C   UNL     1     188.898 185.693 193.035  1.00  0.00     0.010 C 
ATOM     19  C   UNL     1     189.382 184.218 192.968  1.00  0.00     0.033 C 
ATOM     20  C   UNL     1     188.310 183.161 193.296  1.00  0.00     0.120 C 
ATOM     21  C   UNL     1     187.007 183.304 192.410  1.00  0.00    -0.006 C 
ATOM     22  C   UNL     1     185.773 182.870 193.243  1.00  0.00     0.014 C 
ATOM     23  C   UNL     1     187.093 182.322 191.205  1.00  0.00     0.014 C 
ATOM     24  C   UNL     1     186.684 185.830 194.237  1.00  0.00     0.012 C 
ATOM     25  C   UNL     1     184.686 188.158 191.414  1.00  0.00     0.012 C 
ATOM     26  C   UNL     1     186.676 191.410 190.396  1.00  0.00     0.022 C 
ATOM     27  C   UNL     1     187.806 192.453 190.401  1.00  0.00     0.015 C 
ATOM     28  C   UNL     1     188.081 188.137 189.354  1.00  0.00     0.017 C 
ATOM     29  C   UNL     1     186.771 191.662 187.774  1.00  0.00     0.012 C 
ATOM     30  C   UNL     1     188.305 194.757 189.534  1.00  0.00     0.011 C 
ENDROOT
BRANCH  20  31
ATOM     31  O   UNL     1     188.861 181.877 193.216  1.00  0.00    -0.393 OA
ATOM     32  H   UNL     1     189.523 181.754 193.950  1.00  0.00     0.210 HD
ENDBRANCH  20  31
TORSDOF 1
ENDMDL
MODEL 9
REMARK VINA RESULT:    -7.254      1.379      3.256
REMARK INTER + INTRA:          -7.466
REMARK INTER:                  -7.466
REMARK INTRA:                   0.000
REMARK UNBOUND:                 0.000
REMARK SMILES CC1(C)CC[C@]2(C)CC[C@@]3(C)C(=CC[C@@H]4[C@]5(C)CC[C@H](O)C(C)(C)[C@H]5CC[C@@]43C)[C@H]2C1
REMARK SMILES IDX 1 1 2 2 4 3 5 4 6 5 8 6 9 7 10 8 12 9 13 10 14 11 15 12
REMARK SMILES IDX 28 13 27 14 26 15 25 16 16 17 18 18 19 19 20 20 22 21 23 22
REMARK SMILES IDX 24 23 17 24 29 25 30 26 31 27 11 28 7 29 3 30 21 31
REMARK H PARENT 21 32
REMARK Flexibility Score: inf
ROOT
ATOM      1  C   UNL     1     182.279 187.325 191.129  1.00  0.00     0.011 C 
ATOM      2  C   UNL     1     183.424 186.964 190.140  1.00  0.00    -0.035 C 
ATOM      3  C   UNL     1     184.396 185.921 190.832  1.00  0.00     0.007 C 
ATOM      4  C   UNL     1     185.873 186.334 191.101  1.00  0.00     0.008 C 
ATOM      5  C   UNL     1     186.387 187.521 190.249  1.00  0.00    -0.026 C 
ATOM      6  C   UNL     1     187.754 188.005 190.767  1.00  0.00     0.008 C 
ATOM      7  C   UNL     1     188.271 189.167 189.905  1.00  0.00     0.012 C 
ATOM      8  C   UNL     1     187.345 190.444 189.878  1.00  0.00    -0.006 C 
ATOM      9  C   UNL     1     185.867 190.082 190.186  1.00  0.00    -0.064 C 
ATOM     10  C   UNL     1     185.019 191.092 190.476  1.00  0.00    -0.027 C 
ATOM     11  C   UNL     1     185.438 192.518 190.299  1.00  0.00     0.032 C 
ATOM     12  C   UNL     1     186.792 192.791 191.015  1.00  0.00     0.006 C 
ATOM     13  C   UNL     1     187.843 191.574 190.929  1.00  0.00    -0.020 C 
ATOM     14  C   UNL     1     189.285 192.048 190.578  1.00  0.00     0.008 C 
ATOM     15  C   UNL     1     189.663 193.357 191.267  1.00  0.00     0.005 C 
ATOM     16  C   UNL     1     188.838 194.475 190.619  1.00  0.00     0.003 C 
ATOM     17  C   UNL     1     187.306 194.345 190.944  1.00  0.00    -0.025 C 
ATOM     18  C   UNL     1     186.572 195.195 189.841  1.00  0.00     0.010 C 
ATOM     19  C   UNL     1     187.347 196.427 189.295  1.00  0.00     0.033 C 
ATOM     20  C   UNL     1     188.409 197.007 190.249  1.00  0.00     0.120 C 
ATOM     21  C   UNL     1     189.459 195.929 190.737  1.00  0.00    -0.006 C 
ATOM     22  C   UNL     1     189.910 196.273 192.181  1.00  0.00     0.014 C 
ATOM     23  C   UNL     1     190.732 196.008 189.846  1.00  0.00     0.014 C 
ATOM     24  C   UNL     1     186.934 194.967 192.327  1.00  0.00     0.012 C 
ATOM     25  C   UNL     1     187.947 190.924 192.352  1.00  0.00     0.012 C 
ATOM     26  C   UNL     1     185.342 188.659 190.440  1.00  0.00     0.022 C 
ATOM     27  C   UNL     1     184.077 188.298 189.645  1.00  0.00     0.015 C 
ATOM     28  C   UNL     1     187.386 191.010 188.421  1.00  0.00     0.017 C 
ATOM     29  C   UNL     1     186.572 187.028 188.773  1.00  0.00     0.012 C 
ATOM     30  C   UNL     1     182.770 186.281 188.915  1.00  0.00     0.011 C 
ENDROOT
BRANCH  20  31
ATOM     31  O   UNL     1     189.029 198.114 189.659  1.00  0.00    -0.393 OA
ATOM     32  H   UNL     1     188.697 198.223 188.727  1.00  0.00     0.210 HD
ENDBRANCH  20  31
TORSDOF 1
ENDMDL
