MODEL 1
REMARK VINA RESULT:     4.617      0.000      0.000
REMARK INTER + INTRA:           5.698
REMARK INTER:                   5.966
REMARK INTRA:                  -0.268
REMARK UNBOUND:                -0.268
REMARK SMILES CO[C@@]1(CO)O[C@@H](CO)[C@@H](O)[C@H]1O
REMARK SMILES IDX 3 1 12 2 10 3 7 4 6 5 2 6 1 7 4 8 5 9 13 11 11 13 8 15 9 16
REMARK H PARENT 5 10 13 12 11 14 9 17
REMARK Flexibility Score: inf
ROOT
ATOM      1  C   UNL     1      94.380 117.622 110.913  1.00  0.00     0.221 C 
ATOM      2  C   UNL     1      92.986 118.268 110.914  1.00  0.00     0.207 C 
ATOM      3  C   UNL     1      92.879 118.802 112.321  1.00  0.00     0.180 C 
ATOM      4  C   UNL     1      93.686 117.756 113.095  1.00  0.00     0.179 C 
ATOM      5  O   UNL     1      94.611 117.137 112.225  1.00  0.00    -0.337 OA
ENDROOT
BRANCH   1   6
ATOM      6  O   UNL     1      95.328 118.637 110.580  1.00  0.00    -0.349 OA
ATOM      7  C   UNL     1      96.454 118.148 109.879  1.00  0.00     0.198 C 
ENDBRANCH   1   6
BRANCH   1   8
ATOM      8  C   UNL     1      94.411 116.451 109.897  1.00  0.00     0.224 C 
BRANCH   8   9
ATOM      9  O   UNL     1      93.183 115.776 109.877  1.00  0.00    -0.391 OA
ATOM     10  H   UNL     1      92.566 116.339 109.341  1.00  0.00     0.210 HD
ENDBRANCH   8   9
ENDBRANCH   1   8
BRANCH   2  11
ATOM     11  O   UNL     1      92.875 119.279 109.944  1.00  0.00    -0.385 OA
ATOM     12  H   UNL     1      92.389 118.879 109.176  1.00  0.00     0.211 HD
ENDBRANCH   2  11
BRANCH   3  13
ATOM     13  O   UNL     1      93.462 120.078 112.418  1.00  0.00    -0.387 OA
ATOM     14  H   UNL     1      93.852 120.147 113.329  1.00  0.00     0.211 HD
ENDBRANCH   3  13
BRANCH   4  15
ATOM     15  C   UNL     1      94.403 118.300 114.339  1.00  0.00     0.191 C 
BRANCH  15  16
ATOM     16  O   UNL     1      95.722 117.832 114.391  1.00  0.00    -0.394 OA
ATOM     17  H   UNL     1      96.104 118.178 115.240  1.00  0.00     0.210 HD
ENDBRANCH  15  16
ENDBRANCH   4  15
TORSDOF 7
ENDMDL
MODEL 2
REMARK VINA RESULT:     6.599      1.481      3.694
REMARK INTER + INTRA:           8.259
REMARK INTER:                   7.018
REMARK INTRA:                   1.241
REMARK UNBOUND:                -0.268
REMARK SMILES CO[C@@]1(CO)O[C@@H](CO)[C@@H](O)[C@H]1O
REMARK SMILES IDX 3 1 12 2 10 3 7 4 6 5 2 6 1 7 4 8 5 9 13 11 11 13 8 15 9 16
REMARK H PARENT 5 10 13 12 11 14 9 17
REMARK Flexibility Score: inf
ROOT
ATOM      1  C   UNL     1      93.801 118.116 112.560  1.00  0.00     0.221 C 
ATOM      2  C   UNL     1      92.987 117.372 111.490  1.00  0.00     0.207 C 
ATOM      3  C   UNL     1      93.733 117.711 110.224  1.00  0.00     0.180 C 
ATOM      4  C   UNL     1      94.233 119.122 110.545  1.00  0.00     0.179 C 
ATOM      5  O   UNL     1      94.322 119.282 111.946  1.00  0.00    -0.337 OA
ENDROOT
BRANCH   1   6
ATOM      6  O   UNL     1      94.860 117.253 112.976  1.00  0.00    -0.349 OA
ATOM      7  C   UNL     1      95.629 117.778 114.040  1.00  0.00     0.198 C 
ENDBRANCH   1   6
BRANCH   1   8
ATOM      8  C   UNL     1      92.876 118.502 113.743  1.00  0.00     0.224 C 
BRANCH   8   9
ATOM      9  O   UNL     1      93.276 117.855 114.920  1.00  0.00    -0.391 OA
ATOM     10  H   UNL     1      92.506 117.916 115.545  1.00  0.00     0.210 HD
ENDBRANCH   8   9
ENDBRANCH   1   8
BRANCH   2  11
ATOM     11  O   UNL     1      92.939 115.989 111.734  1.00  0.00    -0.385 OA
ATOM     12  H   UNL     1      91.979 115.753 111.826  1.00  0.00     0.211 HD
ENDBRANCH   2  11
BRANCH   3  13
ATOM     13  O   UNL     1      94.802 116.820 110.019  1.00  0.00    -0.387 OA
ATOM     14  H   UNL     1      94.808 116.596 109.051  1.00  0.00     0.211 HD
ENDBRANCH   3  13
BRANCH   4  15
ATOM     15  C   UNL     1      95.566 119.491 109.878  1.00  0.00     0.191 C 
BRANCH  15  16
ATOM     16  O   UNL     1      96.436 118.393 109.876  1.00  0.00    -0.394 OA
ATOM     17  H   UNL     1      95.896 117.613 110.169  1.00  0.00     0.210 HD
ENDBRANCH  15  16
ENDBRANCH   4  15
TORSDOF 7
ENDMDL
