MODEL 1
REMARK VINA RESULT:     0.649      0.000      0.000
REMARK INTER + INTRA:           0.424
REMARK INTER:                   1.485
REMARK INTRA:                  -1.061
REMARK UNBOUND:                -1.061
REMARK SMILES CCCCCCCCCCCCCCCCCCCCCCCC(=O)[O-]
REMARK SMILES IDX 13 1 14 2 15 3 16 4 17 5 18 6 19 7 20 8 21 9 22 10 23 11
REMARK SMILES IDX 24 12 25 13 26 14 12 15 11 16 10 17 9 18 8 19 7 20 6 21 5 22
REMARK SMILES IDX 4 23 3 24 2 25 1 26
REMARK H PARENT
REMARK Flexibility Score: inf
ROOT
ATOM      1  C   UNL     1      -6.125  36.147  24.224  1.00  0.00     0.000 C 
ENDROOT
BRANCH   1   2
ATOM      2  C   UNL     1      -5.955  34.625  24.163  1.00  0.00     0.000 C 
BRANCH   2   3
ATOM      3  C   UNL     1      -5.935  34.126  22.711  1.00  0.00     0.000 C 
BRANCH   3   4
ATOM      4  C   UNL     1      -6.025  35.278  21.695  1.00  0.00     0.000 C 
BRANCH   4   5
ATOM      5  C   UNL     1      -5.034  35.107  20.529  1.00  0.00     0.000 C 
BRANCH   5   6
ATOM      6  C   UNL     1      -5.614  34.249  19.384  1.00  0.00     0.000 C 
BRANCH   6   7
ATOM      7  C   UNL     1      -5.468  34.889  17.990  1.00  0.00     0.000 C 
BRANCH   7   8
ATOM      8  C   UNL     1      -4.154  34.565  17.257  1.00  0.00     0.000 C 
BRANCH   8   9
ATOM      9  C   UNL     1      -3.320  35.823  16.948  1.00  0.00     0.000 C 
BRANCH   9  10
ATOM     10  C   UNL     1      -2.909  35.916  15.467  1.00  0.00     0.006 C 
BRANCH  10  11
ATOM     11  C   UNL     1      -2.934  37.339  14.887  1.00  0.00     0.053 C 
BRANCH  11  12
ATOM     12  C   UNL     1      -4.250  37.667  14.256  1.00  0.00     0.041 C 
ATOM     13  O   UNL     1      -5.030  36.744  13.900  1.00  0.00    -0.550 OA
ATOM     14  O   UNL     1      -4.622  38.994  14.076  1.00  0.00    -0.550 OA
ENDBRANCH  11  12
ENDBRANCH  10  11
ENDBRANCH   9  10
ENDBRANCH   8   9
ENDBRANCH   7   8
ENDBRANCH   6   7
ENDBRANCH   5   6
ENDBRANCH   4   5
ENDBRANCH   3   4
ENDBRANCH   2   3
ENDBRANCH   1   2
BRANCH   1  15
ATOM     15  C   UNL     1      -5.847  36.672  25.643  1.00  0.00     0.000 C 
BRANCH  15  16
ATOM     16  C   UNL     1      -4.570  37.535  25.721  1.00  0.00     0.000 C 
BRANCH  16  17
ATOM     17  C   UNL     1      -4.719  38.930  25.089  1.00  0.00     0.000 C 
BRANCH  17  18
ATOM     18  C   UNL     1      -5.763  39.027  23.961  1.00  0.00    -0.000 C 
BRANCH  18  19
ATOM     19  C   UNL     1      -5.725  40.335  23.147  1.00  0.00    -0.000 C 
BRANCH  19  20
ATOM     20  C   UNL     1      -5.983  40.177  21.635  1.00  0.00    -0.000 C 
BRANCH  20  21
ATOM     21  C   UNL     1      -5.616  38.785  21.078  1.00  0.00    -0.000 C 
BRANCH  21  22
ATOM     22  C   UNL     1      -4.102  38.614  20.850  1.00  0.00    -0.000 C 
BRANCH  22  23
ATOM     23  C   UNL     1      -3.782  37.640  19.705  1.00  0.00    -0.000 C 
BRANCH  23  24
ATOM     24  C   UNL     1      -2.351  37.078  19.782  1.00  0.00    -0.000 C 
BRANCH  24  25
ATOM     25  C   UNL     1      -1.313  38.016  19.145  1.00  0.00    -0.003 C 
ATOM     26  C   UNL     1      -0.324  37.276  18.242  1.00  0.00     0.004 C 
ENDBRANCH  24  25
ENDBRANCH  23  24
ENDBRANCH  22  23
ENDBRANCH  21  22
ENDBRANCH  20  21
ENDBRANCH  19  20
ENDBRANCH  18  19
ENDBRANCH  17  18
ENDBRANCH  16  17
ENDBRANCH  15  16
ENDBRANCH   1  15
TORSDOF 22
ENDMDL
MODEL 2
REMARK VINA RESULT:     0.684      1.973      5.445
REMARK INTER + INTRA:           0.503
REMARK INTER:                   1.471
REMARK INTRA:                  -0.968
REMARK UNBOUND:                -1.061
REMARK SMILES CCCCCCCCCCCCCCCCCCCCCCCC(=O)[O-]
REMARK SMILES IDX 13 1 14 2 15 3 16 4 17 5 18 6 19 7 20 8 21 9 22 10 23 11
REMARK SMILES IDX 24 12 25 13 26 14 12 15 11 16 10 17 9 18 8 19 7 20 6 21 5 22
REMARK SMILES IDX 4 23 3 24 2 25 1 26
REMARK H PARENT
REMARK Flexibility Score: inf
ROOT
ATOM      1  C   UNL     1      -6.107  35.233  24.676  1.00  0.00     0.000 C 
ENDROOT
BRANCH   1   2
ATOM      2  C   UNL     1      -4.793  35.955  24.996  1.00  0.00     0.000 C 
BRANCH   2   3
ATOM      3  C   UNL     1      -5.046  37.243  25.794  1.00  0.00     0.000 C 
BRANCH   3   4
ATOM      4  C   UNL     1      -4.871  38.507  24.935  1.00  0.00     0.000 C 
BRANCH   4   5
ATOM      5  C   UNL     1      -6.062  38.738  23.986  1.00  0.00     0.000 C 
BRANCH   5   6
ATOM      6  C   UNL     1      -5.815  39.905  23.005  1.00  0.00     0.000 C 
BRANCH   6   7
ATOM      7  C   UNL     1      -5.941  39.509  21.522  1.00  0.00     0.000 C 
BRANCH   7   8
ATOM      8  C   UNL     1      -4.715  38.786  20.933  1.00  0.00     0.000 C 
BRANCH   8   9
ATOM      9  C   UNL     1      -5.011  38.124  19.575  1.00  0.00     0.000 C 
BRANCH   9  10
ATOM     10  C   UNL     1      -3.784  37.410  18.979  1.00  0.00     0.006 C 
BRANCH  10  11
ATOM     11  C   UNL     1      -2.598  37.268  19.945  1.00  0.00     0.053 C 
BRANCH  11  12
ATOM     12  C   UNL     1      -1.286  37.512  19.266  1.00  0.00     0.041 C 
ATOM     13  O   UNL     1      -1.252  38.063  18.134  1.00  0.00    -0.550 OA
ATOM     14  O   UNL     1      -0.101  37.145  19.893  1.00  0.00    -0.550 OA
ENDBRANCH  11  12
ENDBRANCH  10  11
ENDBRANCH   9  10
ENDBRANCH   8   9
ENDBRANCH   7   8
ENDBRANCH   6   7
ENDBRANCH   5   6
ENDBRANCH   4   5
ENDBRANCH   3   4
ENDBRANCH   2   3
ENDBRANCH   1   2
BRANCH   1  15
ATOM     15  C   UNL     1      -6.009  34.490  23.333  1.00  0.00     0.000 C 
BRANCH  15  16
ATOM     16  C   UNL     1      -6.083  35.441  22.119  1.00  0.00     0.000 C 
BRANCH  16  17
ATOM     17  C   UNL     1      -5.329  34.931  20.879  1.00  0.00     0.000 C 
BRANCH  17  18
ATOM     18  C   UNL     1      -6.125  34.988  19.561  1.00  0.00    -0.000 C 
BRANCH  18  19
ATOM     19  C   UNL     1      -5.579  34.096  18.430  1.00  0.00    -0.000 C 
BRANCH  19  20
ATOM     20  C   UNL     1      -4.094  34.313  18.079  1.00  0.00    -0.000 C 
BRANCH  20  21
ATOM     21  C   UNL     1      -3.834  35.544  17.184  1.00  0.00    -0.000 C 
BRANCH  21  22
ATOM     22  C   UNL     1      -3.236  35.170  15.814  1.00  0.00    -0.000 C 
BRANCH  22  23
ATOM     23  C   UNL     1      -2.266  36.237  15.281  1.00  0.00    -0.000 C 
BRANCH  23  24
ATOM     24  C   UNL     1      -2.885  37.102  14.168  1.00  0.00    -0.000 C 
BRANCH  24  25
ATOM     25  C   UNL     1      -4.342  37.493  14.463  1.00  0.00    -0.003 C 
ATOM     26  C   UNL     1      -4.681  38.908  13.991  1.00  0.00     0.004 C 
ENDBRANCH  24  25
ENDBRANCH  23  24
ENDBRANCH  22  23
ENDBRANCH  21  22
ENDBRANCH  20  21
ENDBRANCH  19  20
ENDBRANCH  18  19
ENDBRANCH  17  18
ENDBRANCH  16  17
ENDBRANCH  15  16
ENDBRANCH   1  15
TORSDOF 22
ENDMDL
MODEL 3
REMARK VINA RESULT:     1.364      1.113      4.147
REMARK INTER + INTRA:           2.058
REMARK INTER:                   1.105
REMARK INTRA:                   0.953
REMARK UNBOUND:                -1.061
REMARK SMILES CCCCCCCCCCCCCCCCCCCCCCCC(=O)[O-]
REMARK SMILES IDX 13 1 14 2 15 3 16 4 17 5 18 6 19 7 20 8 21 9 22 10 23 11
REMARK SMILES IDX 24 12 25 13 26 14 12 15 11 16 10 17 9 18 8 19 7 20 6 21 5 22
REMARK SMILES IDX 4 23 3 24 2 25 1 26
REMARK H PARENT
REMARK Flexibility Score: inf
ROOT
ATOM      1  C   UNL     1      -4.899  38.252  20.680  1.00  0.00     0.000 C 
ENDROOT
BRANCH   1   2
ATOM      2  C   UNL     1      -5.161  37.383  19.445  1.00  0.00     0.000 C 
BRANCH   2   3
ATOM      3  C   UNL     1      -4.055  36.333  19.260  1.00  0.00     0.000 C 
BRANCH   3   4
ATOM      4  C   UNL     1      -2.764  36.706  20.009  1.00  0.00     0.000 C 
BRANCH   4   5
ATOM      5  C   UNL     1      -1.953  37.788  19.271  1.00  0.00     0.000 C 
BRANCH   5   6
ATOM      6  C   UNL     1      -0.869  37.187  18.350  1.00  0.00     0.000 C 
BRANCH   6   7
ATOM      7  C   UNL     1      -1.283  37.109  16.869  1.00  0.00     0.000 C 
BRANCH   7   8
ATOM      8  C   UNL     1      -1.679  35.706  16.374  1.00  0.00     0.000 C 
BRANCH   8   9
ATOM      9  C   UNL     1      -3.033  35.694  15.641  1.00  0.00     0.000 C 
BRANCH   9  10
ATOM     10  C   UNL     1      -2.969  36.366  14.258  1.00  0.00     0.006 C 
BRANCH  10  11
ATOM     11  C   UNL     1      -4.227  37.163  13.877  1.00  0.00     0.053 C 
BRANCH  11  12
ATOM     12  C   UNL     1      -4.285  38.488  14.572  1.00  0.00     0.041 C 
ATOM     13  O   UNL     1      -4.946  39.437  14.073  1.00  0.00    -0.550 OA
ATOM     14  O   UNL     1      -3.622  38.667  15.780  1.00  0.00    -0.550 OA
ENDBRANCH  11  12
ENDBRANCH  10  11
ENDBRANCH   9  10
ENDBRANCH   8   9
ENDBRANCH   7   8
ENDBRANCH   6   7
ENDBRANCH   5   6
ENDBRANCH   4   5
ENDBRANCH   3   4
ENDBRANCH   2   3
ENDBRANCH   1   2
BRANCH   1  15
ATOM     15  C   UNL     1      -6.125  39.123  21.005  1.00  0.00     0.000 C 
BRANCH  15  16
ATOM     16  C   UNL     1      -5.740  40.500  21.588  1.00  0.00     0.000 C 
BRANCH  16  17
ATOM     17  C   UNL     1      -5.408  40.471  23.090  1.00  0.00     0.000 C 
BRANCH  17  18
ATOM     18  C   UNL     1      -4.699  39.194  23.578  1.00  0.00    -0.000 C 
BRANCH  18  19
ATOM     19  C   UNL     1      -5.393  38.467  24.746  1.00  0.00    -0.000 C 
BRANCH  19  20
ATOM     20  C   UNL     1      -6.117  37.159  24.371  1.00  0.00    -0.000 C 
BRANCH  20  21
ATOM     21  C   UNL     1      -5.630  35.924  25.159  1.00  0.00    -0.000 C 
BRANCH  21  22
ATOM     22  C   UNL     1      -5.935  34.598  24.437  1.00  0.00    -0.000 C 
BRANCH  22  23
ATOM     23  C   UNL     1      -5.079  34.400  23.176  1.00  0.00    -0.000 C 
BRANCH  23  24
ATOM     24  C   UNL     1      -5.854  34.687  21.878  1.00  0.00    -0.000 C 
BRANCH  24  25
ATOM     25  C   UNL     1      -5.032  34.378  20.617  1.00  0.00    -0.003 C 
ATOM     26  C   UNL     1      -5.907  34.076  19.399  1.00  0.00     0.004 C 
ENDBRANCH  24  25
ENDBRANCH  23  24
ENDBRANCH  22  23
ENDBRANCH  21  22
ENDBRANCH  20  21
ENDBRANCH  19  20
ENDBRANCH  18  19
ENDBRANCH  17  18
ENDBRANCH  16  17
ENDBRANCH  15  16
ENDBRANCH   1  15
TORSDOF 22
ENDMDL
MODEL 4
REMARK VINA RESULT:     1.513      1.218      4.538
REMARK INTER + INTRA:           2.397
REMARK INTER:                   3.743
REMARK INTRA:                  -1.346
REMARK UNBOUND:                -1.061
REMARK SMILES CCCCCCCCCCCCCCCCCCCCCCCC(=O)[O-]
REMARK SMILES IDX 13 1 14 2 15 3 16 4 17 5 18 6 19 7 20 8 21 9 22 10 23 11
REMARK SMILES IDX 24 12 25 13 26 14 12 15 11 16 10 17 9 18 8 19 7 20 6 21 5 22
REMARK SMILES IDX 4 23 3 24 2 25 1 26
REMARK H PARENT
REMARK Flexibility Score: inf
ROOT
ATOM      1  C   UNL     1      -4.895  35.130  19.266  1.00  0.00     0.000 C 
ENDROOT
BRANCH   1   2
ATOM      2  C   UNL     1      -6.108  35.767  19.953  1.00  0.00     0.000 C 
BRANCH   2   3
ATOM      3  C   UNL     1      -5.716  37.057  20.689  1.00  0.00     0.000 C 
BRANCH   3   4
ATOM      4  C   UNL     1      -4.987  38.054  19.773  1.00  0.00     0.000 C 
BRANCH   4   5
ATOM      5  C   UNL     1      -3.582  38.408  20.297  1.00  0.00     0.000 C 
BRANCH   5   6
ATOM      6  C   UNL     1      -2.547  37.300  20.003  1.00  0.00     0.000 C 
BRANCH   6   7
ATOM      7  C   UNL     1      -1.756  37.516  18.699  1.00  0.00     0.000 C 
BRANCH   7   8
ATOM      8  C   UNL     1      -2.151  36.589  17.535  1.00  0.00     0.000 C 
BRANCH   8   9
ATOM      9  C   UNL     1      -2.767  37.354  16.349  1.00  0.00     0.000 C 
BRANCH   9  10
ATOM     10  C   UNL     1      -2.426  36.720  14.988  1.00  0.00     0.006 C 
BRANCH  10  11
ATOM     11  C   UNL     1      -3.648  36.310  14.151  1.00  0.00     0.053 C 
BRANCH  11  12
ATOM     12  C   UNL     1      -4.624  37.434  13.991  1.00  0.00     0.041 C 
ATOM     13  O   UNL     1      -5.855  37.193  13.875  1.00  0.00    -0.550 OA
ATOM     14  O   UNL     1      -4.172  38.749  13.987  1.00  0.00    -0.550 OA
ENDBRANCH  11  12
ENDBRANCH  10  11
ENDBRANCH   9  10
ENDBRANCH   8   9
ENDBRANCH   7   8
ENDBRANCH   6   7
ENDBRANCH   5   6
ENDBRANCH   4   5
ENDBRANCH   3   4
ENDBRANCH   2   3
ENDBRANCH   1   2
BRANCH   1  15
ATOM     15  C   UNL     1      -4.164  34.174  20.224  1.00  0.00     0.000 C 
BRANCH  15  16
ATOM     16  C   UNL     1      -3.581  34.896  21.458  1.00  0.00     0.000 C 
BRANCH  16  17
ATOM     17  C   UNL     1      -3.484  34.011  22.712  1.00  0.00     0.000 C 
BRANCH  17  18
ATOM     18  C   UNL     1      -4.833  33.525  23.274  1.00  0.00    -0.000 C 
BRANCH  18  19
ATOM     19  C   UNL     1      -5.907  34.618  23.433  1.00  0.00    -0.000 C 
BRANCH  19  20
ATOM     20  C   UNL     1      -5.796  35.468  24.713  1.00  0.00    -0.000 C 
BRANCH  20  21
ATOM     21  C   UNL     1      -6.116  36.964  24.504  1.00  0.00    -0.000 C 
BRANCH  21  22
ATOM     22  C   UNL     1      -4.941  37.885  24.882  1.00  0.00    -0.000 C 
BRANCH  22  23
ATOM     23  C   UNL     1      -5.092  39.303  24.309  1.00  0.00    -0.000 C 
BRANCH  23  24
ATOM     24  C   UNL     1      -5.559  39.307  22.842  1.00  0.00    -0.000 C 
BRANCH  24  25
ATOM     25  C   UNL     1      -5.954  40.709  22.351  1.00  0.00    -0.003 C 
ATOM     26  C   UNL     1      -6.099  41.716  23.493  1.00  0.00     0.004 C 
ENDBRANCH  24  25
ENDBRANCH  23  24
ENDBRANCH  22  23
ENDBRANCH  21  22
ENDBRANCH  20  21
ENDBRANCH  19  20
ENDBRANCH  18  19
ENDBRANCH  17  18
ENDBRANCH  16  17
ENDBRANCH  15  16
ENDBRANCH   1  15
TORSDOF 22
ENDMDL
MODEL 5
REMARK VINA RESULT:     2.120      2.320      4.807
REMARK INTER + INTRA:           3.786
REMARK INTER:                   3.958
REMARK INTRA:                  -0.173
REMARK UNBOUND:                -1.061
REMARK SMILES CCCCCCCCCCCCCCCCCCCCCCCC(=O)[O-]
REMARK SMILES IDX 13 1 14 2 15 3 16 4 17 5 18 6 19 7 20 8 21 9 22 10 23 11
REMARK SMILES IDX 24 12 25 13 26 14 12 15 11 16 10 17 9 18 8 19 7 20 6 21 5 22
REMARK SMILES IDX 4 23 3 24 2 25 1 26
REMARK H PARENT
REMARK Flexibility Score: inf
ROOT
ATOM      1  C   UNL     1      -4.789  36.041  20.939  1.00  0.00     0.000 C 
ENDROOT
BRANCH   1   2
ATOM      2  C   UNL     1      -5.905  35.543  20.014  1.00  0.00     0.000 C 
BRANCH   2   3
ATOM      3  C   UNL     1      -5.744  34.047  19.704  1.00  0.00     0.000 C 
BRANCH   3   4
ATOM      4  C   UNL     1      -5.510  33.782  18.206  1.00  0.00     0.000 C 
BRANCH   4   5
ATOM      5  C   UNL     1      -4.908  35.002  17.485  1.00  0.00     0.000 C 
BRANCH   5   6
ATOM      6  C   UNL     1      -3.601  34.658  16.737  1.00  0.00     0.000 C 
BRANCH   6   7
ATOM      7  C   UNL     1      -3.239  35.659  15.624  1.00  0.00     0.000 C 
BRANCH   7   8
ATOM      8  C   UNL     1      -1.898  36.391  15.815  1.00  0.00     0.000 C 
BRANCH   8   9
ATOM      9  C   UNL     1      -2.007  37.591  16.774  1.00  0.00     0.000 C 
BRANCH   9  10
ATOM     10  C   UNL     1      -2.752  37.248  18.076  1.00  0.00     0.006 C 
BRANCH  10  11
ATOM     11  C   UNL     1      -2.113  37.826  19.349  1.00  0.00     0.053 C 
BRANCH  11  12
ATOM     12  C   UNL     1      -0.692  37.384  19.516  1.00  0.00     0.041 C 
ATOM     13  O   UNL     1       0.083  37.353  18.523  1.00  0.00    -0.550 OA
ATOM     14  O   UNL     1      -0.222  37.022  20.773  1.00  0.00    -0.550 OA
ENDBRANCH  11  12
ENDBRANCH  10  11
ENDBRANCH   9  10
ENDBRANCH   8   9
ENDBRANCH   7   8
ENDBRANCH   6   7
ENDBRANCH   5   6
ENDBRANCH   4   5
ENDBRANCH   3   4
ENDBRANCH   2   3
ENDBRANCH   1   2
BRANCH   1  15
ATOM     15  C   UNL     1      -4.931  37.549  21.204  1.00  0.00     0.000 C 
BRANCH  15  16
ATOM     16  C   UNL     1      -6.057  38.198  20.372  1.00  0.00     0.000 C 
BRANCH  16  17
ATOM     17  C   UNL     1      -6.065  39.735  20.422  1.00  0.00     0.000 C 
BRANCH  17  18
ATOM     18  C   UNL     1      -6.125  40.342  21.836  1.00  0.00    -0.000 C 
BRANCH  18  19
ATOM     19  C   UNL     1      -4.921  40.013  22.740  1.00  0.00    -0.000 C 
BRANCH  19  20
ATOM     20  C   UNL     1      -5.273  39.621  24.188  1.00  0.00    -0.000 C 
BRANCH  20  21
ATOM     21  C   UNL     1      -5.844  38.193  24.331  1.00  0.00    -0.000 C 
BRANCH  21  22
ATOM     22  C   UNL     1      -5.407  37.504  25.637  1.00  0.00    -0.000 C 
BRANCH  22  23
ATOM     23  C   UNL     1      -5.387  35.972  25.520  1.00  0.00    -0.000 C 
BRANCH  23  24
ATOM     24  C   UNL     1      -6.075  35.463  24.240  1.00  0.00    -0.000 C 
BRANCH  24  25
ATOM     25  C   UNL     1      -5.717  34.004  23.916  1.00  0.00    -0.003 C 
ATOM     26  C   UNL     1      -4.527  33.885  22.962  1.00  0.00     0.004 C 
ENDBRANCH  24  25
ENDBRANCH  23  24
ENDBRANCH  22  23
ENDBRANCH  21  22
ENDBRANCH  20  21
ENDBRANCH  19  20
ENDBRANCH  18  19
ENDBRANCH  17  18
ENDBRANCH  16  17
ENDBRANCH  15  16
ENDBRANCH   1  15
TORSDOF 22
ENDMDL
MODEL 6
REMARK VINA RESULT:     2.239      1.792      6.050
REMARK INTER + INTRA:           4.058
REMARK INTER:                   4.510
REMARK INTRA:                  -0.453
REMARK UNBOUND:                -1.061
REMARK SMILES CCCCCCCCCCCCCCCCCCCCCCCC(=O)[O-]
REMARK SMILES IDX 13 1 14 2 15 3 16 4 17 5 18 6 19 7 20 8 21 9 22 10 23 11
REMARK SMILES IDX 24 12 25 13 26 14 12 15 11 16 10 17 9 18 8 19 7 20 6 21 5 22
REMARK SMILES IDX 4 23 3 24 2 25 1 26
REMARK H PARENT
REMARK Flexibility Score: inf
ROOT
ATOM      1  C   UNL     1      -4.345  34.777  22.624  1.00  0.00     0.000 C 
ENDROOT
BRANCH   1   2
ATOM      2  C   UNL     1      -5.351  33.777  23.206  1.00  0.00     0.000 C 
BRANCH   2   3
ATOM      3  C   UNL     1      -5.997  34.322  24.489  1.00  0.00     0.000 C 
BRANCH   3   4
ATOM      4  C   UNL     1      -6.122  35.855  24.474  1.00  0.00     0.000 C 
BRANCH   4   5
ATOM      5  C   UNL     1      -5.111  36.532  25.419  1.00  0.00     0.000 C 
BRANCH   5   6
ATOM      6  C   UNL     1      -4.617  37.891  24.878  1.00  0.00     0.000 C 
BRANCH   6   7
ATOM      7  C   UNL     1      -5.732  38.761  24.267  1.00  0.00     0.000 C 
BRANCH   7   8
ATOM      8  C   UNL     1      -5.271  39.738  23.170  1.00  0.00     0.000 C 
BRANCH   8   9
ATOM      9  C   UNL     1      -6.089  39.605  21.872  1.00  0.00     0.000 C 
BRANCH   9  10
ATOM     10  C   UNL     1      -5.444  38.644  20.857  1.00  0.00     0.006 C 
BRANCH  10  11
ATOM     11  C   UNL     1      -3.922  38.491  21.001  1.00  0.00     0.053 C 
BRANCH  11  12
ATOM     12  C   UNL     1      -3.307  37.828  19.808  1.00  0.00     0.041 C 
ATOM     13  O   UNL     1      -2.084  37.526  19.811  1.00  0.00    -0.550 OA
ATOM     14  O   UNL     1      -4.092  37.529  18.700  1.00  0.00    -0.550 OA
ENDBRANCH  11  12
ENDBRANCH  10  11
ENDBRANCH   9  10
ENDBRANCH   8   9
ENDBRANCH   7   8
ENDBRANCH   6   7
ENDBRANCH   5   6
ENDBRANCH   4   5
ENDBRANCH   3   4
ENDBRANCH   2   3
ENDBRANCH   1   2
BRANCH   1  15
ATOM     15  C   UNL     1      -4.725  35.157  21.183  1.00  0.00     0.000 C 
BRANCH  15  16
ATOM     16  C   UNL     1      -6.105  34.605  20.765  1.00  0.00     0.000 C 
BRANCH  16  17
ATOM     17  C   UNL     1      -6.082  33.791  19.460  1.00  0.00     0.000 C 
BRANCH  17  18
ATOM     18  C   UNL     1      -5.825  34.611  18.182  1.00  0.00    -0.000 C 
BRANCH  18  19
ATOM     19  C   UNL     1      -4.363  34.620  17.696  1.00  0.00    -0.000 C 
BRANCH  19  20
ATOM     20  C   UNL     1      -4.081  35.518  16.474  1.00  0.00    -0.000 C 
BRANCH  20  21
ATOM     21  C   UNL     1      -2.632  36.043  16.402  1.00  0.00    -0.000 C 
BRANCH  21  22
ATOM     22  C   UNL     1      -1.996  35.854  15.012  1.00  0.00    -0.000 C 
BRANCH  22  23
ATOM     23  C   UNL     1      -2.722  36.650  13.916  1.00  0.00    -0.000 C 
BRANCH  23  24
ATOM     24  C   UNL     1      -4.244  36.717  14.136  1.00  0.00    -0.000 C 
BRANCH  24  25
ATOM     25  C   UNL     1      -4.819  38.118  13.875  1.00  0.00    -0.003 C 
ATOM     26  C   UNL     1      -4.260  39.173  14.831  1.00  0.00     0.004 C 
ENDBRANCH  24  25
ENDBRANCH  23  24
ENDBRANCH  22  23
ENDBRANCH  21  22
ENDBRANCH  20  21
ENDBRANCH  19  20
ENDBRANCH  18  19
ENDBRANCH  17  18
ENDBRANCH  16  17
ENDBRANCH  15  16
ENDBRANCH   1  15
TORSDOF 22
ENDMDL
MODEL 7
REMARK VINA RESULT:     2.436      2.147      4.504
REMARK INTER + INTRA:           4.507
REMARK INTER:                   5.588
REMARK INTRA:                  -1.081
REMARK UNBOUND:                -1.061
REMARK SMILES CCCCCCCCCCCCCCCCCCCCCCCC(=O)[O-]
REMARK SMILES IDX 13 1 14 2 15 3 16 4 17 5 18 6 19 7 20 8 21 9 22 10 23 11
REMARK SMILES IDX 24 12 25 13 26 14 12 15 11 16 10 17 9 18 8 19 7 20 6 21 5 22
REMARK SMILES IDX 4 23 3 24 2 25 1 26
REMARK H PARENT
REMARK Flexibility Score: inf
ROOT
ATOM      1  C   UNL     1      -4.075  35.894  21.741  1.00  0.00     0.000 C 
ENDROOT
BRANCH   1   2
ATOM      2  C   UNL     1      -4.292  35.921  20.224  1.00  0.00     0.000 C 
BRANCH   2   3
ATOM      3  C   UNL     1      -5.754  35.614  19.867  1.00  0.00     0.000 C 
BRANCH   3   4
ATOM      4  C   UNL     1      -5.885  34.397  18.934  1.00  0.00     0.000 C 
BRANCH   4   5
ATOM      5  C   UNL     1      -4.558  34.057  18.230  1.00  0.00     0.000 C 
BRANCH   5   6
ATOM      6  C   UNL     1      -4.375  34.838  16.910  1.00  0.00     0.000 C 
BRANCH   6   7
ATOM      7  C   UNL     1      -2.923  34.859  16.395  1.00  0.00     0.000 C 
BRANCH   7   8
ATOM      8  C   UNL     1      -2.515  36.140  15.645  1.00  0.00     0.000 C 
BRANCH   8   9
ATOM      9  C   UNL     1      -2.057  37.264  16.594  1.00  0.00     0.000 C 
BRANCH   9  10
ATOM     10  C   UNL     1      -3.111  37.612  17.659  1.00  0.00     0.006 C 
BRANCH  10  11
ATOM     11  C   UNL     1      -2.544  37.832  19.070  1.00  0.00     0.053 C 
BRANCH  11  12
ATOM     12  C   UNL     1      -1.047  37.847  19.079  1.00  0.00     0.041 C 
ATOM     13  O   UNL     1      -0.418  38.730  18.438  1.00  0.00    -0.550 OA
ATOM     14  O   UNL     1      -0.348  36.893  19.811  1.00  0.00    -0.550 OA
ENDBRANCH  11  12
ENDBRANCH  10  11
ENDBRANCH   9  10
ENDBRANCH   8   9
ENDBRANCH   7   8
ENDBRANCH   6   7
ENDBRANCH   5   6
ENDBRANCH   4   5
ENDBRANCH   3   4
ENDBRANCH   2   3
ENDBRANCH   1   2
BRANCH   1  15
ATOM     15  C   UNL     1      -5.327  35.369  22.464  1.00  0.00     0.000 C 
BRANCH  15  16
ATOM     16  C   UNL     1      -5.034  34.140  23.349  1.00  0.00     0.000 C 
BRANCH  16  17
ATOM     17  C   UNL     1      -6.123  33.850  24.397  1.00  0.00     0.000 C 
BRANCH  17  18
ATOM     18  C   UNL     1      -6.007  34.661  25.701  1.00  0.00    -0.000 C 
BRANCH  18  19
ATOM     19  C   UNL     1      -5.950  36.190  25.517  1.00  0.00    -0.000 C 
BRANCH  19  20
ATOM     20  C   UNL     1      -4.554  36.821  25.681  1.00  0.00    -0.000 C 
BRANCH  20  21
ATOM     21  C   UNL     1      -4.518  38.343  25.423  1.00  0.00    -0.000 C 
BRANCH  21  22
ATOM     22  C   UNL     1      -5.625  38.810  24.459  1.00  0.00    -0.000 C 
BRANCH  22  23
ATOM     23  C   UNL     1      -5.249  40.096  23.705  1.00  0.00    -0.000 C 
BRANCH  23  24
ATOM     24  C   UNL     1      -5.925  40.198  22.326  1.00  0.00    -0.000 C 
BRANCH  24  25
ATOM     25  C   UNL     1      -5.204  39.368  21.251  1.00  0.00    -0.003 C 
ATOM     26  C   UNL     1      -6.125  38.967  20.097  1.00  0.00     0.004 C 
ENDBRANCH  24  25
ENDBRANCH  23  24
ENDBRANCH  22  23
ENDBRANCH  21  22
ENDBRANCH  20  21
ENDBRANCH  19  20
ENDBRANCH  18  19
ENDBRANCH  17  18
ENDBRANCH  16  17
ENDBRANCH  15  16
ENDBRANCH   1  15
TORSDOF 22
ENDMDL
