MODEL 1
REMARK VINA RESULT:    -4.556      0.000      0.000
REMARK INTER + INTRA:          -5.254
REMARK INTER:                  -4.956
REMARK INTRA:                  -0.299
REMARK UNBOUND:                -0.299
REMARK SMILES C=C(C)[C@@H]1CC[C@@H](C)[C@H](O)C1
REMARK SMILES IDX 8 1 7 2 6 3 5 4 4 5 11 6 9 7 10 8 2 10 1 11 3 12
REMARK H PARENT 10 9
REMARK Flexibility Score: inf
ROOT
ATOM      1  C   UNL     1     112.881 117.475 129.825  1.00  0.00     0.010 C 
ATOM      2  C   UNL     1     111.740 117.202 128.832  1.00  0.00     0.015 C 
ATOM      3  C   UNL     1     111.275 118.529 128.175  1.00  0.00     0.006 C 
ATOM      4  C   UNL     1     109.772 118.575 127.854  1.00  0.00     0.008 C 
ATOM      5  C   UNL     1     109.220 117.208 127.410  1.00  0.00     0.017 C 
ATOM      6  C   UNL     1     109.397 116.158 128.540  1.00  0.00     0.040 C 
ATOM      7  C   UNL     1     110.574 116.441 129.511  1.00  0.00     0.117 C 
ENDROOT
BRANCH   7   8
ATOM      8  O   UNL     1     111.029 115.217 130.030  1.00  0.00    -0.393 OA
ATOM      9  H   UNL     1     110.465 115.000 130.818  1.00  0.00     0.210 HD
ENDBRANCH   7   8
BRANCH   5  10
ATOM     10  C   UNL     1     109.760 116.813 126.028  1.00  0.00    -0.077 C 
ATOM     11  C   UNL     1     110.240 115.569 125.859  1.00  0.00     0.008 C 
ATOM     12  C   UNL     1     109.808 117.738 124.832  1.00  0.00     0.039 C 
ENDBRANCH   5  10
TORSDOF 2
ENDMDL
MODEL 2
REMARK VINA RESULT:    -4.544      2.291      3.791
REMARK INTER + INTRA:          -5.241
REMARK INTER:                  -4.943
REMARK INTRA:                  -0.298
REMARK UNBOUND:                -0.299
REMARK SMILES C=C(C)[C@@H]1CC[C@@H](C)[C@H](O)C1
REMARK SMILES IDX 8 1 7 2 6 3 5 4 4 5 11 6 9 7 10 8 2 10 1 11 3 12
REMARK H PARENT 10 9
REMARK Flexibility Score: inf
ROOT
ATOM      1  C   UNL     1     112.078 120.379 127.626  1.00  0.00     0.010 C 
ATOM      2  C   UNL     1     111.489 119.067 128.167  1.00  0.00     0.015 C 
ATOM      3  C   UNL     1     112.482 117.898 127.931  1.00  0.00     0.006 C 
ATOM      4  C   UNL     1     111.804 116.547 127.650  1.00  0.00     0.008 C 
ATOM      5  C   UNL     1     110.502 116.362 128.450  1.00  0.00     0.017 C 
ATOM      6  C   UNL     1     109.471 117.459 128.072  1.00  0.00     0.040 C 
ATOM      7  C   UNL     1     110.093 118.784 127.557  1.00  0.00     0.117 C 
ENDROOT
BRANCH   7   8
ATOM      8  O   UNL     1     109.210 119.837 127.855  1.00  0.00    -0.393 OA
ATOM      9  H   UNL     1     109.654 120.414 128.531  1.00  0.00     0.210 HD
ENDBRANCH   7   8
BRANCH   5  10
ATOM     10  C   UNL     1     110.790 116.191 129.948  1.00  0.00    -0.077 C 
ATOM     11  C   UNL     1     110.031 116.867 130.828  1.00  0.00     0.008 C 
ATOM     12  C   UNL     1     111.891 115.320 130.514  1.00  0.00     0.039 C 
ENDBRANCH   5  10
TORSDOF 2
ENDMDL
MODEL 3
REMARK VINA RESULT:    -4.413     16.393     17.595
REMARK INTER + INTRA:          -5.098
REMARK INTER:                  -4.807
REMARK INTRA:                  -0.291
REMARK UNBOUND:                -0.299
REMARK SMILES C=C(C)[C@@H]1CC[C@@H](C)[C@H](O)C1
REMARK SMILES IDX 8 1 7 2 6 3 5 4 4 5 11 6 9 7 10 8 2 10 1 11 3 12
REMARK H PARENT 10 9
REMARK Flexibility Score: inf
ROOT
ATOM      1  C   UNL     1     125.112 119.885 117.107  1.00  0.00     0.010 C 
ATOM      2  C   UNL     1     123.982 119.084 116.441  1.00  0.00     0.015 C 
ATOM      3  C   UNL     1     123.291 118.166 117.483  1.00  0.00     0.006 C 
ATOM      4  C   UNL     1     122.788 116.832 116.907  1.00  0.00     0.008 C 
ATOM      5  C   UNL     1     122.261 116.972 115.467  1.00  0.00     0.017 C 
ATOM      6  C   UNL     1     123.390 117.463 114.521  1.00  0.00     0.040 C 
ATOM      7  C   UNL     1     124.502 118.294 115.214  1.00  0.00     0.117 C 
ENDROOT
BRANCH   7   8
ATOM      8  O   UNL     1     125.057 119.174 114.268  1.00  0.00    -0.393 OA
ATOM      9  H   UNL     1     125.485 118.621 113.563  1.00  0.00     0.210 HD
ENDBRANCH   7   8
BRANCH   5  10
ATOM     10  C   UNL     1     120.951 117.772 115.430  1.00  0.00    -0.077 C 
ATOM     11  C   UNL     1     120.850 118.796 114.565  1.00  0.00     0.008 C 
ATOM     12  C   UNL     1     119.757 117.499 116.318  1.00  0.00     0.039 C 
ENDBRANCH   5  10
TORSDOF 2
ENDMDL
MODEL 4
REMARK VINA RESULT:    -4.186      2.242      4.308
REMARK INTER + INTRA:          -4.852
REMARK INTER:                  -4.554
REMARK INTRA:                  -0.298
REMARK UNBOUND:                -0.299
REMARK SMILES C=C(C)[C@@H]1CC[C@@H](C)[C@H](O)C1
REMARK SMILES IDX 8 1 7 2 6 3 5 4 4 5 11 6 9 7 10 8 2 10 1 11 3 12
REMARK H PARENT 10 9
REMARK Flexibility Score: inf
ROOT
ATOM      1  C   UNL     1     109.615 116.350 124.344  1.00  0.00     0.010 C 
ATOM      2  C   UNL     1     109.977 117.065 125.656  1.00  0.00     0.015 C 
ATOM      3  C   UNL     1     110.051 116.040 126.820  1.00  0.00     0.006 C 
ATOM      4  C   UNL     1     109.601 116.603 128.178  1.00  0.00     0.008 C 
ATOM      5  C   UNL     1     109.993 118.080 128.365  1.00  0.00     0.017 C 
ATOM      6  C   UNL     1     109.322 118.962 127.279  1.00  0.00     0.040 C 
ATOM      7  C   UNL     1     108.994 118.224 125.954  1.00  0.00     0.117 C 
ENDROOT
BRANCH   7   8
ATOM      8  O   UNL     1     109.013 119.160 124.905  1.00  0.00    -0.393 OA
ATOM      9  H   UNL     1     109.901 119.606 124.921  1.00  0.00     0.210 HD
ENDBRANCH   7   8
BRANCH   5  10
ATOM     10  C   UNL     1     111.513 118.236 128.520  1.00  0.00    -0.077 C 
ATOM     11  C   UNL     1     112.136 119.188 127.803  1.00  0.00     0.008 C 
ATOM     12  C   UNL     1     112.375 117.374 129.417  1.00  0.00     0.039 C 
ENDBRANCH   5  10
TORSDOF 2
ENDMDL
MODEL 5
REMARK VINA RESULT:    -4.115      6.343      7.777
REMARK INTER + INTRA:          -4.774
REMARK INTER:                  -4.475
REMARK INTRA:                  -0.299
REMARK UNBOUND:                -0.299
REMARK SMILES C=C(C)[C@@H]1CC[C@@H](C)[C@H](O)C1
REMARK SMILES IDX 8 1 7 2 6 3 5 4 4 5 11 6 9 7 10 8 2 10 1 11 3 12
REMARK H PARENT 10 9
REMARK Flexibility Score: inf
ROOT
ATOM      1  C   UNL     1     115.598 121.004 122.900  1.00  0.00     0.010 C 
ATOM      2  C   UNL     1     114.616 121.625 123.907  1.00  0.00     0.015 C 
ATOM      3  C   UNL     1     113.466 120.630 124.216  1.00  0.00     0.006 C 
ATOM      4  C   UNL     1     112.111 121.303 124.486  1.00  0.00     0.008 C 
ATOM      5  C   UNL     1     112.254 122.641 125.233  1.00  0.00     0.017 C 
ATOM      6  C   UNL     1     113.086 123.647 124.393  1.00  0.00     0.040 C 
ATOM      7  C   UNL     1     114.090 122.994 123.407  1.00  0.00     0.117 C 
ENDROOT
BRANCH   7   8
ATOM      8  O   UNL     1     115.162 123.883 123.207  1.00  0.00    -0.393 OA
ATOM      9  H   UNL     1     115.050 124.284 122.306  1.00  0.00     0.210 HD
ENDBRANCH   7   8
BRANCH   5  10
ATOM     10  C   UNL     1     112.718 122.422 126.680  1.00  0.00    -0.077 C 
ATOM     11  C   UNL     1     111.959 121.664 127.490  1.00  0.00     0.008 C 
ATOM     12  C   UNL     1     113.975 123.020 127.275  1.00  0.00     0.039 C 
ENDBRANCH   5  10
TORSDOF 2
ENDMDL
MODEL 6
REMARK VINA RESULT:    -4.098      2.043      2.645
REMARK INTER + INTRA:          -4.756
REMARK INTER:                  -4.467
REMARK INTRA:                  -0.290
REMARK UNBOUND:                -0.299
REMARK SMILES C=C(C)[C@@H]1CC[C@@H](C)[C@H](O)C1
REMARK SMILES IDX 8 1 7 2 6 3 5 4 4 5 11 6 9 7 10 8 2 10 1 11 3 12
REMARK H PARENT 10 9
REMARK Flexibility Score: inf
ROOT
ATOM      1  C   UNL     1     112.785 119.293 127.604  1.00  0.00     0.010 C 
ATOM      2  C   UNL     1     111.605 118.624 126.880  1.00  0.00     0.015 C 
ATOM      3  C   UNL     1     111.503 119.151 125.424  1.00  0.00     0.006 C 
ATOM      4  C   UNL     1     110.064 119.245 124.892  1.00  0.00     0.008 C 
ATOM      5  C   UNL     1     109.166 118.108 125.412  1.00  0.00     0.017 C 
ATOM      6  C   UNL     1     109.067 118.159 126.961  1.00  0.00     0.040 C 
ATOM      7  C   UNL     1     110.284 118.812 127.668  1.00  0.00     0.117 C 
ENDROOT
BRANCH   7   8
ATOM      8  O   UNL     1     110.403 118.259 128.955  1.00  0.00    -0.393 OA
ATOM      9  H   UNL     1     109.486 118.045 129.271  1.00  0.00     0.210 HD
ENDBRANCH   7   8
BRANCH   5  10
ATOM     10  C   UNL     1     109.572 116.757 124.805  1.00  0.00    -0.077 C 
ATOM     11  C   UNL     1     109.467 116.595 123.474  1.00  0.00     0.008 C 
ATOM     12  C   UNL     1     110.070 115.574 125.606  1.00  0.00     0.039 C 
ENDBRANCH   5  10
TORSDOF 2
ENDMDL
MODEL 7
REMARK VINA RESULT:    -4.095      1.785      3.316
REMARK INTER + INTRA:          -4.753
REMARK INTER:                  -4.455
REMARK INTRA:                  -0.298
REMARK UNBOUND:                -0.299
REMARK SMILES C=C(C)[C@@H]1CC[C@@H](C)[C@H](O)C1
REMARK SMILES IDX 8 1 7 2 6 3 5 4 4 5 11 6 9 7 10 8 2 10 1 11 3 12
REMARK H PARENT 10 9
REMARK Flexibility Score: inf
ROOT
ATOM      1  C   UNL     1     109.525 116.018 128.481  1.00  0.00     0.010 C 
ATOM      2  C   UNL     1     109.849 116.806 127.202  1.00  0.00     0.015 C 
ATOM      3  C   UNL     1     110.031 115.833 126.006  1.00  0.00     0.006 C 
ATOM      4  C   UNL     1     111.074 116.296 124.976  1.00  0.00     0.008 C 
ATOM      5  C   UNL     1     111.085 117.824 124.793  1.00  0.00     0.017 C 
ATOM      6  C   UNL     1     111.444 118.529 126.129  1.00  0.00     0.040 C 
ATOM      7  C   UNL     1     111.079 117.725 127.405  1.00  0.00     0.117 C 
ENDROOT
BRANCH   7   8
ATOM      8  O   UNL     1     110.841 118.633 128.452  1.00  0.00    -0.393 OA
ATOM      9  H   UNL     1     109.918 118.470 128.782  1.00  0.00     0.210 HD
ENDBRANCH   7   8
BRANCH   5  10
ATOM     10  C   UNL     1     109.808 118.310 124.093  1.00  0.00    -0.077 C 
ATOM     11  C   UNL     1     109.493 117.786 122.896  1.00  0.00     0.008 C 
ATOM     12  C   UNL     1     108.875 119.363 124.651  1.00  0.00     0.039 C 
ENDBRANCH   5  10
TORSDOF 2
ENDMDL
MODEL 8
REMARK VINA RESULT:    -4.082      6.979      8.097
REMARK INTER + INTRA:          -4.739
REMARK INTER:                  -4.441
REMARK INTRA:                  -0.298
REMARK UNBOUND:                -0.299
REMARK SMILES C=C(C)[C@@H]1CC[C@@H](C)[C@H](O)C1
REMARK SMILES IDX 8 1 7 2 6 3 5 4 4 5 11 6 9 7 10 8 2 10 1 11 3 12
REMARK H PARENT 10 9
REMARK Flexibility Score: inf
ROOT
ATOM      1  C   UNL     1     113.403 123.135 128.155  1.00  0.00     0.010 C 
ATOM      2  C   UNL     1     113.731 123.130 126.654  1.00  0.00     0.015 C 
ATOM      3  C   UNL     1     115.223 123.496 126.432  1.00  0.00     0.006 C 
ATOM      4  C   UNL     1     115.488 124.288 125.141  1.00  0.00     0.008 C 
ATOM      5  C   UNL     1     114.574 123.852 123.982  1.00  0.00     0.017 C 
ATOM      6  C   UNL     1     113.084 124.089 124.346  1.00  0.00     0.040 C 
ATOM      7  C   UNL     1     112.774 124.060 125.866  1.00  0.00     0.117 C 
ENDROOT
BRANCH   7   8
ATOM      8  O   UNL     1     111.442 123.648 126.043  1.00  0.00    -0.393 OA
ATOM      9  H   UNL     1     111.429 123.001 126.796  1.00  0.00     0.210 HD
ENDBRANCH   7   8
BRANCH   5  10
ATOM     10  C   UNL     1     114.934 122.443 123.490  1.00  0.00    -0.077 C 
ATOM     11  C   UNL     1     113.939 121.568 123.265  1.00  0.00     0.008 C 
ATOM     12  C   UNL     1     116.347 121.955 123.253  1.00  0.00     0.039 C 
ENDBRANCH   5  10
TORSDOF 2
ENDMDL
MODEL 9
REMARK VINA RESULT:    -4.036      1.489      2.621
REMARK INTER + INTRA:          -4.688
REMARK INTER:                  -4.391
REMARK INTRA:                  -0.297
REMARK UNBOUND:                -0.299
REMARK SMILES C=C(C)[C@@H]1CC[C@@H](C)[C@H](O)C1
REMARK SMILES IDX 8 1 7 2 6 3 5 4 4 5 11 6 9 7 10 8 2 10 1 11 3 12
REMARK H PARENT 10 9
REMARK Flexibility Score: inf
ROOT
ATOM      1  C   UNL     1     110.775 116.005 130.782  1.00  0.00     0.010 C 
ATOM      2  C   UNL     1     110.756 116.681 129.403  1.00  0.00     0.015 C 
ATOM      3  C   UNL     1     109.636 116.067 128.521  1.00  0.00     0.006 C 
ATOM      4  C   UNL     1     109.980 116.009 127.024  1.00  0.00     0.008 C 
ATOM      5  C   UNL     1     110.810 117.220 126.560  1.00  0.00     0.017 C 
ATOM      6  C   UNL     1     112.162 117.274 127.320  1.00  0.00     0.040 C 
ATOM      7  C   UNL     1     112.146 116.610 128.722  1.00  0.00     0.117 C 
ENDROOT
BRANCH   7   8
ATOM      8  O   UNL     1     113.114 117.240 129.526  1.00  0.00    -0.393 OA
ATOM      9  H   UNL     1     112.799 117.185 130.466  1.00  0.00     0.210 HD
ENDBRANCH   7   8
BRANCH   5  10
ATOM     10  C   UNL     1     109.972 118.506 126.577  1.00  0.00    -0.077 C 
ATOM     11  C   UNL     1     108.876 118.568 125.802  1.00  0.00     0.008 C 
ATOM     12  C   UNL     1     110.306 119.734 127.398  1.00  0.00     0.039 C 
ENDBRANCH   5  10
TORSDOF 2
ENDMDL
