MODEL 1
REMARK VINA RESULT:    -3.491      0.000      0.000
REMARK INTER + INTRA:         -14.200
REMARK INTER:                  -9.204
REMARK INTRA:                  -4.995
REMARK UNBOUND:                -4.995
REMARK SMILES CCCCCCCCCCCCCCCCCCCCCCCCCCCCCC(=O)[O-]
REMARK SMILES IDX 16 1 17 2 18 3 19 4 20 5 21 6 22 7 23 8 24 9 25 10 26 11
REMARK SMILES IDX 27 12 28 13 29 14 30 15 31 16 32 17 15 18 14 19 13 20 12 21
REMARK SMILES IDX 11 22 10 23 9 24 8 25 7 26 6 27 5 28 4 29 3 30 2 31 1 32
REMARK H PARENT
REMARK Flexibility Score: inf
ROOT
ATOM      1  C   UNL     1      25.419  31.882  50.243  1.00  0.00     0.000 C 
ENDROOT
BRANCH   1   2
ATOM      2  C   UNL     1      25.925  33.245  50.734  1.00  0.00     0.000 C 
BRANCH   2   3
ATOM      3  C   UNL     1      25.259  33.640  52.057  1.00  0.00     0.000 C 
BRANCH   3   4
ATOM      4  C   UNL     1      26.295  34.183  53.049  1.00  0.00     0.000 C 
BRANCH   4   5
ATOM      5  C   UNL     1      27.535  33.281  53.111  1.00  0.00     0.000 C 
BRANCH   5   6
ATOM      6  C   UNL     1      28.784  34.098  53.475  1.00  0.00     0.000 C 
BRANCH   6   7
ATOM      7  C   UNL     1      29.914  33.952  52.442  1.00  0.00     0.000 C 
BRANCH   7   8
ATOM      8  C   UNL     1      29.435  33.289  51.139  1.00  0.00     0.000 C 
BRANCH   8   9
ATOM      9  C   UNL     1      30.340  32.128  50.686  1.00  0.00     0.000 C 
BRANCH   9  10
ATOM     10  C   UNL     1      30.788  31.170  51.807  1.00  0.00     0.000 C 
BRANCH  10  11
ATOM     11  C   UNL     1      29.997  29.852  51.827  1.00  0.00     0.000 C 
BRANCH  11  12
ATOM     12  C   UNL     1      29.071  29.786  53.052  1.00  0.00     0.000 C 
BRANCH  12  13
ATOM     13  C   UNL     1      29.617  30.575  54.252  1.00  0.00     0.006 C 
BRANCH  13  14
ATOM     14  C   UNL     1      28.682  30.524  55.471  1.00  0.00     0.053 C 
BRANCH  14  15
ATOM     15  C   UNL     1      29.100  31.485  56.547  1.00  0.00     0.041 C 
ATOM     16  O   UNL     1      28.447  31.535  57.624  1.00  0.00    -0.550 OA
ATOM     17  O   UNL     1      30.149  32.376  56.344  1.00  0.00    -0.550 OA
ENDBRANCH  14  15
ENDBRANCH  13  14
ENDBRANCH  12  13
ENDBRANCH  11  12
ENDBRANCH  10  11
ENDBRANCH   9  10
ENDBRANCH   8   9
ENDBRANCH   7   8
ENDBRANCH   6   7
ENDBRANCH   5   6
ENDBRANCH   4   5
ENDBRANCH   3   4
ENDBRANCH   2   3
ENDBRANCH   1   2
BRANCH   1  18
ATOM     18  C   UNL     1      26.485  30.797  50.451  1.00  0.00     0.000 C 
BRANCH  18  19
ATOM     19  C   UNL     1      25.934  29.547  51.170  1.00  0.00     0.000 C 
BRANCH  19  20
ATOM     20  C   UNL     1      24.906  29.868  52.273  1.00  0.00     0.000 C 
BRANCH  20  21
ATOM     21  C   UNL     1      25.509  30.135  53.665  1.00  0.00     0.000 C 
BRANCH  21  22
ATOM     22  C   UNL     1      24.643  31.003  54.603  1.00  0.00     0.000 C 
BRANCH  22  23
ATOM     23  C   UNL     1      24.460  30.451  56.029  1.00  0.00     0.000 C 
BRANCH  23  24
ATOM     24  C   UNL     1      22.986  30.205  56.392  1.00  0.00    -0.000 C 
BRANCH  24  25
ATOM     25  C   UNL     1      22.115  29.897  55.164  1.00  0.00    -0.000 C 
BRANCH  25  26
ATOM     26  C   UNL     1      20.630  30.217  55.390  1.00  0.00    -0.000 C 
BRANCH  26  27
ATOM     27  C   UNL     1      20.073  29.428  56.579  1.00  0.00    -0.000 C 
BRANCH  27  28
ATOM     28  C   UNL     1      19.278  28.205  56.105  1.00  0.00    -0.000 C 
BRANCH  28  29
ATOM     29  C   UNL     1      17.777  28.524  56.023  1.00  0.00    -0.000 C 
BRANCH  29  30
ATOM     30  C   UNL     1      17.252  28.539  54.579  1.00  0.00    -0.000 C 
BRANCH  30  31
ATOM     31  C   UNL     1      16.779  29.930  54.137  1.00  0.00    -0.003 C 
ATOM     32  C   UNL     1      17.734  30.533  53.110  1.00  0.00     0.004 C 
ENDBRANCH  30  31
ENDBRANCH  29  30
ENDBRANCH  28  29
ENDBRANCH  27  28
ENDBRANCH  26  27
ENDBRANCH  25  26
ENDBRANCH  24  25
ENDBRANCH  23  24
ENDBRANCH  22  23
ENDBRANCH  21  22
ENDBRANCH  20  21
ENDBRANCH  19  20
ENDBRANCH  18  19
ENDBRANCH   1  18
TORSDOF 28
ENDMDL
MODEL 2
REMARK VINA RESULT:    -3.400      1.651      3.768
REMARK INTER + INTRA:         -13.961
REMARK INTER:                  -9.244
REMARK INTRA:                  -4.717
REMARK UNBOUND:                -4.995
REMARK SMILES CCCCCCCCCCCCCCCCCCCCCCCCCCCCCC(=O)[O-]
REMARK SMILES IDX 16 1 17 2 18 3 19 4 20 5 21 6 22 7 23 8 24 9 25 10 26 11
REMARK SMILES IDX 27 12 28 13 29 14 30 15 31 16 32 17 15 18 14 19 13 20 12 21
REMARK SMILES IDX 11 22 10 23 9 24 8 25 7 26 6 27 5 28 4 29 3 30 2 31 1 32
REMARK H PARENT
REMARK Flexibility Score: inf
ROOT
ATOM      1  C   UNL     1      26.002  29.356  56.209  1.00  0.00     0.000 C 
ENDROOT
BRANCH   1   2
ATOM      2  C   UNL     1      26.626  28.915  54.878  1.00  0.00     0.000 C 
BRANCH   2   3
ATOM      3  C   UNL     1      27.072  30.124  54.047  1.00  0.00     0.000 C 
BRANCH   3   4
ATOM      4  C   UNL     1      26.399  30.117  52.668  1.00  0.00     0.000 C 
BRANCH   4   5
ATOM      5  C   UNL     1      25.102  30.935  52.676  1.00  0.00     0.000 C 
BRANCH   5   6
ATOM      6  C   UNL     1      25.267  32.210  53.517  1.00  0.00     0.000 C 
BRANCH   6   7
ATOM      7  C   UNL     1      25.583  33.450  52.663  1.00  0.00     0.000 C 
BRANCH   7   8
ATOM      8  C   UNL     1      27.031  33.936  52.847  1.00  0.00     0.000 C 
BRANCH   8   9
ATOM      9  C   UNL     1      28.016  33.285  51.859  1.00  0.00     0.000 C 
BRANCH   9  10
ATOM     10  C   UNL     1      29.368  32.862  52.465  1.00  0.00     0.000 C 
BRANCH  10  11
ATOM     11  C   UNL     1      30.126  34.026  53.124  1.00  0.00     0.000 C 
BRANCH  11  12
ATOM     12  C   UNL     1      30.562  33.660  54.551  1.00  0.00     0.000 C 
BRANCH  12  13
ATOM     13  C   UNL     1      29.733  32.512  55.149  1.00  0.00     0.006 C 
BRANCH  13  14
ATOM     14  C   UNL     1      30.532  31.664  56.152  1.00  0.00     0.053 C 
BRANCH  14  15
ATOM     15  C   UNL     1      29.749  30.480  56.643  1.00  0.00     0.041 C 
ATOM     16  O   UNL     1      28.944  30.621  57.603  1.00  0.00    -0.550 OA
ATOM     17  O   UNL     1      29.954  29.213  56.106  1.00  0.00    -0.550 OA
ENDBRANCH  14  15
ENDBRANCH  13  14
ENDBRANCH  12  13
ENDBRANCH  11  12
ENDBRANCH  10  11
ENDBRANCH   9  10
ENDBRANCH   8   9
ENDBRANCH   7   8
ENDBRANCH   6   7
ENDBRANCH   5   6
ENDBRANCH   4   5
ENDBRANCH   3   4
ENDBRANCH   2   3
ENDBRANCH   1   2
BRANCH   1  18
ATOM     18  C   UNL     1      24.687  28.607  56.469  1.00  0.00     0.000 C 
BRANCH  18  19
ATOM     19  C   UNL     1      23.673  28.760  55.315  1.00  0.00     0.000 C 
BRANCH  19  20
ATOM     20  C   UNL     1      22.690  29.932  55.504  1.00  0.00     0.000 C 
BRANCH  20  21
ATOM     21  C   UNL     1      22.745  30.611  56.885  1.00  0.00     0.000 C 
BRANCH  21  22
ATOM     22  C   UNL     1      21.456  30.497  57.728  1.00  0.00     0.000 C 
BRANCH  22  23
ATOM     23  C   UNL     1      21.311  29.195  58.536  1.00  0.00     0.000 C 
BRANCH  23  24
ATOM     24  C   UNL     1      20.128  28.329  58.071  1.00  0.00    -0.000 C 
BRANCH  24  25
ATOM     25  C   UNL     1      20.513  27.350  56.950  1.00  0.00    -0.000 C 
BRANCH  25  26
ATOM     26  C   UNL     1      19.694  27.558  55.668  1.00  0.00    -0.000 C 
BRANCH  26  27
ATOM     27  C   UNL     1      18.826  28.817  55.768  1.00  0.00    -0.000 C 
BRANCH  27  28
ATOM     28  C   UNL     1      19.119  29.781  54.613  1.00  0.00    -0.000 C 
BRANCH  28  29
ATOM     29  C   UNL     1      17.891  29.939  53.704  1.00  0.00    -0.000 C 
BRANCH  29  30
ATOM     30  C   UNL     1      16.566  29.836  54.476  1.00  0.00    -0.000 C 
BRANCH  30  31
ATOM     31  C   UNL     1      15.575  28.864  53.819  1.00  0.00    -0.003 C 
ATOM     32  C   UNL     1      15.490  27.556  54.602  1.00  0.00     0.004 C 
ENDBRANCH  30  31
ENDBRANCH  29  30
ENDBRANCH  28  29
ENDBRANCH  27  28
ENDBRANCH  26  27
ENDBRANCH  25  26
ENDBRANCH  24  25
ENDBRANCH  23  24
ENDBRANCH  22  23
ENDBRANCH  21  22
ENDBRANCH  20  21
ENDBRANCH  19  20
ENDBRANCH  18  19
ENDBRANCH   1  18
TORSDOF 28
ENDMDL
MODEL 3
REMARK VINA RESULT:    -3.383      3.924      6.305
REMARK INTER + INTRA:         -13.916
REMARK INTER:                  -6.913
REMARK INTRA:                  -7.003
REMARK UNBOUND:                -4.995
REMARK SMILES CCCCCCCCCCCCCCCCCCCCCCCCCCCCCC(=O)[O-]
REMARK SMILES IDX 16 1 17 2 18 3 19 4 20 5 21 6 22 7 23 8 24 9 25 10 26 11
REMARK SMILES IDX 27 12 28 13 29 14 30 15 31 16 32 17 15 18 14 19 13 20 12 21
REMARK SMILES IDX 11 22 10 23 9 24 8 25 7 26 6 27 5 28 4 29 3 30 2 31 1 32
REMARK H PARENT
REMARK Flexibility Score: inf
ROOT
ATOM      1  C   UNL     1      29.971  32.090  51.200  1.00  0.00     0.000 C 
ENDROOT
BRANCH   1   2
ATOM      2  C   UNL     1      29.174  32.445  52.462  1.00  0.00     0.000 C 
BRANCH   2   3
ATOM      3  C   UNL     1      29.247  33.947  52.760  1.00  0.00     0.000 C 
BRANCH   3   4
ATOM      4  C   UNL     1      29.886  34.201  54.131  1.00  0.00     0.000 C 
BRANCH   4   5
ATOM      5  C   UNL     1      29.973  32.910  54.955  1.00  0.00     0.000 C 
BRANCH   5   6
ATOM      6  C   UNL     1      31.273  32.874  55.774  1.00  0.00     0.000 C 
BRANCH   6   7
ATOM      7  C   UNL     1      32.149  31.653  55.447  1.00  0.00     0.000 C 
BRANCH   7   8
ATOM      8  C   UNL     1      32.535  31.588  53.959  1.00  0.00     0.000 C 
BRANCH   8   9
ATOM      9  C   UNL     1      32.152  30.254  53.294  1.00  0.00     0.000 C 
BRANCH   9  10
ATOM     10  C   UNL     1      31.895  29.087  54.266  1.00  0.00     0.000 C 
BRANCH  10  11
ATOM     11  C   UNL     1      30.509  28.446  54.089  1.00  0.00     0.000 C 
BRANCH  11  12
ATOM     12  C   UNL     1      29.404  29.373  54.618  1.00  0.00     0.000 C 
BRANCH  12  13
ATOM     13  C   UNL     1      28.649  28.772  55.815  1.00  0.00     0.006 C 
BRANCH  13  14
ATOM     14  C   UNL     1      28.871  29.563  57.114  1.00  0.00     0.053 C 
BRANCH  14  15
ATOM     15  C   UNL     1      27.677  30.394  57.484  1.00  0.00     0.041 C 
ATOM     16  O   UNL     1      26.580  30.206  56.890  1.00  0.00    -0.550 OA
ATOM     17  O   UNL     1      27.780  31.422  58.416  1.00  0.00    -0.550 OA
ENDBRANCH  14  15
ENDBRANCH  13  14
ENDBRANCH  12  13
ENDBRANCH  11  12
ENDBRANCH  10  11
ENDBRANCH   9  10
ENDBRANCH   8   9
ENDBRANCH   7   8
ENDBRANCH   6   7
ENDBRANCH   5   6
ENDBRANCH   4   5
ENDBRANCH   3   4
ENDBRANCH   2   3
ENDBRANCH   1   2
BRANCH   1  18
ATOM     18  C   UNL     1      29.547  32.975  50.019  1.00  0.00     0.000 C 
BRANCH  18  19
ATOM     19  C   UNL     1      29.049  32.156  48.808  1.00  0.00     0.000 C 
BRANCH  19  20
ATOM     20  C   UNL     1      27.513  32.067  48.707  1.00  0.00     0.000 C 
BRANCH  20  21
ATOM     21  C   UNL     1      26.748  33.188  49.435  1.00  0.00     0.000 C 
BRANCH  21  22
ATOM     22  C   UNL     1      25.729  32.712  50.493  1.00  0.00     0.000 C 
BRANCH  22  23
ATOM     23  C   UNL     1      25.600  33.610  51.736  1.00  0.00     0.000 C 
BRANCH  23  24
ATOM     24  C   UNL     1      25.518  32.811  53.048  1.00  0.00    -0.000 C 
BRANCH  24  25
ATOM     25  C   UNL     1      25.092  31.351  52.828  1.00  0.00    -0.000 C 
BRANCH  25  26
ATOM     26  C   UNL     1      26.089  30.342  53.417  1.00  0.00    -0.000 C 
BRANCH  26  27
ATOM     27  C   UNL     1      26.300  29.159  52.467  1.00  0.00    -0.000 C 
BRANCH  27  28
ATOM     28  C   UNL     1      27.307  29.512  51.365  1.00  0.00    -0.000 C 
BRANCH  28  29
ATOM     29  C   UNL     1      28.339  28.388  51.184  1.00  0.00    -0.000 C 
BRANCH  29  30
ATOM     30  C   UNL     1      29.238  28.600  49.956  1.00  0.00    -0.000 C 
BRANCH  30  31
ATOM     31  C   UNL     1      30.733  28.546  50.301  1.00  0.00    -0.003 C 
ATOM     32  C   UNL     1      31.555  29.365  49.309  1.00  0.00     0.004 C 
ENDBRANCH  30  31
ENDBRANCH  29  30
ENDBRANCH  28  29
ENDBRANCH  27  28
ENDBRANCH  26  27
ENDBRANCH  25  26
ENDBRANCH  24  25
ENDBRANCH  23  24
ENDBRANCH  22  23
ENDBRANCH  21  22
ENDBRANCH  20  21
ENDBRANCH  19  20
ENDBRANCH  18  19
ENDBRANCH   1  18
TORSDOF 28
ENDMDL
MODEL 4
REMARK VINA RESULT:    -3.366      2.961      7.714
REMARK INTER + INTRA:         -13.871
REMARK INTER:                  -8.379
REMARK INTRA:                  -5.492
REMARK UNBOUND:                -4.995
REMARK SMILES CCCCCCCCCCCCCCCCCCCCCCCCCCCCCC(=O)[O-]
REMARK SMILES IDX 16 1 17 2 18 3 19 4 20 5 21 6 22 7 23 8 24 9 25 10 26 11
REMARK SMILES IDX 27 12 28 13 29 14 30 15 31 16 32 17 15 18 14 19 13 20 12 21
REMARK SMILES IDX 11 22 10 23 9 24 8 25 7 26 6 27 5 28 4 29 3 30 2 31 1 32
REMARK H PARENT
REMARK Flexibility Score: inf
ROOT
ATOM      1  C   UNL     1      29.116  29.271  53.461  1.00  0.00     0.000 C 
ENDROOT
BRANCH   1   2
ATOM      2  C   UNL     1      30.232  30.057  54.159  1.00  0.00     0.000 C 
BRANCH   2   3
ATOM      3  C   UNL     1      30.139  29.919  55.683  1.00  0.00     0.000 C 
BRANCH   3   4
ATOM      4  C   UNL     1      29.857  31.277  56.338  1.00  0.00     0.000 C 
BRANCH   4   5
ATOM      5  C   UNL     1      28.621  31.213  57.245  1.00  0.00     0.000 C 
BRANCH   5   6
ATOM      6  C   UNL     1      27.804  29.942  56.962  1.00  0.00     0.000 C 
BRANCH   6   7
ATOM      7  C   UNL     1      26.501  30.229  56.198  1.00  0.00     0.000 C 
BRANCH   7   8
ATOM      8  C   UNL     1      25.988  29.000  55.428  1.00  0.00     0.000 C 
BRANCH   8   9
ATOM      9  C   UNL     1      25.377  29.357  54.061  1.00  0.00     0.000 C 
BRANCH   9  10
ATOM     10  C   UNL     1      24.106  30.227  54.119  1.00  0.00     0.000 C 
BRANCH  10  11
ATOM     11  C   UNL     1      22.811  29.401  54.187  1.00  0.00     0.000 C 
BRANCH  11  12
ATOM     12  C   UNL     1      21.876  29.934  55.283  1.00  0.00     0.000 C 
BRANCH  12  13
ATOM     13  C   UNL     1      22.634  30.378  56.545  1.00  0.00     0.006 C 
BRANCH  13  14
ATOM     14  C   UNL     1      21.739  30.408  57.795  1.00  0.00     0.053 C 
BRANCH  14  15
ATOM     15  C   UNL     1      21.102  29.075  58.067  1.00  0.00     0.041 C 
ATOM     16  O   UNL     1      21.831  28.074  58.306  1.00  0.00    -0.550 OA
ATOM     17  O   UNL     1      19.723  28.910  57.984  1.00  0.00    -0.550 OA
ENDBRANCH  14  15
ENDBRANCH  13  14
ENDBRANCH  12  13
ENDBRANCH  11  12
ENDBRANCH  10  11
ENDBRANCH   9  10
ENDBRANCH   8   9
ENDBRANCH   7   8
ENDBRANCH   6   7
ENDBRANCH   5   6
ENDBRANCH   4   5
ENDBRANCH   3   4
ENDBRANCH   2   3
ENDBRANCH   1   2
BRANCH   1  18
ATOM     18  C   UNL     1      28.852  29.829  52.054  1.00  0.00     0.000 C 
BRANCH  18  19
ATOM     19  C   UNL     1      29.956  30.797  51.579  1.00  0.00     0.000 C 
BRANCH  19  20
ATOM     20  C   UNL     1      29.489  31.792  50.498  1.00  0.00     0.000 C 
BRANCH  20  21
ATOM     21  C   UNL     1      29.712  33.276  50.841  1.00  0.00     0.000 C 
BRANCH  21  22
ATOM     22  C   UNL     1      30.076  33.566  52.313  1.00  0.00     0.000 C 
BRANCH  22  23
ATOM     23  C   UNL     1      28.924  34.095  53.186  1.00  0.00     0.000 C 
BRANCH  23  24
ATOM     24  C   UNL     1      28.177  32.978  53.935  1.00  0.00    -0.000 C 
BRANCH  24  25
ATOM     25  C   UNL     1      26.806  32.662  53.317  1.00  0.00    -0.000 C 
BRANCH  25  26
ATOM     26  C   UNL     1      26.084  33.912  52.793  1.00  0.00    -0.000 C 
BRANCH  26  27
ATOM     27  C   UNL     1      25.288  33.594  51.523  1.00  0.00    -0.000 C 
BRANCH  27  28
ATOM     28  C   UNL     1      25.857  32.361  50.810  1.00  0.00    -0.000 C 
BRANCH  28  29
ATOM     29  C   UNL     1      25.618  32.444  49.295  1.00  0.00    -0.000 C 
BRANCH  29  30
ATOM     30  C   UNL     1      26.403  33.586  48.632  1.00  0.00    -0.000 C 
BRANCH  30  31
ATOM     31  C   UNL     1      26.967  33.197  47.258  1.00  0.00    -0.003 C 
ATOM     32  C   UNL     1      28.494  33.192  47.274  1.00  0.00     0.004 C 
ENDBRANCH  30  31
ENDBRANCH  29  30
ENDBRANCH  28  29
ENDBRANCH  27  28
ENDBRANCH  26  27
ENDBRANCH  25  26
ENDBRANCH  24  25
ENDBRANCH  23  24
ENDBRANCH  22  23
ENDBRANCH  21  22
ENDBRANCH  20  21
ENDBRANCH  19  20
ENDBRANCH  18  19
ENDBRANCH   1  18
TORSDOF 28
ENDMDL
MODEL 5
REMARK VINA RESULT:    -3.361      4.438      7.482
REMARK INTER + INTRA:         -13.857
REMARK INTER:                  -7.587
REMARK INTRA:                  -6.270
REMARK UNBOUND:                -4.995
REMARK SMILES CCCCCCCCCCCCCCCCCCCCCCCCCCCCCC(=O)[O-]
REMARK SMILES IDX 16 1 17 2 18 3 19 4 20 5 21 6 22 7 23 8 24 9 25 10 26 11
REMARK SMILES IDX 27 12 28 13 29 14 30 15 31 16 32 17 15 18 14 19 13 20 12 21
REMARK SMILES IDX 11 22 10 23 9 24 8 25 7 26 6 27 5 28 4 29 3 30 2 31 1 32
REMARK H PARENT
REMARK Flexibility Score: inf
ROOT
ATOM      1  C   UNL     1      30.664  32.675  52.377  1.00  0.00     0.000 C 
ENDROOT
BRANCH   1   2
ATOM      2  C   UNL     1      29.644  33.800  52.595  1.00  0.00     0.000 C 
BRANCH   2   3
ATOM      3  C   UNL     1      28.226  33.341  52.237  1.00  0.00     0.000 C 
BRANCH   3   4
ATOM      4  C   UNL     1      27.181  34.099  53.065  1.00  0.00     0.000 C 
BRANCH   4   5
ATOM      5  C   UNL     1      25.756  33.658  52.706  1.00  0.00     0.000 C 
BRANCH   5   6
ATOM      6  C   UNL     1      25.492  32.223  53.190  1.00  0.00     0.000 C 
BRANCH   6   7
ATOM      7  C   UNL     1      24.920  31.318  52.087  1.00  0.00     0.000 C 
BRANCH   7   8
ATOM      8  C   UNL     1      25.615  29.946  52.035  1.00  0.00     0.000 C 
BRANCH   8   9
ATOM      9  C   UNL     1      26.964  29.981  51.293  1.00  0.00     0.000 C 
BRANCH   9  10
ATOM     10  C   UNL     1      26.901  29.596  49.802  1.00  0.00     0.000 C 
BRANCH  10  11
ATOM     11  C   UNL     1      27.623  30.600  48.889  1.00  0.00     0.000 C 
BRANCH  11  12
ATOM     12  C   UNL     1      26.956  31.983  48.957  1.00  0.00     0.000 C 
BRANCH  12  13
ATOM     13  C   UNL     1      27.943  33.131  48.694  1.00  0.00     0.006 C 
BRANCH  13  14
ATOM     14  C   UNL     1      28.671  32.991  47.347  1.00  0.00     0.053 C 
BRANCH  14  15
ATOM     15  C   UNL     1      30.164  32.967  47.508  1.00  0.00     0.041 C 
ATOM     16  O   UNL     1      30.746  31.874  47.745  1.00  0.00    -0.550 OA
ATOM     17  O   UNL     1      30.906  34.143  47.479  1.00  0.00    -0.550 OA
ENDBRANCH  14  15
ENDBRANCH  13  14
ENDBRANCH  12  13
ENDBRANCH  11  12
ENDBRANCH  10  11
ENDBRANCH   9  10
ENDBRANCH   8   9
ENDBRANCH   7   8
ENDBRANCH   6   7
ENDBRANCH   5   6
ENDBRANCH   4   5
ENDBRANCH   3   4
ENDBRANCH   2   3
ENDBRANCH   1   2
BRANCH   1  18
ATOM     18  C   UNL     1      30.292  31.831  51.149  1.00  0.00     0.000 C 
BRANCH  18  19
ATOM     19  C   UNL     1      30.377  30.314  51.419  1.00  0.00     0.000 C 
BRANCH  19  20
ATOM     20  C   UNL     1      31.695  29.671  50.945  1.00  0.00     0.000 C 
BRANCH  20  21
ATOM     21  C   UNL     1      32.703  29.355  52.066  1.00  0.00     0.000 C 
BRANCH  21  22
ATOM     22  C   UNL     1      32.171  29.542  53.504  1.00  0.00     0.000 C 
BRANCH  22  23
ATOM     23  C   UNL     1      32.952  30.546  54.369  1.00  0.00     0.000 C 
BRANCH  23  24
ATOM     24  C   UNL     1      32.348  30.725  55.773  1.00  0.00    -0.000 C 
BRANCH  24  25
ATOM     25  C   UNL     1      32.183  32.202  56.166  1.00  0.00    -0.000 C 
BRANCH  25  26
ATOM     26  C   UNL     1      30.735  32.696  56.035  1.00  0.00    -0.000 C 
BRANCH  26  27
ATOM     27  C   UNL     1      29.743  31.609  56.460  1.00  0.00    -0.000 C 
BRANCH  27  28
ATOM     28  C   UNL     1      28.536  31.564  55.515  1.00  0.00    -0.000 C 
BRANCH  28  29
ATOM     29  C   UNL     1      28.641  30.376  54.546  1.00  0.00    -0.000 C 
BRANCH  29  30
ATOM     30  C   UNL     1      27.778  29.181  54.978  1.00  0.00    -0.000 C 
BRANCH  30  31
ATOM     31  C   UNL     1      26.460  29.610  55.636  1.00  0.00    -0.003 C 
ATOM     32  C   UNL     1      26.140  28.736  56.846  1.00  0.00     0.004 C 
ENDBRANCH  30  31
ENDBRANCH  29  30
ENDBRANCH  28  29
ENDBRANCH  27  28
ENDBRANCH  26  27
ENDBRANCH  25  26
ENDBRANCH  24  25
ENDBRANCH  23  24
ENDBRANCH  22  23
ENDBRANCH  21  22
ENDBRANCH  20  21
ENDBRANCH  19  20
ENDBRANCH  18  19
ENDBRANCH   1  18
TORSDOF 28
ENDMDL
MODEL 6
REMARK VINA RESULT:    -3.344      1.512      2.185
REMARK INTER + INTRA:         -13.812
REMARK INTER:                  -8.164
REMARK INTRA:                  -5.648
REMARK UNBOUND:                -4.995
REMARK SMILES CCCCCCCCCCCCCCCCCCCCCCCCCCCCCC(=O)[O-]
REMARK SMILES IDX 16 1 17 2 18 3 19 4 20 5 21 6 22 7 23 8 24 9 25 10 26 11
REMARK SMILES IDX 27 12 28 13 29 14 30 15 31 16 32 17 15 18 14 19 13 20 12 21
REMARK SMILES IDX 11 22 10 23 9 24 8 25 7 26 6 27 5 28 4 29 3 30 2 31 1 32
REMARK H PARENT
REMARK Flexibility Score: inf
ROOT
ATOM      1  C   UNL     1      25.348  31.784  50.746  1.00  0.00     0.000 C 
ENDROOT
BRANCH   1   2
ATOM      2  C   UNL     1      25.798  33.213  51.074  1.00  0.00     0.000 C 
BRANCH   2   3
ATOM      3  C   UNL     1      25.442  33.590  52.516  1.00  0.00     0.000 C 
BRANCH   3   4
ATOM      4  C   UNL     1      26.572  34.400  53.164  1.00  0.00     0.000 C 
BRANCH   4   5
ATOM      5  C   UNL     1      27.776  33.510  53.499  1.00  0.00     0.000 C 
BRANCH   5   6
ATOM      6  C   UNL     1      29.065  34.344  53.576  1.00  0.00     0.000 C 
BRANCH   6   7
ATOM      7  C   UNL     1      30.068  33.993  52.465  1.00  0.00     0.000 C 
BRANCH   7   8
ATOM      8  C   UNL     1      29.540  32.899  51.521  1.00  0.00     0.000 C 
BRANCH   8   9
ATOM      9  C   UNL     1      30.483  31.686  51.417  1.00  0.00     0.000 C 
BRANCH   9  10
ATOM     10  C   UNL     1      30.483  30.749  52.641  1.00  0.00     0.000 C 
BRANCH  10  11
ATOM     11  C   UNL     1      31.693  30.963  53.564  1.00  0.00     0.000 C 
BRANCH  11  12
ATOM     12  C   UNL     1      31.248  31.482  54.941  1.00  0.00     0.000 C 
BRANCH  12  13
ATOM     13  C   UNL     1      29.860  30.962  55.350  1.00  0.00     0.006 C 
BRANCH  13  14
ATOM     14  C   UNL     1      29.254  31.751  56.522  1.00  0.00     0.053 C 
BRANCH  14  15
ATOM     15  C   UNL     1      28.407  30.884  57.410  1.00  0.00     0.041 C 
ATOM     16  O   UNL     1      27.764  31.408  58.360  1.00  0.00    -0.550 OA
ATOM     17  O   UNL     1      28.381  29.503  57.249  1.00  0.00    -0.550 OA
ENDBRANCH  14  15
ENDBRANCH  13  14
ENDBRANCH  12  13
ENDBRANCH  11  12
ENDBRANCH  10  11
ENDBRANCH   9  10
ENDBRANCH   8   9
ENDBRANCH   7   8
ENDBRANCH   6   7
ENDBRANCH   5   6
ENDBRANCH   4   5
ENDBRANCH   3   4
ENDBRANCH   2   3
ENDBRANCH   1   2
BRANCH   1  18
ATOM     18  C   UNL     1      26.559  30.853  50.584  1.00  0.00     0.000 C 
BRANCH  18  19
ATOM     19  C   UNL     1      27.019  30.233  51.920  1.00  0.00     0.000 C 
BRANCH  19  20
ATOM     20  C   UNL     1      25.877  30.027  52.935  1.00  0.00     0.000 C 
BRANCH  20  21
ATOM     21  C   UNL     1      26.264  30.270  54.406  1.00  0.00     0.000 C 
BRANCH  21  22
ATOM     22  C   UNL     1      25.087  30.272  55.406  1.00  0.00     0.000 C 
BRANCH  22  23
ATOM     23  C   UNL     1      24.796  28.921  56.082  1.00  0.00     0.000 C 
BRANCH  23  24
ATOM     24  C   UNL     1      23.453  28.903  56.833  1.00  0.00    -0.000 C 
BRANCH  24  25
ATOM     25  C   UNL     1      22.688  30.231  56.713  1.00  0.00    -0.000 C 
BRANCH  25  26
ATOM     26  C   UNL     1      21.271  30.159  57.300  1.00  0.00    -0.000 C 
BRANCH  26  27
ATOM     27  C   UNL     1      20.375  29.240  56.462  1.00  0.00    -0.000 C 
BRANCH  27  28
ATOM     28  C   UNL     1      20.030  29.887  55.115  1.00  0.00    -0.000 C 
BRANCH  28  29
ATOM     29  C   UNL     1      20.245  28.897  53.959  1.00  0.00    -0.000 C 
BRANCH  29  30
ATOM     30  C   UNL     1      20.889  27.580  54.419  1.00  0.00    -0.000 C 
BRANCH  30  31
ATOM     31  C   UNL     1      22.273  27.350  53.797  1.00  0.00    -0.003 C 
ATOM     32  C   UNL     1      22.624  28.463  52.814  1.00  0.00     0.004 C 
ENDBRANCH  30  31
ENDBRANCH  29  30
ENDBRANCH  28  29
ENDBRANCH  27  28
ENDBRANCH  26  27
ENDBRANCH  25  26
ENDBRANCH  24  25
ENDBRANCH  23  24
ENDBRANCH  22  23
ENDBRANCH  21  22
ENDBRANCH  20  21
ENDBRANCH  19  20
ENDBRANCH  18  19
ENDBRANCH   1  18
TORSDOF 28
ENDMDL
MODEL 7
REMARK VINA RESULT:    -3.327      3.117      7.931
REMARK INTER + INTRA:         -13.769
REMARK INTER:                  -8.043
REMARK INTRA:                  -5.725
REMARK UNBOUND:                -4.995
REMARK SMILES CCCCCCCCCCCCCCCCCCCCCCCCCCCCCC(=O)[O-]
REMARK SMILES IDX 16 1 17 2 18 3 19 4 20 5 21 6 22 7 23 8 24 9 25 10 26 11
REMARK SMILES IDX 27 12 28 13 29 14 30 15 31 16 32 17 15 18 14 19 13 20 12 21
REMARK SMILES IDX 11 22 10 23 9 24 8 25 7 26 6 27 5 28 4 29 3 30 2 31 1 32
REMARK H PARENT
REMARK Flexibility Score: inf
ROOT
ATOM      1  C   UNL     1      28.483  31.345  55.468  1.00  0.00     0.000 C 
ENDROOT
BRANCH   1   2
ATOM      2  C   UNL     1      28.337  29.821  55.375  1.00  0.00     0.000 C 
BRANCH   2   3
ATOM      3  C   UNL     1      28.651  29.317  53.961  1.00  0.00     0.000 C 
BRANCH   3   4
ATOM      4  C   UNL     1      28.154  30.311  52.904  1.00  0.00     0.000 C 
BRANCH   4   5
ATOM      5  C   UNL     1      27.824  29.604  51.584  1.00  0.00     0.000 C 
BRANCH   5   6
ATOM      6  C   UNL     1      26.685  28.591  51.779  1.00  0.00     0.000 C 
BRANCH   6   7
ATOM      7  C   UNL     1      25.431  28.940  50.961  1.00  0.00     0.000 C 
BRANCH   7   8
ATOM      8  C   UNL     1      24.724  30.204  51.480  1.00  0.00     0.000 C 
BRANCH   8   9
ATOM      9  C   UNL     1      24.146  30.032  52.897  1.00  0.00     0.000 C 
BRANCH   9  10
ATOM     10  C   UNL     1      24.778  30.933  53.976  1.00  0.00     0.000 C 
BRANCH  10  11
ATOM     11  C   UNL     1      24.453  30.479  55.408  1.00  0.00     0.000 C 
BRANCH  11  12
ATOM     12  C   UNL     1      24.409  28.946  55.502  1.00  0.00     0.000 C 
BRANCH  12  13
ATOM     13  C   UNL     1      23.026  28.417  55.913  1.00  0.00     0.006 C 
BRANCH  13  14
ATOM     14  C   UNL     1      22.603  28.888  57.315  1.00  0.00     0.053 C 
BRANCH  14  15
ATOM     15  C   UNL     1      21.390  29.773  57.274  1.00  0.00     0.041 C 
ATOM     16  O   UNL     1      20.825  30.104  58.351  1.00  0.00    -0.550 OA
ATOM     17  O   UNL     1      20.834  30.169  56.062  1.00  0.00    -0.550 OA
ENDBRANCH  14  15
ENDBRANCH  13  14
ENDBRANCH  12  13
ENDBRANCH  11  12
ENDBRANCH  10  11
ENDBRANCH   9  10
ENDBRANCH   8   9
ENDBRANCH   7   8
ENDBRANCH   6   7
ENDBRANCH   5   6
ENDBRANCH   4   5
ENDBRANCH   3   4
ENDBRANCH   2   3
ENDBRANCH   1   2
BRANCH   1  18
ATOM     18  C   UNL     1      29.582  31.728  56.470  1.00  0.00     0.000 C 
BRANCH  18  19
ATOM     19  C   UNL     1      30.727  32.535  55.822  1.00  0.00     0.000 C 
BRANCH  19  20
ATOM     20  C   UNL     1      31.527  31.743  54.769  1.00  0.00     0.000 C 
BRANCH  20  21
ATOM     21  C   UNL     1      31.343  32.223  53.318  1.00  0.00     0.000 C 
BRANCH  21  22
ATOM     22  C   UNL     1      30.820  33.667  53.162  1.00  0.00     0.000 C 
BRANCH  22  23
ATOM     23  C   UNL     1      29.390  33.794  52.607  1.00  0.00     0.000 C 
BRANCH  23  24
ATOM     24  C   UNL     1      28.422  34.473  53.591  1.00  0.00    -0.000 C 
BRANCH  24  25
ATOM     25  C   UNL     1      26.949  34.316  53.181  1.00  0.00    -0.000 C 
BRANCH  25  26
ATOM     26  C   UNL     1      26.753  33.322  52.027  1.00  0.00    -0.000 C 
BRANCH  26  27
ATOM     27  C   UNL     1      25.441  33.594  51.284  1.00  0.00    -0.000 C 
BRANCH  27  28
ATOM     28  C   UNL     1      25.625  33.447  49.769  1.00  0.00    -0.000 C 
BRANCH  28  29
ATOM     29  C   UNL     1      26.777  32.483  49.447  1.00  0.00    -0.000 C 
BRANCH  29  30
ATOM     30  C   UNL     1      27.338  32.683  48.030  1.00  0.00    -0.000 C 
BRANCH  30  31
ATOM     31  C   UNL     1      28.841  32.381  47.942  1.00  0.00    -0.003 C 
ATOM     32  C   UNL     1      29.564  32.823  49.212  1.00  0.00     0.004 C 
ENDBRANCH  30  31
ENDBRANCH  29  30
ENDBRANCH  28  29
ENDBRANCH  27  28
ENDBRANCH  26  27
ENDBRANCH  25  26
ENDBRANCH  24  25
ENDBRANCH  23  24
ENDBRANCH  22  23
ENDBRANCH  21  22
ENDBRANCH  20  21
ENDBRANCH  19  20
ENDBRANCH  18  19
ENDBRANCH   1  18
TORSDOF 28
ENDMDL
MODEL 8
REMARK VINA RESULT:    -3.305      3.164      7.641
REMARK INTER + INTRA:         -13.711
REMARK INTER:                  -7.347
REMARK INTRA:                  -6.364
REMARK UNBOUND:                -4.995
REMARK SMILES CCCCCCCCCCCCCCCCCCCCCCCCCCCCCC(=O)[O-]
REMARK SMILES IDX 16 1 17 2 18 3 19 4 20 5 21 6 22 7 23 8 24 9 25 10 26 11
REMARK SMILES IDX 27 12 28 13 29 14 30 15 31 16 32 17 15 18 14 19 13 20 12 21
REMARK SMILES IDX 11 22 10 23 9 24 8 25 7 26 6 27 5 28 4 29 3 30 2 31 1 32
REMARK H PARENT
REMARK Flexibility Score: inf
ROOT
ATOM      1  C   UNL     1      29.504  32.457  50.467  1.00  0.00     0.000 C 
ENDROOT
BRANCH   1   2
ATOM      2  C   UNL     1      30.390  32.937  51.624  1.00  0.00     0.000 C 
BRANCH   2   3
ATOM      3  C   UNL     1      29.649  33.946  52.509  1.00  0.00     0.000 C 
BRANCH   3   4
ATOM      4  C   UNL     1      30.239  33.967  53.925  1.00  0.00     0.000 C 
BRANCH   4   5
ATOM      5  C   UNL     1      30.918  32.635  54.267  1.00  0.00     0.000 C 
BRANCH   5   6
ATOM      6  C   UNL     1      31.028  32.455  55.789  1.00  0.00     0.000 C 
BRANCH   6   7
ATOM      7  C   UNL     1      31.272  30.994  56.200  1.00  0.00     0.000 C 
BRANCH   7   8
ATOM      8  C   UNL     1      29.996  30.307  56.715  1.00  0.00     0.000 C 
BRANCH   8   9
ATOM      9  C   UNL     1      28.828  31.288  56.930  1.00  0.00     0.000 C 
BRANCH   9  10
ATOM     10  C   UNL     1      27.538  30.658  57.490  1.00  0.00     0.000 C 
BRANCH  10  11
ATOM     11  C   UNL     1      27.354  29.189  57.074  1.00  0.00     0.000 C 
BRANCH  11  12
ATOM     12  C   UNL     1      25.975  28.969  56.433  1.00  0.00     0.000 C 
BRANCH  12  13
ATOM     13  C   UNL     1      25.103  30.234  56.451  1.00  0.00     0.006 C 
BRANCH  13  14
ATOM     14  C   UNL     1      23.996  30.208  55.384  1.00  0.00     0.053 C 
BRANCH  14  15
ATOM     15  C   UNL     1      22.723  29.603  55.903  1.00  0.00     0.041 C 
ATOM     16  O   UNL     1      22.580  28.351  55.895  1.00  0.00    -0.550 OA
ATOM     17  O   UNL     1      21.667  30.407  56.321  1.00  0.00    -0.550 OA
ENDBRANCH  14  15
ENDBRANCH  13  14
ENDBRANCH  12  13
ENDBRANCH  11  12
ENDBRANCH  10  11
ENDBRANCH   9  10
ENDBRANCH   8   9
ENDBRANCH   7   8
ENDBRANCH   6   7
ENDBRANCH   5   6
ENDBRANCH   4   5
ENDBRANCH   3   4
ENDBRANCH   2   3
ENDBRANCH   1   2
BRANCH   1  18
ATOM     18  C   UNL     1      28.173  33.224  50.445  1.00  0.00     0.000 C 
BRANCH  18  19
ATOM     19  C   UNL     1      27.023  32.406  49.820  1.00  0.00     0.000 C 
BRANCH  19  20
ATOM     20  C   UNL     1      25.664  32.608  50.520  1.00  0.00     0.000 C 
BRANCH  20  21
ATOM     21  C   UNL     1      25.724  33.405  51.836  1.00  0.00     0.000 C 
BRANCH  21  22
ATOM     22  C   UNL     1      25.593  32.563  53.124  1.00  0.00     0.000 C 
BRANCH  22  23
ATOM     23  C   UNL     1      26.894  31.902  53.614  1.00  0.00     0.000 C 
BRANCH  23  24
ATOM     24  C   UNL     1      27.042  30.446  53.141  1.00  0.00    -0.000 C 
BRANCH  24  25
ATOM     25  C   UNL     1      28.349  29.795  53.621  1.00  0.00    -0.000 C 
BRANCH  25  26
ATOM     26  C   UNL     1      29.369  29.599  52.490  1.00  0.00    -0.000 C 
BRANCH  26  27
ATOM     27  C   UNL     1      30.725  29.150  53.046  1.00  0.00    -0.000 C 
BRANCH  27  28
ATOM     28  C   UNL     1      31.874  29.636  52.155  1.00  0.00    -0.000 C 
BRANCH  28  29
ATOM     29  C   UNL     1      31.976  28.789  50.878  1.00  0.00    -0.000 C 
BRANCH  29  30
ATOM     30  C   UNL     1      31.484  29.538  49.629  1.00  0.00    -0.000 C 
BRANCH  30  31
ATOM     31  C   UNL     1      30.552  28.685  48.757  1.00  0.00    -0.003 C 
ATOM     32  C   UNL     1      29.109  29.171  48.859  1.00  0.00     0.004 C 
ENDBRANCH  30  31
ENDBRANCH  29  30
ENDBRANCH  28  29
ENDBRANCH  27  28
ENDBRANCH  26  27
ENDBRANCH  25  26
ENDBRANCH  24  25
ENDBRANCH  23  24
ENDBRANCH  22  23
ENDBRANCH  21  22
ENDBRANCH  20  21
ENDBRANCH  19  20
ENDBRANCH  18  19
ENDBRANCH   1  18
TORSDOF 28
ENDMDL
MODEL 9
REMARK VINA RESULT:    -3.274      5.106      8.261
REMARK INTER + INTRA:         -13.629
REMARK INTER:                  -7.009
REMARK INTRA:                  -6.621
REMARK UNBOUND:                -4.995
REMARK SMILES CCCCCCCCCCCCCCCCCCCCCCCCCCCCCC(=O)[O-]
REMARK SMILES IDX 16 1 17 2 18 3 19 4 20 5 21 6 22 7 23 8 24 9 25 10 26 11
REMARK SMILES IDX 27 12 28 13 29 14 30 15 31 16 32 17 15 18 14 19 13 20 12 21
REMARK SMILES IDX 11 22 10 23 9 24 8 25 7 26 6 27 5 28 4 29 3 30 2 31 1 32
REMARK H PARENT
REMARK Flexibility Score: inf
ROOT
ATOM      1  C   UNL     1      29.560  34.303  53.495  1.00  0.00     0.000 C 
ENDROOT
BRANCH   1   2
ATOM      2  C   UNL     1      29.491  33.681  52.095  1.00  0.00     0.000 C 
BRANCH   2   3
ATOM      3  C   UNL     1      28.055  33.289  51.731  1.00  0.00     0.000 C 
BRANCH   3   4
ATOM      4  C   UNL     1      27.068  33.778  52.799  1.00  0.00     0.000 C 
BRANCH   4   5
ATOM      5  C   UNL     1      25.629  33.374  52.456  1.00  0.00     0.000 C 
BRANCH   5   6
ATOM      6  C   UNL     1      25.425  31.864  52.655  1.00  0.00     0.000 C 
BRANCH   6   7
ATOM      7  C   UNL     1      24.942  31.155  51.379  1.00  0.00     0.000 C 
BRANCH   7   8
ATOM      8  C   UNL     1      25.790  29.918  51.037  1.00  0.00     0.000 C 
BRANCH   8   9
ATOM      9  C   UNL     1      26.887  30.207  49.997  1.00  0.00     0.000 C 
BRANCH   9  10
ATOM     10  C   UNL     1      26.580  31.364  49.025  1.00  0.00     0.000 C 
BRANCH  10  11
ATOM     11  C   UNL     1      27.662  31.552  47.949  1.00  0.00     0.000 C 
BRANCH  11  12
ATOM     12  C   UNL     1      28.419  32.872  48.156  1.00  0.00     0.000 C 
BRANCH  12  13
ATOM     13  C   UNL     1      29.027  33.418  46.854  1.00  0.00     0.006 C 
BRANCH  13  14
ATOM     14  C   UNL     1      30.255  32.617  46.392  1.00  0.00     0.053 C 
BRANCH  14  15
ATOM     15  C   UNL     1      30.962  33.276  45.242  1.00  0.00     0.041 C 
ATOM     16  O   UNL     1      30.362  34.152  44.562  1.00  0.00    -0.550 OA
ATOM     17  O   UNL     1      32.242  32.880  44.867  1.00  0.00    -0.550 OA
ENDBRANCH  14  15
ENDBRANCH  13  14
ENDBRANCH  12  13
ENDBRANCH  11  12
ENDBRANCH  10  11
ENDBRANCH   9  10
ENDBRANCH   8   9
ENDBRANCH   7   8
ENDBRANCH   6   7
ENDBRANCH   5   6
ENDBRANCH   4   5
ENDBRANCH   3   4
ENDBRANCH   2   3
ENDBRANCH   1   2
BRANCH   1  18
ATOM     18  C   UNL     1      30.816  33.831  54.242  1.00  0.00     0.000 C 
BRANCH  18  19
ATOM     19  C   UNL     1      31.592  32.739  53.474  1.00  0.00     0.000 C 
BRANCH  19  20
ATOM     20  C   UNL     1      32.285  31.710  54.388  1.00  0.00     0.000 C 
BRANCH  20  21
ATOM     21  C   UNL     1      31.770  31.678  55.839  1.00  0.00     0.000 C 
BRANCH  21  22
ATOM     22  C   UNL     1      31.280  30.300  56.335  1.00  0.00     0.000 C 
BRANCH  22  23
ATOM     23  C   UNL     1      29.825  30.259  56.836  1.00  0.00     0.000 C 
BRANCH  23  24
ATOM     24  C   UNL     1      29.023  31.515  56.451  1.00  0.00    -0.000 C 
BRANCH  24  25
ATOM     25  C   UNL     1      28.184  31.317  55.179  1.00  0.00    -0.000 C 
BRANCH  25  26
ATOM     26  C   UNL     1      27.617  29.896  55.052  1.00  0.00    -0.000 C 
BRANCH  26  27
ATOM     27  C   UNL     1      27.962  29.286  53.690  1.00  0.00    -0.000 C 
BRANCH  27  28
ATOM     28  C   UNL     1      29.133  30.029  53.035  1.00  0.00    -0.000 C 
BRANCH  28  29
ATOM     29  C   UNL     1      30.328  29.088  52.818  1.00  0.00    -0.000 C 
BRANCH  29  30
ATOM     30  C   UNL     1      31.214  29.516  51.638  1.00  0.00    -0.000 C 
BRANCH  30  31
ATOM     31  C   UNL     1      30.500  30.486  50.685  1.00  0.00    -0.003 C 
ATOM     32  C   UNL     1      30.920  30.241  49.238  1.00  0.00     0.004 C 
ENDBRANCH  30  31
ENDBRANCH  29  30
ENDBRANCH  28  29
ENDBRANCH  27  28
ENDBRANCH  26  27
ENDBRANCH  25  26
ENDBRANCH  24  25
ENDBRANCH  23  24
ENDBRANCH  22  23
ENDBRANCH  21  22
ENDBRANCH  20  21
ENDBRANCH  19  20
ENDBRANCH  18  19
ENDBRANCH   1  18
TORSDOF 28
ENDMDL
