MODEL 1
REMARK VINA RESULT:    -6.005      0.000      0.000
REMARK INTER + INTRA:          -5.625
REMARK INTER:                  -8.112
REMARK INTRA:                   2.487
REMARK UNBOUND:                 2.487
REMARK SMILES O=c1c(-c2ccc(O)cc2)coc2c([C@H]3O[C@H](CO)[C@H](O)[C@H](O)[C@@H]3O)c(O)ccc12
REMARK SMILES IDX 3 1 11 2 12 3 13 4 30 5 2 6 1 7 29 8 28 9 26 10 14 11 4 12
REMARK SMILES IDX 5 13 6 14 7 15 10 16 9 17 8 18 15 20 24 21 16 22 22 23 17 24
REMARK SMILES IDX 20 25 25 26 23 28 18 30 19 31 21 33 27 35
REMARK H PARENT 8 19 25 27 23 29 19 32 21 34 27 36
REMARK Flexibility Score: inf
ROOT
ATOM      1  C   UNL     1      28.643  35.391  21.616  1.00  0.00     0.065 A 
ATOM      2  C   UNL     1      28.486  36.554  22.377  1.00  0.00     0.208 A 
ATOM      3  O   UNL     1      28.473  37.750  21.801  1.00  0.00    -0.463 OA
ATOM      4  C   UNL     1      28.601  37.937  20.490  1.00  0.00     0.147 A 
ATOM      5  C   UNL     1      28.728  36.808  19.643  1.00  0.00     0.066 A 
ATOM      6  C   UNL     1      28.774  35.526  20.223  1.00  0.00     0.200 A 
ATOM      7  O   UNL     1      28.938  34.504  19.499  1.00  0.00    -0.288 OA
ATOM      8  C   UNL     1      28.765  36.982  18.255  1.00  0.00     0.020 A 
ATOM      9  C   UNL     1      28.574  38.245  17.710  1.00  0.00     0.047 A 
ATOM     10  C   UNL     1      28.413  39.364  18.535  1.00  0.00     0.125 A 
ATOM     11  C   UNL     1      28.583  39.253  19.941  1.00  0.00     0.069 A 
ENDROOT
BRANCH   1  12
ATOM     12  C   UNL     1      28.652  34.064  22.283  1.00  0.00    -0.011 A 
ATOM     13  C   UNL     1      28.271  33.935  23.630  1.00  0.00     0.013 A 
ATOM     14  C   UNL     1      28.300  32.686  24.257  1.00  0.00     0.047 A 
ATOM     15  C   UNL     1      28.711  31.550  23.546  1.00  0.00     0.115 A 
ATOM     16  C   UNL     1      29.071  32.921  21.578  1.00  0.00     0.013 A 
ATOM     17  C   UNL     1      29.094  31.673  22.207  1.00  0.00     0.047 A 
BRANCH  15  18
ATOM     18  O   UNL     1      28.741  30.301  24.160  1.00  0.00    -0.508 OA
ATOM     19  H   UNL     1      28.864  29.451  23.624  1.00  0.00     0.293 HD
ENDBRANCH  15  18
ENDBRANCH   1  12
BRANCH  11  20
ATOM     20  C   UNL     1      28.521  40.516  20.835  1.00  0.00     0.188 C 
ATOM     21  C   UNL     1      27.388  40.551  21.914  1.00  0.00     0.179 C 
ATOM     22  O   UNL     1      28.561  41.743  20.107  1.00  0.00    -0.362 OA
ATOM     23  C   UNL     1      26.039  40.986  21.312  1.00  0.00     0.177 C 
ATOM     24  C   UNL     1      27.322  42.057  19.477  1.00  0.00     0.176 C 
ATOM     25  C   UNL     1      26.203  42.277  20.511  1.00  0.00     0.177 C 
BRANCH  21  26
ATOM     26  O   UNL     1      27.773  41.443  22.932  1.00  0.00    -0.387 OA
ATOM     27  H   UNL     1      26.953  41.702  23.427  1.00  0.00     0.211 HD
ENDBRANCH  21  26
BRANCH  23  28
ATOM     28  O   UNL     1      25.085  41.180  22.325  1.00  0.00    -0.387 OA
ATOM     29  H   UNL     1      25.033  42.158  22.488  1.00  0.00     0.211 HD
ENDBRANCH  23  28
BRANCH  24  30
ATOM     30  C   UNL     1      27.504  43.286  18.574  1.00  0.00     0.191 C 
BRANCH  30  31
ATOM     31  O   UNL     1      26.349  44.080  18.583  1.00  0.00    -0.394 OA
ATOM     32  H   UNL     1      26.602  44.940  18.156  1.00  0.00     0.210 HD
ENDBRANCH  30  31
ENDBRANCH  24  30
BRANCH  25  33
ATOM     33  O   UNL     1      26.522  43.343  21.371  1.00  0.00    -0.388 OA
ATOM     34  H   UNL     1      27.512  43.405  21.410  1.00  0.00     0.211 HD
ENDBRANCH  25  33
ENDBRANCH  11  20
BRANCH  10  35
ATOM     35  O   UNL     1      28.022  40.567  17.949  1.00  0.00    -0.507 OA
ATOM     36  H   UNL     1      28.510  40.961  17.153  1.00  0.00     0.293 HD
ENDBRANCH  10  35
TORSDOF 9
ENDMDL
MODEL 2
REMARK VINA RESULT:    -5.972      5.819     13.418
REMARK INTER + INTRA:          -5.580
REMARK INTER:                  -6.671
REMARK INTRA:                   1.090
REMARK UNBOUND:                 2.487
REMARK SMILES O=c1c(-c2ccc(O)cc2)coc2c([C@H]3O[C@H](CO)[C@H](O)[C@H](O)[C@@H]3O)c(O)ccc12
REMARK SMILES IDX 3 1 11 2 12 3 13 4 30 5 2 6 1 7 29 8 28 9 26 10 14 11 4 12
REMARK SMILES IDX 5 13 6 14 7 15 10 16 9 17 8 18 15 20 24 21 16 22 22 23 17 24
REMARK SMILES IDX 20 25 25 26 23 28 18 30 19 31 21 33 27 35
REMARK H PARENT 8 19 25 27 23 29 19 32 21 34 27 36
REMARK Flexibility Score: inf
ROOT
ATOM      1  C   UNL     1      28.876  30.474  25.320  1.00  0.00     0.065 A 
ATOM      2  C   UNL     1      28.983  30.411  26.714  1.00  0.00     0.208 A 
ATOM      3  O   UNL     1      28.916  29.249  27.351  1.00  0.00    -0.463 OA
ATOM      4  C   UNL     1      28.750  28.080  26.736  1.00  0.00     0.147 A 
ATOM      5  C   UNL     1      28.668  28.053  25.322  1.00  0.00     0.066 A 
ATOM      6  C   UNL     1      28.707  29.270  24.616  1.00  0.00     0.200 A 
ATOM      7  O   UNL     1      28.585  29.282  23.359  1.00  0.00    -0.288 OA
ATOM      8  C   UNL     1      28.592  26.825  24.655  1.00  0.00     0.020 A 
ATOM      9  C   UNL     1      28.700  25.640  25.370  1.00  0.00     0.047 A 
ATOM     10  C   UNL     1      28.815  25.654  26.765  1.00  0.00     0.125 A 
ATOM     11  C   UNL     1      28.681  26.870  27.487  1.00  0.00     0.069 A 
ENDROOT
BRANCH   1  12
ATOM     12  C   UNL     1      28.955  31.786  24.630  1.00  0.00    -0.011 A 
ATOM     13  C   UNL     1      29.038  32.981  25.366  1.00  0.00     0.013 A 
ATOM     14  C   UNL     1      29.094  34.214  24.710  1.00  0.00     0.047 A 
ATOM     15  C   UNL     1      29.067  34.269  23.310  1.00  0.00     0.115 A 
ATOM     16  C   UNL     1      28.920  31.849  23.225  1.00  0.00     0.013 A 
ATOM     17  C   UNL     1      28.982  33.084  22.572  1.00  0.00     0.047 A 
BRANCH  15  18
ATOM     18  O   UNL     1      29.125  35.492  22.645  1.00  0.00    -0.508 OA
ATOM     19  H   UNL     1      29.968  36.052  22.641  1.00  0.00     0.293 HD
ENDBRANCH  15  18
ENDBRANCH   1  12
BRANCH  11  20
ATOM     20  C   UNL     1      28.691  26.861  29.036  1.00  0.00     0.188 C 
ATOM     21  C   UNL     1      28.482  25.472  29.726  1.00  0.00     0.179 C 
ATOM     22  O   UNL     1      27.846  27.849  29.625  1.00  0.00    -0.362 OA
ATOM     23  C   UNL     1      26.992  25.087  29.795  1.00  0.00     0.177 C 
ATOM     24  C   UNL     1      26.465  27.502  29.574  1.00  0.00     0.176 C 
ATOM     25  C   UNL     1      26.172  26.231  30.390  1.00  0.00     0.177 C 
BRANCH  21  26
ATOM     26  O   UNL     1      29.025  25.536  31.023  1.00  0.00    -0.387 OA
ATOM     27  H   UNL     1      29.365  24.631  31.248  1.00  0.00     0.211 HD
ENDBRANCH  21  26
BRANCH  23  28
ATOM     28  O   UNL     1      26.816  23.929  30.571  1.00  0.00    -0.387 OA
ATOM     29  H   UNL     1      27.019  24.179  31.510  1.00  0.00     0.211 HD
ENDBRANCH  23  28
BRANCH  24  30
ATOM     30  C   UNL     1      25.621  28.691  30.060  1.00  0.00     0.191 C 
BRANCH  30  31
ATOM     31  O   UNL     1      24.317  28.610  29.552  1.00  0.00    -0.394 OA
ATOM     32  H   UNL     1      24.381  28.848  28.590  1.00  0.00     0.210 HD
ENDBRANCH  30  31
ENDBRANCH  24  30
BRANCH  25  33
ATOM     33  O   UNL     1      26.511  26.417  31.742  1.00  0.00    -0.388 OA
ATOM     34  H   UNL     1      25.675  26.337  32.270  1.00  0.00     0.211 HD
ENDBRANCH  25  33
ENDBRANCH  11  20
BRANCH  10  35
ATOM     35  O   UNL     1      29.125  24.460  27.415  1.00  0.00    -0.507 OA
ATOM     36  H   UNL     1      28.577  23.617  27.282  1.00  0.00     0.293 HD
ENDBRANCH  10  35
TORSDOF 9
ENDMDL
MODEL 3
REMARK VINA RESULT:    -5.321      2.254      3.859
REMARK INTER + INTRA:          -4.701
REMARK INTER:                  -6.714
REMARK INTRA:                   2.013
REMARK UNBOUND:                 2.487
REMARK SMILES O=c1c(-c2ccc(O)cc2)coc2c([C@H]3O[C@H](CO)[C@H](O)[C@H](O)[C@@H]3O)c(O)ccc12
REMARK SMILES IDX 3 1 11 2 12 3 13 4 30 5 2 6 1 7 29 8 28 9 26 10 14 11 4 12
REMARK SMILES IDX 5 13 6 14 7 15 10 16 9 17 8 18 15 20 24 21 16 22 22 23 17 24
REMARK SMILES IDX 20 25 25 26 23 28 18 30 19 31 21 33 27 35
REMARK H PARENT 8 19 25 27 23 29 19 32 21 34 27 36
REMARK Flexibility Score: inf
ROOT
ATOM      1  C   UNL     1      28.480  32.494  23.672  1.00  0.00     0.065 A 
ATOM      2  C   UNL     1      28.217  33.827  24.004  1.00  0.00     0.208 A 
ATOM      3  O   UNL     1      28.299  34.787  23.090  1.00  0.00    -0.463 OA
ATOM      4  C   UNL     1      28.627  34.567  21.819  1.00  0.00     0.147 A 
ATOM      5  C   UNL     1      28.875  33.239  21.393  1.00  0.00     0.066 A 
ATOM      6  C   UNL     1      28.824  32.200  22.342  1.00  0.00     0.200 A 
ATOM      7  O   UNL     1      29.090  31.013  22.002  1.00  0.00    -0.288 OA
ATOM      8  C   UNL     1      29.125  32.979  20.040  1.00  0.00     0.020 A 
ATOM      9  C   UNL     1      29.027  34.004  19.108  1.00  0.00     0.047 A 
ATOM     10  C   UNL     1      28.749  35.315  19.513  1.00  0.00     0.125 A 
ATOM     11  C   UNL     1      28.702  35.649  20.893  1.00  0.00     0.069 A 
ENDROOT
BRANCH   1  12
ATOM     12  C   UNL     1      28.379  31.438  24.711  1.00  0.00    -0.011 A 
ATOM     13  C   UNL     1      29.125  31.527  25.900  1.00  0.00     0.013 A 
ATOM     14  C   UNL     1      29.039  30.520  26.866  1.00  0.00     0.047 A 
ATOM     15  C   UNL     1      28.208  29.411  26.656  1.00  0.00     0.115 A 
ATOM     16  C   UNL     1      27.554  30.318  24.503  1.00  0.00     0.013 A 
ATOM     17  C   UNL     1      27.467  29.315  25.474  1.00  0.00     0.047 A 
BRANCH  15  18
ATOM     18  O   UNL     1      28.113  28.403  27.612  1.00  0.00    -0.508 OA
ATOM     19  H   UNL     1      28.924  28.087  28.129  1.00  0.00     0.293 HD
ENDBRANCH  15  18
ENDBRANCH   1  12
BRANCH  11  20
ATOM     20  C   UNL     1      28.512  37.122  21.332  1.00  0.00     0.188 C 
ATOM     21  C   UNL     1      27.101  37.506  21.892  1.00  0.00     0.179 C 
ATOM     22  O   UNL     1      28.945  38.076  20.362  1.00  0.00    -0.362 OA
ATOM     23  C   UNL     1      26.092  37.778  20.761  1.00  0.00     0.177 C 
ATOM     24  C   UNL     1      28.032  38.220  19.278  1.00  0.00     0.176 C 
ATOM     25  C   UNL     1      26.674  38.767  19.752  1.00  0.00     0.177 C 
BRANCH  21  26
ATOM     26  O   UNL     1      27.241  38.650  22.700  1.00  0.00    -0.387 OA
ATOM     27  H   UNL     1      26.331  39.001  22.878  1.00  0.00     0.211 HD
ENDBRANCH  21  26
BRANCH  23  28
ATOM     28  O   UNL     1      24.891  38.288  21.281  1.00  0.00    -0.387 OA
ATOM     29  H   UNL     1      25.098  39.184  21.655  1.00  0.00     0.211 HD
ENDBRANCH  23  28
BRANCH  24  30
ATOM     30  C   UNL     1      28.657  39.120  18.201  1.00  0.00     0.191 C 
BRANCH  30  31
ATOM     31  O   UNL     1      28.218  38.740  16.925  1.00  0.00    -0.394 OA
ATOM     32  H   UNL     1      27.232  38.647  16.989  1.00  0.00     0.210 HD
ENDBRANCH  30  31
ENDBRANCH  24  30
BRANCH  25  33
ATOM     33  O   UNL     1      26.826  40.032  20.348  1.00  0.00    -0.388 OA
ATOM     34  H   UNL     1      27.777  40.117  20.620  1.00  0.00     0.211 HD
ENDBRANCH  25  33
ENDBRANCH  11  20
BRANCH  10  35
ATOM     35  O   UNL     1      28.460  36.263  18.532  1.00  0.00    -0.507 OA
ATOM     36  H   UNL     1      27.797  36.080  17.787  1.00  0.00     0.293 HD
ENDBRANCH  10  35
TORSDOF 9
ENDMDL
MODEL 4
REMARK VINA RESULT:    -3.415      6.272     13.667
REMARK INTER + INTRA:          -2.126
REMARK INTER:                  -3.166
REMARK INTRA:                   1.040
REMARK UNBOUND:                 2.487
REMARK SMILES O=c1c(-c2ccc(O)cc2)coc2c([C@H]3O[C@H](CO)[C@H](O)[C@H](O)[C@@H]3O)c(O)ccc12
REMARK SMILES IDX 3 1 11 2 12 3 13 4 30 5 2 6 1 7 29 8 28 9 26 10 14 11 4 12
REMARK SMILES IDX 5 13 6 14 7 15 10 16 9 17 8 18 15 20 24 21 16 22 22 23 17 24
REMARK SMILES IDX 20 25 25 26 23 28 18 30 19 31 21 33 27 35
REMARK H PARENT 8 19 25 27 23 29 19 32 21 34 27 36
REMARK Flexibility Score: inf
ROOT
ATOM      1  C   UNL     1      27.927  29.718  24.905  1.00  0.00     0.065 A 
ATOM      2  C   UNL     1      27.124  29.761  26.050  1.00  0.00     0.208 A 
ATOM      3  O   UNL     1      26.823  28.653  26.714  1.00  0.00    -0.463 OA
ATOM      4  C   UNL     1      27.249  27.443  26.360  1.00  0.00     0.147 A 
ATOM      5  C   UNL     1      28.097  27.316  25.231  1.00  0.00     0.066 A 
ATOM      6  C   UNL     1      28.414  28.468  24.487  1.00  0.00     0.200 A 
ATOM      7  O   UNL     1      29.125  28.379  23.447  1.00  0.00    -0.288 OA
ATOM      8  C   UNL     1      28.632  26.065  24.903  1.00  0.00     0.020 A 
ATOM      9  C   UNL     1      28.417  24.978  25.739  1.00  0.00     0.047 A 
ATOM     10  C   UNL     1      27.608  25.098  26.876  1.00  0.00     0.125 A 
ATOM     11  C   UNL     1      26.881  26.293  27.119  1.00  0.00     0.069 A 
ENDROOT
BRANCH   1  12
ATOM     12  C   UNL     1      28.252  30.972  24.180  1.00  0.00    -0.011 A 
ATOM     13  C   UNL     1      28.199  32.215  24.835  1.00  0.00     0.013 A 
ATOM     14  C   UNL     1      28.488  33.393  24.141  1.00  0.00     0.047 A 
ATOM     15  C   UNL     1      28.833  33.345  22.784  1.00  0.00     0.115 A 
ATOM     16  C   UNL     1      28.590  30.932  22.815  1.00  0.00     0.013 A 
ATOM     17  C   UNL     1      28.884  32.113  22.125  1.00  0.00     0.047 A 
BRANCH  15  18
ATOM     18  O   UNL     1      29.125  34.513  22.083  1.00  0.00    -0.508 OA
ATOM     19  H   UNL     1      28.584  34.794  21.274  1.00  0.00     0.293 HD
ENDBRANCH  15  18
ENDBRANCH   1  12
BRANCH  11  20
ATOM     20  C   UNL     1      25.897  26.378  28.313  1.00  0.00     0.188 C 
ATOM     21  C   UNL     1      25.667  27.799  28.927  1.00  0.00     0.179 C 
ATOM     22  O   UNL     1      26.152  25.420  29.341  1.00  0.00    -0.362 OA
ATOM     23  C   UNL     1      26.791  28.188  29.905  1.00  0.00     0.177 C 
ATOM     24  C   UNL     1      27.267  25.766  30.159  1.00  0.00     0.176 C 
ATOM     25  C   UNL     1      27.018  27.075  30.928  1.00  0.00     0.177 C 
BRANCH  21  26
ATOM     26  O   UNL     1      24.427  27.798  29.592  1.00  0.00    -0.387 OA
ATOM     27  H   UNL     1      23.827  27.178  29.103  1.00  0.00     0.211 HD
ENDBRANCH  21  26
BRANCH  23  28
ATOM     28  O   UNL     1      26.475  29.382  30.573  1.00  0.00    -0.387 OA
ATOM     29  H   UNL     1      26.653  29.228  31.538  1.00  0.00     0.211 HD
ENDBRANCH  23  28
BRANCH  24  30
ATOM     30  C   UNL     1      27.579  24.603  31.114  1.00  0.00     0.191 C 
BRANCH  30  31
ATOM     31  O   UNL     1      28.163  25.079  32.296  1.00  0.00    -0.394 OA
ATOM     32  H   UNL     1      27.735  24.573  33.036  1.00  0.00     0.210 HD
ENDBRANCH  30  31
ENDBRANCH  24  30
BRANCH  25  33
ATOM     33  O   UNL     1      25.898  26.955  31.769  1.00  0.00    -0.388 OA
ATOM     34  H   UNL     1      25.552  26.031  31.669  1.00  0.00     0.211 HD
ENDBRANCH  25  33
ENDBRANCH  11  20
BRANCH  10  35
ATOM     35  O   UNL     1      27.588  24.044  27.788  1.00  0.00    -0.507 OA
ATOM     36  H   UNL     1      27.728  23.082  27.501  1.00  0.00     0.293 HD
ENDBRANCH  10  35
TORSDOF 9
ENDMDL
MODEL 5
REMARK VINA RESULT:    -3.092      5.691     12.496
REMARK INTER + INTRA:          -1.689
REMARK INTER:                  -4.167
REMARK INTRA:                   2.477
REMARK UNBOUND:                 2.487
REMARK SMILES O=c1c(-c2ccc(O)cc2)coc2c([C@H]3O[C@H](CO)[C@H](O)[C@H](O)[C@@H]3O)c(O)ccc12
REMARK SMILES IDX 3 1 11 2 12 3 13 4 30 5 2 6 1 7 29 8 28 9 26 10 14 11 4 12
REMARK SMILES IDX 5 13 6 14 7 15 10 16 9 17 8 18 15 20 24 21 16 22 22 23 17 24
REMARK SMILES IDX 20 25 25 26 23 28 18 30 19 31 21 33 27 35
REMARK H PARENT 8 19 25 27 23 29 19 32 21 34 27 36
REMARK Flexibility Score: inf
ROOT
ATOM      1  C   UNL     1      28.516  30.405  24.898  1.00  0.00     0.065 A 
ATOM      2  C   UNL     1      28.140  30.345  26.244  1.00  0.00     0.208 A 
ATOM      3  O   UNL     1      28.047  29.181  26.876  1.00  0.00    -0.463 OA
ATOM      4  C   UNL     1      28.297  28.009  26.299  1.00  0.00     0.147 A 
ATOM      5  C   UNL     1      28.719  27.984  24.946  1.00  0.00     0.066 A 
ATOM      6  C   UNL     1      28.802  29.198  24.238  1.00  0.00     0.200 A 
ATOM      7  O   UNL     1      29.125  29.203  23.017  1.00  0.00    -0.288 OA
ATOM      8  C   UNL     1      29.080  26.768  24.354  1.00  0.00     0.020 A 
ATOM      9  C   UNL     1      29.125  25.611  25.120  1.00  0.00     0.047 A 
ATOM     10  C   UNL     1      28.743  25.628  26.466  1.00  0.00     0.125 A 
ATOM     11  C   UNL     1      28.171  26.796  27.038  1.00  0.00     0.069 A 
ENDROOT
BRANCH   1  12
ATOM     12  C   UNL     1      28.616  31.719  24.215  1.00  0.00    -0.011 A 
ATOM     13  C   UNL     1      28.414  31.824  22.827  1.00  0.00     0.013 A 
ATOM     14  C   UNL     1      28.528  33.062  22.187  1.00  0.00     0.047 A 
ATOM     15  C   UNL     1      28.846  34.210  22.925  1.00  0.00     0.115 A 
ATOM     16  C   UNL     1      28.943  32.875  24.947  1.00  0.00     0.013 A 
ATOM     17  C   UNL     1      29.051  34.112  24.304  1.00  0.00     0.047 A 
BRANCH  15  18
ATOM     18  O   UNL     1      28.960  35.448  22.298  1.00  0.00    -0.508 OA
ATOM     19  H   UNL     1      29.344  36.252  22.780  1.00  0.00     0.293 HD
ENDBRANCH  15  18
ENDBRANCH   1  12
BRANCH  11  20
ATOM     20  C   UNL     1      27.643  26.772  28.494  1.00  0.00     0.188 C 
ATOM     21  C   UNL     1      26.095  26.619  28.671  1.00  0.00     0.179 C 
ATOM     22  O   UNL     1      28.141  27.833  29.308  1.00  0.00    -0.362 OA
ATOM     23  C   UNL     1      25.364  27.963  28.494  1.00  0.00     0.177 C 
ATOM     24  C   UNL     1      27.511  29.083  29.038  1.00  0.00     0.176 C 
ATOM     25  C   UNL     1      26.008  29.040  29.366  1.00  0.00     0.177 C 
BRANCH  21  26
ATOM     26  O   UNL     1      25.845  26.099  29.955  1.00  0.00    -0.387 OA
ATOM     27  H   UNL     1      26.575  25.461  30.165  1.00  0.00     0.211 HD
ENDBRANCH  21  26
BRANCH  23  28
ATOM     28  O   UNL     1      24.006  27.837  28.829  1.00  0.00    -0.387 OA
ATOM     29  H   UNL     1      23.966  27.672  29.807  1.00  0.00     0.211 HD
ENDBRANCH  23  28
BRANCH  24  30
ATOM     30  C   UNL     1      28.227  30.195  29.820  1.00  0.00     0.191 C 
BRANCH  30  31
ATOM     31  O   UNL     1      27.295  31.046  30.431  1.00  0.00    -0.394 OA
ATOM     32  H   UNL     1      27.072  30.628  31.304  1.00  0.00     0.210 HD
ENDBRANCH  30  31
ENDBRANCH  24  30
BRANCH  25  33
ATOM     33  O   UNL     1      25.802  28.748  30.726  1.00  0.00    -0.388 OA
ATOM     34  H   UNL     1      24.951  28.243  30.793  1.00  0.00     0.211 HD
ENDBRANCH  25  33
ENDBRANCH  11  20
BRANCH  10  35
ATOM     35  O   UNL     1      28.999  24.497  27.241  1.00  0.00    -0.507 OA
ATOM     36  H   UNL     1      28.379  23.695  27.241  1.00  0.00     0.293 HD
ENDBRANCH  10  35
TORSDOF 9
ENDMDL
