MODEL 1
REMARK VINA RESULT:    -3.768      0.000      0.000
REMARK INTER + INTRA:          -6.921
REMARK INTER:                  -5.971
REMARK INTRA:                  -0.950
REMARK UNBOUND:                -0.950
REMARK SMILES CCCCCCCCCCCC(=O)[O-]
REMARK SMILES IDX 7 1 8 2 9 3 10 4 11 5 12 6 13 7 14 8 6 9 5 10 4 11 3 12 2 13
REMARK SMILES IDX 1 14
REMARK H PARENT
REMARK Flexibility Score: inf
ROOT
ATOM      1  C   UNL     1      -4.345  -9.430 -16.845  1.00  0.00     0.000 C 
ENDROOT
BRANCH   1   2
ATOM      2  C   UNL     1      -4.835 -10.730 -16.180  1.00  0.00     0.000 C 
BRANCH   2   3
ATOM      3  C   UNL     1      -5.483 -11.750 -17.134  1.00  0.00     0.000 C 
BRANCH   3   4
ATOM      4  C   UNL     1      -4.832 -13.141 -17.056  1.00  0.00     0.006 C 
BRANCH   4   5
ATOM      5  C   UNL     1      -5.513 -14.152 -17.990  1.00  0.00     0.053 C 
BRANCH   5   6
ATOM      6  C   UNL     1      -4.624 -14.548 -19.128  1.00  0.00     0.041 C 
ATOM      7  O   UNL     1      -4.549 -15.753 -19.484  1.00  0.00    -0.550 OA
ATOM      8  O   UNL     1      -3.854 -13.590 -19.777  1.00  0.00    -0.550 OA
ENDBRANCH   5   6
ENDBRANCH   4   5
ENDBRANCH   3   4
ENDBRANCH   2   3
ENDBRANCH   1   2
BRANCH   1   9
ATOM      9  C   UNL     1      -2.964  -8.980 -16.335  1.00  0.00     0.000 C 
BRANCH   9  10
ATOM     10  C   UNL     1      -1.976 -10.150 -16.199  1.00  0.00    -0.000 C 
BRANCH  10  11
ATOM     11  C   UNL     1      -1.125 -10.063 -14.924  1.00  0.00    -0.000 C 
BRANCH  11  12
ATOM     12  C   UNL     1      -0.988 -11.439 -14.262  1.00  0.00    -0.000 C 
BRANCH  12  13
ATOM     13  C   UNL     1      -1.792 -12.499 -15.023  1.00  0.00    -0.003 C 
ATOM     14  C   UNL     1      -2.010 -13.745 -14.169  1.00  0.00     0.004 C 
ENDBRANCH  12  13
ENDBRANCH  11  12
ENDBRANCH  10  11
ENDBRANCH   9  10
ENDBRANCH   1   9
TORSDOF 10
ENDMDL
MODEL 2
REMARK VINA RESULT:    -3.736      2.895      4.897
REMARK INTER + INTRA:          -6.870
REMARK INTER:                  -5.262
REMARK INTRA:                  -1.608
REMARK UNBOUND:                -0.950
REMARK SMILES CCCCCCCCCCCC(=O)[O-]
REMARK SMILES IDX 7 1 8 2 9 3 10 4 11 5 12 6 13 7 14 8 6 9 5 10 4 11 3 12 2 13
REMARK SMILES IDX 1 14
REMARK H PARENT
REMARK Flexibility Score: inf
ROOT
ATOM      1  C   UNL     1      -2.666 -10.453 -16.475  1.00  0.00     0.000 C 
ENDROOT
BRANCH   1   2
ATOM      2  C   UNL     1      -2.229 -11.612 -15.560  1.00  0.00     0.000 C 
BRANCH   2   3
ATOM      3  C   UNL     1      -1.441 -12.737 -16.257  1.00  0.00     0.000 C 
BRANCH   3   4
ATOM      4  C   UNL     1      -1.888 -14.142 -15.820  1.00  0.00     0.006 C 
BRANCH   4   5
ATOM      5  C   UNL     1      -2.788 -14.103 -14.576  1.00  0.00     0.053 C 
BRANCH   5   6
ATOM      6  C   UNL     1      -2.203 -14.881 -13.439  1.00  0.00     0.041 C 
ATOM      7  O   UNL     1      -2.730 -14.828 -12.297  1.00  0.00    -0.550 OA
ATOM      8  O   UNL     1      -1.057 -15.643 -13.632  1.00  0.00    -0.550 OA
ENDBRANCH   5   6
ENDBRANCH   4   5
ENDBRANCH   3   4
ENDBRANCH   2   3
ENDBRANCH   1   2
BRANCH   1   9
ATOM      9  C   UNL     1      -4.185 -10.209 -16.449  1.00  0.00     0.000 C 
BRANCH   9  10
ATOM     10  C   UNL     1      -4.985 -11.498 -16.199  1.00  0.00    -0.000 C 
BRANCH  10  11
ATOM     11  C   UNL     1      -5.515 -12.127 -17.496  1.00  0.00    -0.000 C 
BRANCH  11  12
ATOM     12  C   UNL     1      -5.382 -13.655 -17.457  1.00  0.00    -0.000 C 
BRANCH  12  13
ATOM     13  C   UNL     1      -4.385 -14.148 -18.512  1.00  0.00    -0.003 C 
ATOM     14  C   UNL     1      -3.890 -12.997 -19.383  1.00  0.00     0.004 C 
ENDBRANCH  12  13
ENDBRANCH  11  12
ENDBRANCH  10  11
ENDBRANCH   9  10
ENDBRANCH   1   9
TORSDOF 10
ENDMDL
MODEL 3
REMARK VINA RESULT:    -3.663     17.265     18.888
REMARK INTER + INTRA:          -6.755
REMARK INTER:                  -5.724
REMARK INTRA:                  -1.031
REMARK UNBOUND:                -0.950
REMARK SMILES CCCCCCCCCCCC(=O)[O-]
REMARK SMILES IDX 7 1 8 2 9 3 10 4 11 5 12 6 13 7 14 8 6 9 5 10 4 11 3 12 2 13
REMARK SMILES IDX 1 14
REMARK H PARENT
REMARK Flexibility Score: inf
ROOT
ATOM      1  C   UNL     1      11.561  -7.859 -21.917  1.00  0.00     0.000 C 
ENDROOT
BRANCH   1   2
ATOM      2  C   UNL     1      11.543  -6.368 -21.530  1.00  0.00     0.000 C 
BRANCH   2   3
ATOM      3  C   UNL     1      12.760  -5.886 -20.721  1.00  0.00     0.000 C 
BRANCH   3   4
ATOM      4  C   UNL     1      13.796  -5.143 -21.580  1.00  0.00     0.006 C 
BRANCH   4   5
ATOM      5  C   UNL     1      13.159  -4.476 -22.808  1.00  0.00     0.053 C 
BRANCH   5   6
ATOM      6  C   UNL     1      13.033  -2.994 -22.638  1.00  0.00     0.041 C 
ATOM      7  O   UNL     1      12.107  -2.514 -21.934  1.00  0.00    -0.550 OA
ATOM      8  O   UNL     1      13.921  -2.141 -23.280  1.00  0.00    -0.550 OA
ENDBRANCH   5   6
ENDBRANCH   4   5
ENDBRANCH   3   4
ENDBRANCH   2   3
ENDBRANCH   1   2
BRANCH   1   9
ATOM      9  C   UNL     1      11.752  -8.084 -23.427  1.00  0.00     0.000 C 
BRANCH   9  10
ATOM     10  C   UNL     1      13.224  -7.969 -23.859  1.00  0.00    -0.000 C 
BRANCH  10  11
ATOM     11  C   UNL     1      13.782  -9.286 -24.418  1.00  0.00    -0.000 C 
BRANCH  11  12
ATOM     12  C   UNL     1      12.715 -10.388 -24.392  1.00  0.00    -0.000 C 
BRANCH  12  13
ATOM     13  C   UNL     1      13.192 -11.596 -23.579  1.00  0.00    -0.003 C 
ATOM     14  C   UNL     1      12.509 -11.647 -22.215  1.00  0.00     0.004 C 
ENDBRANCH  12  13
ENDBRANCH  11  12
ENDBRANCH  10  11
ENDBRANCH   9  10
ENDBRANCH   1   9
TORSDOF 10
ENDMDL
MODEL 4
REMARK VINA RESULT:    -3.661     14.147     16.146
REMARK INTER + INTRA:          -6.751
REMARK INTER:                  -5.703
REMARK INTRA:                  -1.049
REMARK UNBOUND:                -0.950
REMARK SMILES CCCCCCCCCCCC(=O)[O-]
REMARK SMILES IDX 7 1 8 2 9 3 10 4 11 5 12 6 13 7 14 8 6 9 5 10 4 11 3 12 2 13
REMARK SMILES IDX 1 14
REMARK H PARENT
REMARK Flexibility Score: inf
ROOT
ATOM      1  C   UNL     1      -1.496  -4.198 -26.749  1.00  0.00     0.000 C 
ENDROOT
BRANCH   1   2
ATOM      2  C   UNL     1      -1.100  -3.383 -27.994  1.00  0.00     0.000 C 
BRANCH   2   3
ATOM      3  C   UNL     1      -1.663  -1.951 -28.048  1.00  0.00     0.000 C 
BRANCH   3   4
ATOM      4  C   UNL     1      -0.860  -1.025 -28.976  1.00  0.00     0.006 C 
BRANCH   4   5
ATOM      5  C   UNL     1      -1.699   0.158 -29.481  1.00  0.00     0.053 C 
BRANCH   5   6
ATOM      6  C   UNL     1      -1.365   0.516 -30.896  1.00  0.00     0.041 C 
ATOM      7  O   UNL     1      -0.499  -0.143 -31.529  1.00  0.00    -0.550 OA
ATOM      8  O   UNL     1      -1.989   1.596 -31.507  1.00  0.00    -0.550 OA
ENDBRANCH   5   6
ENDBRANCH   4   5
ENDBRANCH   3   4
ENDBRANCH   2   3
ENDBRANCH   1   2
BRANCH   1   9
ATOM      9  C   UNL     1      -2.874  -4.868 -26.885  1.00  0.00     0.000 C 
BRANCH   9  10
ATOM     10  C   UNL     1      -3.968  -4.133 -26.094  1.00  0.00    -0.000 C 
BRANCH  10  11
ATOM     11  C   UNL     1      -4.990  -3.435 -27.004  1.00  0.00    -0.000 C 
BRANCH  11  12
ATOM     12  C   UNL     1      -5.118  -1.950 -26.645  1.00  0.00    -0.000 C 
BRANCH  12  13
ATOM     13  C   UNL     1      -4.442  -1.647 -25.303  1.00  0.00    -0.003 C 
ATOM     14  C   UNL     1      -3.677  -0.328 -25.356  1.00  0.00     0.004 C 
ENDBRANCH  12  13
ENDBRANCH  11  12
ENDBRANCH  10  11
ENDBRANCH   9  10
ENDBRANCH   1   9
TORSDOF 10
ENDMDL
MODEL 5
REMARK VINA RESULT:    -3.640     17.348     18.667
REMARK INTER + INTRA:          -6.718
REMARK INTER:                  -5.758
REMARK INTRA:                  -0.961
REMARK UNBOUND:                -0.950
REMARK SMILES CCCCCCCCCCCC(=O)[O-]
REMARK SMILES IDX 7 1 8 2 9 3 10 4 11 5 12 6 13 7 14 8 6 9 5 10 4 11 3 12 2 13
REMARK SMILES IDX 1 14
REMARK H PARENT
REMARK Flexibility Score: inf
ROOT
ATOM      1  C   UNL     1      10.986  -2.881 -22.663  1.00  0.00     0.000 C 
ENDROOT
BRANCH   1   2
ATOM      2  C   UNL     1      12.474  -2.535 -22.465  1.00  0.00     0.000 C 
BRANCH   2   3
ATOM      3  C   UNL     1      13.466  -3.617 -22.927  1.00  0.00     0.000 C 
BRANCH   3   4
ATOM      4  C   UNL     1      13.096  -5.024 -22.426  1.00  0.00     0.006 C 
BRANCH   4   5
ATOM      5  C   UNL     1      13.812  -5.378 -21.115  1.00  0.00     0.053 C 
BRANCH   5   6
ATOM      6  C   UNL     1      12.846  -5.771 -20.040  1.00  0.00     0.041 C 
ATOM      7  O   UNL     1      11.780  -6.373 -20.335  1.00  0.00    -0.550 OA
ATOM      8  O   UNL     1      13.107  -5.445 -18.715  1.00  0.00    -0.550 OA
ENDBRANCH   5   6
ENDBRANCH   4   5
ENDBRANCH   3   4
ENDBRANCH   2   3
ENDBRANCH   1   2
BRANCH   1   9
ATOM      9  C   UNL     1      10.177  -2.817 -21.356  1.00  0.00     0.000 C 
BRANCH   9  10
ATOM     10  C   UNL     1      11.068  -2.615 -20.120  1.00  0.00    -0.000 C 
BRANCH  10  11
ATOM     11  C   UNL     1      10.922  -1.215 -19.506  1.00  0.00    -0.000 C 
BRANCH  11  12
ATOM     12  C   UNL     1       9.786  -0.437 -20.181  1.00  0.00    -0.000 C 
BRANCH  12  13
ATOM     13  C   UNL     1       9.831   1.047 -19.798  1.00  0.00    -0.003 C 
ATOM     14  C   UNL     1      10.368   1.235 -18.382  1.00  0.00     0.004 C 
ENDBRANCH  12  13
ENDBRANCH  11  12
ENDBRANCH  10  11
ENDBRANCH   9  10
ENDBRANCH   1   9
TORSDOF 10
ENDMDL
MODEL 6
REMARK VINA RESULT:    -3.618     17.908     19.082
REMARK INTER + INTRA:          -6.683
REMARK INTER:                  -5.813
REMARK INTRA:                  -0.871
REMARK UNBOUND:                -0.950
REMARK SMILES CCCCCCCCCCCC(=O)[O-]
REMARK SMILES IDX 7 1 8 2 9 3 10 4 11 5 12 6 13 7 14 8 6 9 5 10 4 11 3 12 2 13
REMARK SMILES IDX 1 14
REMARK H PARENT
REMARK Flexibility Score: inf
ROOT
ATOM      1  C   UNL     1      10.984  -2.924 -21.959  1.00  0.00     0.000 C 
ENDROOT
BRANCH   1   2
ATOM      2  C   UNL     1      10.650  -2.875 -20.457  1.00  0.00     0.000 C 
BRANCH   2   3
ATOM      3  C   UNL     1      11.086  -1.590 -19.730  1.00  0.00     0.000 C 
BRANCH   3   4
ATOM      4  C   UNL     1      10.006  -0.495 -19.747  1.00  0.00     0.006 C 
BRANCH   4   5
ATOM      5  C   UNL     1      10.499   0.815 -19.116  1.00  0.00     0.053 C 
BRANCH   5   6
ATOM      6  C   UNL     1       9.382   1.792 -18.911  1.00  0.00     0.041 C 
ATOM      7  O   UNL     1       9.104   2.632 -19.805  1.00  0.00    -0.550 OA
ATOM      8  O   UNL     1       8.669   1.793 -17.720  1.00  0.00    -0.550 OA
ENDBRANCH   5   6
ENDBRANCH   4   5
ENDBRANCH   3   4
ENDBRANCH   2   3
ENDBRANCH   1   2
BRANCH   1   9
ATOM      9  C   UNL     1      12.469  -2.649 -22.253  1.00  0.00     0.000 C 
BRANCH   9  10
ATOM     10  C   UNL     1      13.059  -3.632 -23.277  1.00  0.00    -0.000 C 
BRANCH  10  11
ATOM     11  C   UNL     1      13.013  -5.090 -22.795  1.00  0.00    -0.000 C 
BRANCH  11  12
ATOM     12  C   UNL     1      13.741  -5.246 -21.455  1.00  0.00    -0.000 C 
BRANCH  12  13
ATOM     13  C   UNL     1      12.833  -5.901 -20.408  1.00  0.00    -0.003 C 
ATOM     14  C   UNL     1      13.209  -5.459 -18.997  1.00  0.00     0.004 C 
ENDBRANCH  12  13
ENDBRANCH  11  12
ENDBRANCH  10  11
ENDBRANCH   9  10
ENDBRANCH   1   9
TORSDOF 10
ENDMDL
MODEL 7
REMARK VINA RESULT:    -3.606     13.064     14.938
REMARK INTER + INTRA:          -6.664
REMARK INTER:                  -5.654
REMARK INTRA:                  -1.010
REMARK UNBOUND:                -0.950
REMARK SMILES CCCCCCCCCCCC(=O)[O-]
REMARK SMILES IDX 7 1 8 2 9 3 10 4 11 5 12 6 13 7 14 8 6 9 5 10 4 11 3 12 2 13
REMARK SMILES IDX 1 14
REMARK H PARENT
REMARK Flexibility Score: inf
ROOT
ATOM      1  C   UNL     1      -2.568  -5.499 -26.495  1.00  0.00     0.000 C 
ENDROOT
BRANCH   1   2
ATOM      2  C   UNL     1      -1.885  -4.126 -26.631  1.00  0.00     0.000 C 
BRANCH   2   3
ATOM      3  C   UNL     1      -0.905  -3.994 -27.810  1.00  0.00     0.000 C 
BRANCH   3   4
ATOM      4  C   UNL     1      -0.854  -2.572 -28.393  1.00  0.00     0.006 C 
BRANCH   4   5
ATOM      5  C   UNL     1      -2.041  -1.714 -27.931  1.00  0.00     0.053 C 
BRANCH   5   6
ATOM      6  C   UNL     1      -1.715  -0.253 -27.951  1.00  0.00     0.041 C 
ATOM      7  O   UNL     1      -1.846   0.411 -29.012  1.00  0.00    -0.550 OA
ATOM      8  O   UNL     1      -1.239   0.371 -26.804  1.00  0.00    -0.550 OA
ENDBRANCH   5   6
ENDBRANCH   4   5
ENDBRANCH   3   4
ENDBRANCH   2   3
ENDBRANCH   1   2
BRANCH   1   9
ATOM      9  C   UNL     1      -4.100  -5.422 -26.614  1.00  0.00     0.000 C 
BRANCH   9  10
ATOM     10  C   UNL     1      -4.605  -3.981 -26.794  1.00  0.00    -0.000 C 
BRANCH  10  11
ATOM     11  C   UNL     1      -5.348  -3.454 -25.557  1.00  0.00    -0.000 C 
BRANCH  11  12
ATOM     12  C   UNL     1      -4.598  -2.272 -24.931  1.00  0.00    -0.000 C 
BRANCH  12  13
ATOM     13  C   UNL     1      -4.963  -0.956 -25.629  1.00  0.00    -0.003 C 
ATOM     14  C   UNL     1      -4.593   0.247 -24.767  1.00  0.00     0.004 C 
ENDBRANCH  12  13
ENDBRANCH  11  12
ENDBRANCH  10  11
ENDBRANCH   9  10
ENDBRANCH   1   9
TORSDOF 10
ENDMDL
MODEL 8
REMARK VINA RESULT:    -3.597      1.447      2.318
REMARK INTER + INTRA:          -6.650
REMARK INTER:                  -5.858
REMARK INTRA:                  -0.792
REMARK UNBOUND:                -0.950
REMARK SMILES CCCCCCCCCCCC(=O)[O-]
REMARK SMILES IDX 7 1 8 2 9 3 10 4 11 5 12 6 13 7 14 8 6 9 5 10 4 11 3 12 2 13
REMARK SMILES IDX 1 14
REMARK H PARENT
REMARK Flexibility Score: inf
ROOT
ATOM      1  C   UNL     1      -4.069  -8.714 -16.719  1.00  0.00     0.000 C 
ENDROOT
BRANCH   1   2
ATOM      2  C   UNL     1      -4.975  -9.830 -17.271  1.00  0.00     0.000 C 
BRANCH   2   3
ATOM      3  C   UNL     1      -5.255 -10.989 -16.298  1.00  0.00     0.000 C 
BRANCH   3   4
ATOM      4  C   UNL     1      -4.561 -12.298 -16.708  1.00  0.00     0.006 C 
BRANCH   4   5
ATOM      5  C   UNL     1      -4.930 -12.726 -18.137  1.00  0.00     0.053 C 
BRANCH   5   6
ATOM      6  C   UNL     1      -5.379 -14.153 -18.194  1.00  0.00     0.041 C 
ATOM      7  O   UNL     1      -6.090 -14.631 -17.272  1.00  0.00    -0.550 OA
ATOM      8  O   UNL     1      -4.988 -14.964 -19.252  1.00  0.00    -0.550 OA
ENDBRANCH   5   6
ENDBRANCH   4   5
ENDBRANCH   3   4
ENDBRANCH   2   3
ENDBRANCH   1   2
BRANCH   1   9
ATOM      9  C   UNL     1      -2.574  -8.972 -16.980  1.00  0.00     0.000 C 
BRANCH   9  10
ATOM     10  C   UNL     1      -1.753  -9.043 -15.682  1.00  0.00    -0.000 C 
BRANCH  10  11
ATOM     11  C   UNL     1      -1.612 -10.476 -15.148  1.00  0.00    -0.000 C 
BRANCH  11  12
ATOM     12  C   UNL     1      -0.457 -10.574 -14.143  1.00  0.00    -0.000 C 
BRANCH  12  13
ATOM     13  C   UNL     1       0.070  -9.183 -13.773  1.00  0.00    -0.003 C 
ATOM     14  C   UNL     1       1.554  -9.050 -14.103  1.00  0.00     0.004 C 
ENDBRANCH  12  13
ENDBRANCH  11  12
ENDBRANCH  10  11
ENDBRANCH   9  10
ENDBRANCH   1   9
TORSDOF 10
ENDMDL
MODEL 9
REMARK VINA RESULT:    -3.500     13.688     15.614
REMARK INTER + INTRA:          -6.497
REMARK INTER:                  -5.443
REMARK INTRA:                  -1.053
REMARK UNBOUND:                -0.950
REMARK SMILES CCCCCCCCCCCC(=O)[O-]
REMARK SMILES IDX 7 1 8 2 9 3 10 4 11 5 12 6 13 7 14 8 6 9 5 10 4 11 3 12 2 13
REMARK SMILES IDX 1 14
REMARK H PARENT
REMARK Flexibility Score: inf
ROOT
ATOM      1  C   UNL     1      -1.573  -4.473 -26.917  1.00  0.00     0.000 C 
ENDROOT
BRANCH   1   2
ATOM      2  C   UNL     1      -2.846  -4.111 -26.130  1.00  0.00     0.000 C 
BRANCH   2   3
ATOM      3  C   UNL     1      -4.161  -4.219 -26.924  1.00  0.00     0.000 C 
BRANCH   3   4
ATOM      4  C   UNL     1      -4.968  -2.910 -26.928  1.00  0.00     0.006 C 
BRANCH   4   5
ATOM      5  C   UNL     1      -4.974  -2.228 -25.553  1.00  0.00     0.053 C 
BRANCH   5   6
ATOM      6  C   UNL     1      -4.601  -0.781 -25.644  1.00  0.00     0.041 C 
ATOM      7  O   UNL     1      -3.489  -0.385 -25.208  1.00  0.00    -0.550 OA
ATOM      8  O   UNL     1      -5.494   0.135 -26.184  1.00  0.00    -0.550 OA
ENDBRANCH   5   6
ENDBRANCH   4   5
ENDBRANCH   3   4
ENDBRANCH   2   3
ENDBRANCH   1   2
BRANCH   1   9
ATOM      9  C   UNL     1      -1.236  -3.450 -28.015  1.00  0.00     0.000 C 
BRANCH   9  10
ATOM     10  C   UNL     1      -1.219  -2.005 -27.490  1.00  0.00    -0.000 C 
BRANCH  10  11
ATOM     11  C   UNL     1      -2.060  -1.051 -28.352  1.00  0.00    -0.000 C 
BRANCH  11  12
ATOM     12  C   UNL     1      -1.203   0.103 -28.886  1.00  0.00    -0.000 C 
BRANCH  12  13
ATOM     13  C   UNL     1      -0.330  -0.357 -30.060  1.00  0.00    -0.003 C 
ATOM     14  C   UNL     1      -0.820   0.237 -31.377  1.00  0.00     0.004 C 
ENDBRANCH  12  13
ENDBRANCH  11  12
ENDBRANCH  10  11
ENDBRANCH   9  10
ENDBRANCH   1   9
TORSDOF 10
ENDMDL
