MODEL 1
REMARK VINA RESULT:    -2.648      0.000      0.000
REMARK INTER + INTRA:          -3.875
REMARK INTER:                  -3.732
REMARK INTRA:                  -0.143
REMARK UNBOUND:                -0.143
REMARK SMILES CC1=CCC(=C(C)C)C(=O)CC(C)=CCC1
REMARK SMILES IDX 12 1 14 2 13 3 15 4 16 5 2 6 1 7 3 8 11 10 9 11 10 12 5 13
REMARK SMILES IDX 6 14 7 15 8 16 4 17
REMARK H PARENT
REMARK Flexibility Score: 60.00
ROOT
ATOM      1  C   UNL     1      61.979   7.049  31.531  1.00  0.00    -0.070 C 
ATOM      2  C   UNL     1      60.660   7.067  31.231  1.00  0.00    -0.027 C 
ATOM      3  C   UNL     1      62.576   8.318  32.090  1.00  0.00     0.039 C 
ENDROOT
BRANCH   2   4
ATOM      4  C   UNL     1      59.863   5.940  30.626  1.00  0.00     0.032 C 
BRANCH   4   5
ATOM      5  C   UNL     1      59.270   4.933  31.640  1.00  0.00     0.034 C 
BRANCH   5   6
ATOM      6  C   UNL     1      60.040   3.630  31.798  1.00  0.00    -0.077 C 
ATOM      7  C   UNL     1      59.762   2.530  30.803  1.00  0.00     0.039 C 
ATOM      8  C   UNL     1      61.005   3.395  32.730  1.00  0.00    -0.023 CG0
ATOM      9  G   UNL     1      61.415   4.222  33.940  1.00  0.00     0.000 G0
ENDBRANCH   5   6
ENDBRANCH   4   5
ENDBRANCH   2   4
BRANCH   1  10
ATOM     10  C   UNL     1      62.911   5.864  31.303  1.00  0.00     0.111 C 
BRANCH  10  11
ATOM     11  C   UNL     1      63.382   5.124  32.534  1.00  0.00     0.163 C 
ATOM     12  O   UNL     1      64.459   4.480  32.422  1.00  0.00    -0.294 OA
BRANCH  11  13
ATOM     13  C   UNL     1      62.632   5.111  33.844  1.00  0.00    -0.002 C 
ATOM     14  C   UNL     1      63.060   5.823  34.934  1.00  0.00    -0.069 C 
ATOM     15  C   UNL     1      62.368   5.702  36.274  1.00  0.00     0.039 C 
ATOM     16  C   UNL     1      64.219   6.791  34.860  1.00  0.00     0.039 C 
BRANCH  13  17
ATOM     17  C   UNL     1      61.400   4.226  33.956  1.00  0.00     0.066 CG0
ATOM     18  G   UNL     1      61.028   3.409  32.727  1.00  0.00     0.000 G0
ENDBRANCH  13  17
ENDBRANCH  11  13
ENDBRANCH  10  11
ENDBRANCH   1  10
TORSDOF 0
ENDMDL
MODEL 2
REMARK VINA RESULT:    -2.588      8.140      9.541
REMARK INTER + INTRA:          -3.789
REMARK INTER:                  -3.669
REMARK INTRA:                  -0.121
REMARK UNBOUND:                -0.143
REMARK SMILES CC1=CCC(=C(C)C)C(=O)CC(C)=CCC1
REMARK SMILES IDX 12 1 14 2 13 3 15 4 16 5 2 6 1 7 3 8 11 10 9 11 10 12 5 13
REMARK SMILES IDX 6 14 7 15 8 16 4 17
REMARK H PARENT
REMARK Flexibility Score: 60.00
ROOT
ATOM      1  C   UNL     1      71.268   5.471  31.535  1.00  0.00    -0.070 C 
ATOM      2  C   UNL     1      70.234   4.915  30.863  1.00  0.00    -0.027 C 
ATOM      3  C   UNL     1      71.355   6.979  31.540  1.00  0.00     0.039 C 
ENDROOT
BRANCH   2   4
ATOM      4  C   UNL     1      69.970   3.442  30.685  1.00  0.00     0.032 C 
BRANCH   4   5
ATOM      5  C   UNL     1      68.771   2.885  31.489  1.00  0.00     0.034 C 
BRANCH   5   6
ATOM      6  C   UNL     1      68.654   3.384  32.923  1.00  0.00    -0.077 C 
ATOM      7  C   UNL     1      67.550   4.366  33.232  1.00  0.00     0.039 C 
ATOM      8  C   UNL     1      69.427   2.970  33.964  1.00  0.00    -0.023 CG0
ATOM      9  G   UNL     1      70.688   2.119  33.965  1.00  0.00     0.000 G0
ENDBRANCH   5   6
ENDBRANCH   4   5
ENDBRANCH   2   4
BRANCH   1  10
ATOM     10  C   UNL     1      72.371   4.692  32.242  1.00  0.00     0.111 C 
BRANCH  10  11
ATOM     11  C   UNL     1      72.107   4.291  33.675  1.00  0.00     0.163 C 
ATOM     12  O   UNL     1      71.960   5.231  34.502  1.00  0.00    -0.294 OA
BRANCH  11  13
ATOM     13  C   UNL     1      72.031   2.859  34.145  1.00  0.00    -0.002 C 
ATOM     14  C   UNL     1      73.121   2.201  34.652  1.00  0.00    -0.069 C 
ATOM     15  C   UNL     1      73.059   0.730  35.004  1.00  0.00     0.039 C 
ATOM     16  C   UNL     1      74.433   2.903  34.922  1.00  0.00     0.039 C 
BRANCH  13  17
ATOM     17  C   UNL     1      70.710   2.121  33.987  1.00  0.00     0.066 CG0
ATOM     18  G   UNL     1      69.449   2.973  33.950  1.00  0.00     0.000 G0
ENDBRANCH  13  17
ENDBRANCH  11  13
ENDBRANCH  10  11
ENDBRANCH   1  10
TORSDOF 0
ENDMDL
MODEL 3
REMARK VINA RESULT:    -2.566     13.790     15.364
REMARK INTER + INTRA:          -3.758
REMARK INTER:                  -3.655
REMARK INTRA:                  -0.103
REMARK UNBOUND:                -0.143
REMARK SMILES CC1=CCC(=C(C)C)C(=O)CC(C)=CCC1
REMARK SMILES IDX 12 1 14 2 13 3 15 4 16 5 2 6 1 7 3 8 11 10 9 11 10 12 5 13
REMARK SMILES IDX 6 14 7 15 8 16 4 17
REMARK H PARENT
REMARK Flexibility Score: 60.00
ROOT
ATOM      1  C   UNL     1      62.131  14.086  43.309  1.00  0.00    -0.070 C 
ATOM      2  C   UNL     1      62.853  15.069  42.724  1.00  0.00    -0.027 C 
ATOM      3  C   UNL     1      60.745  14.444  43.791  1.00  0.00     0.039 C 
ENDROOT
BRANCH   2   4
ATOM      4  C   UNL     1      64.266  14.958  42.210  1.00  0.00     0.032 C 
BRANCH   4   5
ATOM      5  C   UNL     1      65.309  15.823  42.958  1.00  0.00     0.034 C 
BRANCH   5   6
ATOM      6  C   UNL     1      66.302  15.055  43.819  1.00  0.00    -0.077 C 
ATOM      7  C   UNL     1      67.690  14.845  43.264  1.00  0.00     0.039 C 
ATOM      8  C   UNL     1      66.059  14.592  45.076  1.00  0.00    -0.023 CG0
ATOM      9  G   UNL     1      64.752  14.515  45.852  1.00  0.00     0.000 G0
ENDBRANCH   5   6
ENDBRANCH   4   5
ENDBRANCH   2   4
BRANCH   1  10
ATOM     10  C   UNL     1      62.627  12.667  43.559  1.00  0.00     0.111 C 
BRANCH  10  11
ATOM     11  C   UNL     1      63.832  12.518  44.458  1.00  0.00     0.163 C 
ATOM     12  O   UNL     1      64.753  11.766  44.039  1.00  0.00    -0.294 OA
BRANCH  11  13
ATOM     13  C   UNL     1      63.969  13.196  45.799  1.00  0.00    -0.002 C 
ATOM     14  C   UNL     1      63.375  12.699  46.929  1.00  0.00    -0.069 C 
ATOM     15  C   UNL     1      63.419  13.455  48.239  1.00  0.00     0.039 C 
ATOM     16  C   UNL     1      62.674  11.359  46.949  1.00  0.00     0.039 C 
BRANCH  13  17
ATOM     17  C   UNL     1      64.743  14.503  45.866  1.00  0.00     0.066 CG0
ATOM     18  G   UNL     1      66.035  14.577  45.065  1.00  0.00     0.000 G0
ENDBRANCH  13  17
ENDBRANCH  11  13
ENDBRANCH  10  11
ENDBRANCH   1  10
TORSDOF 0
ENDMDL
MODEL 4
REMARK VINA RESULT:    -2.557     18.277     20.136
REMARK INTER + INTRA:          -3.745
REMARK INTER:                  -3.612
REMARK INTRA:                  -0.133
REMARK UNBOUND:                -0.143
REMARK SMILES CC1=CCC(=C(C)C)C(=O)CC(C)=CCC1
REMARK SMILES IDX 12 1 14 2 13 3 15 4 16 5 2 6 1 7 3 8 11 10 9 11 10 12 5 13
REMARK SMILES IDX 6 14 7 15 8 16 4 17
REMARK H PARENT
REMARK Flexibility Score: 60.00
ROOT
ATOM      1  C   UNL     1      75.883  11.739  46.516  1.00  0.00    -0.070 C 
ATOM      2  C   UNL     1      76.886  11.129  47.190  1.00  0.00    -0.027 C 
ATOM      3  C   UNL     1      76.252  12.469  45.246  1.00  0.00     0.039 C 
ENDROOT
BRANCH   2   4
ATOM      4  C   UNL     1      76.765  10.384  48.495  1.00  0.00     0.032 C 
BRANCH   4   5
ATOM      5  C   UNL     1      76.957   8.852  48.398  1.00  0.00     0.034 C 
BRANCH   5   6
ATOM      6  C   UNL     1      76.225   8.169  47.252  1.00  0.00    -0.077 C 
ATOM      7  C   UNL     1      77.061   7.592  46.135  1.00  0.00     0.039 C 
ATOM      8  C   UNL     1      74.878   7.982  47.179  1.00  0.00    -0.023 CG0
ATOM      9  G   UNL     1      73.766   8.551  48.048  1.00  0.00     0.000 G0
ENDBRANCH   5   6
ENDBRANCH   4   5
ENDBRANCH   2   4
BRANCH   1  10
ATOM     10  C   UNL     1      74.428  11.786  46.968  1.00  0.00     0.111 C 
BRANCH  10  11
ATOM     11  C   UNL     1      73.545  10.642  46.528  1.00  0.00     0.163 C 
ATOM     12  O   UNL     1      73.346  10.532  45.289  1.00  0.00    -0.294 OA
BRANCH  11  13
ATOM     13  C   UNL     1      72.897   9.667  47.481  1.00  0.00    -0.002 C 
ATOM     14  C   UNL     1      71.589   9.789  47.870  1.00  0.00    -0.069 C 
ATOM     15  C   UNL     1      70.991   8.877  48.919  1.00  0.00     0.039 C 
ATOM     16  C   UNL     1      70.658  10.811  47.257  1.00  0.00     0.039 C 
BRANCH  13  17
ATOM     17  C   UNL     1      73.757   8.556  48.063  1.00  0.00     0.066 CG0
ATOM     18  G   UNL     1      74.864   8.007  47.175  1.00  0.00     0.000 G0
ENDBRANCH  13  17
ENDBRANCH  11  13
ENDBRANCH  10  11
ENDBRANCH   1  10
TORSDOF 0
ENDMDL
MODEL 5
REMARK VINA RESULT:    -2.527     14.983     16.820
REMARK INTER + INTRA:          -3.703
REMARK INTER:                  -3.545
REMARK INTRA:                  -0.158
REMARK UNBOUND:                -0.143
REMARK SMILES CC1=CCC(=C(C)C)C(=O)CC(C)=CCC1
REMARK SMILES IDX 12 1 14 2 13 3 15 4 16 5 2 6 1 7 3 8 11 10 9 11 10 12 5 13
REMARK SMILES IDX 6 14 7 15 8 16 4 17
REMARK H PARENT
REMARK Flexibility Score: 60.00
ROOT
ATOM      1  C   UNL     1      64.059  15.103  44.619  1.00  0.00    -0.070 C 
ATOM      2  C   UNL     1      62.913  14.873  45.302  1.00  0.00    -0.027 C 
ATOM      3  C   UNL     1      63.952  15.221  43.117  1.00  0.00     0.039 C 
ENDROOT
BRANCH   2   4
ATOM      4  C   UNL     1      62.783  14.677  46.791  1.00  0.00     0.032 C 
BRANCH   4   5
ATOM      5  C   UNL     1      63.065  13.241  47.294  1.00  0.00     0.034 C 
BRANCH   5   6
ATOM      6  C   UNL     1      64.092  13.126  48.411  1.00  0.00    -0.077 C 
ATOM      7  C   UNL     1      63.674  13.568  49.792  1.00  0.00     0.039 C 
ATOM      8  C   UNL     1      65.341  12.599  48.279  1.00  0.00    -0.023 CG0
ATOM      9  G   UNL     1      66.105  12.204  47.024  1.00  0.00     0.000 G0
ENDBRANCH   5   6
ENDBRANCH   4   5
ENDBRANCH   2   4
BRANCH   1  10
ATOM     10  C   UNL     1      65.445  15.204  45.244  1.00  0.00     0.111 C 
BRANCH  10  11
ATOM     11  C   UNL     1      66.330  13.985  45.132  1.00  0.00     0.163 C 
ATOM     12  O   UNL     1      66.542  13.552  43.967  1.00  0.00    -0.294 OA
BRANCH  11  13
ATOM     13  C   UNL     1      66.938  13.276  46.318  1.00  0.00    -0.002 C 
ATOM     14  C   UNL     1      68.214  13.536  46.744  1.00  0.00    -0.069 C 
ATOM     15  C   UNL     1      68.851  12.731  47.856  1.00  0.00     0.039 C 
ATOM     16  C   UNL     1      69.047  14.654  46.161  1.00  0.00     0.039 C 
BRANCH  13  17
ATOM     17  C   UNL     1      66.114  12.201  47.010  1.00  0.00     0.066 CG0
ATOM     18  G   UNL     1      65.359  12.617  48.264  1.00  0.00     0.000 G0
ENDBRANCH  13  17
ENDBRANCH  11  13
ENDBRANCH  10  11
ENDBRANCH   1  10
TORSDOF 0
ENDMDL
MODEL 6
REMARK VINA RESULT:    -2.396     14.776     16.815
REMARK INTER + INTRA:          -3.519
REMARK INTER:                  -3.525
REMARK INTRA:                   0.006
REMARK UNBOUND:                -0.143
REMARK SMILES CC1=CCC(=C(C)C)C(=O)CC(C)=CCC1
REMARK SMILES IDX 12 1 14 2 13 3 15 4 16 5 2 6 1 7 3 8 11 10 9 11 10 12 5 13
REMARK SMILES IDX 6 14 7 15 8 16 4 17
REMARK H PARENT
REMARK Flexibility Score: 60.00
ROOT
ATOM      1  C   UNL     1      64.021  14.620  43.522  1.00  0.00    -0.070 C 
ATOM      2  C   UNL     1      65.029  15.466  43.205  1.00  0.00    -0.027 C 
ATOM      3  C   UNL     1      62.723  14.786  42.770  1.00  0.00     0.039 C 
ENDROOT
BRANCH   2   4
ATOM      4  C   UNL     1      66.391  15.518  43.849  1.00  0.00     0.032 C 
BRANCH   4   5
ATOM      5  C   UNL     1      66.395  15.869  45.356  1.00  0.00     0.034 C 
BRANCH   5   6
ATOM      6  C   UNL     1      67.109  14.875  46.261  1.00  0.00    -0.077 C 
ATOM      7  C   UNL     1      68.534  14.515  45.914  1.00  0.00     0.039 C 
ATOM      8  C   UNL     1      66.588  14.327  47.394  1.00  0.00    -0.023 CG0
ATOM      9  G   UNL     1      65.166  14.370  47.933  1.00  0.00     0.000 G0
ENDBRANCH   5   6
ENDBRANCH   4   5
ENDBRANCH   2   4
BRANCH   1  10
ATOM     10  C   UNL     1      64.085  13.553  44.608  1.00  0.00     0.111 C 
BRANCH  10  11
ATOM     11  C   UNL     1      63.528  13.928  45.961  1.00  0.00     0.163 C 
ATOM     12  O   UNL     1      62.509  14.670  45.962  1.00  0.00    -0.294 OA
BRANCH  11  13
ATOM     13  C   UNL     1      64.129  13.479  47.271  1.00  0.00    -0.002 C 
ATOM     14  C   UNL     1      63.741  12.321  47.891  1.00  0.00    -0.069 C 
ATOM     15  C   UNL     1      64.263  11.948  49.262  1.00  0.00     0.039 C 
ATOM     16  C   UNL     1      62.801  11.333  47.238  1.00  0.00     0.039 C 
BRANCH  13  17
ATOM     17  C   UNL     1      65.153  14.386  47.938  1.00  0.00     0.066 CG0
ATOM     18  G   UNL     1      66.578  14.316  47.409  1.00  0.00     0.000 G0
ENDBRANCH  13  17
ENDBRANCH  11  13
ENDBRANCH  10  11
ENDBRANCH   1  10
TORSDOF 0
ENDMDL
MODEL 7
REMARK VINA RESULT:    -2.355      7.162      8.691
REMARK INTER + INTRA:          -3.461
REMARK INTER:                  -3.452
REMARK INTRA:                  -0.009
REMARK UNBOUND:                -0.143
REMARK SMILES CC1=CCC(=C(C)C)C(=O)CC(C)=CCC1
REMARK SMILES IDX 12 1 14 2 13 3 15 4 16 5 2 6 1 7 3 8 11 10 9 11 10 12 5 13
REMARK SMILES IDX 6 14 7 15 8 16 4 17
REMARK H PARENT
REMARK Flexibility Score: 60.00
ROOT
ATOM      1  C   UNL     1      65.642   1.609  34.199  1.00  0.00    -0.070 C 
ATOM      2  C   UNL     1      65.693   2.881  33.742  1.00  0.00    -0.027 C 
ATOM      3  C   UNL     1      64.590   1.291  35.235  1.00  0.00     0.039 C 
ENDROOT
BRANCH   2   4
ATOM      4  C   UNL     1      66.680   3.437  32.748  1.00  0.00     0.032 C 
BRANCH   4   5
ATOM      5  C   UNL     1      68.126   3.600  33.275  1.00  0.00     0.034 C 
BRANCH   5   6
ATOM      6  C   UNL     1      69.194   2.829  32.513  1.00  0.00    -0.077 C 
ATOM      7  C   UNL     1      69.423   3.199  31.067  1.00  0.00     0.039 C 
ATOM      8  C   UNL     1      70.003   1.872  33.045  1.00  0.00    -0.023 CG0
ATOM      9  G   UNL     1      69.937   1.181  34.399  1.00  0.00     0.000 G0
ENDBRANCH   5   6
ENDBRANCH   4   5
ENDBRANCH   2   4
BRANCH   1  10
ATOM     10  C   UNL     1      66.593   0.492  33.785  1.00  0.00     0.111 C 
BRANCH  10  11
ATOM     11  C   UNL     1      67.632   0.074  34.799  1.00  0.00     0.163 C 
ATOM     12  O   UNL     1      67.217  -0.136  35.971  1.00  0.00    -0.294 OA
BRANCH  11  13
ATOM     13  C   UNL     1      69.099  -0.083  34.483  1.00  0.00    -0.002 C 
ATOM     14  C   UNL     1      69.682  -1.313  34.325  1.00  0.00    -0.069 C 
ATOM     15  C   UNL     1      71.176  -1.458  34.131  1.00  0.00     0.039 C 
ATOM     16  C   UNL     1      68.873  -2.591  34.301  1.00  0.00     0.039 C 
BRANCH  13  17
ATOM     17  C   UNL     1      69.953   1.173  34.401  1.00  0.00     0.066 CG0
ATOM     18  G   UNL     1      70.017   1.871  33.050  1.00  0.00     0.000 G0
ENDBRANCH  13  17
ENDBRANCH  11  13
ENDBRANCH  10  11
ENDBRANCH   1  10
TORSDOF 0
ENDMDL
MODEL 8
REMARK VINA RESULT:    -2.295     15.630     17.229
REMARK INTER + INTRA:          -3.377
REMARK INTER:                  -3.405
REMARK INTRA:                   0.028
REMARK UNBOUND:                -0.143
REMARK SMILES CC1=CCC(=C(C)C)C(=O)CC(C)=CCC1
REMARK SMILES IDX 12 1 14 2 13 3 15 4 16 5 2 6 1 7 3 8 11 10 9 11 10 12 5 13
REMARK SMILES IDX 6 14 7 15 8 16 4 17
REMARK H PARENT
REMARK Flexibility Score: 60.00
ROOT
ATOM      1  C   UNL     1      68.634  13.433  47.293  1.00  0.00    -0.070 C 
ATOM      2  C   UNL     1      69.221  14.481  46.670  1.00  0.00    -0.027 C 
ATOM      3  C   UNL     1      69.451  12.171  47.434  1.00  0.00     0.039 C 
ENDROOT
BRANCH   2   4
ATOM      4  C   UNL     1      68.589  15.818  46.377  1.00  0.00     0.032 C 
BRANCH   4   5
ATOM      5  C   UNL     1      68.345  16.117  44.879  1.00  0.00     0.034 C 
BRANCH   5   6
ATOM      6  C   UNL     1      67.790  14.960  44.060  1.00  0.00    -0.077 C 
ATOM      7  C   UNL     1      68.699  14.336  43.030  1.00  0.00     0.039 C 
ATOM      8  C   UNL     1      66.559  14.401  44.222  1.00  0.00    -0.023 CG0
ATOM      9  G   UNL     1      65.375  14.873  45.055  1.00  0.00     0.000 G0
ENDBRANCH   5   6
ENDBRANCH   4   5
ENDBRANCH   2   4
BRANCH   1  10
ATOM     10  C   UNL     1      67.203  13.417  47.817  1.00  0.00     0.111 C 
BRANCH  10  11
ATOM     11  C   UNL     1      66.117  13.099  46.815  1.00  0.00     0.163 C 
ATOM     12  O   UNL     1      66.107  11.927  46.354  1.00  0.00    -0.294 OA
BRANCH  11  13
ATOM     13  C   UNL     1      65.088  14.099  46.346  1.00  0.00    -0.002 C 
ATOM     14  C   UNL     1      63.906  14.293  47.013  1.00  0.00    -0.069 C 
ATOM     15  C   UNL     1      62.833  15.207  46.463  1.00  0.00     0.039 C 
ATOM     16  C   UNL     1      63.615  13.639  48.344  1.00  0.00     0.039 C 
BRANCH  13  17
ATOM     17  C   UNL     1      65.363  14.861  45.059  1.00  0.00     0.066 CG0
ATOM     18  G   UNL     1      66.559  14.406  44.235  1.00  0.00     0.000 G0
ENDBRANCH  13  17
ENDBRANCH  11  13
ENDBRANCH  10  11
ENDBRANCH   1  10
TORSDOF 0
ENDMDL
MODEL 9
REMARK VINA RESULT:    -2.277      8.938     10.846
REMARK INTER + INTRA:          -3.352
REMARK INTER:                  -3.289
REMARK INTRA:                  -0.063
REMARK UNBOUND:                -0.143
REMARK SMILES CC1=CCC(=C(C)C)C(=O)CC(C)=CCC1
REMARK SMILES IDX 12 1 14 2 13 3 15 4 16 5 2 6 1 7 3 8 11 10 9 11 10 12 5 13
REMARK SMILES IDX 6 14 7 15 8 16 4 17
REMARK H PARENT
REMARK Flexibility Score: 60.00
ROOT
ATOM      1  C   UNL     1      68.988  -0.600  37.490  1.00  0.00    -0.070 C 
ATOM      2  C   UNL     1      70.247  -0.123  37.631  1.00  0.00    -0.027 C 
ATOM      3  C   UNL     1      67.907   0.058  38.313  1.00  0.00     0.039 C 
ENDROOT
BRANCH   2   4
ATOM      4  C   UNL     1      71.486  -0.648  36.951  1.00  0.00     0.032 C 
BRANCH   4   5
ATOM      5  C   UNL     1      72.144   0.323  35.941  1.00  0.00     0.034 C 
BRANCH   5   6
ATOM      6  C   UNL     1      72.006  -0.061  34.475  1.00  0.00    -0.077 C 
ATOM      7  C   UNL     1      73.217  -0.645  33.789  1.00  0.00     0.039 C 
ATOM      8  C   UNL     1      70.859   0.023  33.745  1.00  0.00    -0.023 CG0
ATOM      9  G   UNL     1      69.531   0.684  34.087  1.00  0.00     0.000 G0
ENDBRANCH   5   6
ENDBRANCH   4   5
ENDBRANCH   2   4
BRANCH   1  10
ATOM     10  C   UNL     1      68.593  -1.776  36.605  1.00  0.00     0.111 C 
BRANCH  10  11
ATOM     11  C   UNL     1      68.674  -1.558  35.112  1.00  0.00     0.163 C 
ATOM     12  O   UNL     1      69.036  -2.548  34.420  1.00  0.00    -0.294 OA
BRANCH  11  13
ATOM     13  C   UNL     1      68.365  -0.244  34.437  1.00  0.00    -0.002 C 
ATOM     14  C   UNL     1      67.090   0.107  34.076  1.00  0.00    -0.069 C 
ATOM     15  C   UNL     1      66.814   1.370  33.291  1.00  0.00     0.039 C 
ATOM     16  C   UNL     1      65.886  -0.721  34.466  1.00  0.00     0.039 C 
BRANCH  13  17
ATOM     17  C   UNL     1      69.526   0.679  34.100  1.00  0.00     0.066 CG0
ATOM     18  G   UNL     1      70.849   0.016  33.746  1.00  0.00     0.000 G0
ENDBRANCH  13  17
ENDBRANCH  11  13
ENDBRANCH  10  11
ENDBRANCH   1  10
TORSDOF 0
ENDMDL
