MODEL 1
REMARK VINA RESULT:    -0.418      0.000      0.000
REMARK INTER + INTRA:          -0.455
REMARK INTER:                  -0.455
REMARK INTRA:                   0.000
REMARK UNBOUND:                 0.000
REMARK SMILES Cc1cc(O)c2c(c1)C(=O)c1cc(O)cc(O)c1C2=O
REMARK SMILES IDX 1 1 2 2 8 3 7 4 6 5 4 6 3 7 19 8 20 9 18 10 11 11 9 12 10 13
REMARK SMILES IDX 12 14 13 15 15 16 16 17 5 18 17 20 14 22
REMARK H PARENT 5 19 17 21 14 23
REMARK Flexibility Score: inf
ROOT
ATOM      1  C   UNL     1     -48.676  10.054 -15.420  1.00  0.00     0.044 C 
ATOM      2  C   UNL     1     -50.004   9.715 -16.032  1.00  0.00    -0.047 A 
ATOM      3  C   UNL     1     -51.078   9.337 -15.218  1.00  0.00     0.016 A 
ATOM      4  C   UNL     1     -52.312   8.975 -15.783  1.00  0.00     0.038 A 
ATOM      5  C   UNL     1     -52.467   8.964 -17.188  1.00  0.00     0.076 A 
ATOM      6  C   UNL     1     -51.388   9.392 -18.006  1.00  0.00     0.127 A 
ATOM      7  C   UNL     1     -50.164   9.729 -17.420  1.00  0.00     0.050 A 
ATOM      8  C   UNL     1     -53.736   8.434 -17.751  1.00  0.00     0.201 C 
ATOM      9  O   UNL     1     -53.737   7.875 -18.880  1.00  0.00    -0.288 OA
ATOM     10  C   UNL     1     -54.958   8.395 -16.906  1.00  0.00     0.076 A 
ATOM     11  C   UNL     1     -54.799   8.405 -15.501  1.00  0.00     0.041 A 
ATOM     12  C   UNL     1     -53.453   8.606 -14.912  1.00  0.00     0.194 C 
ATOM     13  O   UNL     1     -53.286   8.489 -13.667  1.00  0.00    -0.289 OA
ATOM     14  C   UNL     1     -55.917   8.231 -14.670  1.00  0.00     0.059 A 
ATOM     15  C   UNL     1     -57.189   8.063 -15.218  1.00  0.00     0.120 A 
ATOM     16  C   UNL     1     -57.357   8.092 -16.605  1.00  0.00     0.093 A 
ATOM     17  C   UNL     1     -56.262   8.284 -17.454  1.00  0.00     0.131 A 
ENDROOT
BRANCH   6  18
ATOM     18  O   UNL     1     -51.499   9.528 -19.391  1.00  0.00    -0.507 OA
ATOM     19  H   UNL     1     -51.650   8.751 -20.019  1.00  0.00     0.293 HD
ENDBRANCH   6  18
BRANCH  17  20
ATOM     20  O   UNL     1     -56.519   8.393 -18.822  1.00  0.00    -0.507 OA
ATOM     21  H   UNL     1     -55.836   8.185 -19.537  1.00  0.00     0.293 HD
ENDBRANCH  17  20
BRANCH  15  22
ATOM     22  O   UNL     1     -58.281   7.878 -14.374  1.00  0.00    -0.508 OA
ATOM     23  H   UNL     1     -59.159   7.502 -14.716  1.00  0.00     0.293 HD
ENDBRANCH  15  22
TORSDOF 3
ENDMDL
MODEL 2
REMARK VINA RESULT:     1.246      2.077      5.644
REMARK INTER + INTRA:           1.355
REMARK INTER:                   1.355
REMARK INTRA:                   0.000
REMARK UNBOUND:                 0.000
REMARK SMILES Cc1cc(O)c2c(c1)C(=O)c1cc(O)cc(O)c1C2=O
REMARK SMILES IDX 1 1 2 2 8 3 7 4 6 5 4 6 3 7 19 8 20 9 18 10 11 11 9 12 10 13
REMARK SMILES IDX 12 14 13 15 15 16 16 17 5 18 17 20 14 22
REMARK H PARENT 5 19 17 21 14 23
REMARK Flexibility Score: inf
ROOT
ATOM      1  C   UNL     1     -56.955   7.876 -17.110  1.00  0.00     0.044 C 
ATOM      2  C   UNL     1     -55.515   8.300 -17.075  1.00  0.00    -0.047 A 
ATOM      3  C   UNL     1     -55.040   9.092 -16.023  1.00  0.00     0.016 A 
ATOM      4  C   UNL     1     -53.705   9.531 -16.004  1.00  0.00     0.038 A 
ATOM      5  C   UNL     1     -52.838   9.194 -17.067  1.00  0.00     0.076 A 
ATOM      6  C   UNL     1     -53.313   8.353 -18.108  1.00  0.00     0.127 A 
ATOM      7  C   UNL     1     -54.651   7.945 -18.115  1.00  0.00     0.050 A 
ATOM      8  C   UNL     1     -51.480   9.799 -17.085  1.00  0.00     0.201 C 
ATOM      9  O   UNL     1     -50.907  10.022 -18.184  1.00  0.00    -0.288 OA
ATOM     10  C   UNL     1     -50.884  10.310 -15.823  1.00  0.00     0.076 A 
ATOM     11  C   UNL     1     -51.756  10.646 -14.762  1.00  0.00     0.041 A 
ATOM     12  C   UNL     1     -53.203  10.343 -14.870  1.00  0.00     0.194 C 
ATOM     13  O   UNL     1     -54.001  10.754 -13.984  1.00  0.00    -0.289 OA
ATOM     14  C   UNL     1     -51.245  11.260 -13.606  1.00  0.00     0.059 A 
ATOM     15  C   UNL     1     -49.881  11.529 -13.489  1.00  0.00     0.120 A 
ATOM     16  C   UNL     1     -49.010  11.163 -14.520  1.00  0.00     0.093 A 
ATOM     17  C   UNL     1     -49.491  10.532 -15.672  1.00  0.00     0.131 A 
ENDROOT
BRANCH   6  18
ATOM     18  O   UNL     1     -52.488   7.875 -19.128  1.00  0.00    -0.507 OA
ATOM     19  H   UNL     1     -52.662   8.038 -20.110  1.00  0.00     0.293 HD
ENDBRANCH   6  18
BRANCH  17  20
ATOM     20  O   UNL     1     -48.552  10.113 -16.616  1.00  0.00    -0.507 OA
ATOM     21  H   UNL     1     -47.780   9.497 -16.401  1.00  0.00     0.293 HD
ENDBRANCH  17  20
BRANCH  15  22
ATOM     22  O   UNL     1     -49.400  12.150 -12.340  1.00  0.00    -0.508 OA
ATOM     23  H   UNL     1     -48.748  11.685 -11.718  1.00  0.00     0.293 HD
ENDBRANCH  15  22
TORSDOF 3
ENDMDL
MODEL 3
REMARK VINA RESULT:     1.447      1.355      5.503
REMARK INTER + INTRA:           1.573
REMARK INTER:                   1.573
REMARK INTRA:                   0.000
REMARK UNBOUND:                 0.000
REMARK SMILES Cc1cc(O)c2c(c1)C(=O)c1cc(O)cc(O)c1C2=O
REMARK SMILES IDX 1 1 2 2 8 3 7 4 6 5 4 6 3 7 19 8 20 9 18 10 11 11 9 12 10 13
REMARK SMILES IDX 12 14 13 15 15 16 16 17 5 18 17 20 14 22
REMARK H PARENT 5 19 17 21 14 23
REMARK Flexibility Score: inf
ROOT
ATOM      1  C   UNL     1     -57.910   7.876 -14.000  1.00  0.00     0.044 C 
ATOM      2  C   UNL     1     -56.788   8.201 -14.944  1.00  0.00    -0.047 A 
ATOM      3  C   UNL     1     -55.499   8.434 -14.451  1.00  0.00     0.016 A 
ATOM      4  C   UNL     1     -54.452   8.781 -15.322  1.00  0.00     0.038 A 
ATOM      5  C   UNL     1     -54.705   8.924 -16.704  1.00  0.00     0.076 A 
ATOM      6  C   UNL     1     -56.003   8.642 -17.203  1.00  0.00     0.127 A 
ATOM      7  C   UNL     1     -57.033   8.317 -16.315  1.00  0.00     0.050 A 
ATOM      8  C   UNL     1     -53.609   9.436 -17.569  1.00  0.00     0.201 C 
ATOM      9  O   UNL     1     -53.885  10.105 -18.600  1.00  0.00    -0.288 OA
ATOM     10  C   UNL     1     -52.198   9.322 -17.117  1.00  0.00     0.076 A 
ATOM     11  C   UNL     1     -51.950   9.179 -15.733  1.00  0.00     0.041 A 
ATOM     12  C   UNL     1     -53.083   8.995 -14.794  1.00  0.00     0.194 C 
ATOM     13  O   UNL     1     -52.878   8.996 -13.550  1.00  0.00    -0.289 OA
ATOM     14  C   UNL     1     -50.630   9.206 -15.253  1.00  0.00     0.059 A 
ATOM     15  C   UNL     1     -49.559   9.357 -16.133  1.00  0.00     0.120 A 
ATOM     16  C   UNL     1     -49.796   9.459 -17.506  1.00  0.00     0.093 A 
ATOM     17  C   UNL     1     -51.100   9.414 -18.011  1.00  0.00     0.131 A 
ENDROOT
BRANCH   6  18
ATOM     18  O   UNL     1     -56.304   8.640 -18.567  1.00  0.00    -0.507 OA
ATOM     19  H   UNL     1     -55.615   8.489 -19.292  1.00  0.00     0.293 HD
ENDBRANCH   6  18
BRANCH  17  20
ATOM     20  O   UNL     1     -51.254   9.429 -19.399  1.00  0.00    -0.507 OA
ATOM     21  H   UNL     1     -50.905  10.168 -19.992  1.00  0.00     0.293 HD
ENDBRANCH  17  20
BRANCH  15  22
ATOM     22  O   UNL     1     -48.259   9.394 -15.633  1.00  0.00    -0.508 OA
ATOM     23  H   UNL     1     -47.988   8.852 -14.819  1.00  0.00     0.293 HD
ENDBRANCH  15  22
TORSDOF 3
ENDMDL
MODEL 4
REMARK VINA RESULT:     2.086      1.514      3.440
REMARK INTER + INTRA:           2.269
REMARK INTER:                   2.269
REMARK INTRA:                   0.000
REMARK UNBOUND:                 0.000
REMARK SMILES Cc1cc(O)c2c(c1)C(=O)c1cc(O)cc(O)c1C2=O
REMARK SMILES IDX 1 1 2 2 8 3 7 4 6 5 4 6 3 7 19 8 20 9 18 10 11 11 9 12 10 13
REMARK SMILES IDX 12 14 13 15 15 16 16 17 5 18 17 20 14 22
REMARK H PARENT 5 19 17 21 14 23
REMARK Flexibility Score: inf
ROOT
ATOM      1  C   UNL     1     -47.318   9.128 -16.346  1.00  0.00     0.044 C 
ATOM      2  C   UNL     1     -48.764   9.302 -15.983  1.00  0.00    -0.047 A 
ATOM      3  C   UNL     1     -49.765   8.989 -16.910  1.00  0.00     0.016 A 
ATOM      4  C   UNL     1     -51.120   9.190 -16.596  1.00  0.00     0.038 A 
ATOM      5  C   UNL     1     -51.478   9.737 -15.343  1.00  0.00     0.076 A 
ATOM      6  C   UNL     1     -50.462  10.009 -14.391  1.00  0.00     0.127 A 
ATOM      7  C   UNL     1     -49.119   9.819 -14.734  1.00  0.00     0.050 A 
ATOM      8  C   UNL     1     -52.907  10.071 -15.106  1.00  0.00     0.201 C 
ATOM      9  O   UNL     1     -53.209  11.023 -14.338  1.00  0.00    -0.288 OA
ATOM     10  C   UNL     1     -53.963   9.412 -15.917  1.00  0.00     0.076 A 
ATOM     11  C   UNL     1     -53.600   8.866 -17.169  1.00  0.00     0.041 A 
ATOM     12  C   UNL     1     -52.174   8.827 -17.572  1.00  0.00     0.194 C 
ATOM     13  O   UNL     1     -51.858   8.459 -18.737  1.00  0.00    -0.289 OA
ATOM     14  C   UNL     1     -54.592   8.358 -18.024  1.00  0.00     0.059 A 
ATOM     15  C   UNL     1     -55.934   8.373 -17.641  1.00  0.00     0.120 A 
ATOM     16  C   UNL     1     -56.293   8.875 -16.388  1.00  0.00     0.093 A 
ATOM     17  C   UNL     1     -55.322   9.368 -15.510  1.00  0.00     0.131 A 
ENDROOT
BRANCH   6  18
ATOM     18  O   UNL     1     -50.740  10.433 -13.090  1.00  0.00    -0.507 OA
ATOM     19  H   UNL     1     -51.389   9.962 -12.474  1.00  0.00     0.293 HD
ENDBRANCH   6  18
BRANCH  17  20
ATOM     20  O   UNL     1     -55.745   9.767 -14.241  1.00  0.00    -0.507 OA
ATOM     21  H   UNL     1     -56.351  10.559 -14.077  1.00  0.00     0.293 HD
ENDBRANCH  17  20
BRANCH  15  22
ATOM     22  O   UNL     1     -56.901   7.875 -18.511  1.00  0.00    -0.508 OA
ATOM     23  H   UNL     1     -57.517   8.493 -19.028  1.00  0.00     0.293 HD
ENDBRANCH  15  22
TORSDOF 3
ENDMDL
MODEL 5
REMARK VINA RESULT:     2.108      2.365      5.583
REMARK INTER + INTRA:           2.293
REMARK INTER:                   2.293
REMARK INTRA:                   0.000
REMARK UNBOUND:                 0.000
REMARK SMILES Cc1cc(O)c2c(c1)C(=O)c1cc(O)cc(O)c1C2=O
REMARK SMILES IDX 1 1 2 2 8 3 7 4 6 5 4 6 3 7 19 8 20 9 18 10 11 11 9 12 10 13
REMARK SMILES IDX 12 14 13 15 15 16 16 17 5 18 17 20 14 22
REMARK H PARENT 5 19 17 21 14 23
REMARK Flexibility Score: inf
ROOT
ATOM      1  C   UNL     1     -51.882   7.875 -21.106  1.00  0.00     0.044 C 
ATOM      2  C   UNL     1     -52.109   8.237 -19.666  1.00  0.00    -0.047 A 
ATOM      3  C   UNL     1     -51.111   8.898 -18.941  1.00  0.00     0.016 A 
ATOM      4  C   UNL     1     -51.296   9.202 -17.582  1.00  0.00     0.038 A 
ATOM      5  C   UNL     1     -52.488   8.814 -16.930  1.00  0.00     0.076 A 
ATOM      6  C   UNL     1     -53.515   8.185 -17.682  1.00  0.00     0.127 A 
ATOM      7  C   UNL     1     -53.299   7.875 -19.028  1.00  0.00     0.050 A 
ATOM      8  C   UNL     1     -52.584   9.021 -15.461  1.00  0.00     0.201 C 
ATOM      9  O   UNL     1     -53.283   8.239 -14.762  1.00  0.00    -0.288 OA
ATOM     10  C   UNL     1     -51.712  10.025 -14.799  1.00  0.00     0.076 A 
ATOM     11  C   UNL     1     -50.520  10.410 -15.454  1.00  0.00     0.041 A 
ATOM     12  C   UNL     1     -50.246   9.930 -16.830  1.00  0.00     0.194 C 
ATOM     13  O   UNL     1     -49.130  10.165 -17.369  1.00  0.00    -0.289 OA
ATOM     14  C   UNL     1     -49.603  11.250 -14.801  1.00  0.00     0.059 A 
ATOM     15  C   UNL     1     -49.865  11.721 -13.515  1.00  0.00     0.120 A 
ATOM     16  C   UNL     1     -51.060  11.376 -12.878  1.00  0.00     0.093 A 
ATOM     17  C   UNL     1     -51.999  10.557 -13.515  1.00  0.00     0.131 A 
ENDROOT
BRANCH   6  18
ATOM     18  O   UNL     1     -54.767   7.882 -17.143  1.00  0.00    -0.507 OA
ATOM     19  H   UNL     1     -55.126   8.296 -16.294  1.00  0.00     0.293 HD
ENDBRANCH   6  18
BRANCH  17  20
ATOM     20  O   UNL     1     -53.209  10.331 -12.855  1.00  0.00    -0.507 OA
ATOM     21  H   UNL     1     -53.274   9.915 -11.937  1.00  0.00     0.293 HD
ENDBRANCH  17  20
BRANCH  15  22
ATOM     22  O   UNL     1     -48.935  12.542 -12.882  1.00  0.00    -0.508 OA
ATOM     23  H   UNL     1     -48.627  13.415 -13.298  1.00  0.00     0.293 HD
ENDBRANCH  15  22
TORSDOF 3
ENDMDL
