MODEL 1
REMARK VINA RESULT:    -4.902      0.000      0.000
REMARK INTER + INTRA:          -9.290
REMARK INTER:                  -8.628
REMARK INTRA:                  -0.663
REMARK UNBOUND:                -0.663
REMARK SMILES CCCCCCC=CCCCCCCCC(=O)[O-]
REMARK SMILES IDX 10 1 11 2 12 3 13 4 14 5 15 6 16 7 17 8 18 9 9 10 8 11 7 12
REMARK SMILES IDX 6 13 5 14 4 15 3 16 2 17 1 18
REMARK H PARENT
REMARK Flexibility Score: inf
ROOT
ATOM      1  C   UNL     1      21.456  31.939  29.747  1.00  0.00     0.004 C 
ENDROOT
BRANCH   1   2
ATOM      2  C   UNL     1      21.041  32.396  28.334  1.00  0.00     0.000 C 
BRANCH   2   3
ATOM      3  C   UNL     1      21.889  33.536  27.741  1.00  0.00     0.000 C 
BRANCH   3   4
ATOM      4  C   UNL     1      22.080  33.412  26.223  1.00  0.00     0.000 C 
BRANCH   4   5
ATOM      5  C   UNL     1      21.197  32.295  25.648  1.00  0.00     0.006 C 
BRANCH   5   6
ATOM      6  C   UNL     1      21.484  32.030  24.165  1.00  0.00     0.053 C 
BRANCH   6   7
ATOM      7  C   UNL     1      21.431  30.568  23.842  1.00  0.00     0.041 C 
ATOM      8  O   UNL     1      21.617  29.712  24.746  1.00  0.00    -0.550 OA
ATOM      9  O   UNL     1      21.143  30.153  22.548  1.00  0.00    -0.550 OA
ENDBRANCH   6   7
ENDBRANCH   5   6
ENDBRANCH   4   5
ENDBRANCH   3   4
ENDBRANCH   2   3
ENDBRANCH   1   2
BRANCH   1  10
ATOM     10  C   UNL     1      22.202  33.003  30.570  1.00  0.00     0.027 C 
BRANCH  10  11
ATOM     11  C   UNL     1      21.805  32.978  32.026  1.00  0.00    -0.031 C 
ATOM     12  C   UNL     1      22.567  32.488  33.021  1.00  0.00    -0.031 C 
BRANCH  12  13
ATOM     13  C   UNL     1      23.974  31.975  32.848  1.00  0.00     0.027 C 
BRANCH  13  14
ATOM     14  C   UNL     1      24.551  31.511  34.190  1.00  0.00     0.004 C 
BRANCH  14  15
ATOM     15  C   UNL     1      25.049  30.061  34.102  1.00  0.00     0.000 C 
BRANCH  15  16
ATOM     16  C   UNL     1      24.013  29.039  34.606  1.00  0.00    -0.000 C 
BRANCH  16  17
ATOM     17  C   UNL     1      24.610  27.806  35.308  1.00  0.00    -0.003 C 
ATOM     18  C   UNL     1      25.744  27.158  34.514  1.00  0.00     0.004 C 
ENDBRANCH  16  17
ENDBRANCH  15  16
ENDBRANCH  14  15
ENDBRANCH  13  14
ENDBRANCH  12  13
ENDBRANCH  10  11
ENDBRANCH   1  10
TORSDOF 13
ENDMDL
MODEL 2
REMARK VINA RESULT:    -4.683      1.712      2.508
REMARK INTER + INTRA:          -8.904
REMARK INTER:                  -7.399
REMARK INTRA:                  -1.505
REMARK UNBOUND:                -0.663
REMARK SMILES CCCCCCC=CCCCCCCCC(=O)[O-]
REMARK SMILES IDX 10 1 11 2 12 3 13 4 14 5 15 6 16 7 17 8 18 9 9 10 8 11 7 12
REMARK SMILES IDX 6 13 5 14 4 15 3 16 2 17 1 18
REMARK H PARENT
REMARK Flexibility Score: inf
ROOT
ATOM      1  C   UNL     1      20.026  31.966  29.286  1.00  0.00     0.004 C 
ENDROOT
BRANCH   1   2
ATOM      2  C   UNL     1      21.394  32.001  28.576  1.00  0.00     0.000 C 
BRANCH   2   3
ATOM      3  C   UNL     1      21.801  33.373  28.009  1.00  0.00     0.000 C 
BRANCH   3   4
ATOM      4  C   UNL     1      21.979  33.361  26.484  1.00  0.00     0.000 C 
BRANCH   4   5
ATOM      5  C   UNL     1      21.298  32.133  25.862  1.00  0.00     0.006 C 
BRANCH   5   6
ATOM      6  C   UNL     1      21.588  32.005  24.361  1.00  0.00     0.053 C 
BRANCH   6   7
ATOM      7  C   UNL     1      21.440  30.591  23.886  1.00  0.00     0.041 C 
ATOM      8  O   UNL     1      21.589  29.634  24.690  1.00  0.00    -0.550 OA
ATOM      9  O   UNL     1      21.104  30.334  22.563  1.00  0.00    -0.550 OA
ENDBRANCH   6   7
ENDBRANCH   5   6
ENDBRANCH   4   5
ENDBRANCH   3   4
ENDBRANCH   2   3
ENDBRANCH   1   2
BRANCH   1  10
ATOM     10  C   UNL     1      19.649  33.269  30.011  1.00  0.00     0.027 C 
BRANCH  10  11
ATOM     11  C   UNL     1      19.766  33.141  31.511  1.00  0.00    -0.031 C 
ATOM     12  C   UNL     1      20.807  33.585  32.240  1.00  0.00    -0.031 C 
BRANCH  12  13
ATOM     13  C   UNL     1      21.970  34.367  31.684  1.00  0.00     0.027 C 
BRANCH  13  14
ATOM     14  C   UNL     1      23.250  33.523  31.703  1.00  0.00     0.004 C 
BRANCH  14  15
ATOM     15  C   UNL     1      22.980  32.128  32.285  1.00  0.00     0.000 C 
BRANCH  15  16
ATOM     16  C   UNL     1      24.139  31.605  33.153  1.00  0.00    -0.000 C 
BRANCH  16  17
ATOM     17  C   UNL     1      23.788  31.380  34.634  1.00  0.00    -0.003 C 
ATOM     18  C   UNL     1      23.438  32.674  35.368  1.00  0.00     0.004 C 
ENDBRANCH  16  17
ENDBRANCH  15  16
ENDBRANCH  14  15
ENDBRANCH  13  14
ENDBRANCH  12  13
ENDBRANCH  10  11
ENDBRANCH   1  10
TORSDOF 13
ENDMDL
MODEL 3
REMARK VINA RESULT:    -4.622      1.410      2.528
REMARK INTER + INTRA:          -8.798
REMARK INTER:                  -7.241
REMARK INTRA:                  -1.557
REMARK UNBOUND:                -0.663
REMARK SMILES CCCCCCC=CCCCCCCCC(=O)[O-]
REMARK SMILES IDX 10 1 11 2 12 3 13 4 14 5 15 6 16 7 17 8 18 9 9 10 8 11 7 12
REMARK SMILES IDX 6 13 5 14 4 15 3 16 2 17 1 18
REMARK H PARENT
REMARK Flexibility Score: inf
ROOT
ATOM      1  C   UNL     1      19.253  32.702  29.256  1.00  0.00     0.004 C 
ENDROOT
BRANCH   1   2
ATOM      2  C   UNL     1      20.263  31.537  29.220  1.00  0.00     0.000 C 
BRANCH   2   3
ATOM      3  C   UNL     1      21.487  31.762  28.312  1.00  0.00     0.000 C 
BRANCH   3   4
ATOM      4  C   UNL     1      21.640  33.222  27.866  1.00  0.00     0.000 C 
BRANCH   4   5
ATOM      5  C   UNL     1      21.994  33.306  26.373  1.00  0.00     0.006 C 
BRANCH   5   6
ATOM      6  C   UNL     1      20.962  32.592  25.490  1.00  0.00     0.053 C 
BRANCH   6   7
ATOM      7  C   UNL     1      21.618  31.712  24.471  1.00  0.00     0.041 C 
ATOM      8  O   UNL     1      22.085  32.208  23.411  1.00  0.00    -0.550 OA
ATOM      9  O   UNL     1      21.744  30.349  24.707  1.00  0.00    -0.550 OA
ENDBRANCH   6   7
ENDBRANCH   5   6
ENDBRANCH   4   5
ENDBRANCH   3   4
ENDBRANCH   2   3
ENDBRANCH   1   2
BRANCH   1  10
ATOM     10  C   UNL     1      19.056  33.333  30.644  1.00  0.00     0.027 C 
BRANCH  10  11
ATOM     11  C   UNL     1      20.018  34.469  30.896  1.00  0.00    -0.031 C 
ATOM     12  C   UNL     1      21.059  34.417  31.748  1.00  0.00    -0.031 C 
BRANCH  12  13
ATOM     13  C   UNL     1      21.482  33.187  32.510  1.00  0.00     0.027 C 
BRANCH  13  14
ATOM     14  C   UNL     1      22.681  32.514  31.833  1.00  0.00     0.004 C 
BRANCH  14  15
ATOM     15  C   UNL     1      23.986  32.849  32.568  1.00  0.00     0.000 C 
BRANCH  15  16
ATOM     16  C   UNL     1      24.124  32.113  33.914  1.00  0.00    -0.000 C 
BRANCH  16  17
ATOM     17  C   UNL     1      23.915  30.590  33.842  1.00  0.00    -0.003 C 
ATOM     18  C   UNL     1      25.106  29.798  34.382  1.00  0.00     0.004 C 
ENDBRANCH  16  17
ENDBRANCH  15  16
ENDBRANCH  14  15
ENDBRANCH  13  14
ENDBRANCH  12  13
ENDBRANCH  10  11
ENDBRANCH   1  10
TORSDOF 13
ENDMDL
MODEL 4
REMARK VINA RESULT:    -4.564      3.896      8.127
REMARK INTER + INTRA:          -8.696
REMARK INTER:                  -7.063
REMARK INTRA:                  -1.633
REMARK UNBOUND:                -0.663
REMARK SMILES CCCCCCC=CCCCCCCCC(=O)[O-]
REMARK SMILES IDX 10 1 11 2 12 3 13 4 14 5 15 6 16 7 17 8 18 9 9 10 8 11 7 12
REMARK SMILES IDX 6 13 5 14 4 15 3 16 2 17 1 18
REMARK H PARENT
REMARK Flexibility Score: inf
ROOT
ATOM      1  C   UNL     1      18.814  32.647  30.880  1.00  0.00     0.004 C 
ENDROOT
BRANCH   1   2
ATOM      2  C   UNL     1      19.505  33.937  31.363  1.00  0.00     0.000 C 
BRANCH   2   3
ATOM      3  C   UNL     1      20.708  33.722  32.299  1.00  0.00     0.000 C 
BRANCH   3   4
ATOM      4  C   UNL     1      21.967  34.470  31.837  1.00  0.00     0.000 C 
BRANCH   4   5
ATOM      5  C   UNL     1      23.205  33.565  31.924  1.00  0.00     0.006 C 
BRANCH   5   6
ATOM      6  C   UNL     1      22.835  32.080  32.037  1.00  0.00     0.053 C 
BRANCH   6   7
ATOM      7  C   UNL     1      23.426  31.453  33.262  1.00  0.00     0.041 C 
ATOM      8  O   UNL     1      24.340  30.593  33.156  1.00  0.00    -0.550 OA
ATOM      9  O   UNL     1      22.989  31.842  34.521  1.00  0.00    -0.550 OA
ENDBRANCH   6   7
ENDBRANCH   5   6
ENDBRANCH   4   5
ENDBRANCH   3   4
ENDBRANCH   2   3
ENDBRANCH   1   2
BRANCH   1  10
ATOM     10  C   UNL     1      19.094  32.283  29.412  1.00  0.00     0.027 C 
BRANCH  10  11
ATOM     11  C   UNL     1      20.319  31.414  29.265  1.00  0.00    -0.031 C 
ATOM     12  C   UNL     1      21.474  31.807  28.695  1.00  0.00    -0.031 C 
BRANCH  12  13
ATOM     13  C   UNL     1      21.755  33.204  28.204  1.00  0.00     0.027 C 
BRANCH  13  14
ATOM     14  C   UNL     1      21.125  33.433  26.825  1.00  0.00     0.004 C 
BRANCH  14  15
ATOM     15  C   UNL     1      21.552  32.338  25.838  1.00  0.00     0.000 C 
BRANCH  15  16
ATOM     16  C   UNL     1      21.942  32.894  24.456  1.00  0.00    -0.000 C 
BRANCH  16  17
ATOM     17  C   UNL     1      21.298  32.168  23.261  1.00  0.00    -0.003 C 
ATOM     18  C   UNL     1      21.418  30.647  23.352  1.00  0.00     0.004 C 
ENDBRANCH  16  17
ENDBRANCH  15  16
ENDBRANCH  14  15
ENDBRANCH  13  14
ENDBRANCH  12  13
ENDBRANCH  10  11
ENDBRANCH   1  10
TORSDOF 13
ENDMDL
MODEL 5
REMARK VINA RESULT:    -4.538     14.536     17.681
REMARK INTER + INTRA:          -8.649
REMARK INTER:                  -6.553
REMARK INTRA:                  -2.096
REMARK UNBOUND:                -0.663
REMARK SMILES CCCCCCC=CCCCCCCCC(=O)[O-]
REMARK SMILES IDX 10 1 11 2 12 3 13 4 14 5 15 6 16 7 17 8 18 9 9 10 8 11 7 12
REMARK SMILES IDX 6 13 5 14 4 15 3 16 2 17 1 18
REMARK H PARENT
REMARK Flexibility Score: inf
ROOT
ATOM      1  C   UNL     1      35.386  25.921  18.201  1.00  0.00     0.004 C 
ENDROOT
BRANCH   1   2
ATOM      2  C   UNL     1      34.677  27.290  18.234  1.00  0.00     0.000 C 
BRANCH   2   3
ATOM      3  C   UNL     1      33.846  27.564  19.500  1.00  0.00     0.000 C 
BRANCH   3   4
ATOM      4  C   UNL     1      34.251  28.862  20.212  1.00  0.00     0.000 C 
BRANCH   4   5
ATOM      5  C   UNL     1      34.973  28.561  21.534  1.00  0.00     0.006 C 
BRANCH   5   6
ATOM      6  C   UNL     1      34.884  27.079  21.921  1.00  0.00     0.053 C 
BRANCH   6   7
ATOM      7  C   UNL     1      34.310  26.898  23.294  1.00  0.00     0.041 C 
ATOM      8  O   UNL     1      33.581  25.904  23.550  1.00  0.00    -0.550 OA
ATOM      9  O   UNL     1      34.607  27.811  24.296  1.00  0.00    -0.550 OA
ENDBRANCH   6   7
ENDBRANCH   5   6
ENDBRANCH   4   5
ENDBRANCH   3   4
ENDBRANCH   2   3
ENDBRANCH   1   2
BRANCH   1  10
ATOM     10  C   UNL     1      34.675  24.813  18.997  1.00  0.00     0.027 C 
BRANCH  10  11
ATOM     11  C   UNL     1      34.701  23.488  18.275  1.00  0.00    -0.031 C 
ATOM     12  C   UNL     1      33.637  22.917  17.681  1.00  0.00    -0.031 C 
BRANCH  12  13
ATOM     13  C   UNL     1      32.278  23.558  17.559  1.00  0.00     0.027 C 
BRANCH  13  14
ATOM     14  C   UNL     1      32.071  24.128  16.152  1.00  0.00     0.004 C 
BRANCH  14  15
ATOM     15  C   UNL     1      31.991  25.661  16.186  1.00  0.00     0.000 C 
BRANCH  15  16
ATOM     16  C   UNL     1      31.127  26.192  17.344  1.00  0.00    -0.000 C 
BRANCH  16  17
ATOM     17  C   UNL     1      30.959  27.721  17.377  1.00  0.00    -0.003 C 
ATOM     18  C   UNL     1      31.674  28.425  16.223  1.00  0.00     0.004 C 
ENDBRANCH  16  17
ENDBRANCH  15  16
ENDBRANCH  14  15
ENDBRANCH  13  14
ENDBRANCH  12  13
ENDBRANCH  10  11
ENDBRANCH   1  10
TORSDOF 13
ENDMDL
MODEL 6
REMARK VINA RESULT:    -4.537     12.909     14.428
REMARK INTER + INTRA:          -8.648
REMARK INTER:                  -7.222
REMARK INTRA:                  -1.426
REMARK UNBOUND:                -0.663
REMARK SMILES CCCCCCC=CCCCCCCCC(=O)[O-]
REMARK SMILES IDX 10 1 11 2 12 3 13 4 14 5 15 6 16 7 17 8 18 9 9 10 8 11 7 12
REMARK SMILES IDX 6 13 5 14 4 15 3 16 2 17 1 18
REMARK H PARENT
REMARK Flexibility Score: inf
ROOT
ATOM      1  C   UNL     1      21.078  18.498  29.015  1.00  0.00     0.004 C 
ENDROOT
BRANCH   1   2
ATOM      2  C   UNL     1      22.022  18.180  27.837  1.00  0.00     0.000 C 
BRANCH   2   3
ATOM      3  C   UNL     1      21.327  17.667  26.563  1.00  0.00     0.000 C 
BRANCH   3   4
ATOM      4  C   UNL     1      21.740  16.236  26.191  1.00  0.00     0.000 C 
BRANCH   4   5
ATOM      5  C   UNL     1      22.337  16.188  24.777  1.00  0.00     0.006 C 
BRANCH   5   6
ATOM      6  C   UNL     1      23.518  17.153  24.609  1.00  0.00     0.053 C 
BRANCH   6   7
ATOM      7  C   UNL     1      24.029  17.165  23.201  1.00  0.00     0.041 C 
ATOM      8  O   UNL     1      25.221  17.493  22.962  1.00  0.00    -0.550 OA
ATOM      9  O   UNL     1      23.197  16.782  22.157  1.00  0.00    -0.550 OA
ENDBRANCH   6   7
ENDBRANCH   5   6
ENDBRANCH   4   5
ENDBRANCH   3   4
ENDBRANCH   2   3
ENDBRANCH   1   2
BRANCH   1  10
ATOM     10  C   UNL     1      19.644  18.870  28.602  1.00  0.00     0.027 C 
BRANCH  10  11
ATOM     11  C   UNL     1      19.068  19.964  29.469  1.00  0.00    -0.031 C 
ATOM     12  C   UNL     1      17.896  19.884  30.126  1.00  0.00    -0.031 C 
BRANCH  12  13
ATOM     13  C   UNL     1      17.025  18.655  30.178  1.00  0.00     0.027 C 
BRANCH  13  14
ATOM     14  C   UNL     1      16.714  18.270  31.628  1.00  0.00     0.004 C 
BRANCH  14  15
ATOM     15  C   UNL     1      17.894  17.520  32.263  1.00  0.00     0.000 C 
BRANCH  15  16
ATOM     16  C   UNL     1      18.286  16.249  31.486  1.00  0.00    -0.000 C 
BRANCH  16  17
ATOM     17  C   UNL     1      19.796  15.956  31.446  1.00  0.00    -0.003 C 
ATOM     18  C   UNL     1      20.616  16.927  32.296  1.00  0.00     0.004 C 
ENDBRANCH  16  17
ENDBRANCH  15  16
ENDBRANCH  14  15
ENDBRANCH  13  14
ENDBRANCH  12  13
ENDBRANCH  10  11
ENDBRANCH   1  10
TORSDOF 13
ENDMDL
MODEL 7
REMARK VINA RESULT:    -4.487      3.955      7.691
REMARK INTER + INTRA:          -8.560
REMARK INTER:                  -6.303
REMARK INTRA:                  -2.257
REMARK UNBOUND:                -0.663
REMARK SMILES CCCCCCC=CCCCCCCCC(=O)[O-]
REMARK SMILES IDX 10 1 11 2 12 3 13 4 14 5 15 6 16 7 17 8 18 9 9 10 8 11 7 12
REMARK SMILES IDX 6 13 5 14 4 15 3 16 2 17 1 18
REMARK H PARENT
REMARK Flexibility Score: inf
ROOT
ATOM      1  C   UNL     1      21.528  35.764  30.077  1.00  0.00     0.004 C 
ENDROOT
BRANCH   1   2
ATOM      2  C   UNL     1      21.756  35.630  31.596  1.00  0.00     0.000 C 
BRANCH   2   3
ATOM      3  C   UNL     1      22.719  34.504  32.014  1.00  0.00     0.000 C 
BRANCH   3   4
ATOM      4  C   UNL     1      21.992  33.208  32.402  1.00  0.00     0.000 C 
BRANCH   4   5
ATOM      5  C   UNL     1      22.851  31.978  32.073  1.00  0.00     0.006 C 
BRANCH   5   6
ATOM      6  C   UNL     1      24.190  31.986  32.820  1.00  0.00     0.053 C 
BRANCH   6   7
ATOM      7  C   UNL     1      24.266  30.884  33.833  1.00  0.00     0.041 C 
ATOM      8  O   UNL     1      23.492  29.894  33.752  1.00  0.00    -0.550 OA
ATOM      9  O   UNL     1      25.215  30.937  34.846  1.00  0.00    -0.550 OA
ENDBRANCH   6   7
ENDBRANCH   5   6
ENDBRANCH   4   5
ENDBRANCH   3   4
ENDBRANCH   2   3
ENDBRANCH   1   2
BRANCH   1  10
ATOM     10  C   UNL     1      20.050  35.775  29.651  1.00  0.00     0.027 C 
BRANCH  10  11
ATOM     11  C   UNL     1      19.184  34.957  30.577  1.00  0.00    -0.031 C 
ATOM     12  C   UNL     1      18.766  33.702  30.328  1.00  0.00    -0.031 C 
BRANCH  12  13
ATOM     13  C   UNL     1      19.179  32.884  29.131  1.00  0.00     0.027 C 
BRANCH  13  14
ATOM     14  C   UNL     1      19.971  31.646  29.565  1.00  0.00     0.004 C 
BRANCH  14  15
ATOM     15  C   UNL     1      21.220  31.458  28.692  1.00  0.00     0.000 C 
BRANCH  15  16
ATOM     16  C   UNL     1      21.816  32.790  28.201  1.00  0.00    -0.000 C 
BRANCH  16  17
ATOM     17  C   UNL     1      21.826  32.970  26.673  1.00  0.00    -0.003 C 
ATOM     18  C   UNL     1      21.523  34.404  26.239  1.00  0.00     0.004 C 
ENDBRANCH  16  17
ENDBRANCH  15  16
ENDBRANCH  14  15
ENDBRANCH  13  14
ENDBRANCH  12  13
ENDBRANCH  10  11
ENDBRANCH   1  10
TORSDOF 13
ENDMDL
MODEL 8
REMARK VINA RESULT:    -4.450     12.906     14.606
REMARK INTER + INTRA:          -8.495
REMARK INTER:                  -6.195
REMARK INTRA:                  -2.299
REMARK UNBOUND:                -0.663
REMARK SMILES CCCCCCC=CCCCCCCCC(=O)[O-]
REMARK SMILES IDX 10 1 11 2 12 3 13 4 14 5 15 6 16 7 17 8 18 9 9 10 8 11 7 12
REMARK SMILES IDX 6 13 5 14 4 15 3 16 2 17 1 18
REMARK H PARENT
REMARK Flexibility Score: inf
ROOT
ATOM      1  C   UNL     1      20.594  18.907  29.647  1.00  0.00     0.004 C 
ENDROOT
BRANCH   1   2
ATOM      2  C   UNL     1      19.408  18.920  28.662  1.00  0.00     0.000 C 
BRANCH   2   3
ATOM      3  C   UNL     1      18.716  17.561  28.454  1.00  0.00     0.000 C 
BRANCH   3   4
ATOM      4  C   UNL     1      19.687  16.459  28.005  1.00  0.00     0.000 C 
BRANCH   4   5
ATOM      5  C   UNL     1      20.119  16.669  26.546  1.00  0.00     0.006 C 
BRANCH   5   6
ATOM      6  C   UNL     1      21.568  16.232  26.299  1.00  0.00     0.053 C 
BRANCH   6   7
ATOM      7  C   UNL     1      22.466  17.405  26.047  1.00  0.00     0.041 C 
ATOM      8  O   UNL     1      23.137  17.472  24.984  1.00  0.00    -0.550 OA
ATOM      9  O   UNL     1      22.534  18.439  26.972  1.00  0.00    -0.550 OA
ENDBRANCH   6   7
ENDBRANCH   5   6
ENDBRANCH   4   5
ENDBRANCH   3   4
ENDBRANCH   2   3
ENDBRANCH   1   2
BRANCH   1  10
ATOM     10  C   UNL     1      20.196  18.771  31.126  1.00  0.00     0.027 C 
BRANCH  10  11
ATOM     11  C   UNL     1      20.682  17.475  31.729  1.00  0.00    -0.031 C 
ATOM     12  C   UNL     1      19.882  16.476  32.146  1.00  0.00    -0.031 C 
BRANCH  12  13
ATOM     13  C   UNL     1      18.383  16.455  31.986  1.00  0.00     0.027 C 
BRANCH  13  14
ATOM     14  C   UNL     1      17.699  17.113  33.190  1.00  0.00     0.004 C 
BRANCH  14  15
ATOM     15  C   UNL     1      16.554  18.031  32.739  1.00  0.00     0.000 C 
BRANCH  15  16
ATOM     16  C   UNL     1      16.428  18.124  31.207  1.00  0.00    -0.000 C 
BRANCH  16  17
ATOM     17  C   UNL     1      16.399  19.557  30.646  1.00  0.00    -0.003 C 
ATOM     18  C   UNL     1      17.058  20.575  31.577  1.00  0.00     0.004 C 
ENDBRANCH  16  17
ENDBRANCH  15  16
ENDBRANCH  14  15
ENDBRANCH  13  14
ENDBRANCH  12  13
ENDBRANCH  10  11
ENDBRANCH   1  10
TORSDOF 13
ENDMDL
MODEL 9
REMARK VINA RESULT:    -4.417      3.884      8.204
REMARK INTER + INTRA:          -8.437
REMARK INTER:                  -6.557
REMARK INTRA:                  -1.879
REMARK UNBOUND:                -0.663
REMARK SMILES CCCCCCC=CCCCCCCCC(=O)[O-]
REMARK SMILES IDX 10 1 11 2 12 3 13 4 14 5 15 6 16 7 17 8 18 9 9 10 8 11 7 12
REMARK SMILES IDX 6 13 5 14 4 15 3 16 2 17 1 18
REMARK H PARENT
REMARK Flexibility Score: inf
ROOT
ATOM      1  C   UNL     1      19.993  31.609  29.354  1.00  0.00     0.004 C 
ENDROOT
BRANCH   1   2
ATOM      2  C   UNL     1      21.479  32.018  29.382  1.00  0.00     0.000 C 
BRANCH   2   3
ATOM      3  C   UNL     1      21.810  33.216  30.292  1.00  0.00     0.000 C 
BRANCH   3   4
ATOM      4  C   UNL     1      21.882  32.836  31.777  1.00  0.00     0.000 C 
BRANCH   4   5
ATOM      5  C   UNL     1      23.187  33.341  32.410  1.00  0.00     0.006 C 
BRANCH   5   6
ATOM      6  C   UNL     1      24.148  32.196  32.755  1.00  0.00     0.053 C 
BRANCH   6   7
ATOM      7  C   UNL     1      23.557  31.262  33.767  1.00  0.00     0.041 C 
ATOM      8  O   UNL     1      23.551  30.021  33.556  1.00  0.00    -0.550 OA
ATOM      9  O   UNL     1      23.044  31.762  34.956  1.00  0.00    -0.550 OA
ENDBRANCH   6   7
ENDBRANCH   5   6
ENDBRANCH   4   5
ENDBRANCH   3   4
ENDBRANCH   2   3
ENDBRANCH   1   2
BRANCH   1  10
ATOM     10  C   UNL     1      19.005  32.784  29.442  1.00  0.00     0.027 C 
BRANCH  10  11
ATOM     11  C   UNL     1      18.457  33.170  28.089  1.00  0.00    -0.031 C 
ATOM     12  C   UNL     1      18.786  34.291  27.421  1.00  0.00    -0.031 C 
BRANCH  12  13
ATOM     13  C   UNL     1      19.824  35.286  27.874  1.00  0.00     0.027 C 
BRANCH  13  14
ATOM     14  C   UNL     1      20.801  35.607  26.737  1.00  0.00     0.004 C 
BRANCH  14  15
ATOM     15  C   UNL     1      22.028  34.685  26.789  1.00  0.00     0.000 C 
BRANCH  15  16
ATOM     16  C   UNL     1      22.556  34.308  25.393  1.00  0.00    -0.000 C 
BRANCH  16  17
ATOM     17  C   UNL     1      21.818  33.140  24.716  1.00  0.00    -0.003 C 
ATOM     18  C   UNL     1      21.530  31.982  25.671  1.00  0.00     0.004 C 
ENDBRANCH  16  17
ENDBRANCH  15  16
ENDBRANCH  14  15
ENDBRANCH  13  14
ENDBRANCH  12  13
ENDBRANCH  10  11
ENDBRANCH   1  10
TORSDOF 13
ENDMDL
