MODEL 1
REMARK VINA RESULT:    -2.609      0.000      0.000
REMARK INTER + INTRA:          -4.913
REMARK INTER:                  -3.830
REMARK INTRA:                  -1.083
REMARK UNBOUND:                -1.083
REMARK SMILES CCCCCC(=O)CCCCC
REMARK SMILES IDX 6 1 7 2 5 3 4 4 3 5 2 6 1 7 8 8 9 9 10 10 11 11 12 12
REMARK H PARENT
REMARK Flexibility Score: inf
ROOT
ATOM      1  C   UNL     1     108.317 109.874 104.807  1.00  0.00     0.132 C 
ATOM      2  O   UNL     1     107.574 109.469 103.925  1.00  0.00    -0.300 OA
ENDROOT
BRANCH   1   3
ATOM      3  C   UNL     1     109.289 108.920 105.450  1.00  0.00     0.075 C 
BRANCH   3   4
ATOM      4  C   UNL     1     110.044 108.118 104.380  1.00  0.00     0.008 C 
BRANCH   4   5
ATOM      5  C   UNL     1     111.301 108.843 103.875  1.00  0.00     0.000 C 
BRANCH   5   6
ATOM      6  C   UNL     1     112.219 109.301 105.018  1.00  0.00    -0.003 C 
ATOM      7  C   UNL     1     113.011 108.130 105.590  1.00  0.00     0.004 C 
ENDBRANCH   5   6
ENDBRANCH   4   5
ENDBRANCH   3   4
ENDBRANCH   1   3
BRANCH   1   8
ATOM      8  C   UNL     1     108.233 111.315 105.238  1.00  0.00     0.075 C 
BRANCH   8   9
ATOM      9  C   UNL     1     109.631 111.937 105.314  1.00  0.00     0.008 C 
BRANCH   9  10
ATOM     10  C   UNL     1     110.047 112.521 103.955  1.00  0.00     0.000 C 
BRANCH  10  11
ATOM     11  C   UNL     1     111.533 112.909 103.910  1.00  0.00    -0.003 C 
ATOM     12  C   UNL     1     112.135 113.108 105.300  1.00  0.00     0.004 C 
ENDBRANCH  10  11
ENDBRANCH   9  10
ENDBRANCH   8   9
ENDBRANCH   1   8
TORSDOF 8
ENDMDL
MODEL 2
REMARK VINA RESULT:    -2.566      1.389      3.794
REMARK INTER + INTRA:          -4.849
REMARK INTER:                  -3.561
REMARK INTRA:                  -1.288
REMARK UNBOUND:                -1.083
REMARK SMILES CCCCCC(=O)CCCCC
REMARK SMILES IDX 6 1 7 2 5 3 4 4 3 5 2 6 1 7 8 8 9 9 10 10 11 11 12 12
REMARK H PARENT
REMARK Flexibility Score: inf
ROOT
ATOM      1  C   UNL     1     109.530 109.291 104.870  1.00  0.00     0.132 C 
ATOM      2  O   UNL     1     109.384 108.256 104.235  1.00  0.00    -0.300 OA
ENDROOT
BRANCH   1   3
ATOM      3  C   UNL     1     109.462 110.614 104.152  1.00  0.00     0.075 C 
BRANCH   3   4
ATOM      4  C   UNL     1     110.079 111.725 105.012  1.00  0.00     0.008 C 
BRANCH   4   5
ATOM      5  C   UNL     1     111.474 112.147 104.524  1.00  0.00     0.000 C 
BRANCH   5   6
ATOM      6  C   UNL     1     112.375 112.641 105.665  1.00  0.00    -0.003 C 
ATOM      7  C   UNL     1     111.668 112.527 107.013  1.00  0.00     0.004 C 
ENDBRANCH   5   6
ENDBRANCH   4   5
ENDBRANCH   3   4
ENDBRANCH   1   3
BRANCH   1   8
ATOM      8  C   UNL     1     109.786 109.217 106.353  1.00  0.00     0.075 C 
BRANCH   8   9
ATOM      9  C   UNL     1     110.948 108.265 106.652  1.00  0.00     0.008 C 
BRANCH   9  10
ATOM     10  C   UNL     1     112.292 108.901 106.267  1.00  0.00     0.000 C 
BRANCH  10  11
ATOM     11  C   UNL     1     113.142 107.988 105.370  1.00  0.00    -0.003 C 
ATOM     12  C   UNL     1     113.217 108.481 103.926  1.00  0.00     0.004 C 
ENDBRANCH  10  11
ENDBRANCH   9  10
ENDBRANCH   8   9
ENDBRANCH   1   8
TORSDOF 8
ENDMDL
MODEL 3
REMARK VINA RESULT:    -2.558      2.237      3.732
REMARK INTER + INTRA:          -4.838
REMARK INTER:                  -3.472
REMARK INTRA:                  -1.365
REMARK UNBOUND:                -1.083
REMARK SMILES CCCCCC(=O)CCCCC
REMARK SMILES IDX 6 1 7 2 5 3 4 4 3 5 2 6 1 7 8 8 9 9 10 10 11 11 12 12
REMARK H PARENT
REMARK Flexibility Score: inf
ROOT
ATOM      1  C   UNL     1     112.205 112.795 104.596  1.00  0.00     0.132 C 
ATOM      2  O   UNL     1     111.598 113.575 103.876  1.00  0.00    -0.300 OA
ENDROOT
BRANCH   1   3
ATOM      3  C   UNL     1     112.532 111.417 104.081  1.00  0.00     0.075 C 
BRANCH   3   4
ATOM      4  C   UNL     1     111.248 110.601 103.875  1.00  0.00     0.008 C 
BRANCH   4   5
ATOM      5  C   UNL     1     111.311 109.219 104.544  1.00  0.00     0.000 C 
BRANCH   5   6
ATOM      6  C   UNL     1     112.684 108.926 105.167  1.00  0.00    -0.003 C 
ATOM      7  C   UNL     1     112.558 108.621 106.657  1.00  0.00     0.004 C 
ENDBRANCH   5   6
ENDBRANCH   4   5
ENDBRANCH   3   4
ENDBRANCH   1   3
BRANCH   1   8
ATOM      8  C   UNL     1     112.598 113.227 105.984  1.00  0.00     0.075 C 
BRANCH   8   9
ATOM      9  C   UNL     1     112.055 112.245 107.028  1.00  0.00     0.008 C 
BRANCH   9  10
ATOM     10  C   UNL     1     110.529 112.367 107.155  1.00  0.00     0.000 C 
BRANCH  10  11
ATOM     11  C   UNL     1     109.855 111.024 107.478  1.00  0.00    -0.003 C 
ATOM     12  C   UNL     1     108.625 110.757 106.612  1.00  0.00     0.004 C 
ENDBRANCH  10  11
ENDBRANCH   9  10
ENDBRANCH   8   9
ENDBRANCH   1   8
TORSDOF 8
ENDMDL
MODEL 4
REMARK VINA RESULT:    -2.551      1.454      3.451
REMARK INTER + INTRA:          -4.827
REMARK INTER:                  -3.441
REMARK INTRA:                  -1.386
REMARK UNBOUND:                -1.083
REMARK SMILES CCCCCC(=O)CCCCC
REMARK SMILES IDX 6 1 7 2 5 3 4 4 3 5 2 6 1 7 8 8 9 9 10 10 11 11 12 12
REMARK H PARENT
REMARK Flexibility Score: inf
ROOT
ATOM      1  C   UNL     1     109.644 109.117 104.644  1.00  0.00     0.132 C 
ATOM      2  O   UNL     1     109.189 107.991 104.505  1.00  0.00    -0.300 OA
ENDROOT
BRANCH   1   3
ATOM      3  C   UNL     1     109.031 110.261 103.879  1.00  0.00     0.075 C 
BRANCH   3   4
ATOM      4  C   UNL     1     107.809 110.814 104.626  1.00  0.00     0.008 C 
BRANCH   4   5
ATOM      5  C   UNL     1     108.072 112.192 105.254  1.00  0.00     0.000 C 
BRANCH   5   6
ATOM      6  C   UNL     1     108.462 112.100 106.737  1.00  0.00    -0.003 C 
ATOM      7  C   UNL     1     107.794 110.903 107.408  1.00  0.00     0.004 C 
ENDBRANCH   5   6
ENDBRANCH   4   5
ENDBRANCH   3   4
ENDBRANCH   1   3
BRANCH   1   8
ATOM      8  C   UNL     1     110.814 109.331 105.568  1.00  0.00     0.075 C 
BRANCH   8   9
ATOM      9  C   UNL     1     111.746 110.416 105.015  1.00  0.00     0.008 C 
BRANCH   9  10
ATOM     10  C   UNL     1     112.069 111.463 106.091  1.00  0.00     0.000 C 
BRANCH  10  11
ATOM     11  C   UNL     1     112.012 112.900 105.551  1.00  0.00    -0.003 C 
ATOM     12  C   UNL     1     111.551 112.968 104.096  1.00  0.00     0.004 C 
ENDBRANCH  10  11
ENDBRANCH   9  10
ENDBRANCH   8   9
ENDBRANCH   1   8
TORSDOF 8
ENDMDL
MODEL 5
REMARK VINA RESULT:    -2.539      2.007      3.568
REMARK INTER + INTRA:          -4.809
REMARK INTER:                  -3.439
REMARK INTRA:                  -1.370
REMARK UNBOUND:                -1.083
REMARK SMILES CCCCCC(=O)CCCCC
REMARK SMILES IDX 6 1 7 2 5 3 4 4 3 5 2 6 1 7 8 8 9 9 10 10 11 11 12 12
REMARK H PARENT
REMARK Flexibility Score: inf
ROOT
ATOM      1  C   UNL     1     111.680 110.111 105.361  1.00  0.00     0.132 C 
ATOM      2  O   UNL     1     112.052 109.680 106.443  1.00  0.00    -0.300 OA
ENDROOT
BRANCH   1   3
ATOM      3  C   UNL     1     111.649 109.189 104.170  1.00  0.00     0.075 C 
BRANCH   3   4
ATOM      4  C   UNL     1     110.809 107.941 104.477  1.00  0.00     0.008 C 
BRANCH   4   5
ATOM      5  C   UNL     1     109.339 108.099 104.061  1.00  0.00     0.000 C 
BRANCH   5   6
ATOM      6  C   UNL     1     108.362 107.609 105.140  1.00  0.00    -0.003 C 
ATOM      7  C   UNL     1     108.925 107.847 106.538  1.00  0.00     0.004 C 
ENDBRANCH   5   6
ENDBRANCH   4   5
ENDBRANCH   3   4
ENDBRANCH   1   3
BRANCH   1   8
ATOM      8  C   UNL     1     111.275 111.557 105.243  1.00  0.00     0.075 C 
BRANCH   8   9
ATOM      9  C   UNL     1     109.835 111.672 104.732  1.00  0.00     0.008 C 
BRANCH   9  10
ATOM     10  C   UNL     1     108.830 111.549 105.887  1.00  0.00     0.000 C 
BRANCH  10  11
ATOM     11  C   UNL     1     107.402 111.262 105.399  1.00  0.00    -0.003 C 
ATOM     12  C   UNL     1     107.287 111.262 103.875  1.00  0.00     0.004 C 
ENDBRANCH  10  11
ENDBRANCH   9  10
ENDBRANCH   8   9
ENDBRANCH   1   8
TORSDOF 8
ENDMDL
MODEL 6
REMARK VINA RESULT:    -2.527      2.012      4.887
REMARK INTER + INTRA:          -4.791
REMARK INTER:                  -3.446
REMARK INTRA:                  -1.345
REMARK UNBOUND:                -1.083
REMARK SMILES CCCCCC(=O)CCCCC
REMARK SMILES IDX 6 1 7 2 5 3 4 4 3 5 2 6 1 7 8 8 9 9 10 10 11 11 12 12
REMARK H PARENT
REMARK Flexibility Score: inf
ROOT
ATOM      1  C   UNL     1     111.869 110.459 105.929  1.00  0.00     0.132 C 
ATOM      2  O   UNL     1     112.082 110.103 107.079  1.00  0.00    -0.300 OA
ENDROOT
BRANCH   1   3
ATOM      3  C   UNL     1     111.357 111.852 105.669  1.00  0.00     0.075 C 
BRANCH   3   4
ATOM      4  C   UNL     1     109.975 111.801 105.003  1.00  0.00     0.008 C 
BRANCH   4   5
ATOM      5  C   UNL     1     108.850 111.475 105.998  1.00  0.00     0.000 C 
BRANCH   5   6
ATOM      6  C   UNL     1     107.476 111.366 105.321  1.00  0.00    -0.003 C 
ATOM      7  C   UNL     1     107.610 110.893 103.877  1.00  0.00     0.004 C 
ENDBRANCH   5   6
ENDBRANCH   4   5
ENDBRANCH   3   4
ENDBRANCH   1   3
BRANCH   1   8
ATOM      8  C   UNL     1     112.113 109.491 104.801  1.00  0.00     0.075 C 
BRANCH   8   9
ATOM      9  C   UNL     1     111.437 108.146 105.089  1.00  0.00     0.008 C 
BRANCH   9  10
ATOM     10  C   UNL     1     110.089 108.041 104.362  1.00  0.00     0.000 C 
BRANCH  10  11
ATOM     11  C   UNL     1     108.937 107.661 105.305  1.00  0.00    -0.003 C 
ATOM     12  C   UNL     1     109.298 107.837 106.780  1.00  0.00     0.004 C 
ENDBRANCH  10  11
ENDBRANCH   9  10
ENDBRANCH   8   9
ENDBRANCH   1   8
TORSDOF 8
ENDMDL
MODEL 7
REMARK VINA RESULT:    -2.506      1.700      3.771
REMARK INTER + INTRA:          -4.761
REMARK INTER:                  -3.605
REMARK INTRA:                  -1.157
REMARK UNBOUND:                -1.083
REMARK SMILES CCCCCC(=O)CCCCC
REMARK SMILES IDX 6 1 7 2 5 3 4 4 3 5 2 6 1 7 8 8 9 9 10 10 11 11 12 12
REMARK H PARENT
REMARK Flexibility Score: inf
ROOT
ATOM      1  C   UNL     1     110.007 108.140 105.814  1.00  0.00     0.132 C 
ATOM      2  O   UNL     1     110.564 108.055 106.899  1.00  0.00    -0.300 OA
ENDROOT
BRANCH   1   3
ATOM      3  C   UNL     1     108.513 108.327 105.763  1.00  0.00     0.075 C 
BRANCH   3   4
ATOM      4  C   UNL     1     108.076 108.797 104.369  1.00  0.00     0.008 C 
BRANCH   4   5
ATOM      5  C   UNL     1     107.804 110.309 104.313  1.00  0.00     0.000 C 
BRANCH   5   6
ATOM      6  C   UNL     1     107.748 110.952 105.706  1.00  0.00    -0.003 C 
ATOM      7  C   UNL     1     106.884 112.209 105.696  1.00  0.00     0.004 C 
ENDBRANCH   5   6
ENDBRANCH   4   5
ENDBRANCH   3   4
ENDBRANCH   1   3
BRANCH   1   8
ATOM      8  C   UNL     1     110.828 108.043 104.554  1.00  0.00     0.075 C 
BRANCH   8   9
ATOM      9  C   UNL     1     112.015 109.010 104.609  1.00  0.00     0.008 C 
BRANCH   9  10
ATOM     10  C   UNL     1     111.691 110.320 103.875  1.00  0.00     0.000 C 
BRANCH  10  11
ATOM     11  C   UNL     1     111.390 111.477 104.839  1.00  0.00    -0.003 C 
ATOM     12  C   UNL     1     110.729 112.668 104.146  1.00  0.00     0.004 C 
ENDBRANCH  10  11
ENDBRANCH   9  10
ENDBRANCH   8   9
ENDBRANCH   1   8
TORSDOF 8
ENDMDL
MODEL 8
REMARK VINA RESULT:    -2.495      1.908      3.938
REMARK INTER + INTRA:          -4.745
REMARK INTER:                  -3.464
REMARK INTRA:                  -1.282
REMARK UNBOUND:                -1.083
REMARK SMILES CCCCCC(=O)CCCCC
REMARK SMILES IDX 6 1 7 2 5 3 4 4 3 5 2 6 1 7 8 8 9 9 10 10 11 11 12 12
REMARK H PARENT
REMARK Flexibility Score: inf
ROOT
ATOM      1  C   UNL     1     111.702 109.091 105.285  1.00  0.00     0.132 C 
ATOM      2  O   UNL     1     112.642 108.894 106.042  1.00  0.00    -0.300 OA
ENDROOT
BRANCH   1   3
ATOM      3  C   UNL     1     111.973 109.547 103.875  1.00  0.00     0.075 C 
BRANCH   3   4
ATOM      4  C   UNL     1     112.623 110.938 103.875  1.00  0.00     0.008 C 
BRANCH   4   5
ATOM      5  C   UNL     1     111.660 112.042 104.339  1.00  0.00     0.000 C 
BRANCH   5   6
ATOM      6  C   UNL     1     112.186 112.810 105.561  1.00  0.00    -0.003 C 
ATOM      7  C   UNL     1     111.362 112.493 106.805  1.00  0.00     0.004 C 
ENDBRANCH   5   6
ENDBRANCH   4   5
ENDBRANCH   3   4
ENDBRANCH   1   3
BRANCH   1   8
ATOM      8  C   UNL     1     110.297 108.885 105.786  1.00  0.00     0.075 C 
BRANCH   8   9
ATOM      9  C   UNL     1     109.362 108.514 104.630  1.00  0.00     0.008 C 
BRANCH   9  10
ATOM     10  C   UNL     1     108.233 109.545 104.483  1.00  0.00     0.000 C 
BRANCH  10  11
ATOM     11  C   UNL     1     108.277 110.627 105.572  1.00  0.00    -0.003 C 
ATOM     12  C   UNL     1     108.018 112.029 105.024  1.00  0.00     0.004 C 
ENDBRANCH  10  11
ENDBRANCH   9  10
ENDBRANCH   8   9
ENDBRANCH   1   8
TORSDOF 8
ENDMDL
