MODEL 1
REMARK VINA RESULT:    -5.075      0.000      0.000
REMARK INTER + INTRA:          -5.556
REMARK INTER:                  -5.520
REMARK INTRA:                  -0.036
REMARK UNBOUND:                -0.036
REMARK SMILES O=C([O-])c1ccc(O)cc1
REMARK SMILES IDX 4 1 5 2 10 3 6 4 9 5 7 6 2 7 1 8 3 9 8 10
REMARK H PARENT 8 11
REMARK Flexibility Score: inf
ROOT
ATOM      1  C   UNL     1     -13.738 -65.351 -24.404  1.00  0.00    -0.003 A 
ATOM      2  C   UNL     1     -13.883 -66.664 -23.925  1.00  0.00     0.014 A 
ATOM      3  C   UNL     1     -12.900 -64.460 -23.708  1.00  0.00     0.014 A 
ATOM      4  C   UNL     1     -13.206 -67.077 -22.773  1.00  0.00     0.047 A 
ATOM      5  C   UNL     1     -12.224 -64.877 -22.557  1.00  0.00     0.047 A 
ATOM      6  C   UNL     1     -12.376 -66.187 -22.087  1.00  0.00     0.115 A 
ENDROOT
BRANCH   1   7
ATOM      7  C   UNL     1     -14.456 -64.915 -25.623  1.00  0.00     0.071 C 
ATOM      8  O   UNL     1     -14.341 -63.735 -26.047  1.00  0.00    -0.545 OA
ATOM      9  O   UNL     1     -15.269 -65.805 -26.316  1.00  0.00    -0.545 OA
ENDBRANCH   1   7
BRANCH   6  10
ATOM     10  O   UNL     1     -11.707 -66.614 -20.942  1.00  0.00    -0.508 OA
ATOM     11  H   UNL     1     -11.825 -66.140 -20.053  1.00  0.00     0.293 HD
ENDBRANCH   6  10
TORSDOF 2
ENDMDL
MODEL 2
REMARK VINA RESULT:    -5.026      8.845     10.025
REMARK INTER + INTRA:          -5.503
REMARK INTER:                  -5.467
REMARK INTRA:                  -0.035
REMARK UNBOUND:                -0.036
REMARK SMILES O=C([O-])c1ccc(O)cc1
REMARK SMILES IDX 4 1 5 2 10 3 6 4 9 5 7 6 2 7 1 8 3 9 8 10
REMARK H PARENT 8 11
REMARK Flexibility Score: inf
ROOT
ATOM      1  C   UNL     1      -9.336 -65.392 -33.199  1.00  0.00    -0.003 A 
ATOM      2  C   UNL     1      -8.503 -65.951 -32.215  1.00  0.00     0.014 A 
ATOM      3  C   UNL     1     -10.679 -65.806 -33.271  1.00  0.00     0.014 A 
ATOM      4  C   UNL     1      -9.001 -66.904 -31.321  1.00  0.00     0.047 A 
ATOM      5  C   UNL     1     -11.174 -66.760 -32.376  1.00  0.00     0.047 A 
ATOM      6  C   UNL     1     -10.335 -67.312 -31.399  1.00  0.00     0.115 A 
ENDROOT
BRANCH   1   7
ATOM      7  C   UNL     1      -8.806 -64.383 -34.144  1.00  0.00     0.071 C 
ATOM      8  O   UNL     1      -9.458 -64.064 -35.173  1.00  0.00    -0.545 OA
ATOM      9  O   UNL     1      -7.579 -63.774 -33.907  1.00  0.00    -0.545 OA
ENDBRANCH   1   7
BRANCH   6  10
ATOM     10  O   UNL     1     -10.818 -68.261 -30.502  1.00  0.00    -0.508 OA
ATOM     11  H   UNL     1     -11.238 -69.127 -30.823  1.00  0.00     0.293 HD
ENDBRANCH   6  10
TORSDOF 2
ENDMDL
MODEL 3
REMARK VINA RESULT:    -4.879      9.198     10.156
REMARK INTER + INTRA:          -5.343
REMARK INTER:                  -5.315
REMARK INTRA:                  -0.028
REMARK UNBOUND:                -0.036
REMARK SMILES O=C([O-])c1ccc(O)cc1
REMARK SMILES IDX 4 1 5 2 10 3 6 4 9 5 7 6 2 7 1 8 3 9 8 10
REMARK H PARENT 8 11
REMARK Flexibility Score: inf
ROOT
ATOM      1  C   UNL     1     -10.257 -66.007 -32.997  1.00  0.00    -0.003 A 
ATOM      2  C   UNL     1      -9.721 -64.979 -33.794  1.00  0.00     0.014 A 
ATOM      3  C   UNL     1      -9.456 -66.572 -31.987  1.00  0.00     0.014 A 
ATOM      4  C   UNL     1      -8.414 -64.528 -33.586  1.00  0.00     0.047 A 
ATOM      5  C   UNL     1      -8.149 -66.119 -31.782  1.00  0.00     0.047 A 
ATOM      6  C   UNL     1      -7.625 -65.095 -32.582  1.00  0.00     0.115 A 
ENDROOT
BRANCH   1   7
ATOM      7  C   UNL     1     -11.640 -66.483 -33.219  1.00  0.00     0.071 C 
ATOM      8  O   UNL     1     -12.546 -66.231 -32.381  1.00  0.00    -0.545 OA
ATOM      9  O   UNL     1     -11.957 -67.217 -34.356  1.00  0.00    -0.545 OA
ENDBRANCH   1   7
BRANCH   6  10
ATOM     10  O   UNL     1      -6.326 -64.635 -32.386  1.00  0.00    -0.508 OA
ATOM     11  H   UNL     1      -6.100 -63.648 -32.439  1.00  0.00     0.293 HD
ENDBRANCH   6  10
TORSDOF 2
ENDMDL
MODEL 4
REMARK VINA RESULT:    -4.810      8.809      9.431
REMARK INTER + INTRA:          -5.268
REMARK INTER:                  -5.241
REMARK INTRA:                  -0.027
REMARK UNBOUND:                -0.036
REMARK SMILES O=C([O-])c1ccc(O)cc1
REMARK SMILES IDX 4 1 5 2 10 3 6 4 9 5 7 6 2 7 1 8 3 9 8 10
REMARK H PARENT 8 11
REMARK Flexibility Score: inf
ROOT
ATOM      1  C   UNL     1     -10.194 -66.366 -32.535  1.00  0.00    -0.003 A 
ATOM      2  C   UNL     1      -9.842 -67.282 -31.528  1.00  0.00     0.014 A 
ATOM      3  C   UNL     1      -9.241 -65.423 -32.962  1.00  0.00     0.014 A 
ATOM      4  C   UNL     1      -8.564 -67.254 -30.960  1.00  0.00     0.047 A 
ATOM      5  C   UNL     1      -7.964 -65.398 -32.391  1.00  0.00     0.047 A 
ATOM      6  C   UNL     1      -7.623 -66.314 -31.388  1.00  0.00     0.115 A 
ENDROOT
BRANCH   1   7
ATOM      7  C   UNL     1     -11.547 -66.397 -33.134  1.00  0.00     0.071 C 
ATOM      8  O   UNL     1     -11.738 -66.935 -34.257  1.00  0.00    -0.545 OA
ATOM      9  O   UNL     1     -12.625 -65.829 -32.466  1.00  0.00    -0.545 OA
ENDBRANCH   1   7
BRANCH   6  10
ATOM     10  O   UNL     1      -6.355 -66.300 -30.814  1.00  0.00    -0.508 OA
ATOM     11  H   UNL     1      -5.576 -66.790 -31.239  1.00  0.00     0.293 HD
ENDBRANCH   6  10
TORSDOF 2
ENDMDL
MODEL 5
REMARK VINA RESULT:    -4.786      2.879      3.325
REMARK INTER + INTRA:          -5.242
REMARK INTER:                  -5.211
REMARK INTRA:                  -0.031
REMARK UNBOUND:                -0.036
REMARK SMILES O=C([O-])c1ccc(O)cc1
REMARK SMILES IDX 4 1 5 2 10 3 6 4 9 5 7 6 2 7 1 8 3 9 8 10
REMARK H PARENT 8 11
REMARK Flexibility Score: inf
ROOT
ATOM      1  C   UNL     1     -11.619 -66.716 -24.138  1.00  0.00    -0.003 A 
ATOM      2  C   UNL     1     -12.960 -66.919 -24.510  1.00  0.00     0.014 A 
ATOM      3  C   UNL     1     -11.340 -66.082 -22.914  1.00  0.00     0.014 A 
ATOM      4  C   UNL     1     -13.999 -66.495 -23.675  1.00  0.00     0.047 A 
ATOM      5  C   UNL     1     -12.381 -65.659 -22.081  1.00  0.00     0.047 A 
ATOM      6  C   UNL     1     -13.714 -65.865 -22.461  1.00  0.00     0.115 A 
ENDROOT
BRANCH   1   7
ATOM      7  C   UNL     1     -10.521 -67.166 -25.023  1.00  0.00     0.071 C 
ATOM      8  O   UNL     1      -9.558 -66.399 -25.290  1.00  0.00    -0.545 OA
ATOM      9  O   UNL     1     -10.540 -68.442 -25.574  1.00  0.00    -0.545 OA
ENDBRANCH   1   7
BRANCH   6  10
ATOM     10  O   UNL     1     -14.759 -65.449 -21.640  1.00  0.00    -0.508 OA
ATOM     11  H   UNL     1     -14.790 -64.511 -21.257  1.00  0.00     0.293 HD
ENDBRANCH   6  10
TORSDOF 2
ENDMDL
MODEL 6
REMARK VINA RESULT:    -4.785      2.892      3.612
REMARK INTER + INTRA:          -5.241
REMARK INTER:                  -5.212
REMARK INTRA:                  -0.028
REMARK UNBOUND:                -0.036
REMARK SMILES O=C([O-])c1ccc(O)cc1
REMARK SMILES IDX 4 1 5 2 10 3 6 4 9 5 7 6 2 7 1 8 3 9 8 10
REMARK H PARENT 8 11
REMARK Flexibility Score: inf
ROOT
ATOM      1  C   UNL     1     -11.631 -66.517 -24.163  1.00  0.00    -0.003 A 
ATOM      2  C   UNL     1     -11.404 -66.138 -22.828  1.00  0.00     0.014 A 
ATOM      3  C   UNL     1     -12.950 -66.526 -24.654  1.00  0.00     0.014 A 
ATOM      4  C   UNL     1     -12.474 -65.778 -22.002  1.00  0.00     0.047 A 
ATOM      5  C   UNL     1     -14.017 -66.166 -23.825  1.00  0.00     0.047 A 
ATOM      6  C   UNL     1     -13.780 -65.791 -22.496  1.00  0.00     0.115 A 
ENDROOT
BRANCH   1   7
ATOM      7  C   UNL     1     -10.498 -66.897 -25.036  1.00  0.00     0.071 C 
ATOM      8  O   UNL     1     -10.407 -68.067 -25.495  1.00  0.00    -0.545 OA
ATOM      9  O   UNL     1      -9.516 -65.968 -25.360  1.00  0.00    -0.545 OA
ENDBRANCH   1   7
BRANCH   6  10
ATOM     10  O   UNL     1     -14.835 -65.429 -21.662  1.00  0.00    -0.508 OA
ATOM     11  H   UNL     1     -14.896 -64.501 -21.259  1.00  0.00     0.293 HD
ENDBRANCH   6  10
TORSDOF 2
ENDMDL
MODEL 7
REMARK VINA RESULT:    -4.777     11.568     12.841
REMARK INTER + INTRA:          -5.232
REMARK INTER:                  -5.196
REMARK INTRA:                  -0.036
REMARK UNBOUND:                -0.036
REMARK SMILES O=C([O-])c1ccc(O)cc1
REMARK SMILES IDX 4 1 5 2 10 3 6 4 9 5 7 6 2 7 1 8 3 9 8 10
REMARK H PARENT 8 11
REMARK Flexibility Score: inf
ROOT
ATOM      1  C   UNL     1     -14.765 -67.205 -36.047  1.00  0.00    -0.003 A 
ATOM      2  C   UNL     1     -15.233 -67.267 -34.722  1.00  0.00     0.014 A 
ATOM      3  C   UNL     1     -15.655 -66.817 -37.066  1.00  0.00     0.014 A 
ATOM      4  C   UNL     1     -16.561 -66.950 -34.423  1.00  0.00     0.047 A 
ATOM      5  C   UNL     1     -16.983 -66.500 -36.763  1.00  0.00     0.047 A 
ATOM      6  C   UNL     1     -17.439 -66.566 -35.440  1.00  0.00     0.115 A 
ENDROOT
BRANCH   1   7
ATOM      7  C   UNL     1     -13.359 -67.541 -36.361  1.00  0.00     0.071 C 
ATOM      8  O   UNL     1     -12.546 -67.824 -35.441  1.00  0.00    -0.545 OA
ATOM      9  O   UNL     1     -12.915 -67.548 -37.678  1.00  0.00    -0.545 OA
ENDBRANCH   1   7
BRANCH   6  10
ATOM     10  O   UNL     1     -18.759 -66.252 -35.127  1.00  0.00    -0.508 OA
ATOM     11  H   UNL     1     -19.128 -66.388 -34.193  1.00  0.00     0.293 HD
ENDBRANCH   6  10
TORSDOF 2
ENDMDL
MODEL 8
REMARK VINA RESULT:    -4.766      9.085     11.619
REMARK INTER + INTRA:          -5.220
REMARK INTER:                  -5.191
REMARK INTRA:                  -0.029
REMARK UNBOUND:                -0.036
REMARK SMILES O=C([O-])c1ccc(O)cc1
REMARK SMILES IDX 4 1 5 2 10 3 6 4 9 5 7 6 2 7 1 8 3 9 8 10
REMARK H PARENT 8 11
REMARK Flexibility Score: inf
ROOT
ATOM      1  C   UNL     1     -15.874 -66.472 -33.738  1.00  0.00    -0.003 A 
ATOM      2  C   UNL     1     -16.337 -67.782 -33.959  1.00  0.00     0.014 A 
ATOM      3  C   UNL     1     -16.033 -65.513 -34.756  1.00  0.00     0.014 A 
ATOM      4  C   UNL     1     -16.943 -68.124 -35.171  1.00  0.00     0.047 A 
ATOM      5  C   UNL     1     -16.640 -65.860 -35.967  1.00  0.00     0.047 A 
ATOM      6  C   UNL     1     -17.096 -67.167 -36.177  1.00  0.00     0.115 A 
ENDROOT
BRANCH   1   7
ATOM      7  C   UNL     1     -15.232 -66.111 -32.454  1.00  0.00     0.071 C 
ATOM      8  O   UNL     1     -14.052 -65.675 -32.428  1.00  0.00    -0.545 OA
ATOM      9  O   UNL     1     -15.926 -66.252 -31.258  1.00  0.00    -0.545 OA
ENDBRANCH   1   7
BRANCH   6  10
ATOM     10  O   UNL     1     -17.703 -67.523 -37.379  1.00  0.00    -0.508 OA
ATOM     11  H   UNL     1     -18.427 -68.232 -37.417  1.00  0.00     0.293 HD
ENDBRANCH   6  10
TORSDOF 2
ENDMDL
MODEL 9
REMARK VINA RESULT:    -4.618     10.744     13.225
REMARK INTER + INTRA:          -5.059
REMARK INTER:                  -5.030
REMARK INTRA:                  -0.029
REMARK UNBOUND:                -0.036
REMARK SMILES O=C([O-])c1ccc(O)cc1
REMARK SMILES IDX 4 1 5 2 10 3 6 4 9 5 7 6 2 7 1 8 3 9 8 10
REMARK H PARENT 8 11
REMARK Flexibility Score: inf
ROOT
ATOM      1  C   UNL     1     -15.724 -66.877 -35.439  1.00  0.00    -0.003 A 
ATOM      2  C   UNL     1     -14.523 -67.285 -36.046  1.00  0.00     0.014 A 
ATOM      3  C   UNL     1     -16.788 -66.449 -36.256  1.00  0.00     0.014 A 
ATOM      4  C   UNL     1     -14.389 -67.266 -37.438  1.00  0.00     0.047 A 
ATOM      5  C   UNL     1     -16.650 -66.431 -37.647  1.00  0.00     0.047 A 
ATOM      6  C   UNL     1     -15.449 -66.840 -38.241  1.00  0.00     0.115 A 
ENDROOT
BRANCH   1   7
ATOM      7  C   UNL     1     -15.864 -66.898 -33.967  1.00  0.00     0.071 C 
ATOM      8  O   UNL     1     -16.767 -67.583 -33.418  1.00  0.00    -0.545 OA
ATOM      9  O   UNL     1     -14.999 -66.159 -33.167  1.00  0.00    -0.545 OA
ENDBRANCH   1   7
BRANCH   6  10
ATOM     10  O   UNL     1     -15.301 -66.827 -39.626  1.00  0.00    -0.508 OA
ATOM     11  H   UNL     1     -15.164 -67.683 -40.151  1.00  0.00     0.293 HD
ENDBRANCH   6  10
TORSDOF 2
ENDMDL
