MODEL 1
REMARK VINA RESULT:    -5.426      0.000      0.000
REMARK INTER + INTRA:         -11.633
REMARK INTER:                  -9.867
REMARK INTRA:                  -1.766
REMARK UNBOUND:                -1.766
REMARK SMILES CCCCCCCCCCCCCCCC(=O)[O-]
REMARK SMILES IDX 9 1 10 2 11 3 12 4 13 5 14 6 15 7 16 8 17 9 18 10 8 11 7 12
REMARK SMILES IDX 6 13 5 14 4 15 3 16 2 17 1 18
REMARK H PARENT
REMARK Flexibility Score: inf
ROOT
ATOM      1  C   UNL     1      -9.948 -17.794  32.291  1.00  0.00     0.000 C 
ENDROOT
BRANCH   1   2
ATOM      2  C   UNL     1     -10.844 -16.545  32.324  1.00  0.00     0.000 C 
BRANCH   2   3
ATOM      3  C   UNL     1     -10.154 -15.308  31.725  1.00  0.00     0.000 C 
BRANCH   3   4
ATOM      4  C   UNL     1      -8.843 -15.649  30.994  1.00  0.00     0.000 C 
BRANCH   4   5
ATOM      5  C   UNL     1      -7.571 -15.069  31.638  1.00  0.00     0.000 C 
BRANCH   5   6
ATOM      6  C   UNL     1      -6.416 -14.902  30.638  1.00  0.00     0.006 C 
BRANCH   6   7
ATOM      7  C   UNL     1      -6.761 -13.858  29.572  1.00  0.00     0.053 C 
BRANCH   7   8
ATOM      8  C   UNL     1      -6.633 -14.447  28.203  1.00  0.00     0.041 C 
ATOM      9  O   UNL     1      -7.655 -14.616  27.487  1.00  0.00    -0.550 OA
ATOM     10  O   UNL     1      -5.389 -14.854  27.735  1.00  0.00    -0.550 OA
ENDBRANCH   7   8
ENDBRANCH   6   7
ENDBRANCH   5   6
ENDBRANCH   4   5
ENDBRANCH   3   4
ENDBRANCH   2   3
ENDBRANCH   1   2
BRANCH   1  11
ATOM     11  C   UNL     1     -10.596 -18.965  31.537  1.00  0.00     0.000 C 
BRANCH  11  12
ATOM     12  C   UNL     1     -10.179 -18.961  30.058  1.00  0.00    -0.000 C 
BRANCH  12  13
ATOM     13  C   UNL     1     -11.368 -18.754  29.106  1.00  0.00    -0.000 C 
BRANCH  13  14
ATOM     14  C   UNL     1     -12.671 -18.418  29.853  1.00  0.00    -0.000 C 
BRANCH  14  15
ATOM     15  C   UNL     1     -13.347 -17.137  29.334  1.00  0.00    -0.000 C 
BRANCH  15  16
ATOM     16  C   UNL     1     -12.387 -16.068  28.780  1.00  0.00    -0.000 C 
BRANCH  16  17
ATOM     17  C   UNL     1     -12.380 -16.006  27.246  1.00  0.00    -0.003 C 
ATOM     18  C   UNL     1     -10.986 -15.686  26.714  1.00  0.00     0.004 C 
ENDBRANCH  16  17
ENDBRANCH  15  16
ENDBRANCH  14  15
ENDBRANCH  13  14
ENDBRANCH  12  13
ENDBRANCH  11  12
ENDBRANCH   1  11
TORSDOF 14
ENDMDL
MODEL 2
REMARK VINA RESULT:    -5.318      1.887      3.180
REMARK INTER + INTRA:         -11.436
REMARK INTER:                 -10.064
REMARK INTRA:                  -1.372
REMARK UNBOUND:                -1.766
REMARK SMILES CCCCCCCCCCCCCCCC(=O)[O-]
REMARK SMILES IDX 9 1 10 2 11 3 12 4 13 5 14 6 15 7 16 8 17 9 18 10 8 11 7 12
REMARK SMILES IDX 6 13 5 14 4 15 3 16 2 17 1 18
REMARK H PARENT
REMARK Flexibility Score: inf
ROOT
ATOM      1  C   UNL     1     -10.427 -18.537  29.853  1.00  0.00     0.000 C 
ENDROOT
BRANCH   1   2
ATOM      2  C   UNL     1     -10.847 -18.627  31.328  1.00  0.00     0.000 C 
BRANCH   2   3
ATOM      3  C   UNL     1     -10.329 -17.443  32.163  1.00  0.00     0.000 C 
BRANCH   3   4
ATOM      4  C   UNL     1      -9.106 -16.755  31.530  1.00  0.00     0.000 C 
BRANCH   4   5
ATOM      5  C   UNL     1      -7.757 -17.093  32.190  1.00  0.00     0.000 C 
BRANCH   5   6
ATOM      6  C   UNL     1      -6.811 -15.884  32.272  1.00  0.00     0.006 C 
BRANCH   6   7
ATOM      7  C   UNL     1      -6.744 -15.149  30.931  1.00  0.00     0.053 C 
BRANCH   7   8
ATOM      8  C   UNL     1      -6.931 -13.678  31.130  1.00  0.00     0.041 C 
ATOM      9  O   UNL     1      -6.618 -12.870  30.217  1.00  0.00    -0.550 OA
ATOM     10  O   UNL     1      -7.408 -13.197  32.343  1.00  0.00    -0.550 OA
ENDBRANCH   7   8
ENDBRANCH   6   7
ENDBRANCH   5   6
ENDBRANCH   4   5
ENDBRANCH   3   4
ENDBRANCH   2   3
ENDBRANCH   1   2
BRANCH   1  11
ATOM     11  C   UNL     1     -11.616 -18.685  28.891  1.00  0.00     0.000 C 
BRANCH  11  12
ATOM     12  C   UNL     1     -12.656 -17.581  29.132  1.00  0.00    -0.000 C 
BRANCH  12  13
ATOM     13  C   UNL     1     -12.147 -16.187  28.732  1.00  0.00    -0.000 C 
BRANCH  13  14
ATOM     14  C   UNL     1     -11.655 -16.133  27.275  1.00  0.00    -0.000 C 
BRANCH  14  15
ATOM     15  C   UNL     1     -10.186 -15.693  27.153  1.00  0.00    -0.000 C 
BRANCH  15  16
ATOM     16  C   UNL     1      -9.840 -14.912  25.872  1.00  0.00    -0.000 C 
BRANCH  16  17
ATOM     17  C   UNL     1      -8.555 -14.082  26.004  1.00  0.00    -0.003 C 
ATOM     18  C   UNL     1      -7.549 -14.767  26.924  1.00  0.00     0.004 C 
ENDBRANCH  16  17
ENDBRANCH  15  16
ENDBRANCH  14  15
ENDBRANCH  13  14
ENDBRANCH  12  13
ENDBRANCH  11  12
ENDBRANCH   1  11
TORSDOF 14
ENDMDL
MODEL 3
REMARK VINA RESULT:    -5.260      1.329      4.066
REMARK INTER + INTRA:         -11.330
REMARK INTER:                  -9.678
REMARK INTRA:                  -1.653
REMARK UNBOUND:                -1.766
REMARK SMILES CCCCCCCCCCCCCCCC(=O)[O-]
REMARK SMILES IDX 9 1 10 2 11 3 12 4 13 5 14 6 15 7 16 8 17 9 18 10 8 11 7 12
REMARK SMILES IDX 6 13 5 14 4 15 3 16 2 17 1 18
REMARK H PARENT
REMARK Flexibility Score: inf
ROOT
ATOM      1  C   UNL     1     -12.079 -16.152  28.718  1.00  0.00     0.000 C 
ENDROOT
BRANCH   1   2
ATOM      2  C   UNL     1     -12.084 -16.289  27.188  1.00  0.00     0.000 C 
BRANCH   2   3
ATOM      3  C   UNL     1     -10.940 -15.506  26.521  1.00  0.00     0.000 C 
BRANCH   3   4
ATOM      4  C   UNL     1      -9.611 -15.619  27.290  1.00  0.00     0.000 C 
BRANCH   4   5
ATOM      5  C   UNL     1      -8.399 -14.979  26.589  1.00  0.00     0.000 C 
BRANCH   5   6
ATOM      6  C   UNL     1      -7.331 -14.482  27.575  1.00  0.00     0.006 C 
BRANCH   6   7
ATOM      7  C   UNL     1      -5.923 -14.813  27.070  1.00  0.00     0.053 C 
BRANCH   7   8
ATOM      8  C   UNL     1      -4.907 -14.530  28.131  1.00  0.00     0.041 C 
ATOM      9  O   UNL     1      -3.684 -14.733  27.909  1.00  0.00    -0.550 OA
ATOM     10  O   UNL     1      -5.315 -14.087  29.383  1.00  0.00    -0.550 OA
ENDBRANCH   7   8
ENDBRANCH   6   7
ENDBRANCH   5   6
ENDBRANCH   4   5
ENDBRANCH   3   4
ENDBRANCH   2   3
ENDBRANCH   1   2
BRANCH   1  11
ATOM     11  C   UNL     1     -12.690 -17.375  29.421  1.00  0.00     0.000 C 
BRANCH  11  12
ATOM     12  C   UNL     1     -11.868 -18.640  29.134  1.00  0.00    -0.000 C 
BRANCH  12  13
ATOM     13  C   UNL     1     -10.414 -18.526  29.619  1.00  0.00    -0.000 C 
BRANCH  13  14
ATOM     14  C   UNL     1     -10.283 -18.704  31.142  1.00  0.00    -0.000 C 
BRANCH  14  15
ATOM     15  C   UNL     1      -9.360 -17.657  31.791  1.00  0.00    -0.000 C 
BRANCH  15  16
ATOM     16  C   UNL     1      -9.356 -16.276  31.110  1.00  0.00    -0.000 C 
BRANCH  16  17
ATOM     17  C   UNL     1      -7.978 -15.600  31.133  1.00  0.00    -0.003 C 
ATOM     18  C   UNL     1      -7.060 -16.256  32.161  1.00  0.00     0.004 C 
ENDBRANCH  16  17
ENDBRANCH  15  16
ENDBRANCH  14  15
ENDBRANCH  13  14
ENDBRANCH  12  13
ENDBRANCH  11  12
ENDBRANCH   1  11
TORSDOF 14
ENDMDL
MODEL 4
REMARK VINA RESULT:    -5.255      1.985      4.265
REMARK INTER + INTRA:         -11.322
REMARK INTER:                  -9.883
REMARK INTRA:                  -1.439
REMARK UNBOUND:                -1.766
REMARK SMILES CCCCCCCCCCCCCCCC(=O)[O-]
REMARK SMILES IDX 9 1 10 2 11 3 12 4 13 5 14 6 15 7 16 8 17 9 18 10 8 11 7 12
REMARK SMILES IDX 6 13 5 14 4 15 3 16 2 17 1 18
REMARK H PARENT
REMARK Flexibility Score: inf
ROOT
ATOM      1  C   UNL     1      -9.962 -15.582  27.008  1.00  0.00     0.000 C 
ENDROOT
BRANCH   1   2
ATOM      2  C   UNL     1      -9.498 -14.674  25.859  1.00  0.00     0.000 C 
BRANCH   2   3
ATOM      3  C   UNL     1      -8.192 -13.931  26.184  1.00  0.00     0.000 C 
BRANCH   3   4
ATOM      4  C   UNL     1      -7.030 -14.883  26.522  1.00  0.00     0.000 C 
BRANCH   4   5
ATOM      5  C   UNL     1      -6.219 -14.500  27.773  1.00  0.00     0.000 C 
BRANCH   5   6
ATOM      6  C   UNL     1      -7.052 -14.543  29.064  1.00  0.00     0.006 C 
BRANCH   6   7
ATOM      7  C   UNL     1      -6.579 -13.479  30.058  1.00  0.00     0.053 C 
BRANCH   7   8
ATOM      8  C   UNL     1      -6.958 -13.861  31.454  1.00  0.00     0.041 C 
ATOM      9  O   UNL     1      -7.470 -13.010  32.228  1.00  0.00    -0.550 OA
ATOM     10  O   UNL     1      -6.703 -15.147  31.916  1.00  0.00    -0.550 OA
ENDBRANCH   7   8
ENDBRANCH   6   7
ENDBRANCH   5   6
ENDBRANCH   4   5
ENDBRANCH   3   4
ENDBRANCH   2   3
ENDBRANCH   1   2
BRANCH   1  11
ATOM     11  C   UNL     1     -11.463 -15.905  26.937  1.00  0.00     0.000 C 
BRANCH  11  12
ATOM     12  C   UNL     1     -11.872 -16.862  28.066  1.00  0.00    -0.000 C 
BRANCH  12  13
ATOM     13  C   UNL     1     -13.123 -16.388  28.823  1.00  0.00    -0.000 C 
BRANCH  13  14
ATOM     14  C   UNL     1     -13.514 -17.336  29.970  1.00  0.00    -0.000 C 
BRANCH  14  15
ATOM     15  C   UNL     1     -12.306 -17.798  30.805  1.00  0.00    -0.000 C 
BRANCH  15  16
ATOM     16  C   UNL     1     -11.933 -16.877  31.981  1.00  0.00    -0.000 C 
BRANCH  16  17
ATOM     17  C   UNL     1     -10.784 -15.914  31.647  1.00  0.00    -0.003 C 
ATOM     18  C   UNL     1      -9.605 -16.658  31.027  1.00  0.00     0.004 C 
ENDBRANCH  16  17
ENDBRANCH  15  16
ENDBRANCH  14  15
ENDBRANCH  13  14
ENDBRANCH  12  13
ENDBRANCH  11  12
ENDBRANCH   1  11
TORSDOF 14
ENDMDL
MODEL 5
REMARK VINA RESULT:    -5.233      1.722      4.370
REMARK INTER + INTRA:         -11.281
REMARK INTER:                  -9.967
REMARK INTRA:                  -1.315
REMARK UNBOUND:                -1.766
REMARK SMILES CCCCCCCCCCCCCCCC(=O)[O-]
REMARK SMILES IDX 9 1 10 2 11 3 12 4 13 5 14 6 15 7 16 8 17 9 18 10 8 11 7 12
REMARK SMILES IDX 6 13 5 14 4 15 3 16 2 17 1 18
REMARK H PARENT
REMARK Flexibility Score: inf
ROOT
ATOM      1  C   UNL     1     -10.495 -15.763  26.912  1.00  0.00     0.000 C 
ENDROOT
BRANCH   1   2
ATOM      2  C   UNL     1     -10.265 -14.699  25.827  1.00  0.00     0.000 C 
BRANCH   2   3
ATOM      3  C   UNL     1      -8.829 -14.150  25.833  1.00  0.00     0.000 C 
BRANCH   3   4
ATOM      4  C   UNL     1      -7.835 -15.083  26.548  1.00  0.00     0.000 C 
BRANCH   4   5
ATOM      5  C   UNL     1      -6.399 -14.540  26.658  1.00  0.00     0.000 C 
BRANCH   5   6
ATOM      6  C   UNL     1      -5.903 -14.444  28.109  1.00  0.00     0.006 C 
BRANCH   6   7
ATOM      7  C   UNL     1      -7.073 -14.525  29.094  1.00  0.00     0.053 C 
BRANCH   7   8
ATOM      8  C   UNL     1      -6.585 -14.378  30.500  1.00  0.00     0.041 C 
ATOM      9  O   UNL     1      -6.560 -15.375  31.270  1.00  0.00    -0.550 OA
ATOM     10  O   UNL     1      -6.201 -13.131  30.976  1.00  0.00    -0.550 OA
ENDBRANCH   7   8
ENDBRANCH   6   7
ENDBRANCH   5   6
ENDBRANCH   4   5
ENDBRANCH   3   4
ENDBRANCH   2   3
ENDBRANCH   1   2
BRANCH   1  11
ATOM     11  C   UNL     1     -11.984 -16.075  27.127  1.00  0.00     0.000 C 
BRANCH  11  12
ATOM     12  C   UNL     1     -12.184 -16.979  28.352  1.00  0.00    -0.000 C 
BRANCH  12  13
ATOM     13  C   UNL     1     -10.873 -17.618  28.839  1.00  0.00    -0.000 C 
BRANCH  13  14
ATOM     14  C   UNL     1     -11.095 -18.620  29.986  1.00  0.00    -0.000 C 
BRANCH  14  15
ATOM     15  C   UNL     1      -9.888 -18.721  30.936  1.00  0.00    -0.000 C 
BRANCH  15  16
ATOM     16  C   UNL     1      -9.485 -17.404  31.625  1.00  0.00    -0.000 C 
BRANCH  16  17
ATOM     17  C   UNL     1     -10.653 -16.730  32.359  1.00  0.00    -0.003 C 
ATOM     18  C   UNL     1     -10.900 -15.322  31.825  1.00  0.00     0.004 C 
ENDBRANCH  16  17
ENDBRANCH  15  16
ENDBRANCH  14  15
ENDBRANCH  13  14
ENDBRANCH  12  13
ENDBRANCH  11  12
ENDBRANCH   1  11
TORSDOF 14
ENDMDL
MODEL 6
REMARK VINA RESULT:    -5.139      2.509      4.852
REMARK INTER + INTRA:         -11.111
REMARK INTER:                  -9.787
REMARK INTRA:                  -1.324
REMARK UNBOUND:                -1.766
REMARK SMILES CCCCCCCCCCCCCCCC(=O)[O-]
REMARK SMILES IDX 9 1 10 2 11 3 12 4 13 5 14 6 15 7 16 8 17 9 18 10 8 11 7 12
REMARK SMILES IDX 6 13 5 14 4 15 3 16 2 17 1 18
REMARK H PARENT
REMARK Flexibility Score: inf
ROOT
ATOM      1  C   UNL     1      -7.452 -14.567  27.670  1.00  0.00     0.000 C 
ENDROOT
BRANCH   1   2
ATOM      2  C   UNL     1      -5.948 -14.484  27.972  1.00  0.00     0.000 C 
BRANCH   2   3
ATOM      3  C   UNL     1      -5.655 -14.315  29.471  1.00  0.00     0.000 C 
BRANCH   3   4
ATOM      4  C   UNL     1      -6.907 -14.492  30.349  1.00  0.00     0.000 C 
BRANCH   4   5
ATOM      5  C   UNL     1      -6.678 -15.269  31.658  1.00  0.00     0.000 C 
BRANCH   5   6
ATOM      6  C   UNL     1      -7.735 -16.358  31.900  1.00  0.00     0.006 C 
BRANCH   6   7
ATOM      7  C   UNL     1      -9.056 -16.002  31.213  1.00  0.00     0.053 C 
BRANCH   7   8
ATOM      8  C   UNL     1     -10.207 -16.630  31.934  1.00  0.00     0.041 C 
ATOM      9  O   UNL     1     -11.173 -15.923  32.323  1.00  0.00    -0.550 OA
ATOM     10  O   UNL     1     -10.190 -17.990  32.218  1.00  0.00    -0.550 OA
ENDBRANCH   7   8
ENDBRANCH   6   7
ENDBRANCH   5   6
ENDBRANCH   4   5
ENDBRANCH   3   4
ENDBRANCH   2   3
ENDBRANCH   1   2
BRANCH   1  11
ATOM     11  C   UNL     1      -7.784 -14.199  26.215  1.00  0.00     0.000 C 
BRANCH  11  12
ATOM     12  C   UNL     1      -9.208 -14.642  25.849  1.00  0.00    -0.000 C 
BRANCH  12  13
ATOM     13  C   UNL     1      -9.864 -15.499  26.943  1.00  0.00    -0.000 C 
BRANCH  13  14
ATOM     14  C   UNL     1     -11.356 -15.764  26.673  1.00  0.00    -0.000 C 
BRANCH  14  15
ATOM     15  C   UNL     1     -11.979 -16.756  27.670  1.00  0.00    -0.000 C 
BRANCH  15  16
ATOM     16  C   UNL     1     -12.670 -16.114  28.887  1.00  0.00    -0.000 C 
BRANCH  16  17
ATOM     17  C   UNL     1     -13.359 -17.141  29.797  1.00  0.00    -0.003 C 
ATOM     18  C   UNL     1     -12.680 -18.504  29.700  1.00  0.00     0.004 C 
ENDBRANCH  16  17
ENDBRANCH  15  16
ENDBRANCH  14  15
ENDBRANCH  13  14
ENDBRANCH  12  13
ENDBRANCH  11  12
ENDBRANCH   1  11
TORSDOF 14
ENDMDL
MODEL 7
REMARK VINA RESULT:    -5.131      2.836      6.426
REMARK INTER + INTRA:         -11.096
REMARK INTER:                  -9.879
REMARK INTRA:                  -1.218
REMARK UNBOUND:                -1.766
REMARK SMILES CCCCCCCCCCCCCCCC(=O)[O-]
REMARK SMILES IDX 9 1 10 2 11 3 12 4 13 5 14 6 15 7 16 8 17 9 18 10 8 11 7 12
REMARK SMILES IDX 6 13 5 14 4 15 3 16 2 17 1 18
REMARK H PARENT
REMARK Flexibility Score: inf
ROOT
ATOM      1  C   UNL     1     -10.432 -15.621  26.629  1.00  0.00     0.000 C 
ENDROOT
BRANCH   1   2
ATOM      2  C   UNL     1     -11.946 -15.820  26.802  1.00  0.00     0.000 C 
BRANCH   2   3
ATOM      3  C   UNL     1     -12.303 -16.505  28.132  1.00  0.00     0.000 C 
BRANCH   3   4
ATOM      4  C   UNL     1     -11.615 -17.871  28.305  1.00  0.00     0.000 C 
BRANCH   4   5
ATOM      5  C   UNL     1     -11.236 -18.228  29.753  1.00  0.00     0.000 C 
BRANCH   5   6
ATOM      6  C   UNL     1     -10.175 -17.286  30.345  1.00  0.00     0.006 C 
BRANCH   6   7
ATOM      7  C   UNL     1      -9.743 -17.753  31.738  1.00  0.00     0.053 C 
BRANCH   7   8
ATOM      8  C   UNL     1     -10.928 -17.859  32.645  1.00  0.00     0.041 C 
ATOM      9  O   UNL     1     -11.279 -18.978  33.101  1.00  0.00    -0.550 OA
ATOM     10  O   UNL     1     -11.672 -16.726  32.950  1.00  0.00    -0.550 OA
ENDBRANCH   7   8
ENDBRANCH   6   7
ENDBRANCH   5   6
ENDBRANCH   4   5
ENDBRANCH   3   4
ENDBRANCH   2   3
ENDBRANCH   1   2
BRANCH   1  11
ATOM     11  C   UNL     1     -10.094 -14.455  25.687  1.00  0.00     0.000 C 
BRANCH  11  12
ATOM     12  C   UNL     1      -8.611 -14.073  25.798  1.00  0.00    -0.000 C 
BRANCH  12  13
ATOM     13  C   UNL     1      -7.884 -14.833  26.918  1.00  0.00    -0.000 C 
BRANCH  13  14
ATOM     14  C   UNL     1      -6.387 -14.484  26.995  1.00  0.00    -0.000 C 
BRANCH  14  15
ATOM     15  C   UNL     1      -5.841 -14.495  28.434  1.00  0.00    -0.000 C 
BRANCH  15  16
ATOM     16  C   UNL     1      -6.791 -13.917  29.499  1.00  0.00    -0.000 C 
BRANCH  16  17
ATOM     17  C   UNL     1      -6.888 -14.794  30.755  1.00  0.00    -0.003 C 
ATOM     18  C   UNL     1      -7.926 -14.245  31.730  1.00  0.00     0.004 C 
ENDBRANCH  16  17
ENDBRANCH  15  16
ENDBRANCH  14  15
ENDBRANCH  13  14
ENDBRANCH  12  13
ENDBRANCH  11  12
ENDBRANCH   1  11
TORSDOF 14
ENDMDL
MODEL 8
REMARK VINA RESULT:    -5.110      2.133      5.295
REMARK INTER + INTRA:         -11.058
REMARK INTER:                  -9.646
REMARK INTRA:                  -1.412
REMARK UNBOUND:                -1.766
REMARK SMILES CCCCCCCCCCCCCCCC(=O)[O-]
REMARK SMILES IDX 9 1 10 2 11 3 12 4 13 5 14 6 15 7 16 8 17 9 18 10 8 11 7 12
REMARK SMILES IDX 6 13 5 14 4 15 3 16 2 17 1 18
REMARK H PARENT
REMARK Flexibility Score: inf
ROOT
ATOM      1  C   UNL     1      -8.550 -16.784  31.750  1.00  0.00     0.000 C 
ENDROOT
BRANCH   1   2
ATOM      2  C   UNL     1      -9.790 -17.527  32.271  1.00  0.00     0.000 C 
BRANCH   2   3
ATOM      3  C   UNL     1     -11.031 -16.623  32.350  1.00  0.00     0.000 C 
BRANCH   3   4
ATOM      4  C   UNL     1     -12.052 -16.908  31.234  1.00  0.00     0.000 C 
BRANCH   4   5
ATOM      5  C   UNL     1     -11.957 -18.313  30.610  1.00  0.00     0.000 C 
BRANCH   5   6
ATOM      6  C   UNL     1     -11.623 -18.281  29.111  1.00  0.00     0.006 C 
BRANCH   6   7
ATOM      7  C   UNL     1     -11.147 -16.889  28.684  1.00  0.00     0.053 C 
BRANCH   7   8
ATOM      8  C   UNL     1     -12.092 -16.296  27.688  1.00  0.00     0.041 C 
ATOM      9  O   UNL     1     -11.659 -15.839  26.597  1.00  0.00    -0.550 OA
ATOM     10  O   UNL     1     -13.446 -16.204  27.985  1.00  0.00    -0.550 OA
ENDBRANCH   7   8
ENDBRANCH   6   7
ENDBRANCH   5   6
ENDBRANCH   4   5
ENDBRANCH   3   4
ENDBRANCH   2   3
ENDBRANCH   1   2
BRANCH   1  11
ATOM     11  C   UNL     1      -8.864 -15.344  31.316  1.00  0.00     0.000 C 
BRANCH  11  12
ATOM     12  C   UNL     1      -7.780 -14.374  31.808  1.00  0.00    -0.000 C 
BRANCH  12  13
ATOM     13  C   UNL     1      -6.984 -13.738  30.657  1.00  0.00    -0.000 C 
BRANCH  13  14
ATOM     14  C   UNL     1      -6.951 -14.626  29.401  1.00  0.00    -0.000 C 
BRANCH  14  15
ATOM     15  C   UNL     1      -6.344 -13.913  28.179  1.00  0.00    -0.000 C 
BRANCH  15  16
ATOM     16  C   UNL     1      -6.792 -14.462  26.812  1.00  0.00    -0.000 C 
BRANCH  16  17
ATOM     17  C   UNL     1      -8.288 -14.804  26.763  1.00  0.00    -0.003 C 
ATOM     18  C   UNL     1      -9.024 -13.914  25.766  1.00  0.00     0.004 C 
ENDBRANCH  16  17
ENDBRANCH  15  16
ENDBRANCH  14  15
ENDBRANCH  13  14
ENDBRANCH  12  13
ENDBRANCH  11  12
ENDBRANCH   1  11
TORSDOF 14
ENDMDL
MODEL 9
REMARK VINA RESULT:    -5.010      1.923      3.940
REMARK INTER + INTRA:         -10.877
REMARK INTER:                  -9.660
REMARK INTRA:                  -1.218
REMARK UNBOUND:                -1.766
REMARK SMILES CCCCCCCCCCCCCCCC(=O)[O-]
REMARK SMILES IDX 9 1 10 2 11 3 12 4 13 5 14 6 15 7 16 8 17 9 18 10 8 11 7 12
REMARK SMILES IDX 6 13 5 14 4 15 3 16 2 17 1 18
REMARK H PARENT
REMARK Flexibility Score: inf
ROOT
ATOM      1  C   UNL     1      -7.704 -14.133  31.511  1.00  0.00     0.000 C 
ENDROOT
BRANCH   1   2
ATOM      2  C   UNL     1      -6.435 -13.477  30.945  1.00  0.00     0.000 C 
BRANCH   2   3
ATOM      3  C   UNL     1      -5.700 -14.381  29.941  1.00  0.00     0.000 C 
BRANCH   3   4
ATOM      4  C   UNL     1      -5.613 -13.764  28.533  1.00  0.00     0.000 C 
BRANCH   4   5
ATOM      5  C   UNL     1      -5.905 -14.738  27.377  1.00  0.00     0.000 C 
BRANCH   5   6
ATOM      6  C   UNL     1      -7.014 -14.237  26.439  1.00  0.00     0.006 C 
BRANCH   6   7
ATOM      7  C   UNL     1      -8.226 -15.173  26.475  1.00  0.00     0.053 C 
BRANCH   7   8
ATOM      8  C   UNL     1      -9.423 -14.503  25.878  1.00  0.00     0.041 C 
ATOM      9  O   UNL     1     -10.580 -14.932  26.128  1.00  0.00    -0.550 OA
ATOM     10  O   UNL     1      -9.258 -13.432  25.008  1.00  0.00    -0.550 OA
ENDBRANCH   7   8
ENDBRANCH   6   7
ENDBRANCH   5   6
ENDBRANCH   4   5
ENDBRANCH   3   4
ENDBRANCH   2   3
ENDBRANCH   1   2
BRANCH   1  11
ATOM     11  C   UNL     1      -7.497 -15.616  31.857  1.00  0.00     0.000 C 
BRANCH  11  12
ATOM     12  C   UNL     1      -8.741 -16.441  31.497  1.00  0.00    -0.000 C 
BRANCH  12  13
ATOM     13  C   UNL     1     -10.045 -15.636  31.618  1.00  0.00    -0.000 C 
BRANCH  13  14
ATOM     14  C   UNL     1     -11.184 -16.448  32.258  1.00  0.00    -0.000 C 
BRANCH  14  15
ATOM     15  C   UNL     1     -12.201 -16.970  31.227  1.00  0.00    -0.000 C 
BRANCH  15  16
ATOM     16  C   UNL     1     -12.230 -16.205  29.891  1.00  0.00    -0.000 C 
BRANCH  16  17
ATOM     17  C   UNL     1     -11.736 -17.047  28.706  1.00  0.00    -0.003 C 
ATOM     18  C   UNL     1     -11.313 -18.441  29.160  1.00  0.00     0.004 C 
ENDBRANCH  16  17
ENDBRANCH  15  16
ENDBRANCH  14  15
ENDBRANCH  13  14
ENDBRANCH  12  13
ENDBRANCH  11  12
ENDBRANCH   1  11
TORSDOF 14
ENDMDL
