MODEL 1
REMARK VINA RESULT:    -5.680      0.000      0.000
REMARK INTER + INTRA:          -5.846
REMARK INTER:                  -5.846
REMARK INTRA:                   0.000
REMARK UNBOUND:                 0.000
REMARK SMILES O=c1ccc2ccc(O)cc2o1
REMARK SMILES IDX 6 1 7 2 8 3 10 4 11 5 5 6 4 7 3 8 2 9 1 10 12 11 9 12
REMARK H PARENT 9 13
REMARK Flexibility Score: inf
ROOT
ATOM      1  C   UNL     1      20.619  -0.933 -21.572  1.00  0.00     0.016 A 
ATOM      2  C   UNL     1      21.324  -0.114 -22.459  1.00  0.00     0.047 A 
ATOM      3  C   UNL     1      21.873   1.097 -22.020  1.00  0.00     0.119 A 
ATOM      4  C   UNL     1      21.713   1.494 -20.683  1.00  0.00     0.094 A 
ATOM      5  C   UNL     1      21.009   0.681 -19.789  1.00  0.00     0.142 A 
ATOM      6  C   UNL     1      20.457  -0.541 -20.236  1.00  0.00     0.018 A 
ATOM      7  C   UNL     1      19.758  -1.332 -19.319  1.00  0.00     0.019 A 
ATOM      8  C   UNL     1      19.626  -0.897 -18.000  1.00  0.00     0.094 A 
ATOM      9  C   UNL     1      20.199   0.325 -17.629  1.00  0.00     0.336 A 
ATOM     10  O   UNL     1      20.089   0.734 -16.444  1.00  0.00    -0.246 OA
ATOM     11  O   UNL     1      20.859   1.059 -18.521  1.00  0.00    -0.423 OA
ENDROOT
BRANCH   3  12
ATOM     12  O   UNL     1      22.573   1.899 -22.917  1.00  0.00    -0.508 OA
ATOM     13  H   UNL     1      23.489   2.272 -22.693  1.00  0.00     0.293 HD
ENDBRANCH   3  12
TORSDOF 1
ENDMDL
MODEL 2
REMARK VINA RESULT:    -5.313      0.898      4.227
REMARK INTER + INTRA:          -5.468
REMARK INTER:                  -5.468
REMARK INTRA:                   0.000
REMARK UNBOUND:                 0.000
REMARK SMILES O=c1ccc2ccc(O)cc2o1
REMARK SMILES IDX 6 1 7 2 8 3 10 4 11 5 5 6 4 7 3 8 2 9 1 10 12 11 9 12
REMARK H PARENT 9 13
REMARK Flexibility Score: inf
ROOT
ATOM      1  C   UNL     1      19.470  -1.170 -18.993  1.00  0.00     0.016 A 
ATOM      2  C   UNL     1      19.519  -0.662 -17.692  1.00  0.00     0.047 A 
ATOM      3  C   UNL     1      20.332   0.438 -17.392  1.00  0.00     0.119 A 
ATOM      4  C   UNL     1      21.104   1.033 -18.401  1.00  0.00     0.094 A 
ATOM      5  C   UNL     1      21.061   0.531 -19.706  1.00  0.00     0.142 A 
ATOM      6  C   UNL     1      20.239  -0.579 -20.005  1.00  0.00     0.018 A 
ATOM      7  C   UNL     1      20.217  -1.058 -21.318  1.00  0.00     0.019 A 
ATOM      8  C   UNL     1      21.001  -0.433 -22.288  1.00  0.00     0.094 A 
ATOM      9  C   UNL     1      21.792   0.661 -21.919  1.00  0.00     0.336 A 
ATOM     10  O   UNL     1      22.506   1.238 -22.780  1.00  0.00    -0.246 OA
ATOM     11  O   UNL     1      21.794   1.098 -20.662  1.00  0.00    -0.423 OA
ENDROOT
BRANCH   3  12
ATOM     12  O   UNL     1      20.367   0.930 -16.090  1.00  0.00    -0.508 OA
ATOM     13  H   UNL     1      19.525   1.011 -15.531  1.00  0.00     0.293 HD
ENDBRANCH   3  12
TORSDOF 1
ENDMDL
MODEL 3
REMARK VINA RESULT:    -5.290      5.324      6.831
REMARK INTER + INTRA:          -5.445
REMARK INTER:                  -5.445
REMARK INTRA:                   0.000
REMARK UNBOUND:                 0.000
REMARK SMILES O=c1ccc2ccc(O)cc2o1
REMARK SMILES IDX 6 1 7 2 8 3 10 4 11 5 5 6 4 7 3 8 2 9 1 10 12 11 9 12
REMARK H PARENT 9 13
REMARK Flexibility Score: inf
ROOT
ATOM      1  C   UNL     1      24.090   6.144 -22.005  1.00  0.00     0.016 A 
ATOM      2  C   UNL     1      23.265   5.120 -22.479  1.00  0.00     0.047 A 
ATOM      3  C   UNL     1      22.561   4.306 -21.584  1.00  0.00     0.119 A 
ATOM      4  C   UNL     1      22.685   4.516 -20.202  1.00  0.00     0.094 A 
ATOM      5  C   UNL     1      23.509   5.537 -19.718  1.00  0.00     0.142 A 
ATOM      6  C   UNL     1      24.217   6.357 -20.625  1.00  0.00     0.018 A 
ATOM      7  C   UNL     1      25.034   7.370 -20.111  1.00  0.00     0.019 A 
ATOM      8  C   UNL     1      25.125   7.541 -18.730  1.00  0.00     0.094 A 
ATOM      9  C   UNL     1      24.395   6.691 -17.892  1.00  0.00     0.336 A 
ATOM     10  O   UNL     1      24.465   6.829 -16.643  1.00  0.00    -0.246 OA
ATOM     11  O   UNL     1      23.625   5.735 -18.406  1.00  0.00    -0.423 OA
ENDROOT
BRANCH   3  12
ATOM     12  O   UNL     1      21.743   3.292 -22.075  1.00  0.00    -0.508 OA
ATOM     13  H   UNL     1      21.717   2.375 -21.643  1.00  0.00     0.293 HD
ENDBRANCH   3  12
TORSDOF 1
ENDMDL
MODEL 4
REMARK VINA RESULT:    -5.151     15.826     18.652
REMARK INTER + INTRA:          -5.301
REMARK INTER:                  -5.301
REMARK INTRA:                   0.000
REMARK UNBOUND:                 0.000
REMARK SMILES O=c1ccc2ccc(O)cc2o1
REMARK SMILES IDX 6 1 7 2 8 3 10 4 11 5 5 6 4 7 3 8 2 9 1 10 12 11 9 12
REMARK H PARENT 9 13
REMARK Flexibility Score: inf
ROOT
ATOM      1  C   UNL     1       8.271  -8.171  -6.844  1.00  0.00     0.016 A 
ATOM      2  C   UNL     1       7.677  -7.317  -5.909  1.00  0.00     0.047 A 
ATOM      3  C   UNL     1       8.119  -5.996  -5.777  1.00  0.00     0.119 A 
ATOM      4  C   UNL     1       9.164  -5.523  -6.585  1.00  0.00     0.094 A 
ATOM      5  C   UNL     1       9.765  -6.369  -7.522  1.00  0.00     0.142 A 
ATOM      6  C   UNL     1       9.316  -7.703  -7.653  1.00  0.00     0.018 A 
ATOM      7  C   UNL     1       9.936  -8.526  -8.599  1.00  0.00     0.019 A 
ATOM      8  C   UNL     1      10.971  -8.011  -9.380  1.00  0.00     0.094 A 
ATOM      9  C   UNL     1      11.363  -6.681  -9.195  1.00  0.00     0.336 A 
ATOM     10  O   UNL     1      12.295  -6.199  -9.889  1.00  0.00    -0.246 OA
ATOM     11  O   UNL     1      10.757  -5.919  -8.288  1.00  0.00    -0.423 OA
ENDROOT
BRANCH   3  12
ATOM     12  O   UNL     1       7.514  -5.161  -4.841  1.00  0.00    -0.508 OA
ATOM     13  H   UNL     1       7.995  -4.877  -3.994  1.00  0.00     0.293 HD
ENDBRANCH   3  12
TORSDOF 1
ENDMDL
MODEL 5
REMARK VINA RESULT:    -5.121      1.523      2.287
REMARK INTER + INTRA:          -5.270
REMARK INTER:                  -5.270
REMARK INTRA:                   0.000
REMARK UNBOUND:                 0.000
REMARK SMILES O=c1ccc2ccc(O)cc2o1
REMARK SMILES IDX 6 1 7 2 8 3 10 4 11 5 5 6 4 7 3 8 2 9 1 10 12 11 9 12
REMARK H PARENT 9 13
REMARK Flexibility Score: inf
ROOT
ATOM      1  C   UNL     1      21.748   1.346 -19.967  1.00  0.00     0.016 A 
ATOM      2  C   UNL     1      21.935   0.958 -21.297  1.00  0.00     0.047 A 
ATOM      3  C   UNL     1      21.299  -0.185 -21.797  1.00  0.00     0.119 A 
ATOM      4  C   UNL     1      20.471  -0.947 -20.959  1.00  0.00     0.094 A 
ATOM      5  C   UNL     1      20.279  -0.567 -19.627  1.00  0.00     0.142 A 
ATOM      6  C   UNL     1      20.922   0.588 -19.127  1.00  0.00     0.018 A 
ATOM      7  C   UNL     1      20.711   0.943 -17.790  1.00  0.00     0.019 A 
ATOM      8  C   UNL     1      19.878   0.155 -16.996  1.00  0.00     0.094 A 
ATOM      9  C   UNL     1      19.275  -0.975 -17.559  1.00  0.00     0.336 A 
ATOM     10  O   UNL     1      18.522  -1.699 -16.858  1.00  0.00    -0.246 OA
ATOM     11  O   UNL     1      19.493  -1.291 -18.833  1.00  0.00    -0.423 OA
ENDROOT
BRANCH   3  12
ATOM     12  O   UNL     1      21.497  -0.555 -23.124  1.00  0.00    -0.508 OA
ATOM     13  H   UNL     1      22.222  -1.212 -23.390  1.00  0.00     0.293 HD
ENDBRANCH   3  12
TORSDOF 1
ENDMDL
MODEL 6
REMARK VINA RESULT:    -4.989      2.290      3.547
REMARK INTER + INTRA:          -5.135
REMARK INTER:                  -5.135
REMARK INTRA:                   0.000
REMARK UNBOUND:                 0.000
REMARK SMILES O=c1ccc2ccc(O)cc2o1
REMARK SMILES IDX 6 1 7 2 8 3 10 4 11 5 5 6 4 7 3 8 2 9 1 10 12 11 9 12
REMARK H PARENT 9 13
REMARK Flexibility Score: inf
ROOT
ATOM      1  C   UNL     1      21.074   0.806 -20.156  1.00  0.00     0.016 A 
ATOM      2  C   UNL     1      19.922   0.063 -20.434  1.00  0.00     0.047 A 
ATOM      3  C   UNL     1      19.150  -0.463 -19.392  1.00  0.00     0.119 A 
ATOM      4  C   UNL     1      19.533  -0.246 -18.059  1.00  0.00     0.094 A 
ATOM      5  C   UNL     1      20.683   0.496 -17.771  1.00  0.00     0.142 A 
ATOM      6  C   UNL     1      21.460   1.026 -18.826  1.00  0.00     0.018 A 
ATOM      7  C   UNL     1      22.605   1.763 -18.507  1.00  0.00     0.019 A 
ATOM      8  C   UNL     1      22.945   1.953 -17.167  1.00  0.00     0.094 A 
ATOM      9  C   UNL     1      22.128   1.398 -16.175  1.00  0.00     0.336 A 
ATOM     10  O   UNL     1      22.419   1.558 -14.962  1.00  0.00    -0.246 OA
ATOM     11  O   UNL     1      21.044   0.701 -16.506  1.00  0.00    -0.423 OA
ENDROOT
BRANCH   3  12
ATOM     12  O   UNL     1      18.007  -1.199 -19.689  1.00  0.00    -0.508 OA
ATOM     13  H   UNL     1      17.392  -1.542 -18.959  1.00  0.00     0.293 HD
ENDBRANCH   3  12
TORSDOF 1
ENDMDL
MODEL 7
REMARK VINA RESULT:    -4.919      2.070      4.452
REMARK INTER + INTRA:          -5.063
REMARK INTER:                  -5.063
REMARK INTRA:                   0.000
REMARK UNBOUND:                 0.000
REMARK SMILES O=c1ccc2ccc(O)cc2o1
REMARK SMILES IDX 6 1 7 2 8 3 10 4 11 5 5 6 4 7 3 8 2 9 1 10 12 11 9 12
REMARK H PARENT 9 13
REMARK Flexibility Score: inf
ROOT
ATOM      1  C   UNL     1      19.464   0.525 -16.306  1.00  0.00     0.016 A 
ATOM      2  C   UNL     1      20.448   1.165 -15.548  1.00  0.00     0.047 A 
ATOM      3  C   UNL     1      21.700   1.446 -16.107  1.00  0.00     0.119 A 
ATOM      4  C   UNL     1      21.971   1.084 -17.435  1.00  0.00     0.094 A 
ATOM      5  C   UNL     1      20.992   0.443 -18.202  1.00  0.00     0.142 A 
ATOM      6  C   UNL     1      19.729   0.161 -17.634  1.00  0.00     0.018 A 
ATOM      7  C   UNL     1      18.771  -0.481 -18.424  1.00  0.00     0.019 A 
ATOM      8  C   UNL     1      19.086  -0.822 -19.740  1.00  0.00     0.094 A 
ATOM      9  C   UNL     1      20.357  -0.512 -20.235  1.00  0.00     0.336 A 
ATOM     10  O   UNL     1      20.660  -0.812 -21.419  1.00  0.00    -0.246 OA
ATOM     11  O   UNL     1      21.251   0.100 -19.462  1.00  0.00    -0.423 OA
ENDROOT
BRANCH   3  12
ATOM     12  O   UNL     1      22.668   2.085 -15.336  1.00  0.00    -0.508 OA
ATOM     13  H   UNL     1      23.149   2.913 -15.669  1.00  0.00     0.293 HD
ENDBRANCH   3  12
TORSDOF 1
ENDMDL
MODEL 8
REMARK VINA RESULT:    -4.826     16.264     17.901
REMARK INTER + INTRA:          -4.968
REMARK INTER:                  -4.968
REMARK INTRA:                   0.000
REMARK UNBOUND:                 0.000
REMARK SMILES O=c1ccc2ccc(O)cc2o1
REMARK SMILES IDX 6 1 7 2 8 3 10 4 11 5 5 6 4 7 3 8 2 9 1 10 12 11 9 12
REMARK H PARENT 9 13
REMARK Flexibility Score: inf
ROOT
ATOM      1  C   UNL     1       7.753  -6.923  -7.797  1.00  0.00     0.016 A 
ATOM      2  C   UNL     1       8.431  -6.172  -6.832  1.00  0.00     0.047 A 
ATOM      3  C   UNL     1       9.753  -5.767  -7.052  1.00  0.00     0.119 A 
ATOM      4  C   UNL     1      10.403  -6.116  -8.245  1.00  0.00     0.094 A 
ATOM      5  C   UNL     1       9.732  -6.867  -9.216  1.00  0.00     0.142 A 
ATOM      6  C   UNL     1       8.397  -7.274  -8.991  1.00  0.00     0.018 A 
ATOM      7  C   UNL     1       7.753  -8.023  -9.980  1.00  0.00     0.019 A 
ATOM      8  C   UNL     1       8.439  -8.346 -11.151  1.00  0.00     0.094 A 
ATOM      9  C   UNL     1       9.760  -7.909 -11.305  1.00  0.00     0.336 A 
ATOM     10  O   UNL     1      10.395  -8.190 -12.354  1.00  0.00    -0.246 OA
ATOM     11  O   UNL     1      10.350  -7.197 -10.348  1.00  0.00    -0.423 OA
ENDROOT
BRANCH   3  12
ATOM     12  O   UNL     1      10.413  -5.020  -6.079  1.00  0.00    -0.508 OA
ATOM     13  H   UNL     1      11.241  -4.477  -6.298  1.00  0.00     0.293 HD
ENDBRANCH   3  12
TORSDOF 1
ENDMDL
MODEL 9
REMARK VINA RESULT:    -4.791     16.443     18.233
REMARK INTER + INTRA:          -4.931
REMARK INTER:                  -4.931
REMARK INTRA:                   0.000
REMARK UNBOUND:                 0.000
REMARK SMILES O=c1ccc2ccc(O)cc2o1
REMARK SMILES IDX 6 1 7 2 8 3 10 4 11 5 5 6 4 7 3 8 2 9 1 10 12 11 9 12
REMARK H PARENT 9 13
REMARK Flexibility Score: inf
ROOT
ATOM      1  C   UNL     1       8.167  -5.000 -10.205  1.00  0.00     0.016 A 
ATOM      2  C   UNL     1       8.270  -5.519 -11.499  1.00  0.00     0.047 A 
ATOM      3  C   UNL     1       8.270  -6.903 -11.708  1.00  0.00     0.119 A 
ATOM      4  C   UNL     1       8.167  -7.776 -10.614  1.00  0.00     0.094 A 
ATOM      5  C   UNL     1       8.064  -7.266  -9.316  1.00  0.00     0.142 A 
ATOM      6  C   UNL     1       8.064  -5.868  -9.109  1.00  0.00     0.018 A 
ATOM      7  C   UNL     1       7.960  -5.388  -7.800  1.00  0.00     0.019 A 
ATOM      8  C   UNL     1       7.859  -6.294  -6.744  1.00  0.00     0.094 A 
ATOM      9  C   UNL     1       7.866  -7.665  -7.025  1.00  0.00     0.336 A 
ATOM     10  O   UNL     1       7.776  -8.498  -6.086  1.00  0.00    -0.246 OA
ATOM     11  O   UNL     1       7.966  -8.096  -8.280  1.00  0.00    -0.423 OA
ENDROOT
BRANCH   3  12
ATOM     12  O   UNL     1       8.372  -7.401 -13.004  1.00  0.00    -0.508 OA
ATOM     13  H   UNL     1       9.117  -7.109 -13.627  1.00  0.00     0.293 HD
ENDBRANCH   3  12
TORSDOF 1
ENDMDL
