MODEL 1
REMARK VINA RESULT:    -1.768      0.000      0.000
REMARK INTER + INTRA:          -2.053
REMARK INTER:                  -4.454
REMARK INTRA:                   2.401
REMARK UNBOUND:                 2.401
REMARK SMILES CCCCCCCCCCCCCCCCCCCCCCCCCCCC(=O)[O-]
REMARK SMILES IDX 15 1 16 2 17 3 18 4 19 5 20 6 21 7 22 8 23 9 24 10 25 11
REMARK SMILES IDX 26 12 27 13 28 14 29 15 30 16 14 17 13 18 12 19 11 20 10 21
REMARK SMILES IDX 9 22 8 23 7 24 6 25 5 26 4 27 3 28 2 29 1 30
REMARK H PARENT
REMARK Flexibility Score: inf
ROOT
ATOM      1  C   UNL     1      -7.487  -7.959  -6.298  1.00  0.00     0.000 C 
ENDROOT
BRANCH   1   2
ATOM      2  C   UNL     1      -8.603  -8.707  -7.050  1.00  0.00     0.000 C 
BRANCH   2   3
ATOM      3  C   UNL     1      -8.412 -10.231  -7.178  1.00  0.00     0.000 C 
BRANCH   3   4
ATOM      4  C   UNL     1      -8.303 -10.946  -5.822  1.00  0.00     0.000 C 
BRANCH   4   5
ATOM      5  C   UNL     1      -9.664 -11.119  -5.129  1.00  0.00     0.000 C 
BRANCH   5   6
ATOM      6  C   UNL     1     -10.509  -9.824  -5.098  1.00  0.00     0.000 C 
BRANCH   6   7
ATOM      7  C   UNL     1     -12.005 -10.116  -4.879  1.00  0.00     0.000 C 
BRANCH   7   8
ATOM      8  C   UNL     1     -12.902  -9.444  -5.931  1.00  0.00     0.000 C 
BRANCH   8   9
ATOM      9  C   UNL     1     -12.185  -8.303  -6.673  1.00  0.00     0.000 C 
BRANCH   9  10
ATOM     10  C   UNL     1     -13.096  -7.590  -7.683  1.00  0.00     0.000 C 
BRANCH  10  11
ATOM     11  C   UNL     1     -14.224  -6.795  -6.998  1.00  0.00     0.000 C 
BRANCH  11  12
ATOM     12  C   UNL     1     -15.356  -7.702  -6.478  1.00  0.00     0.006 C 
BRANCH  12  13
ATOM     13  C   UNL     1     -16.486  -7.945  -7.493  1.00  0.00     0.053 C 
BRANCH  13  14
ATOM     14  C   UNL     1     -16.704  -9.405  -7.743  1.00  0.00     0.041 C 
ATOM     15  O   UNL     1     -16.980  -9.816  -8.902  1.00  0.00    -0.550 OA
ATOM     16  O   UNL     1     -16.578 -10.317  -6.702  1.00  0.00    -0.550 OA
ENDBRANCH  13  14
ENDBRANCH  12  13
ENDBRANCH  11  12
ENDBRANCH  10  11
ENDBRANCH   9  10
ENDBRANCH   8   9
ENDBRANCH   7   8
ENDBRANCH   6   7
ENDBRANCH   5   6
ENDBRANCH   4   5
ENDBRANCH   3   4
ENDBRANCH   2   3
ENDBRANCH   1   2
BRANCH   1  17
ATOM     17  C   UNL     1      -7.141  -8.595  -4.940  1.00  0.00     0.000 C 
BRANCH  17  18
ATOM     18  C   UNL     1      -6.144  -9.757  -5.077  1.00  0.00     0.000 C 
BRANCH  18  19
ATOM     19  C   UNL     1      -4.952  -9.432  -5.994  1.00  0.00     0.000 C 
BRANCH  19  20
ATOM     20  C   UNL     1      -5.204  -9.819  -7.463  1.00  0.00     0.000 C 
BRANCH  20  21
ATOM     21  C   UNL     1      -4.464 -11.090  -7.928  1.00  0.00     0.000 C 
BRANCH  21  22
ATOM     22  C   UNL     1      -2.983 -10.830  -8.272  1.00  0.00    -0.000 C 
BRANCH  22  23
ATOM     23  C   UNL     1      -2.047 -11.079  -7.077  1.00  0.00    -0.000 C 
BRANCH  23  24
ATOM     24  C   UNL     1      -2.319 -10.127  -5.897  1.00  0.00    -0.000 C 
BRANCH  24  25
ATOM     25  C   UNL     1      -1.823  -8.692  -6.156  1.00  0.00    -0.000 C 
BRANCH  25  26
ATOM     26  C   UNL     1      -1.531  -7.875  -4.875  1.00  0.00    -0.000 C 
BRANCH  26  27
ATOM     27  C   UNL     1      -1.969  -6.402  -4.965  1.00  0.00    -0.000 C 
BRANCH  27  28
ATOM     28  C   UNL     1      -3.322  -6.162  -5.659  1.00  0.00    -0.000 C 
BRANCH  28  29
ATOM     29  C   UNL     1      -3.230  -5.856  -7.166  1.00  0.00    -0.003 C 
ATOM     30  C   UNL     1      -4.197  -6.694  -8.006  1.00  0.00     0.004 C 
ENDBRANCH  28  29
ENDBRANCH  27  28
ENDBRANCH  26  27
ENDBRANCH  25  26
ENDBRANCH  24  25
ENDBRANCH  23  24
ENDBRANCH  22  23
ENDBRANCH  21  22
ENDBRANCH  20  21
ENDBRANCH  19  20
ENDBRANCH  18  19
ENDBRANCH  17  18
ENDBRANCH   1  17
TORSDOF 26
ENDMDL
MODEL 2
REMARK VINA RESULT:    -1.616      2.664      9.553
REMARK INTER + INTRA:          -1.671
REMARK INTER:                  -2.878
REMARK INTRA:                   1.207
REMARK UNBOUND:                 2.401
REMARK SMILES CCCCCCCCCCCCCCCCCCCCCCCCCCCC(=O)[O-]
REMARK SMILES IDX 15 1 16 2 17 3 18 4 19 5 20 6 21 7 22 8 23 9 24 10 25 11
REMARK SMILES IDX 26 12 27 13 28 14 29 15 30 16 14 17 13 18 12 19 11 20 10 21
REMARK SMILES IDX 9 22 8 23 7 24 6 25 5 26 4 27 3 28 2 29 1 30
REMARK H PARENT
REMARK Flexibility Score: inf
ROOT
ATOM      1  C   UNL     1      -5.552 -11.060  -6.747  1.00  0.00     0.000 C 
ENDROOT
BRANCH   1   2
ATOM      2  C   UNL     1      -4.321 -10.180  -6.463  1.00  0.00     0.000 C 
BRANCH   2   3
ATOM      3  C   UNL     1      -3.115 -10.907  -5.836  1.00  0.00     0.000 C 
BRANCH   3   4
ATOM      4  C   UNL     1      -1.951  -9.965  -5.490  1.00  0.00     0.000 C 
BRANCH   4   5
ATOM      5  C   UNL     1      -2.424  -8.621  -4.914  1.00  0.00     0.000 C 
BRANCH   5   6
ATOM      6  C   UNL     1      -1.384  -7.486  -5.062  1.00  0.00     0.000 C 
BRANCH   6   7
ATOM      7  C   UNL     1      -2.048  -6.098  -5.124  1.00  0.00     0.000 C 
BRANCH   7   8
ATOM      8  C   UNL     1      -2.873  -5.889  -6.404  1.00  0.00     0.000 C 
BRANCH   8   9
ATOM      9  C   UNL     1      -4.346  -5.562  -6.106  1.00  0.00     0.000 C 
BRANCH   9  10
ATOM     10  C   UNL     1      -4.880  -6.310  -4.875  1.00  0.00     0.000 C 
BRANCH  10  11
ATOM     11  C   UNL     1      -5.869  -7.430  -5.252  1.00  0.00     0.000 C 
BRANCH  11  12
ATOM     12  C   UNL     1      -6.250  -7.405  -6.745  1.00  0.00     0.006 C 
BRANCH  12  13
ATOM     13  C   UNL     1      -7.718  -7.033  -7.016  1.00  0.00     0.053 C 
BRANCH  13  14
ATOM     14  C   UNL     1      -8.409  -6.560  -5.775  1.00  0.00     0.041 C 
ATOM     15  O   UNL     1      -7.815  -5.794  -4.970  1.00  0.00    -0.550 OA
ATOM     16  O   UNL     1      -9.720  -6.943  -5.518  1.00  0.00    -0.550 OA
ENDBRANCH  13  14
ENDBRANCH  12  13
ENDBRANCH  11  12
ENDBRANCH  10  11
ENDBRANCH   9  10
ENDBRANCH   8   9
ENDBRANCH   7   8
ENDBRANCH   6   7
ENDBRANCH   5   6
ENDBRANCH   4   5
ENDBRANCH   3   4
ENDBRANCH   2   3
ENDBRANCH   1   2
BRANCH   1  17
ATOM     17  C   UNL     1      -6.730 -10.276  -7.353  1.00  0.00     0.000 C 
BRANCH  17  18
ATOM     18  C   UNL     1      -8.069 -11.011  -7.183  1.00  0.00     0.000 C 
BRANCH  18  19
ATOM     19  C   UNL     1      -8.887 -10.517  -5.977  1.00  0.00     0.000 C 
BRANCH  19  20
ATOM     20  C   UNL     1     -10.326 -11.064  -5.967  1.00  0.00     0.000 C 
BRANCH  20  21
ATOM     21  C   UNL     1     -11.263 -10.386  -4.945  1.00  0.00     0.000 C 
BRANCH  21  22
ATOM     22  C   UNL     1     -11.136  -8.849  -4.941  1.00  0.00    -0.000 C 
BRANCH  22  23
ATOM     23  C   UNL     1     -12.503  -8.144  -4.921  1.00  0.00    -0.000 C 
BRANCH  23  24
ATOM     24  C   UNL     1     -13.352  -8.450  -6.170  1.00  0.00    -0.000 C 
BRANCH  24  25
ATOM     25  C   UNL     1     -14.174  -7.238  -6.649  1.00  0.00    -0.000 C 
BRANCH  25  26
ATOM     26  C   UNL     1     -15.302  -7.585  -7.649  1.00  0.00    -0.000 C 
BRANCH  26  27
ATOM     27  C   UNL     1     -16.427  -8.444  -7.043  1.00  0.00    -0.000 C 
BRANCH  27  28
ATOM     28  C   UNL     1     -15.961  -9.723  -6.325  1.00  0.00    -0.000 C 
BRANCH  28  29
ATOM     29  C   UNL     1     -16.980 -10.878  -6.332  1.00  0.00    -0.003 C 
ATOM     30  C   UNL     1     -17.750 -11.004  -5.016  1.00  0.00     0.004 C 
ENDBRANCH  28  29
ENDBRANCH  27  28
ENDBRANCH  26  27
ENDBRANCH  25  26
ENDBRANCH  24  25
ENDBRANCH  23  24
ENDBRANCH  22  23
ENDBRANCH  21  22
ENDBRANCH  20  21
ENDBRANCH  19  20
ENDBRANCH  18  19
ENDBRANCH  17  18
ENDBRANCH   1  17
TORSDOF 26
ENDMDL
MODEL 3
REMARK VINA RESULT:    -1.585      2.356      9.403
REMARK INTER + INTRA:          -1.592
REMARK INTER:                  -1.791
REMARK INTRA:                   0.199
REMARK UNBOUND:                 2.401
REMARK SMILES CCCCCCCCCCCCCCCCCCCCCCCCCCCC(=O)[O-]
REMARK SMILES IDX 15 1 16 2 17 3 18 4 19 5 20 6 21 7 22 8 23 9 24 10 25 11
REMARK SMILES IDX 26 12 27 13 28 14 29 15 30 16 14 17 13 18 12 19 11 20 10 21
REMARK SMILES IDX 9 22 8 23 7 24 6 25 5 26 4 27 3 28 2 29 1 30
REMARK H PARENT
REMARK Flexibility Score: inf
ROOT
ATOM      1  C   UNL     1      -5.369 -11.121  -6.723  1.00  0.00     0.000 C 
ENDROOT
BRANCH   1   2
ATOM      2  C   UNL     1      -4.134 -10.274  -6.366  1.00  0.00     0.000 C 
BRANCH   2   3
ATOM      3  C   UNL     1      -3.239 -10.844  -5.247  1.00  0.00     0.000 C 
BRANCH   3   4
ATOM      4  C   UNL     1      -2.030  -9.951  -4.923  1.00  0.00     0.000 C 
BRANCH   4   5
ATOM      5  C   UNL     1      -2.323  -8.457  -5.128  1.00  0.00     0.000 C 
BRANCH   5   6
ATOM      6  C   UNL     1      -1.049  -7.587  -5.231  1.00  0.00     0.000 C 
BRANCH   6   7
ATOM      7  C   UNL     1      -1.325  -6.113  -4.885  1.00  0.00     0.000 C 
BRANCH   7   8
ATOM      8  C   UNL     1      -2.211  -5.413  -5.928  1.00  0.00     0.000 C 
BRANCH   8   9
ATOM      9  C   UNL     1      -3.511  -4.860  -5.318  1.00  0.00     0.000 C 
BRANCH   9  10
ATOM     10  C   UNL     1      -4.494  -5.969  -4.916  1.00  0.00     0.000 C 
BRANCH  10  11
ATOM     11  C   UNL     1      -5.293  -6.509  -6.117  1.00  0.00     0.000 C 
BRANCH  11  12
ATOM     12  C   UNL     1      -6.816  -6.354  -5.934  1.00  0.00     0.006 C 
BRANCH  12  13
ATOM     13  C   UNL     1      -7.575  -7.687  -5.814  1.00  0.00     0.053 C 
BRANCH  13  14
ATOM     14  C   UNL     1      -9.057  -7.491  -5.889  1.00  0.00     0.041 C 
ATOM     15  O   UNL     1      -9.698  -7.105  -4.875  1.00  0.00    -0.550 OA
ATOM     16  O   UNL     1      -9.730  -7.710  -7.085  1.00  0.00    -0.550 OA
ENDBRANCH  13  14
ENDBRANCH  12  13
ENDBRANCH  11  12
ENDBRANCH  10  11
ENDBRANCH   9  10
ENDBRANCH   8   9
ENDBRANCH   7   8
ENDBRANCH   6   7
ENDBRANCH   5   6
ENDBRANCH   4   5
ENDBRANCH   3   4
ENDBRANCH   2   3
ENDBRANCH   1   2
BRANCH   1  17
ATOM     17  C   UNL     1      -6.664 -10.294  -6.813  1.00  0.00     0.000 C 
BRANCH  17  18
ATOM     18  C   UNL     1      -7.901 -11.097  -6.379  1.00  0.00     0.000 C 
BRANCH  18  19
ATOM     19  C   UNL     1      -8.874 -10.291  -5.501  1.00  0.00     0.000 C 
BRANCH  19  20
ATOM     20  C   UNL     1     -10.101 -11.110  -5.061  1.00  0.00     0.000 C 
BRANCH  20  21
ATOM     21  C   UNL     1     -11.410 -10.300  -4.957  1.00  0.00     0.000 C 
BRANCH  21  22
ATOM     22  C   UNL     1     -12.251 -10.351  -6.249  1.00  0.00    -0.000 C 
BRANCH  22  23
ATOM     23  C   UNL     1     -13.628 -11.002  -6.032  1.00  0.00    -0.000 C 
BRANCH  23  24
ATOM     24  C   UNL     1     -14.483 -10.256  -4.988  1.00  0.00    -0.000 C 
BRANCH  24  25
ATOM     25  C   UNL     1     -15.847  -9.805  -5.542  1.00  0.00    -0.000 C 
BRANCH  25  26
ATOM     26  C   UNL     1     -15.814  -9.326  -7.013  1.00  0.00    -0.000 C 
BRANCH  26  27
ATOM     27  C   UNL     1     -16.615  -8.036  -7.264  1.00  0.00    -0.000 C 
BRANCH  27  28
ATOM     28  C   UNL     1     -16.054  -7.121  -8.367  1.00  0.00    -0.000 C 
BRANCH  28  29
ATOM     29  C   UNL     1     -14.517  -7.020  -8.405  1.00  0.00    -0.003 C 
ATOM     30  C   UNL     1     -13.876  -7.139  -7.020  1.00  0.00     0.004 C 
ENDBRANCH  28  29
ENDBRANCH  27  28
ENDBRANCH  26  27
ENDBRANCH  25  26
ENDBRANCH  24  25
ENDBRANCH  23  24
ENDBRANCH  22  23
ENDBRANCH  21  22
ENDBRANCH  20  21
ENDBRANCH  19  20
ENDBRANCH  18  19
ENDBRANCH  17  18
ENDBRANCH   1  17
TORSDOF 26
ENDMDL
MODEL 4
REMARK VINA RESULT:    -0.201      1.024      3.146
REMARK INTER + INTRA:           1.895
REMARK INTER:                  -2.707
REMARK INTRA:                   4.602
REMARK UNBOUND:                 2.401
REMARK SMILES CCCCCCCCCCCCCCCCCCCCCCCCCCCC(=O)[O-]
REMARK SMILES IDX 15 1 16 2 17 3 18 4 19 5 20 6 21 7 22 8 23 9 24 10 25 11
REMARK SMILES IDX 26 12 27 13 28 14 29 15 30 16 14 17 13 18 12 19 11 20 10 21
REMARK SMILES IDX 9 22 8 23 7 24 6 25 5 26 4 27 3 28 2 29 1 30
REMARK H PARENT
REMARK Flexibility Score: inf
ROOT
ATOM      1  C   UNL     1      -7.327  -7.905  -6.397  1.00  0.00     0.000 C 
ENDROOT
BRANCH   1   2
ATOM      2  C   UNL     1      -8.160  -8.932  -7.186  1.00  0.00     0.000 C 
BRANCH   2   3
ATOM      3  C   UNL     1      -7.725 -10.402  -7.027  1.00  0.00     0.000 C 
BRANCH   3   4
ATOM      4  C   UNL     1      -7.949 -10.951  -5.608  1.00  0.00     0.000 C 
BRANCH   4   5
ATOM      5  C   UNL     1      -9.437 -11.122  -5.264  1.00  0.00     0.000 C 
BRANCH   5   6
ATOM      6  C   UNL     1     -10.224  -9.792  -5.251  1.00  0.00     0.000 C 
BRANCH   6   7
ATOM      7  C   UNL     1     -11.745 -10.020  -5.176  1.00  0.00     0.000 C 
BRANCH   7   8
ATOM      8  C   UNL     1     -12.512  -9.291  -6.290  1.00  0.00     0.000 C 
BRANCH   8   9
ATOM      9  C   UNL     1     -12.397  -7.761  -6.179  1.00  0.00     0.000 C 
BRANCH   9  10
ATOM     10  C   UNL     1     -13.658  -7.036  -6.673  1.00  0.00     0.000 C 
BRANCH  10  11
ATOM     11  C   UNL     1     -14.831  -7.158  -5.683  1.00  0.00     0.000 C 
BRANCH  11  12
ATOM     12  C   UNL     1     -15.441  -8.573  -5.659  1.00  0.00     0.006 C 
BRANCH  12  13
ATOM     13  C   UNL     1     -16.494  -8.825  -6.751  1.00  0.00     0.053 C 
BRANCH  13  14
ATOM     14  C   UNL     1     -17.104 -10.187  -6.631  1.00  0.00     0.041 C 
ATOM     15  O   UNL     1     -17.638 -10.550  -5.549  1.00  0.00    -0.550 OA
ATOM     16  O   UNL     1     -17.108 -11.048  -7.722  1.00  0.00    -0.550 OA
ENDBRANCH  13  14
ENDBRANCH  12  13
ENDBRANCH  11  12
ENDBRANCH  10  11
ENDBRANCH   9  10
ENDBRANCH   8   9
ENDBRANCH   7   8
ENDBRANCH   6   7
ENDBRANCH   5   6
ENDBRANCH   4   5
ENDBRANCH   3   4
ENDBRANCH   2   3
ENDBRANCH   1   2
BRANCH   1  17
ATOM     17  C   UNL     1      -7.015  -8.357  -4.959  1.00  0.00     0.000 C 
BRANCH  17  18
ATOM     18  C   UNL     1      -5.724  -9.187  -4.875  1.00  0.00     0.000 C 
BRANCH  18  19
ATOM     19  C   UNL     1      -4.692  -8.821  -5.957  1.00  0.00     0.000 C 
BRANCH  19  20
ATOM     20  C   UNL     1      -3.480  -8.058  -5.393  1.00  0.00     0.000 C 
BRANCH  20  21
ATOM     21  C   UNL     1      -3.619  -6.522  -5.420  1.00  0.00     0.000 C 
BRANCH  21  22
ATOM     22  C   UNL     1      -3.147  -5.899  -6.750  1.00  0.00    -0.000 C 
BRANCH  22  23
ATOM     23  C   UNL     1      -4.133  -6.153  -7.903  1.00  0.00    -0.000 C 
BRANCH  23  24
ATOM     24  C   UNL     1      -4.615  -7.615  -7.966  1.00  0.00    -0.000 C 
BRANCH  24  25
ATOM     25  C   UNL     1      -3.613  -8.548  -8.672  1.00  0.00    -0.000 C 
BRANCH  25  26
ATOM     26  C   UNL     1      -4.242  -9.831  -9.264  1.00  0.00    -0.000 C 
BRANCH  26  27
ATOM     27  C   UNL     1      -3.913 -11.108  -8.469  1.00  0.00    -0.000 C 
BRANCH  27  28
ATOM     28  C   UNL     1      -2.526 -11.125  -7.802  1.00  0.00    -0.000 C 
BRANCH  28  29
ATOM     29  C   UNL     1      -2.498 -10.599  -6.354  1.00  0.00    -0.003 C 
ATOM     30  C   UNL     1      -1.082 -10.501  -5.781  1.00  0.00     0.004 C 
ENDBRANCH  28  29
ENDBRANCH  27  28
ENDBRANCH  26  27
ENDBRANCH  25  26
ENDBRANCH  24  25
ENDBRANCH  23  24
ENDBRANCH  22  23
ENDBRANCH  21  22
ENDBRANCH  20  21
ENDBRANCH  19  20
ENDBRANCH  18  19
ENDBRANCH  17  18
ENDBRANCH   1  17
TORSDOF 26
ENDMDL
MODEL 5
REMARK VINA RESULT:     0.129      4.089     11.742
REMARK INTER + INTRA:           2.726
REMARK INTER:                  -0.462
REMARK INTRA:                   3.188
REMARK UNBOUND:                 2.401
REMARK SMILES CCCCCCCCCCCCCCCCCCCCCCCCCCCC(=O)[O-]
REMARK SMILES IDX 15 1 16 2 17 3 18 4 19 5 20 6 21 7 22 8 23 9 24 10 25 11
REMARK SMILES IDX 26 12 27 13 28 14 29 15 30 16 14 17 13 18 12 19 11 20 10 21
REMARK SMILES IDX 9 22 8 23 7 24 6 25 5 26 4 27 3 28 2 29 1 30
REMARK H PARENT
REMARK Flexibility Score: inf
ROOT
ATOM      1  C   UNL     1     -14.190  -7.562  -5.836  1.00  0.00     0.000 C 
ENDROOT
BRANCH   1   2
ATOM      2  C   UNL     1     -12.887  -8.307  -5.490  1.00  0.00     0.000 C 
BRANCH   2   3
ATOM      3  C   UNL     1     -11.661  -7.929  -6.344  1.00  0.00     0.000 C 
BRANCH   3   4
ATOM      4  C   UNL     1     -10.329  -8.072  -5.591  1.00  0.00     0.000 C 
BRANCH   4   5
ATOM      5  C   UNL     1      -9.738  -9.488  -5.691  1.00  0.00     0.000 C 
BRANCH   5   6
ATOM      6  C   UNL     1      -8.244  -9.506  -6.087  1.00  0.00     0.000 C 
BRANCH   6   7
ATOM      7  C   UNL     1      -8.040  -9.933  -7.552  1.00  0.00     0.000 C 
BRANCH   7   8
ATOM      8  C   UNL     1      -6.825 -10.857  -7.739  1.00  0.00     0.000 C 
BRANCH   8   9
ATOM      9  C   UNL     1      -5.743 -10.628  -6.670  1.00  0.00     0.000 C 
BRANCH   9  10
ATOM     10  C   UNL     1      -5.551  -9.141  -6.332  1.00  0.00     0.000 C 
BRANCH  10  11
ATOM     11  C   UNL     1      -4.144  -8.634  -6.698  1.00  0.00     0.000 C 
BRANCH  11  12
ATOM     12  C   UNL     1      -3.103  -8.931  -5.601  1.00  0.00     0.006 C 
BRANCH  12  13
ATOM     13  C   UNL     1      -2.577  -7.681  -4.875  1.00  0.00     0.053 C 
BRANCH  13  14
ATOM     14  C   UNL     1      -2.958  -6.421  -5.590  1.00  0.00     0.041 C 
ATOM     15  O   UNL     1      -4.082  -6.326  -6.151  1.00  0.00    -0.550 OA
ATOM     16  O   UNL     1      -2.084  -5.342  -5.615  1.00  0.00    -0.550 OA
ENDBRANCH  13  14
ENDBRANCH  12  13
ENDBRANCH  11  12
ENDBRANCH  10  11
ENDBRANCH   9  10
ENDBRANCH   8   9
ENDBRANCH   7   8
ENDBRANCH   6   7
ENDBRANCH   5   6
ENDBRANCH   4   5
ENDBRANCH   3   4
ENDBRANCH   2   3
ENDBRANCH   1   2
BRANCH   1  17
ATOM     17  C   UNL     1     -15.431  -8.167  -5.154  1.00  0.00     0.000 C 
BRANCH  17  18
ATOM     18  C   UNL     1     -16.743  -7.602  -5.722  1.00  0.00     0.000 C 
BRANCH  18  19
ATOM     19  C   UNL     1     -17.332  -6.460  -4.875  1.00  0.00     0.000 C 
BRANCH  19  20
ATOM     20  C   UNL     1     -17.112  -5.073  -5.505  1.00  0.00     0.000 C 
BRANCH  20  21
ATOM     21  C   UNL     1     -17.984  -4.786  -6.745  1.00  0.00     0.000 C 
BRANCH  21  22
ATOM     22  C   UNL     1     -18.020  -5.964  -7.740  1.00  0.00    -0.000 C 
BRANCH  22  23
ATOM     23  C   UNL     1     -16.860  -5.921  -8.749  1.00  0.00    -0.000 C 
BRANCH  23  24
ATOM     24  C   UNL     1     -15.982  -7.187  -8.704  1.00  0.00    -0.000 C 
BRANCH  24  25
ATOM     25  C   UNL     1     -16.730  -8.417  -8.153  1.00  0.00    -0.000 C 
BRANCH  25  26
ATOM     26  C   UNL     1     -16.849  -9.593  -9.152  1.00  0.00    -0.000 C 
BRANCH  26  27
ATOM     27  C   UNL     1     -16.825 -10.979  -8.484  1.00  0.00    -0.000 C 
BRANCH  27  28
ATOM     28  C   UNL     1     -15.841 -11.124  -7.310  1.00  0.00    -0.000 C 
BRANCH  28  29
ATOM     29  C   UNL     1     -16.484 -11.038  -5.912  1.00  0.00    -0.003 C 
ATOM     30  C   UNL     1     -17.937 -10.562  -5.951  1.00  0.00     0.004 C 
ENDBRANCH  28  29
ENDBRANCH  27  28
ENDBRANCH  26  27
ENDBRANCH  25  26
ENDBRANCH  24  25
ENDBRANCH  23  24
ENDBRANCH  22  23
ENDBRANCH  21  22
ENDBRANCH  20  21
ENDBRANCH  19  20
ENDBRANCH  18  19
ENDBRANCH  17  18
ENDBRANCH   1  17
TORSDOF 26
ENDMDL
