MODEL 1
REMARK VINA RESULT:    -4.783      0.000      0.000
REMARK INTER + INTRA:          -7.363
REMARK INTER:                  -6.461
REMARK INTRA:                  -0.902
REMARK UNBOUND:                -0.902
REMARK SMILES C=C[C@@](C)(CCC=C(C)C)OC(C)=O
REMARK SMILES IDX 3 1 4 2 5 3 6 4 7 5 9 6 8 7 10 8 2 9 1 10 11 11 12 12 14 13
REMARK SMILES IDX 13 14
REMARK H PARENT
REMARK Flexibility Score: inf
ROOT
ATOM      1  C   UNL     1     -35.604  -3.950 -13.808  1.00  0.00     0.127 C 
ATOM      2  C   UNL     1     -35.836  -5.081 -14.835  1.00  0.00     0.061 C 
ENDROOT
BRANCH   1   3
ATOM      3  C   UNL     1     -35.770  -4.499 -12.362  1.00  0.00     0.057 C 
BRANCH   3   4
ATOM      4  C   UNL     1     -34.545  -4.303 -11.446  1.00  0.00     0.032 C 
BRANCH   4   5
ATOM      5  C   UNL     1     -34.845  -3.347 -10.312  1.00  0.00    -0.028 C 
ATOM      6  C   UNL     1     -32.595  -2.245 -10.385  1.00  0.00     0.039 C 
ATOM      7  C   UNL     1     -33.983  -2.428  -9.822  1.00  0.00    -0.080 C 
ATOM      8  C   UNL     1     -34.433  -1.569  -8.667  1.00  0.00     0.039 C 
ENDBRANCH   4   5
ENDBRANCH   3   4
ENDBRANCH   1   3
BRANCH   1   9
ATOM      9  C   UNL     1     -34.186  -3.419 -13.961  1.00  0.00     0.013 C 
ATOM     10  C   UNL     1     -33.933  -2.141 -14.265  1.00  0.00     0.008 C 
ENDBRANCH   1   9
BRANCH   1  11
ATOM     11  O   UNL     1     -36.554  -2.895 -14.016  1.00  0.00    -0.455 OA
BRANCH  11  12
ATOM     12  C   UNL     1     -37.713  -2.674 -13.260  1.00  0.00     0.303 C 
ATOM     13  O   UNL     1     -38.741  -3.388 -13.417  1.00  0.00    -0.253 OA
ATOM     14  C   UNL     1     -37.712  -1.589 -12.238  1.00  0.00     0.139 C 
ENDBRANCH  11  12
ENDBRANCH   1  11
TORSDOF 6
ENDMDL
MODEL 2
REMARK VINA RESULT:    -4.716     13.648     15.242
REMARK INTER + INTRA:          -7.272
REMARK INTER:                  -6.363
REMARK INTRA:                  -0.909
REMARK UNBOUND:                -0.902
REMARK SMILES C=C[C@@](C)(CCC=C(C)C)OC(C)=O
REMARK SMILES IDX 3 1 4 2 5 3 6 4 7 5 9 6 8 7 10 8 2 9 1 10 11 11 12 12 14 13
REMARK SMILES IDX 13 14
REMARK H PARENT
REMARK Flexibility Score: inf
ROOT
ATOM      1  C   UNL     1     -21.109  -5.852  -8.400  1.00  0.00     0.127 C 
ATOM      2  C   UNL     1     -20.901  -7.383  -8.395  1.00  0.00     0.061 C 
ENDROOT
BRANCH   1   3
ATOM      3  C   UNL     1     -19.762  -5.131  -8.695  1.00  0.00     0.057 C 
BRANCH   3   4
ATOM      4  C   UNL     1     -19.647  -3.706  -8.118  1.00  0.00     0.032 C 
BRANCH   4   5
ATOM      5  C   UNL     1     -19.020  -2.752  -9.111  1.00  0.00    -0.028 C 
ATOM      6  C   UNL     1     -21.211  -1.842  -9.920  1.00  0.00     0.039 C 
ATOM      7  C   UNL     1     -19.703  -1.919  -9.927  1.00  0.00    -0.080 C 
ATOM      8  C   UNL     1     -18.922  -1.049 -10.879  1.00  0.00     0.039 C 
ENDBRANCH   4   5
ENDBRANCH   3   4
ENDBRANCH   1   3
BRANCH   1   9
ATOM      9  C   UNL     1     -22.100  -5.487  -9.496  1.00  0.00     0.013 C 
ATOM     10  C   UNL     1     -21.786  -5.558 -10.794  1.00  0.00     0.008 C 
ENDBRANCH   1   9
BRANCH   1  11
ATOM     11  O   UNL     1     -21.599  -5.417  -7.124  1.00  0.00    -0.455 OA
BRANCH  11  12
ATOM     12  C   UNL     1     -22.882  -4.917  -6.866  1.00  0.00     0.303 C 
ATOM     13  O   UNL     1     -23.822  -5.680  -6.513  1.00  0.00    -0.253 OA
ATOM     14  C   UNL     1     -23.123  -3.452  -6.990  1.00  0.00     0.139 C 
ENDBRANCH  11  12
ENDBRANCH   1  11
TORSDOF 6
ENDMDL
MODEL 3
REMARK VINA RESULT:    -4.636      2.629      3.904
REMARK INTER + INTRA:          -7.164
REMARK INTER:                  -6.479
REMARK INTRA:                  -0.685
REMARK UNBOUND:                -0.902
REMARK SMILES C=C[C@@](C)(CCC=C(C)C)OC(C)=O
REMARK SMILES IDX 3 1 4 2 5 3 6 4 7 5 9 6 8 7 10 8 2 9 1 10 11 11 12 12 14 13
REMARK SMILES IDX 13 14
REMARK H PARENT
REMARK Flexibility Score: inf
ROOT
ATOM      1  C   UNL     1     -35.014  -3.069 -10.944  1.00  0.00     0.127 C 
ATOM      2  C   UNL     1     -35.514  -4.485 -11.308  1.00  0.00     0.061 C 
ENDROOT
BRANCH   1   3
ATOM      3  C   UNL     1     -35.383  -2.736  -9.470  1.00  0.00     0.057 C 
BRANCH   3   4
ATOM      4  C   UNL     1     -36.895  -2.668  -9.176  1.00  0.00     0.032 C 
BRANCH   4   5
ATOM      5  C   UNL     1     -37.276  -3.546  -8.005  1.00  0.00    -0.028 C 
ATOM      6  C   UNL     1     -38.683  -5.102  -9.375  1.00  0.00     0.039 C 
ATOM      7  C   UNL     1     -38.078  -4.632  -8.075  1.00  0.00    -0.080 C 
ATOM      8  C   UNL     1     -38.379  -5.383  -6.803  1.00  0.00     0.039 C 
ENDBRANCH   4   5
ENDBRANCH   3   4
ENDBRANCH   1   3
BRANCH   1   9
ATOM      9  C   UNL     1     -33.499  -3.023 -11.083  1.00  0.00     0.013 C 
ATOM     10  C   UNL     1     -32.729  -2.305 -10.257  1.00  0.00     0.008 C 
ENDBRANCH   1   9
BRANCH   1  11
ATOM     11  O   UNL     1     -35.620  -2.096 -11.806  1.00  0.00    -0.455 OA
BRANCH  11  12
ATOM     12  C   UNL     1     -36.103  -2.334 -13.099  1.00  0.00     0.303 C 
ATOM     13  O   UNL     1     -35.317  -2.484 -14.073  1.00  0.00    -0.253 OA
ATOM     14  C   UNL     1     -37.575  -2.433 -13.313  1.00  0.00     0.139 C 
ENDBRANCH  11  12
ENDBRANCH   1  11
TORSDOF 6
ENDMDL
MODEL 4
REMARK VINA RESULT:    -4.538     13.490     14.692
REMARK INTER + INTRA:          -7.032
REMARK INTER:                  -6.242
REMARK INTRA:                  -0.790
REMARK UNBOUND:                -0.902
REMARK SMILES C=C[C@@](C)(CCC=C(C)C)OC(C)=O
REMARK SMILES IDX 3 1 4 2 5 3 6 4 7 5 9 6 8 7 10 8 2 9 1 10 11 11 12 12 14 13
REMARK SMILES IDX 13 14
REMARK H PARENT
REMARK Flexibility Score: inf
ROOT
ATOM      1  C   UNL     1     -21.076  -3.419  -9.263  1.00  0.00     0.127 C 
ATOM      2  C   UNL     1     -20.329  -3.145  -7.939  1.00  0.00     0.061 C 
ENDROOT
BRANCH   1   3
ATOM      3  C   UNL     1     -22.598  -3.597  -8.991  1.00  0.00     0.057 C 
BRANCH   3   4
ATOM      4  C   UNL     1     -23.008  -3.513  -7.507  1.00  0.00     0.032 C 
BRANCH   4   5
ATOM      5  C   UNL     1     -23.544  -4.834  -7.000  1.00  0.00    -0.028 C 
ATOM      6  C   UNL     1     -22.226  -4.775  -4.869  1.00  0.00     0.039 C 
ATOM      7  C   UNL     1     -23.199  -5.415  -5.830  1.00  0.00    -0.080 C 
ATOM      8  C   UNL     1     -23.808  -6.751  -5.487  1.00  0.00     0.039 C 
ENDBRANCH   4   5
ENDBRANCH   3   4
ENDBRANCH   1   3
BRANCH   1   9
ATOM      9  C   UNL     1     -20.890  -2.231 -10.197  1.00  0.00     0.013 C 
ATOM     10  C   UNL     1     -19.698  -1.655 -10.388  1.00  0.00     0.008 C 
ENDBRANCH   1   9
BRANCH   1  11
ATOM     11  O   UNL     1     -20.571  -4.614  -9.875  1.00  0.00    -0.455 OA
BRANCH  11  12
ATOM     12  C   UNL     1     -21.251  -5.836  -9.971  1.00  0.00     0.303 C 
ATOM     13  O   UNL     1     -21.960  -6.112 -10.976  1.00  0.00    -0.253 OA
ATOM     14  C   UNL     1     -21.106  -6.830  -8.870  1.00  0.00     0.139 C 
ENDBRANCH  11  12
ENDBRANCH   1  11
TORSDOF 6
ENDMDL
MODEL 5
REMARK VINA RESULT:    -4.527      1.404      2.441
REMARK INTER + INTRA:          -7.017
REMARK INTER:                  -6.241
REMARK INTRA:                  -0.776
REMARK UNBOUND:                -0.902
REMARK SMILES C=C[C@@](C)(CCC=C(C)C)OC(C)=O
REMARK SMILES IDX 3 1 4 2 5 3 6 4 7 5 9 6 8 7 10 8 2 9 1 10 11 11 12 12 14 13
REMARK SMILES IDX 13 14
REMARK H PARENT
REMARK Flexibility Score: inf
ROOT
ATOM      1  C   UNL     1     -35.262  -3.632 -11.749  1.00  0.00     0.127 C 
ATOM      2  C   UNL     1     -36.292  -4.528 -11.026  1.00  0.00     0.061 C 
ENDROOT
BRANCH   1   3
ATOM      3  C   UNL     1     -33.980  -3.484 -10.882  1.00  0.00     0.057 C 
BRANCH   3   4
ATOM      4  C   UNL     1     -33.674  -2.048 -10.411  1.00  0.00     0.032 C 
BRANCH   4   5
ATOM      5  C   UNL     1     -33.580  -1.963  -8.904  1.00  0.00    -0.028 C 
ATOM      6  C   UNL     1     -35.916  -1.105  -8.609  1.00  0.00     0.039 C 
ATOM      7  C   UNL     1     -34.568  -1.537  -8.085  1.00  0.00    -0.080 C 
ATOM      8  C   UNL     1     -34.300  -1.489  -6.603  1.00  0.00     0.039 C 
ENDBRANCH   4   5
ENDBRANCH   3   4
ENDBRANCH   1   3
BRANCH   1   9
ATOM      9  C   UNL     1     -34.877  -4.281 -13.071  1.00  0.00     0.013 C 
ATOM     10  C   UNL     1     -34.117  -3.656 -13.977  1.00  0.00     0.008 C 
ENDBRANCH   1   9
BRANCH   1  11
ATOM     11  O   UNL     1     -35.819  -2.330 -11.981  1.00  0.00    -0.455 OA
BRANCH  11  12
ATOM     12  C   UNL     1     -37.158  -2.054 -12.288  1.00  0.00     0.303 C 
ATOM     13  O   UNL     1     -37.968  -1.677 -11.398  1.00  0.00    -0.253 OA
ATOM     14  C   UNL     1     -37.617  -2.190 -13.699  1.00  0.00     0.139 C 
ENDBRANCH  11  12
ENDBRANCH   1  11
TORSDOF 6
ENDMDL
MODEL 6
REMARK VINA RESULT:    -4.481     13.553     15.352
REMARK INTER + INTRA:          -6.955
REMARK INTER:                  -6.101
REMARK INTRA:                  -0.854
REMARK UNBOUND:                -0.902
REMARK SMILES C=C[C@@](C)(CCC=C(C)C)OC(C)=O
REMARK SMILES IDX 3 1 4 2 5 3 6 4 7 5 9 6 8 7 10 8 2 9 1 10 11 11 12 12 14 13
REMARK SMILES IDX 13 14
REMARK H PARENT
REMARK Flexibility Score: inf
ROOT
ATOM      1  C   UNL     1     -20.682  -2.805  -9.458  1.00  0.00     0.127 C 
ATOM      2  C   UNL     1     -20.704  -3.740 -10.687  1.00  0.00     0.061 C 
ENDROOT
BRANCH   1   3
ATOM      3  C   UNL     1     -19.760  -3.395  -8.353  1.00  0.00     0.057 C 
BRANCH   3   4
ATOM      4  C   UNL     1     -19.269  -4.834  -8.615  1.00  0.00     0.032 C 
BRANCH   4   5
ATOM      5  C   UNL     1     -19.901  -5.821  -7.659  1.00  0.00    -0.028 C 
ATOM      6  C   UNL     1     -20.767  -7.320  -9.471  1.00  0.00     0.039 C 
ATOM      7  C   UNL     1     -20.579  -6.932  -8.025  1.00  0.00    -0.080 C 
ATOM      8  C   UNL     1     -21.171  -7.798  -6.943  1.00  0.00     0.039 C 
ENDBRANCH   4   5
ENDBRANCH   3   4
ENDBRANCH   1   3
BRANCH   1   9
ATOM      9  C   UNL     1     -20.129  -1.449  -9.872  1.00  0.00     0.013 C 
ATOM     10  C   UNL     1     -18.996  -0.955  -9.361  1.00  0.00     0.008 C 
ENDBRANCH   1   9
BRANCH   1  11
ATOM     11  O   UNL     1     -22.007  -2.658  -8.927  1.00  0.00    -0.455 OA
BRANCH  11  12
ATOM     12  C   UNL     1     -22.736  -3.649  -8.256  1.00  0.00     0.303 C 
ATOM     13  O   UNL     1     -23.136  -4.684  -8.854  1.00  0.00    -0.253 OA
ATOM     14  C   UNL     1     -23.017  -3.477  -6.802  1.00  0.00     0.139 C 
ENDBRANCH  11  12
ENDBRANCH   1  11
TORSDOF 6
ENDMDL
MODEL 7
REMARK VINA RESULT:    -4.453     13.813     15.243
REMARK INTER + INTRA:          -6.917
REMARK INTER:                  -5.873
REMARK INTRA:                  -1.045
REMARK UNBOUND:                -0.902
REMARK SMILES C=C[C@@](C)(CCC=C(C)C)OC(C)=O
REMARK SMILES IDX 3 1 4 2 5 3 6 4 7 5 9 6 8 7 10 8 2 9 1 10 11 11 12 12 14 13
REMARK SMILES IDX 13 14
REMARK H PARENT
REMARK Flexibility Score: inf
ROOT
ATOM      1  C   UNL     1     -21.853  -5.639  -7.524  1.00  0.00     0.127 C 
ATOM      2  C   UNL     1     -21.476  -6.471  -8.769  1.00  0.00     0.061 C 
ENDROOT
BRANCH   1   3
ATOM      3  C   UNL     1     -20.648  -4.760  -7.084  1.00  0.00     0.057 C 
BRANCH   3   4
ATOM      4  C   UNL     1     -19.550  -4.578  -8.152  1.00  0.00     0.032 C 
BRANCH   4   5
ATOM      5  C   UNL     1     -19.379  -3.124  -8.533  1.00  0.00    -0.028 C 
ATOM      6  C   UNL     1     -20.754  -3.306 -10.621  1.00  0.00     0.039 C 
ATOM      7  C   UNL     1     -19.903  -2.542  -9.635  1.00  0.00    -0.080 C 
ATOM      8  C   UNL     1     -19.613  -1.084  -9.881  1.00  0.00     0.039 C 
ENDBRANCH   4   5
ENDBRANCH   3   4
ENDBRANCH   1   3
BRANCH   1   9
ATOM      9  C   UNL     1     -23.017  -4.721  -7.870  1.00  0.00     0.013 C 
ATOM     10  C   UNL     1     -22.998  -3.412  -7.597  1.00  0.00     0.008 C 
ENDBRANCH   1   9
BRANCH   1  11
ATOM     11  O   UNL     1     -22.214  -6.508  -6.441  1.00  0.00    -0.455 OA
BRANCH  11  12
ATOM     12  C   UNL     1     -23.108  -6.202  -5.406  1.00  0.00     0.303 C 
ATOM     13  O   UNL     1     -22.813  -5.359  -4.516  1.00  0.00    -0.253 OA
ATOM     14  C   UNL     1     -24.438  -6.874  -5.380  1.00  0.00     0.139 C 
ENDBRANCH  11  12
ENDBRANCH   1  11
TORSDOF 6
ENDMDL
MODEL 8
REMARK VINA RESULT:    -4.452      2.455      4.553
REMARK INTER + INTRA:          -6.916
REMARK INTER:                  -6.262
REMARK INTRA:                  -0.654
REMARK UNBOUND:                -0.902
REMARK SMILES C=C[C@@](C)(CCC=C(C)C)OC(C)=O
REMARK SMILES IDX 3 1 4 2 5 3 6 4 7 5 9 6 8 7 10 8 2 9 1 10 11 11 12 12 14 13
REMARK SMILES IDX 13 14
REMARK H PARENT
REMARK Flexibility Score: inf
ROOT
ATOM      1  C   UNL     1     -35.682  -2.219  -9.572  1.00  0.00     0.127 C 
ATOM      2  C   UNL     1     -36.139  -1.196 -10.636  1.00  0.00     0.061 C 
ENDROOT
BRANCH   1   3
ATOM      3  C   UNL     1     -35.250  -3.547 -10.258  1.00  0.00     0.057 C 
BRANCH   3   4
ATOM      4  C   UNL     1     -33.874  -3.504 -10.952  1.00  0.00     0.032 C 
BRANCH   4   5
ATOM      5  C   UNL     1     -33.995  -3.727 -12.444  1.00  0.00    -0.028 C 
ATOM      6  C   UNL     1     -33.525  -1.338 -13.038  1.00  0.00     0.039 C 
ATOM      7  C   UNL     1     -33.849  -2.770 -13.387  1.00  0.00    -0.080 C 
ATOM      8  C   UNL     1     -34.029  -3.157 -14.833  1.00  0.00     0.039 C 
ENDBRANCH   4   5
ENDBRANCH   3   4
ENDBRANCH   1   3
BRANCH   1   9
ATOM      9  C   UNL     1     -34.485  -1.655  -8.819  1.00  0.00     0.013 C 
ATOM     10  C   UNL     1     -34.611  -1.043  -7.636  1.00  0.00     0.008 C 
ENDBRANCH   1   9
BRANCH   1  11
ATOM     11  O   UNL     1     -36.755  -2.494  -8.661  1.00  0.00    -0.455 OA
BRANCH  11  12
ATOM     12  C   UNL     1     -37.883  -3.280  -8.935  1.00  0.00     0.303 C 
ATOM     13  O   UNL     1     -38.769  -2.891  -9.743  1.00  0.00    -0.253 OA
ATOM     14  C   UNL     1     -38.015  -4.608  -8.272  1.00  0.00     0.139 C 
ENDBRANCH  11  12
ENDBRANCH   1  11
TORSDOF 6
ENDMDL
MODEL 9
REMARK VINA RESULT:    -4.408      2.396      5.383
REMARK INTER + INTRA:          -6.856
REMARK INTER:                  -5.870
REMARK INTRA:                  -0.987
REMARK UNBOUND:                -0.902
REMARK SMILES C=C[C@@](C)(CCC=C(C)C)OC(C)=O
REMARK SMILES IDX 3 1 4 2 5 3 6 4 7 5 9 6 8 7 10 8 2 9 1 10 11 11 12 12 14 13
REMARK SMILES IDX 13 14
REMARK H PARENT
REMARK Flexibility Score: inf
ROOT
ATOM      1  C   UNL     1     -35.504  -2.089  -9.389  1.00  0.00     0.127 C 
ATOM      2  C   UNL     1     -36.817  -2.608  -8.762  1.00  0.00     0.061 C 
ENDROOT
BRANCH   1   3
ATOM      3  C   UNL     1     -35.816  -1.231 -10.649  1.00  0.00     0.057 C 
BRANCH   3   4
ATOM      4  C   UNL     1     -37.134  -1.584 -11.367  1.00  0.00     0.032 C 
BRANCH   4   5
ATOM      5  C   UNL     1     -36.881  -2.251 -12.701  1.00  0.00    -0.028 C 
ATOM      6  C   UNL     1     -37.501  -4.542 -11.895  1.00  0.00     0.039 C 
ATOM      7  C   UNL     1     -37.033  -3.571 -12.951  1.00  0.00    -0.080 C 
ATOM      8  C   UNL     1     -36.712  -4.079 -14.333  1.00  0.00     0.039 C 
ENDBRANCH   4   5
ENDBRANCH   3   4
ENDBRANCH   1   3
BRANCH   1   9
ATOM      9  C   UNL     1     -34.779  -1.213  -8.378  1.00  0.00     0.013 C 
ATOM     10  C   UNL     1     -34.592  -1.594  -7.109  1.00  0.00     0.008 C 
ENDBRANCH   1   9
BRANCH   1  11
ATOM     11  O   UNL     1     -34.672  -3.193  -9.774  1.00  0.00    -0.455 OA
BRANCH  11  12
ATOM     12  C   UNL     1     -33.586  -3.132 -10.658  1.00  0.00     0.303 C 
ATOM     13  O   UNL     1     -32.580  -2.415 -10.410  1.00  0.00    -0.253 OA
ATOM     14  C   UNL     1     -33.622  -3.953 -11.901  1.00  0.00     0.139 C 
ENDBRANCH  11  12
ENDBRANCH   1  11
TORSDOF 6
ENDMDL
