MODEL 1
REMARK VINA RESULT:    -3.363      0.000      0.000
REMARK INTER + INTRA:          -4.086
REMARK INTER:                  -4.051
REMARK INTRA:                  -0.035
REMARK UNBOUND:                -0.035
REMARK SMILES CC[C@@H](C)[C@H]([NH3+])C(=O)[O-]
REMARK SMILES IDX 3 1 4 2 5 3 6 4 7 8 8 9 9 10 2 11 1 12
REMARK H PARENT 6 5 6 6 6 7
REMARK Flexibility Score: inf
ROOT
ATOM      1  C   UNL     1      21.031  20.390  19.063  1.00  0.00     0.050 C 
ATOM      2  C   UNL     1      19.622  20.745  19.568  1.00  0.00     0.014 C 
ENDROOT
BRANCH   1   3
ATOM      3  C   UNL     1      21.039  20.333  17.497  1.00  0.00     0.230 C 
BRANCH   3   4
ATOM      4  N   UNL     1      19.979  19.462  16.965  1.00  0.00    -0.350 N 
ATOM      5  H   UNL     1      20.363  18.887  16.180  1.00  0.00     0.345 HD
ATOM      6  H   UNL     1      19.600  18.818  17.690  1.00  0.00     0.345 HD
ATOM      7  H   UNL     1      19.198  20.043  16.583  1.00  0.00     0.345 HD
ENDBRANCH   3   4
BRANCH   3   8
ATOM      8  C   UNL     1      22.388  19.970  16.924  1.00  0.00     0.099 C 
ATOM      9  O   UNL     1      22.732  18.766  16.792  1.00  0.00    -0.544 OA
ATOM     10  O   UNL     1      23.280  20.976  16.570  1.00  0.00    -0.544 OA
ENDBRANCH   3   8
ENDBRANCH   1   3
BRANCH   1  11
ATOM     11  C   UNL     1      22.055  21.364  19.711  1.00  0.00     0.006 C 
ATOM     12  C   UNL     1      21.432  22.405  20.640  1.00  0.00     0.004 C 
ENDBRANCH   1  11
TORSDOF 4
ENDMDL
MODEL 2
REMARK VINA RESULT:    -2.861      2.323      3.500
REMARK INTER + INTRA:          -3.482
REMARK INTER:                  -3.386
REMARK INTRA:                  -0.095
REMARK UNBOUND:                -0.035
REMARK SMILES CC[C@@H](C)[C@H]([NH3+])C(=O)[O-]
REMARK SMILES IDX 3 1 4 2 5 3 6 4 7 8 8 9 9 10 2 11 1 12
REMARK H PARENT 6 5 6 6 6 7
REMARK Flexibility Score: inf
ROOT
ATOM      1  C   UNL     1      21.491  20.564  17.527  1.00  0.00     0.050 C 
ATOM      2  C   UNL     1      20.408  19.759  16.787  1.00  0.00     0.014 C 
ENDROOT
BRANCH   1   3
ATOM      3  C   UNL     1      21.332  20.376  19.075  1.00  0.00     0.230 C 
BRANCH   3   4
ATOM      4  N   UNL     1      19.977  19.940  19.448  1.00  0.00    -0.350 N 
ATOM      5  H   UNL     1      19.519  19.485  18.625  1.00  0.00     0.345 HD
ATOM      6  H   UNL     1      19.988  19.259  20.237  1.00  0.00     0.345 HD
ATOM      7  H   UNL     1      19.397  20.767  19.720  1.00  0.00     0.345 HD
ENDBRANCH   3   4
BRANCH   3   8
ATOM      8  C   UNL     1      21.754  21.591  19.866  1.00  0.00     0.099 C 
ATOM      9  O   UNL     1      22.962  21.945  19.910  1.00  0.00    -0.544 OA
ATOM     10  O   UNL     1      20.808  22.308  20.587  1.00  0.00    -0.544 OA
ENDBRANCH   3   8
ENDBRANCH   1   3
BRANCH   1  11
ATOM     11  C   UNL     1      22.881  20.192  16.939  1.00  0.00     0.006 C 
ATOM     12  C   UNL     1      23.675  21.382  16.402  1.00  0.00     0.004 C 
ENDBRANCH   1  11
TORSDOF 4
ENDMDL
MODEL 3
REMARK VINA RESULT:    -2.719      2.391      3.470
REMARK INTER + INTRA:          -3.311
REMARK INTER:                  -3.223
REMARK INTRA:                  -0.088
REMARK UNBOUND:                -0.035
REMARK SMILES CC[C@@H](C)[C@H]([NH3+])C(=O)[O-]
REMARK SMILES IDX 3 1 4 2 5 3 6 4 7 8 8 9 9 10 2 11 1 12
REMARK H PARENT 6 5 6 6 6 7
REMARK Flexibility Score: inf
ROOT
ATOM      1  C   UNL     1      21.421  20.381  17.375  1.00  0.00     0.050 C 
ATOM      2  C   UNL     1      20.402  19.661  16.475  1.00  0.00     0.014 C 
ENDROOT
BRANCH   1   3
ATOM      3  C   UNL     1      21.184  19.986  18.873  1.00  0.00     0.230 C 
BRANCH   3   4
ATOM      4  N   UNL     1      20.054  19.057  19.033  1.00  0.00    -0.350 N 
ATOM      5  H   UNL     1      19.766  19.028  20.038  1.00  0.00     0.345 HD
ATOM      6  H   UNL     1      19.229  19.341  18.463  1.00  0.00     0.345 HD
ATOM      7  H   UNL     1      20.343  18.091  18.755  1.00  0.00     0.345 HD
ENDBRANCH   3   4
BRANCH   3   8
ATOM      8  C   UNL     1      21.048  21.179  19.787  1.00  0.00     0.099 C 
ATOM      9  O   UNL     1      19.928  21.506  20.260  1.00  0.00    -0.544 OA
ATOM     10  O   UNL     1      22.163  21.953  20.082  1.00  0.00    -0.544 OA
ENDBRANCH   3   8
ENDBRANCH   1   3
BRANCH   1  11
ATOM     11  C   UNL     1      22.850  20.119  16.823  1.00  0.00     0.006 C 
ATOM     12  C   UNL     1      23.608  21.382  16.416  1.00  0.00     0.004 C 
ENDBRANCH   1  11
TORSDOF 4
ENDMDL
MODEL 4
REMARK VINA RESULT:    -2.710      1.030      1.878
REMARK INTER + INTRA:          -3.299
REMARK INTER:                  -3.599
REMARK INTRA:                   0.300
REMARK UNBOUND:                -0.035
REMARK SMILES CC[C@@H](C)[C@H]([NH3+])C(=O)[O-]
REMARK SMILES IDX 3 1 4 2 5 3 6 4 7 8 8 9 9 10 2 11 1 12
REMARK H PARENT 6 5 6 6 6 7
REMARK Flexibility Score: inf
ROOT
ATOM      1  C   UNL     1      20.799  21.208  19.137  1.00  0.00     0.050 C 
ATOM      2  C   UNL     1      22.188  21.175  19.798  1.00  0.00     0.014 C 
ENDROOT
BRANCH   1   3
ATOM      3  C   UNL     1      20.708  20.104  18.029  1.00  0.00     0.230 C 
BRANCH   3   4
ATOM      4  N   UNL     1      20.309  18.797  18.575  1.00  0.00    -0.350 N 
ATOM      5  H   UNL     1      20.215  18.108  17.794  1.00  0.00     0.345 HD
ATOM      6  H   UNL     1      21.006  18.428  19.256  1.00  0.00     0.345 HD
ATOM      7  H   UNL     1      19.379  18.875  19.046  1.00  0.00     0.345 HD
ENDBRANCH   3   4
BRANCH   3   8
ATOM      8  C   UNL     1      21.963  19.993  17.198  1.00  0.00     0.099 C 
ATOM      9  O   UNL     1      22.622  21.018  16.881  1.00  0.00    -0.544 OA
ATOM     10  O   UNL     1      22.379  18.748  16.741  1.00  0.00    -0.544 OA
ENDBRANCH   3   8
ENDBRANCH   1   3
BRANCH   1  11
ATOM     11  C   UNL     1      19.715  21.144  20.248  1.00  0.00     0.006 C 
ATOM     12  C   UNL     1      19.575  22.428  21.066  1.00  0.00     0.004 C 
ENDBRANCH   1  11
TORSDOF 4
ENDMDL
MODEL 5
REMARK VINA RESULT:    -2.660     11.371     12.114
REMARK INTER + INTRA:          -3.240
REMARK INTER:                  -3.140
REMARK INTRA:                  -0.100
REMARK UNBOUND:                -0.035
REMARK SMILES CC[C@@H](C)[C@H]([NH3+])C(=O)[O-]
REMARK SMILES IDX 3 1 4 2 5 3 6 4 7 8 8 9 9 10 2 11 1 12
REMARK H PARENT 6 5 6 6 6 7
REMARK Flexibility Score: inf
ROOT
ATOM      1  C   UNL     1      32.513  15.809  19.827  1.00  0.00     0.050 C 
ATOM      2  C   UNL     1      32.887  17.301  19.824  1.00  0.00     0.014 C 
ENDROOT
BRANCH   1   3
ATOM      3  C   UNL     1      31.215  15.585  20.676  1.00  0.00     0.230 C 
BRANCH   3   4
ATOM      4  N   UNL     1      30.307  16.742  20.624  1.00  0.00    -0.350 N 
ATOM      5  H   UNL     1      29.390  16.485  21.057  1.00  0.00     0.345 HD
ATOM      6  H   UNL     1      30.692  17.565  21.134  1.00  0.00     0.345 HD
ATOM      7  H   UNL     1      30.127  17.011  19.629  1.00  0.00     0.345 HD
ENDBRANCH   3   4
BRANCH   3   8
ATOM      8  C   UNL     1      31.501  15.175  22.101  1.00  0.00     0.099 C 
ATOM      9  O   UNL     1      30.581  15.133  22.959  1.00  0.00    -0.544 OA
ATOM     10  O   UNL     1      32.803  14.876  22.483  1.00  0.00    -0.544 OA
ENDBRANCH   3   8
ENDBRANCH   1   3
BRANCH   1  11
ATOM     11  C   UNL     1      32.457  15.304  18.358  1.00  0.00     0.006 C 
ATOM     12  C   UNL     1      32.077  16.376  17.338  1.00  0.00     0.004 C 
ENDBRANCH   1  11
TORSDOF 4
ENDMDL
MODEL 6
REMARK VINA RESULT:    -2.572     10.790     11.510
REMARK INTER + INTRA:          -3.133
REMARK INTER:                  -3.079
REMARK INTRA:                  -0.053
REMARK UNBOUND:                -0.035
REMARK SMILES CC[C@@H](C)[C@H]([NH3+])C(=O)[O-]
REMARK SMILES IDX 3 1 4 2 5 3 6 4 7 8 8 9 9 10 2 11 1 12
REMARK H PARENT 6 5 6 6 6 7
REMARK Flexibility Score: inf
ROOT
ATOM      1  C   UNL     1      30.223  15.729  21.868  1.00  0.00     0.050 C 
ATOM      2  C   UNL     1      29.061  16.283  21.025  1.00  0.00     0.014 C 
ENDROOT
BRANCH   1   3
ATOM      3  C   UNL     1      29.662  15.004  23.140  1.00  0.00     0.230 C 
BRANCH   3   4
ATOM      4  N   UNL     1      28.196  14.884  23.113  1.00  0.00    -0.350 N 
ATOM      5  H   UNL     1      27.824  14.936  24.089  1.00  0.00     0.345 HD
ATOM      6  H   UNL     1      27.751  15.640  22.550  1.00  0.00     0.345 HD
ATOM      7  H   UNL     1      27.920  13.956  22.715  1.00  0.00     0.345 HD
ENDBRANCH   3   4
BRANCH   3   8
ATOM      8  C   UNL     1      30.139  15.620  24.433  1.00  0.00     0.099 C 
ATOM      9  O   UNL     1      29.375  16.343  25.125  1.00  0.00    -0.544 OA
ATOM     10  O   UNL     1      31.449  15.421  24.849  1.00  0.00    -0.544 OA
ENDBRANCH   3   8
ENDBRANCH   1   3
BRANCH   1  11
ATOM     11  C   UNL     1      31.144  14.875  20.953  1.00  0.00     0.006 C 
ATOM     12  C   UNL     1      32.093  15.693  20.077  1.00  0.00     0.004 C 
ENDBRANCH   1  11
TORSDOF 4
ENDMDL
MODEL 7
REMARK VINA RESULT:    -2.534     10.907     11.433
REMARK INTER + INTRA:          -3.087
REMARK INTER:                  -3.051
REMARK INTRA:                  -0.036
REMARK UNBOUND:                -0.035
REMARK SMILES CC[C@@H](C)[C@H]([NH3+])C(=O)[O-]
REMARK SMILES IDX 3 1 4 2 5 3 6 4 7 8 8 9 9 10 2 11 1 12
REMARK H PARENT 6 5 6 6 6 7
REMARK Flexibility Score: inf
ROOT
ATOM      1  C   UNL     1      30.172  15.614  23.134  1.00  0.00     0.050 C 
ATOM      2  C   UNL     1      30.717  15.725  24.569  1.00  0.00     0.014 C 
ENDROOT
BRANCH   1   3
ATOM      3  C   UNL     1      31.261  14.988  22.196  1.00  0.00     0.230 C 
BRANCH   3   4
ATOM      4  N   UNL     1      32.571  14.878  22.857  1.00  0.00    -0.350 N 
ATOM      5  H   UNL     1      33.145  14.151  22.373  1.00  0.00     0.345 HD
ATOM      6  H   UNL     1      33.096  15.778  22.840  1.00  0.00     0.345 HD
ATOM      7  H   UNL     1      32.445  14.576  23.851  1.00  0.00     0.345 HD
ENDBRANCH   3   4
BRANCH   3   8
ATOM      8  C   UNL     1      31.374  15.694  20.866  1.00  0.00     0.099 C 
ATOM      9  O   UNL     1      30.385  16.290  20.365  1.00  0.00    -0.544 OA
ATOM     10  O   UNL     1      32.573  15.654  20.165  1.00  0.00    -0.544 OA
ENDBRANCH   3   8
ENDBRANCH   1   3
BRANCH   1  11
ATOM     11  C   UNL     1      28.805  14.875  23.173  1.00  0.00     0.006 C 
ATOM     12  C   UNL     1      27.772  15.412  22.183  1.00  0.00     0.004 C 
ENDBRANCH   1  11
TORSDOF 4
ENDMDL
MODEL 8
REMARK VINA RESULT:    -2.310     11.077     12.294
REMARK INTER + INTRA:          -2.817
REMARK INTER:                  -2.820
REMARK INTRA:                   0.003
REMARK UNBOUND:                -0.035
REMARK SMILES CC[C@@H](C)[C@H]([NH3+])C(=O)[O-]
REMARK SMILES IDX 3 1 4 2 5 3 6 4 7 8 8 9 9 10 2 11 1 12
REMARK H PARENT 6 5 6 6 6 7
REMARK Flexibility Score: inf
ROOT
ATOM      1  C   UNL     1      32.602  16.679  16.783  1.00  0.00     0.050 C 
ATOM      2  C   UNL     1      31.065  16.746  16.788  1.00  0.00     0.014 C 
ENDROOT
BRANCH   1   3
ATOM      3  C   UNL     1      33.125  16.305  18.213  1.00  0.00     0.230 C 
BRANCH   3   4
ATOM      4  N   UNL     1      32.956  14.875  18.513  1.00  0.00    -0.350 N 
ATOM      5  H   UNL     1      32.020  14.719  18.952  1.00  0.00     0.345 HD
ATOM      6  H   UNL     1      33.021  14.284  17.657  1.00  0.00     0.345 HD
ATOM      7  H   UNL     1      33.685  14.565  19.197  1.00  0.00     0.345 HD
ENDBRANCH   3   4
BRANCH   3   8
ATOM      8  C   UNL     1      32.537  17.168  19.304  1.00  0.00     0.099 C 
ATOM      9  O   UNL     1      33.029  18.296  19.572  1.00  0.00    -0.544 OA
ATOM     10  O   UNL     1      31.461  16.700  20.049  1.00  0.00    -0.544 OA
ENDBRANCH   3   8
ENDBRANCH   1   3
BRANCH   1  11
ATOM     11  C   UNL     1      33.059  15.743  15.630  1.00  0.00     0.006 C 
ATOM     12  C   UNL     1      32.380  16.020  14.289  1.00  0.00     0.004 C 
ENDBRANCH   1  11
TORSDOF 4
ENDMDL
