MODEL 1
REMARK VINA RESULT:   117.726      0.000      0.000
REMARK INTER + INTRA:         128.278
REMARK INTER:                 128.050
REMARK INTRA:                   0.228
REMARK UNBOUND:                 0.228
REMARK SMILES C[C@H]1[C@H]2C3=CC[C@@H]4[C@]5(C)CC[C@H](O)C(C)(C)[C@@H]5CC[C@@]4(C)[C@@]3(C)CC[C@]2(C(=O)[O-])CC[C@@H]1C
REMARK SMILES IDX 26 1 30 2 25 3 3 4 31 5 24 6 4 7 2 8 32 9 22 10 5 11 1 12
REMARK SMILES IDX 33 13 23 14 20 15 6 16 7 17 19 18 21 19 8 20 18 21 17 22
REMARK SMILES IDX 10 23 9 24 14 25 11 26 12 27 15 28 16 29 27 30 28 31 29 32
REMARK SMILES IDX 13 33
REMARK H PARENT 13 34
REMARK Flexibility Score: inf
ROOT
ATOM      1  C   UNL     1       7.216   8.873  32.410  1.00  0.00     0.017 C 
ATOM      2  C   UNL     1       6.057   8.892  33.463  1.00  0.00     0.014 C 
ATOM      3  C   UNL     1       7.360  10.290  31.737  1.00  0.00     0.014 C 
ATOM      4  C   UNL     1       8.527   8.514  33.172  1.00  0.00     0.030 C 
ATOM      5  C   UNL     1       6.205   7.842  34.600  1.00  0.00     0.004 C 
ATOM      6  C   UNL     1       8.358  11.269  32.427  1.00  0.00     0.013 C 
ATOM      7  C   UNL     1       9.738   9.168  32.501  1.00  0.00    -0.063 C 
ATOM      8  C   UNL     1       8.569   7.079  33.799  1.00  0.00    -0.003 C 
ATOM      9  C   UNL     1       7.136   6.642  34.272  1.00  0.00    -0.011 C 
ATOM     10  C   UNL     1       9.827  10.705  32.728  1.00  0.00    -0.006 C 
ATOM     11  C   UNL     1      10.263   8.595  31.388  1.00  0.00    -0.027 C 
ATOM     12  C   UNL     1       9.201   5.987  32.922  1.00  0.00     0.008 C 
ATOM     13  C   UNL     1       7.213   5.716  35.498  1.00  0.00     0.008 C 
ATOM     14  C   UNL     1      10.129  10.972  34.246  1.00  0.00     0.017 C 
ATOM     15  C   UNL     1      11.020  11.363  31.844  1.00  0.00    -0.020 C 
ATOM     16  C   UNL     1      11.151   9.295  30.402  1.00  0.00     0.032 C 
ATOM     17  C   UNL     1      10.914  10.826  30.381  1.00  0.00     0.006 C 
ATOM     18  C   UNL     1      10.952  12.915  31.812  1.00  0.00     0.008 C 
ATOM     19  C   UNL     1      12.394  10.952  32.473  1.00  0.00     0.012 C 
ATOM     20  C   UNL     1      11.636  11.614  29.160  1.00  0.00    -0.025 C 
ATOM     21  C   UNL     1      12.008  13.527  30.904  1.00  0.00     0.005 C 
ATOM     22  C   UNL     1      11.769  13.186  29.409  1.00  0.00     0.003 C 
ATOM     23  C   UNL     1      13.033  11.019  28.720  1.00  0.00     0.010 C 
ATOM     24  C   UNL     1      10.654  11.390  27.953  1.00  0.00     0.012 C 
ATOM     25  C   UNL     1      12.846  13.922  28.490  1.00  0.00    -0.006 C 
ATOM     26  C   UNL     1      14.276  11.824  29.128  1.00  0.00     0.033 C 
ATOM     27  C   UNL     1      14.280  13.301  28.674  1.00  0.00     0.120 C 
ATOM     28  C   UNL     1      12.461  13.837  26.985  1.00  0.00     0.014 C 
ATOM     29  C   UNL     1      12.872  15.454  28.790  1.00  0.00     0.014 C 
ENDROOT
BRANCH   1  30
ATOM     30  C   UNL     1       6.901   7.864  31.299  1.00  0.00     0.048 C 
ATOM     31  O   UNL     1       7.667   7.719  30.308  1.00  0.00    -0.550 OA
ATOM     32  O   UNL     1       5.776   7.052  31.379  1.00  0.00    -0.550 OA
ENDBRANCH   1  30
BRANCH  27  33
ATOM     33  O   UNL     1      15.038  14.044  29.600  1.00  0.00    -0.393 OA
ATOM     34  H   UNL     1      14.916  13.618  30.489  1.00  0.00     0.210 HD
ENDBRANCH  27  33
TORSDOF 2
ENDMDL
MODEL 2
REMARK VINA RESULT:   118.111      1.692      3.087
REMARK INTER + INTRA:         128.696
REMARK INTER:                 128.412
REMARK INTRA:                   0.284
REMARK UNBOUND:                 0.228
REMARK SMILES C[C@H]1[C@H]2C3=CC[C@@H]4[C@]5(C)CC[C@H](O)C(C)(C)[C@@H]5CC[C@@]4(C)[C@@]3(C)CC[C@]2(C(=O)[O-])CC[C@@H]1C
REMARK SMILES IDX 26 1 30 2 25 3 3 4 31 5 24 6 4 7 2 8 32 9 22 10 5 11 1 12
REMARK SMILES IDX 33 13 23 14 20 15 6 16 7 17 19 18 21 19 8 20 18 21 17 22
REMARK SMILES IDX 10 23 9 24 14 25 11 26 12 27 15 28 16 29 27 30 28 31 29 32
REMARK SMILES IDX 13 33
REMARK H PARENT 13 34
REMARK Flexibility Score: inf
ROOT
ATOM      1  C   UNL     1       7.984   8.661  32.984  1.00  0.00     0.017 C 
ATOM      2  C   UNL     1       7.884   7.339  33.817  1.00  0.00     0.014 C 
ATOM      3  C   UNL     1       9.333   9.406  33.311  1.00  0.00     0.014 C 
ATOM      4  C   UNL     1       7.950   8.264  31.478  1.00  0.00     0.030 C 
ATOM      5  C   UNL     1       6.992   6.241  33.172  1.00  0.00     0.004 C 
ATOM      6  C   UNL     1      10.543   9.049  32.394  1.00  0.00     0.013 C 
ATOM      7  C   UNL     1       8.754   9.261  30.639  1.00  0.00    -0.063 C 
ATOM      8  C   UNL     1       6.614   7.613  30.984  1.00  0.00    -0.003 C 
ATOM      9  C   UNL     1       5.962   6.756  32.129  1.00  0.00    -0.011 C 
ATOM     10  C   UNL     1      10.295   9.129  30.813  1.00  0.00    -0.006 C 
ATOM     11  C   UNL     1       8.188  10.449  30.307  1.00  0.00    -0.027 C 
ATOM     12  C   UNL     1       5.583   8.582  30.384  1.00  0.00     0.008 C 
ATOM     13  C   UNL     1       5.187   5.558  31.553  1.00  0.00     0.008 C 
ATOM     14  C   UNL     1      10.755   7.759  30.197  1.00  0.00     0.017 C 
ATOM     15  C   UNL     1      11.079  10.326  30.046  1.00  0.00    -0.020 C 
ATOM     16  C   UNL     1       8.947  11.665  29.862  1.00  0.00     0.032 C 
ATOM     17  C   UNL     1      10.398  11.685  30.406  1.00  0.00     0.006 C 
ATOM     18  C   UNL     1      12.582  10.403  30.437  1.00  0.00     0.008 C 
ATOM     19  C   UNL     1      10.995  10.071  28.502  1.00  0.00     0.012 C 
ATOM     20  C   UNL     1      11.189  13.085  30.196  1.00  0.00    -0.025 C 
ATOM     21  C   UNL     1      13.292  11.584  29.796  1.00  0.00     0.005 C 
ATOM     22  C   UNL     1      12.774  12.945  30.331  1.00  0.00     0.003 C 
ATOM     23  C   UNL     1      10.828  13.858  28.865  1.00  0.00     0.010 C 
ATOM     24  C   UNL     1      10.672  13.975  31.384  1.00  0.00     0.012 C 
ATOM     25  C   UNL     1      13.610  14.149  29.698  1.00  0.00    -0.006 C 
ATOM     26  C   UNL     1      11.886  13.830  27.753  1.00  0.00     0.033 C 
ATOM     27  C   UNL     1      13.289  14.329  28.168  1.00  0.00     0.120 C 
ATOM     28  C   UNL     1      13.313  15.491  30.427  1.00  0.00     0.014 C 
ATOM     29  C   UNL     1      15.141  13.930  29.913  1.00  0.00     0.014 C 
ENDROOT
BRANCH   1  30
ATOM     30  C   UNL     1       6.834   9.605  33.356  1.00  0.00     0.048 C 
ATOM     31  O   UNL     1       6.640  10.682  32.730  1.00  0.00    -0.550 OA
ATOM     32  O   UNL     1       5.948   9.275  34.375  1.00  0.00    -0.550 OA
ENDBRANCH   1  30
BRANCH  27  33
ATOM     33  O   UNL     1      14.244  13.671  27.370  1.00  0.00    -0.393 OA
ATOM     34  H   UNL     1      13.840  12.814  27.074  1.00  0.00     0.210 HD
ENDBRANCH  27  33
TORSDOF 2
ENDMDL
MODEL 3
REMARK VINA RESULT:   118.969      1.669      3.022
REMARK INTER + INTRA:         129.630
REMARK INTER:                 129.391
REMARK INTRA:                   0.239
REMARK UNBOUND:                 0.228
REMARK SMILES C[C@H]1[C@H]2C3=CC[C@@H]4[C@]5(C)CC[C@H](O)C(C)(C)[C@@H]5CC[C@@]4(C)[C@@]3(C)CC[C@]2(C(=O)[O-])CC[C@@H]1C
REMARK SMILES IDX 26 1 30 2 25 3 3 4 31 5 24 6 4 7 2 8 32 9 22 10 5 11 1 12
REMARK SMILES IDX 33 13 23 14 20 15 6 16 7 17 19 18 21 19 8 20 18 21 17 22
REMARK SMILES IDX 10 23 9 24 14 25 11 26 12 27 15 28 16 29 27 30 28 31 29 32
REMARK SMILES IDX 13 33
REMARK H PARENT 13 34
REMARK Flexibility Score: inf
ROOT
ATOM      1  C   UNL     1       7.632   8.216  32.022  1.00  0.00     0.017 C 
ATOM      2  C   UNL     1       6.364   7.389  31.624  1.00  0.00     0.014 C 
ATOM      3  C   UNL     1       8.622   8.310  30.800  1.00  0.00     0.014 C 
ATOM      4  C   UNL     1       7.149   9.642  32.422  1.00  0.00     0.030 C 
ATOM      5  C   UNL     1       5.089   7.734  32.445  1.00  0.00     0.004 C 
ATOM      6  C   UNL     1       8.433   9.547  29.869  1.00  0.00     0.013 C 
ATOM      7  C   UNL     1       8.223  10.686  32.101  1.00  0.00    -0.063 C 
ATOM      8  C   UNL     1       6.244   9.712  33.698  1.00  0.00    -0.003 C 
ATOM      9  C   UNL     1       5.352   8.423  33.813  1.00  0.00    -0.011 C 
ATOM     10  C   UNL     1       8.377  10.981  30.581  1.00  0.00    -0.006 C 
ATOM     11  C   UNL     1       9.270  10.835  32.951  1.00  0.00    -0.027 C 
ATOM     12  C   UNL     1       6.978   9.977  35.022  1.00  0.00     0.008 C 
ATOM     13  C   UNL     1       4.005   8.737  34.485  1.00  0.00     0.008 C 
ATOM     14  C   UNL     1       7.077  11.704  30.075  1.00  0.00     0.017 C 
ATOM     15  C   UNL     1       9.647  11.950  30.295  1.00  0.00    -0.020 C 
ATOM     16  C   UNL     1      10.574  11.490  32.598  1.00  0.00     0.032 C 
ATOM     17  C   UNL     1      10.882  11.405  31.081  1.00  0.00     0.006 C 
ATOM     18  C   UNL     1      10.012  12.027  28.786  1.00  0.00     0.008 C 
ATOM     19  C   UNL     1       9.293  13.397  30.780  1.00  0.00     0.012 C 
ATOM     20  C   UNL     1      12.386  11.845  30.663  1.00  0.00    -0.025 C 
ATOM     21  C   UNL     1      11.262  12.854  28.529  1.00  0.00     0.005 C 
ATOM     22  C   UNL     1      12.538  12.191  29.111  1.00  0.00     0.003 C 
ATOM     23  C   UNL     1      13.005  13.009  31.537  1.00  0.00     0.010 C 
ATOM     24  C   UNL     1      13.238  10.559  30.964  1.00  0.00     0.012 C 
ATOM     25  C   UNL     1      13.832  13.048  28.739  1.00  0.00    -0.006 C 
ATOM     26  C   UNL     1      13.101  14.387  30.866  1.00  0.00     0.033 C 
ATOM     27  C   UNL     1      13.864  14.412  29.523  1.00  0.00     0.120 C 
ATOM     28  C   UNL     1      15.140  12.267  29.053  1.00  0.00     0.014 C 
ATOM     29  C   UNL     1      13.901  13.302  27.200  1.00  0.00     0.014 C 
ENDROOT
BRANCH   1  30
ATOM     30  C   UNL     1       8.377   7.519  33.166  1.00  0.00     0.048 C 
ATOM     31  O   UNL     1       9.428   8.009  33.661  1.00  0.00    -0.550 OA
ATOM     32  O   UNL     1       7.886   6.341  33.716  1.00  0.00    -0.550 OA
ENDBRANCH   1  30
BRANCH  27  33
ATOM     33  O   UNL     1      13.341  15.458  28.739  1.00  0.00    -0.393 OA
ATOM     34  H   UNL     1      13.268  16.257  29.325  1.00  0.00     0.210 HD
ENDBRANCH  27  33
TORSDOF 2
ENDMDL
