MODEL 1
REMARK VINA RESULT:    -7.607      0.000      0.000
REMARK INTER + INTRA:          -9.460
REMARK INTER:                  -9.164
REMARK INTRA:                  -0.296
REMARK UNBOUND:                -0.296
REMARK SMILES O=c1c(O)c(-c2ccc(O)c(O)c2)oc2cc(O)cc(O)c12
REMARK SMILES IDX 5 1 3 2 2 3 1 4 22 5 20 6 19 7 17 8 16 9 15 10 14 11 6 12
REMARK SMILES IDX 7 13 8 14 9 15 13 16 11 17 10 18 12 20 4 22 21 24 18 26
REMARK H PARENT 10 19 12 21 4 23 21 25 18 27
REMARK Flexibility Score: inf
ROOT
ATOM      1  C   UNL     1      13.397  46.903  28.711  1.00  0.00     0.180 A 
ATOM      2  C   UNL     1      12.002  46.978  28.887  1.00  0.00     0.208 A 
ATOM      3  C   UNL     1      11.245  45.798  28.817  1.00  0.00     0.238 A 
ATOM      4  O   UNL     1       9.994  45.854  28.963  1.00  0.00    -0.285 OA
ATOM      5  C   UNL     1      11.894  44.566  28.594  1.00  0.00     0.111 A 
ATOM      6  C   UNL     1      11.206  43.332  28.514  1.00  0.00     0.134 A 
ATOM      7  C   UNL     1      11.925  42.147  28.298  1.00  0.00     0.093 A 
ATOM      8  C   UNL     1      13.314  42.171  28.161  1.00  0.00     0.123 A 
ATOM      9  C   UNL     1      14.000  43.388  28.239  1.00  0.00     0.094 A 
ATOM     10  C   UNL     1      13.302  44.580  28.452  1.00  0.00     0.146 A 
ATOM     11  O   UNL     1      13.976  45.722  28.516  1.00  0.00    -0.452 OA
ENDROOT
BRANCH   1  12
ATOM     12  C   UNL     1      14.261  48.106  28.751  1.00  0.00     0.025 A 
ATOM     13  C   UNL     1      14.960  48.466  29.913  1.00  0.00     0.016 A 
ATOM     14  C   UNL     1      15.749  49.618  29.933  1.00  0.00     0.051 A 
ATOM     15  C   UNL     1      15.847  50.437  28.803  1.00  0.00     0.157 A 
ATOM     16  C   UNL     1      14.339  48.937  27.623  1.00  0.00     0.062 A 
ATOM     17  C   UNL     1      15.128  50.094  27.633  1.00  0.00     0.158 A 
BRANCH  15  18
ATOM     18  O   UNL     1      16.656  51.571  28.887  1.00  0.00    -0.504 OA
ATOM     19  H   UNL     1      16.490  52.424  28.371  1.00  0.00     0.293 HD
ENDBRANCH  15  18
BRANCH  17  20
ATOM     20  O   UNL     1      15.168  50.866  26.470  1.00  0.00    -0.504 OA
ATOM     21  H   UNL     1      14.508  51.600  26.257  1.00  0.00     0.293 HD
ENDBRANCH  17  20
ENDBRANCH   1  12
BRANCH   2  22
ATOM     22  O   UNL     1      11.389  48.204  29.157  1.00  0.00    -0.502 OA
ATOM     23  H   UNL     1      11.833  49.091  28.950  1.00  0.00     0.293 HD
ENDBRANCH   2  22
BRANCH   6  24
ATOM     24  O   UNL     1       9.818  43.273  28.647  1.00  0.00    -0.507 OA
ATOM     25  H   UNL     1       9.375  42.975  29.508  1.00  0.00     0.293 HD
ENDBRANCH   6  24
BRANCH   8  26
ATOM     26  O   UNL     1      14.005  40.980  27.949  1.00  0.00    -0.508 OA
ATOM     27  H   UNL     1      14.566  40.834  27.118  1.00  0.00     0.293 HD
ENDBRANCH   8  26
TORSDOF 6
ENDMDL
MODEL 2
REMARK VINA RESULT:    -7.547      2.708      4.508
REMARK INTER + INTRA:          -9.387
REMARK INTER:                  -9.151
REMARK INTRA:                  -0.236
REMARK UNBOUND:                -0.296
REMARK SMILES O=c1c(O)c(-c2ccc(O)c(O)c2)oc2cc(O)cc(O)c12
REMARK SMILES IDX 5 1 3 2 2 3 1 4 22 5 20 6 19 7 17 8 16 9 15 10 14 11 6 12
REMARK SMILES IDX 7 13 8 14 9 15 13 16 11 17 10 18 12 20 4 22 21 24 18 26
REMARK H PARENT 10 19 12 21 4 23 21 25 18 27
REMARK Flexibility Score: inf
ROOT
ATOM      1  C   UNL     1      11.233  47.211  29.435  1.00  0.00     0.180 A 
ATOM      2  C   UNL     1      12.642  47.245  29.454  1.00  0.00     0.208 A 
ATOM      3  C   UNL     1      13.353  46.102  29.059  1.00  0.00     0.238 A 
ATOM      4  O   UNL     1      14.614  46.117  29.082  1.00  0.00    -0.285 OA
ATOM      5  C   UNL     1      12.650  44.956  28.633  1.00  0.00     0.111 A 
ATOM      6  C   UNL     1      13.292  43.765  28.214  1.00  0.00     0.134 A 
ATOM      7  C   UNL     1      12.521  42.670  27.796  1.00  0.00     0.093 A 
ATOM      8  C   UNL     1      11.127  42.741  27.788  1.00  0.00     0.123 A 
ATOM      9  C   UNL     1      10.488  43.915  28.200  1.00  0.00     0.094 A 
ATOM     10  C   UNL     1      11.237  45.017  28.622  1.00  0.00     0.146 A 
ATOM     11  O   UNL     1      10.605  46.117  29.014  1.00  0.00    -0.452 OA
ENDROOT
BRANCH   1  12
ATOM     12  C   UNL     1      10.413  48.369  29.856  1.00  0.00     0.025 A 
ATOM     13  C   UNL     1      10.355  48.776  31.198  1.00  0.00     0.016 A 
ATOM     14  C   UNL     1       9.555  49.856  31.574  1.00  0.00     0.051 A 
ATOM     15  C   UNL     1       8.789  50.543  30.626  1.00  0.00     0.157 A 
ATOM     16  C   UNL     1       9.629  49.042  28.906  1.00  0.00     0.062 A 
ATOM     17  C   UNL     1       8.823  50.127  29.273  1.00  0.00     0.158 A 
BRANCH  15  18
ATOM     18  O   UNL     1       8.015  51.617  31.066  1.00  0.00    -0.504 OA
ATOM     19  H   UNL     1       7.384  51.574  31.854  1.00  0.00     0.293 HD
ENDBRANCH  15  18
BRANCH  17  20
ATOM     20  O   UNL     1       8.080  50.756  28.272  1.00  0.00    -0.504 OA
ATOM     21  H   UNL     1       7.446  50.273  27.652  1.00  0.00     0.293 HD
ENDBRANCH  17  20
ENDBRANCH   1  12
BRANCH   2  22
ATOM     22  O   UNL     1      13.315  48.409  29.833  1.00  0.00    -0.502 OA
ATOM     23  H   UNL     1      13.772  48.504  30.732  1.00  0.00     0.293 HD
ENDBRANCH   2  22
BRANCH   6  24
ATOM     24  O   UNL     1      14.684  43.661  28.211  1.00  0.00    -0.507 OA
ATOM     25  H   UNL     1      15.187  43.212  28.967  1.00  0.00     0.293 HD
ENDBRANCH   6  24
BRANCH   8  26
ATOM     26  O   UNL     1      10.386  41.640  27.366  1.00  0.00    -0.508 OA
ATOM     27  H   UNL     1       9.745  41.701  26.583  1.00  0.00     0.293 HD
ENDBRANCH   8  26
TORSDOF 6
ENDMDL
MODEL 3
REMARK VINA RESULT:    -7.543      1.628      7.154
REMARK INTER + INTRA:          -9.383
REMARK INTER:                  -9.131
REMARK INTRA:                  -0.251
REMARK UNBOUND:                -0.296
REMARK SMILES O=c1c(O)c(-c2ccc(O)c(O)c2)oc2cc(O)cc(O)c12
REMARK SMILES IDX 5 1 3 2 2 3 1 4 22 5 20 6 19 7 17 8 16 9 15 10 14 11 6 12
REMARK SMILES IDX 7 13 8 14 9 15 13 16 11 17 10 18 12 20 4 22 21 24 18 26
REMARK H PARENT 10 19 12 21 4 23 21 25 18 27
REMARK Flexibility Score: inf
ROOT
ATOM      1  C   UNL     1      14.166  45.510  28.898  1.00  0.00     0.180 A 
ATOM      2  C   UNL     1      15.085  45.495  29.965  1.00  0.00     0.208 A 
ATOM      3  C   UNL     1      15.856  46.640  30.213  1.00  0.00     0.238 A 
ATOM      4  O   UNL     1      16.689  46.635  31.159  1.00  0.00    -0.285 OA
ATOM      5  C   UNL     1      15.684  47.784  29.406  1.00  0.00     0.111 A 
ATOM      6  C   UNL     1      16.418  48.981  29.593  1.00  0.00     0.134 A 
ATOM      7  C   UNL     1      16.182  50.079  28.753  1.00  0.00     0.093 A 
ATOM      8  C   UNL     1      15.229  50.007  27.735  1.00  0.00     0.123 A 
ATOM      9  C   UNL     1      14.500  48.828  27.547  1.00  0.00     0.094 A 
ATOM     10  C   UNL     1      14.721  47.721  28.371  1.00  0.00     0.146 A 
ATOM     11  O   UNL     1      14.021  46.612  28.167  1.00  0.00    -0.452 OA
ENDROOT
BRANCH   1  12
ATOM     12  C   UNL     1      13.331  44.334  28.561  1.00  0.00     0.025 A 
ATOM     13  C   UNL     1      13.887  43.183  27.983  1.00  0.00     0.016 A 
ATOM     14  C   UNL     1      13.075  42.096  27.653  1.00  0.00     0.051 A 
ATOM     15  C   UNL     1      11.695  42.140  27.879  1.00  0.00     0.157 A 
ATOM     16  C   UNL     1      11.944  44.390  28.769  1.00  0.00     0.062 A 
ATOM     17  C   UNL     1      11.121  43.305  28.442  1.00  0.00     0.158 A 
BRANCH  15  18
ATOM     18  O   UNL     1      10.940  41.019  27.532  1.00  0.00    -0.504 OA
ATOM     19  H   UNL     1       9.954  40.919  27.727  1.00  0.00     0.293 HD
ENDBRANCH  15  18
BRANCH  17  20
ATOM     20  O   UNL     1       9.752  43.428  28.688  1.00  0.00    -0.504 OA
ATOM     21  H   UNL     1       9.204  42.742  29.187  1.00  0.00     0.293 HD
ENDBRANCH  17  20
ENDBRANCH   1  12
BRANCH   2  22
ATOM     22  O   UNL     1      15.201  44.366  30.780  1.00  0.00    -0.502 OA
ATOM     23  H   UNL     1      14.443  43.704  30.903  1.00  0.00     0.293 HD
ENDBRANCH   2  22
BRANCH   6  24
ATOM     24  O   UNL     1      17.378  49.085  30.601  1.00  0.00    -0.507 OA
ATOM     25  H   UNL     1      18.154  49.733  30.534  1.00  0.00     0.293 HD
ENDBRANCH   6  24
BRANCH   8  26
ATOM     26  O   UNL     1      15.013  51.113  26.916  1.00  0.00    -0.508 OA
ATOM     27  H   UNL     1      14.784  51.009  25.935  1.00  0.00     0.293 HD
ENDBRANCH   8  26
TORSDOF 6
ENDMDL
MODEL 4
REMARK VINA RESULT:    -7.284      4.998      8.454
REMARK INTER + INTRA:          -9.071
REMARK INTER:                  -8.808
REMARK INTRA:                  -0.263
REMARK UNBOUND:                -0.296
REMARK SMILES O=c1c(O)c(-c2ccc(O)c(O)c2)oc2cc(O)cc(O)c12
REMARK SMILES IDX 5 1 3 2 2 3 1 4 22 5 20 6 19 7 17 8 16 9 15 10 14 11 6 12
REMARK SMILES IDX 7 13 8 14 9 15 13 16 11 17 10 18 12 20 4 22 21 24 18 26
REMARK H PARENT 10 19 12 21 4 23 21 25 18 27
REMARK Flexibility Score: inf
ROOT
ATOM      1  C   UNL     1       9.719  48.529  31.360  1.00  0.00     0.180 A 
ATOM      2  C   UNL     1       9.446  49.363  30.258  1.00  0.00     0.208 A 
ATOM      3  C   UNL     1       9.196  50.726  30.484  1.00  0.00     0.238 A 
ATOM      4  O   UNL     1       8.941  51.480  29.507  1.00  0.00    -0.285 OA
ATOM      5  C   UNL     1       9.243  51.234  31.799  1.00  0.00     0.111 A 
ATOM      6  C   UNL     1       9.008  52.595  32.111  1.00  0.00     0.134 A 
ATOM      7  C   UNL     1       9.081  53.025  33.445  1.00  0.00     0.093 A 
ATOM      8  C   UNL     1       9.385  52.125  34.468  1.00  0.00     0.123 A 
ATOM      9  C   UNL     1       9.618  50.779  34.165  1.00  0.00     0.094 A 
ATOM     10  C   UNL     1       9.548  50.330  32.843  1.00  0.00     0.146 A 
ATOM     11  O   UNL     1       9.768  49.047  32.584  1.00  0.00    -0.452 OA
ENDROOT
BRANCH   1  12
ATOM     12  C   UNL     1       9.973  47.079  31.204  1.00  0.00     0.025 A 
ATOM     13  C   UNL     1       9.014  46.124  31.576  1.00  0.00     0.016 A 
ATOM     14  C   UNL     1       9.286  44.761  31.442  1.00  0.00     0.051 A 
ATOM     15  C   UNL     1      10.520  44.324  30.948  1.00  0.00     0.157 A 
ATOM     16  C   UNL     1      11.219  46.643  30.730  1.00  0.00     0.062 A 
ATOM     17  C   UNL     1      11.502  45.278  30.591  1.00  0.00     0.158 A 
BRANCH  15  18
ATOM     18  O   UNL     1      10.727  42.948  30.834  1.00  0.00    -0.504 OA
ATOM     19  H   UNL     1      10.074  42.313  30.398  1.00  0.00     0.293 HD
ENDBRANCH  15  18
BRANCH  17  20
ATOM     20  O   UNL     1      12.759  44.919  30.101  1.00  0.00    -0.504 OA
ATOM     21  H   UNL     1      13.297  44.136  30.445  1.00  0.00     0.293 HD
ENDBRANCH  17  20
ENDBRANCH   1  12
BRANCH   2  22
ATOM     22  O   UNL     1       9.455  48.845  28.960  1.00  0.00    -0.502 OA
ATOM     23  H   UNL     1       9.221  47.880  28.760  1.00  0.00     0.293 HD
ENDBRANCH   2  22
BRANCH   6  24
ATOM     24  O   UNL     1       8.702  53.520  31.112  1.00  0.00    -0.507 OA
ATOM     25  H   UNL     1       8.007  54.244  31.249  1.00  0.00     0.293 HD
ENDBRANCH   6  24
BRANCH   8  26
ATOM     26  O   UNL     1       9.453  52.578  35.784  1.00  0.00    -0.508 OA
ATOM     27  H   UNL     1       9.453  51.934  36.566  1.00  0.00     0.293 HD
ENDBRANCH   8  26
TORSDOF 6
ENDMDL
MODEL 5
REMARK VINA RESULT:    -7.158      3.789      6.953
REMARK INTER + INTRA:          -8.919
REMARK INTER:                  -8.592
REMARK INTRA:                  -0.327
REMARK UNBOUND:                -0.296
REMARK SMILES O=c1c(O)c(-c2ccc(O)c(O)c2)oc2cc(O)cc(O)c12
REMARK SMILES IDX 5 1 3 2 2 3 1 4 22 5 20 6 19 7 17 8 16 9 15 10 14 11 6 12
REMARK SMILES IDX 7 13 8 14 9 15 13 16 11 17 10 18 12 20 4 22 21 24 18 26
REMARK H PARENT 10 19 12 21 4 23 21 25 18 27
REMARK Flexibility Score: inf
ROOT
ATOM      1  C   UNL     1      11.199  45.445  29.942  1.00  0.00     0.180 A 
ATOM      2  C   UNL     1      11.119  45.364  31.346  1.00  0.00     0.208 A 
ATOM      3  C   UNL     1      10.587  46.450  32.059  1.00  0.00     0.238 A 
ATOM      4  O   UNL     1      10.519  46.394  33.316  1.00  0.00    -0.285 OA
ATOM      5  C   UNL     1      10.129  47.586  31.359  1.00  0.00     0.111 A 
ATOM      6  C   UNL     1       9.576  48.720  32.001  1.00  0.00     0.134 A 
ATOM      7  C   UNL     1       9.134  49.807  31.233  1.00  0.00     0.093 A 
ATOM      8  C   UNL     1       9.233  49.783  29.840  1.00  0.00     0.123 A 
ATOM      9  C   UNL     1       9.777  48.665  29.200  1.00  0.00     0.094 A 
ATOM     10  C   UNL     1      10.226  47.572  29.947  1.00  0.00     0.146 A 
ATOM     11  O   UNL     1      10.744  46.526  29.316  1.00  0.00    -0.452 OA
ENDROOT
BRANCH   1  12
ATOM     12  C   UNL     1      11.766  44.349  29.122  1.00  0.00     0.025 A 
ATOM     13  C   UNL     1      13.148  44.235  28.907  1.00  0.00     0.016 A 
ATOM     14  C   UNL     1      13.655  43.207  28.111  1.00  0.00     0.051 A 
ATOM     15  C   UNL     1      12.798  42.283  27.505  1.00  0.00     0.157 A 
ATOM     16  C   UNL     1      10.902  43.436  28.499  1.00  0.00     0.062 A 
ATOM     17  C   UNL     1      11.401  42.401  27.698  1.00  0.00     0.158 A 
BRANCH  15  18
ATOM     18  O   UNL     1      13.370  41.276  26.725  1.00  0.00    -0.504 OA
ATOM     19  H   UNL     1      14.272  41.351  26.277  1.00  0.00     0.293 HD
ENDBRANCH  15  18
BRANCH  17  20
ATOM     20  O   UNL     1      10.483  41.523  27.120  1.00  0.00    -0.504 OA
ATOM     21  H   UNL     1       9.888  41.761  26.339  1.00  0.00     0.293 HD
ENDBRANCH  17  20
ENDBRANCH   1  12
BRANCH   2  22
ATOM     22  O   UNL     1      11.534  44.208  32.012  1.00  0.00    -0.502 OA
ATOM     23  H   UNL     1      11.168  43.943  32.919  1.00  0.00     0.293 HD
ENDBRANCH   2  22
BRANCH   6  24
ATOM     24  O   UNL     1       9.464  48.775  33.391  1.00  0.00    -0.507 OA
ATOM     25  H   UNL     1       8.660  48.396  33.877  1.00  0.00     0.293 HD
ENDBRANCH   6  24
BRANCH   8  26
ATOM     26  O   UNL     1       8.784  50.876  29.101  1.00  0.00    -0.508 OA
ATOM     27  H   UNL     1       7.797  51.041  28.947  1.00  0.00     0.293 HD
ENDBRANCH   8  26
TORSDOF 6
ENDMDL
MODEL 6
REMARK VINA RESULT:    -7.137      3.161      4.947
REMARK INTER + INTRA:          -8.893
REMARK INTER:                  -8.693
REMARK INTRA:                  -0.200
REMARK UNBOUND:                -0.296
REMARK SMILES O=c1c(O)c(-c2ccc(O)c(O)c2)oc2cc(O)cc(O)c12
REMARK SMILES IDX 5 1 3 2 2 3 1 4 22 5 20 6 19 7 17 8 16 9 15 10 14 11 6 12
REMARK SMILES IDX 7 13 8 14 9 15 13 16 11 17 10 18 12 20 4 22 21 24 18 26
REMARK H PARENT 10 19 12 21 4 23 21 25 18 27
REMARK Flexibility Score: inf
ROOT
ATOM      1  C   UNL     1      10.628  47.591  29.684  1.00  0.00     0.180 A 
ATOM      2  C   UNL     1       9.960  46.433  29.237  1.00  0.00     0.208 A 
ATOM      3  C   UNL     1      10.720  45.327  28.829  1.00  0.00     0.238 A 
ATOM      4  O   UNL     1      10.133  44.289  28.418  1.00  0.00    -0.285 OA
ATOM      5  C   UNL     1      12.127  45.386  28.891  1.00  0.00     0.111 A 
ATOM      6  C   UNL     1      12.966  44.313  28.504  1.00  0.00     0.134 A 
ATOM      7  C   UNL     1      14.359  44.448  28.604  1.00  0.00     0.093 A 
ATOM      8  C   UNL     1      14.928  45.629  29.084  1.00  0.00     0.123 A 
ATOM      9  C   UNL     1      14.105  46.692  29.469  1.00  0.00     0.094 A 
ATOM     10  C   UNL     1      12.714  46.579  29.376  1.00  0.00     0.146 A 
ATOM     11  O   UNL     1      11.956  47.605  29.742  1.00  0.00    -0.452 OA
ENDROOT
BRANCH   1  12
ATOM     12  C   UNL     1       9.897  48.805  30.112  1.00  0.00     0.025 A 
ATOM     13  C   UNL     1       9.133  49.557  29.206  1.00  0.00     0.016 A 
ATOM     14  C   UNL     1       8.471  50.712  29.629  1.00  0.00     0.051 A 
ATOM     15  C   UNL     1       8.569  51.146  30.955  1.00  0.00     0.157 A 
ATOM     16  C   UNL     1      10.014  49.250  31.437  1.00  0.00     0.062 A 
ATOM     17  C   UNL     1       9.355  50.407  31.871  1.00  0.00     0.158 A 
BRANCH  15  18
ATOM     18  O   UNL     1       7.880  52.305  31.314  1.00  0.00    -0.504 OA
ATOM     19  H   UNL     1       8.277  53.234  31.276  1.00  0.00     0.293 HD
ENDBRANCH  15  18
BRANCH  17  20
ATOM     20  O   UNL     1       9.508  50.783  33.207  1.00  0.00    -0.504 OA
ATOM     21  H   UNL     1       8.834  50.580  33.932  1.00  0.00     0.293 HD
ENDBRANCH  17  20
ENDBRANCH   1  12
BRANCH   2  22
ATOM     22  O   UNL     1       8.563  46.382  29.232  1.00  0.00    -0.502 OA
ATOM     23  H   UNL     1       7.995  47.108  28.812  1.00  0.00     0.293 HD
ENDBRANCH   2  22
BRANCH   6  24
ATOM     24  O   UNL     1      12.428  43.120  28.019  1.00  0.00    -0.507 OA
ATOM     25  H   UNL     1      11.674  42.641  28.498  1.00  0.00     0.293 HD
ENDBRANCH   6  24
BRANCH   8  26
ATOM     26  O   UNL     1      16.314  45.735  29.175  1.00  0.00    -0.508 OA
ATOM     27  H   UNL     1      16.784  45.765  30.072  1.00  0.00     0.293 HD
ENDBRANCH   8  26
TORSDOF 6
ENDMDL
MODEL 7
REMARK VINA RESULT:    -7.081      3.348      4.791
REMARK INTER + INTRA:          -8.826
REMARK INTER:                  -8.503
REMARK INTRA:                  -0.323
REMARK UNBOUND:                -0.296
REMARK SMILES O=c1c(O)c(-c2ccc(O)c(O)c2)oc2cc(O)cc(O)c12
REMARK SMILES IDX 5 1 3 2 2 3 1 4 22 5 20 6 19 7 17 8 16 9 15 10 14 11 6 12
REMARK SMILES IDX 7 13 8 14 9 15 13 16 11 17 10 18 12 20 4 22 21 24 18 26
REMARK H PARENT 10 19 12 21 4 23 21 25 18 27
REMARK Flexibility Score: inf
ROOT
ATOM      1  C   UNL     1      11.708  44.272  29.413  1.00  0.00     0.180 A 
ATOM      2  C   UNL     1      12.648  43.858  30.377  1.00  0.00     0.208 A 
ATOM      3  C   UNL     1      13.372  42.677  30.154  1.00  0.00     0.238 A 
ATOM      4  O   UNL     1      14.209  42.291  31.014  1.00  0.00    -0.285 OA
ATOM      5  C   UNL     1      13.162  41.943  28.968  1.00  0.00     0.111 A 
ATOM      6  C   UNL     1      13.854  40.746  28.665  1.00  0.00     0.134 A 
ATOM      7  C   UNL     1      13.595  40.079  27.458  1.00  0.00     0.093 A 
ATOM      8  C   UNL     1      12.660  40.584  26.552  1.00  0.00     0.123 A 
ATOM      9  C   UNL     1      11.974  41.766  26.845  1.00  0.00     0.094 A 
ATOM     10  C   UNL     1      12.216  42.446  28.043  1.00  0.00     0.146 A 
ATOM     11  O   UNL     1      11.547  43.562  28.300  1.00  0.00    -0.452 OA
ENDROOT
BRANCH   1  12
ATOM     12  C   UNL     1      10.891  45.495  29.585  1.00  0.00     0.025 A 
ATOM     13  C   UNL     1       9.715  45.488  30.351  1.00  0.00     0.016 A 
ATOM     14  C   UNL     1       8.949  46.648  30.479  1.00  0.00     0.051 A 
ATOM     15  C   UNL     1       9.332  47.832  29.839  1.00  0.00     0.157 A 
ATOM     16  C   UNL     1      11.266  46.675  28.924  1.00  0.00     0.062 A 
ATOM     17  C   UNL     1      10.505  47.844  29.046  1.00  0.00     0.158 A 
BRANCH  15  18
ATOM     18  O   UNL     1       8.525  48.958  30.011  1.00  0.00    -0.504 OA
ATOM     19  H   UNL     1       7.986  49.385  29.272  1.00  0.00     0.293 HD
ENDBRANCH  15  18
BRANCH  17  20
ATOM     20  O   UNL     1      10.945  48.983  28.370  1.00  0.00    -0.504 OA
ATOM     21  H   UNL     1      11.916  49.249  28.284  1.00  0.00     0.293 HD
ENDBRANCH  17  20
ENDBRANCH   1  12
BRANCH   2  22
ATOM     22  O   UNL     1      12.873  44.629  31.520  1.00  0.00    -0.502 OA
ATOM     23  H   UNL     1      13.792  44.728  31.936  1.00  0.00     0.293 HD
ENDBRANCH   2  22
BRANCH   6  24
ATOM     24  O   UNL     1      14.794  40.216  29.550  1.00  0.00    -0.507 OA
ATOM     25  H   UNL     1      14.519  39.786  30.425  1.00  0.00     0.293 HD
ENDBRANCH   6  24
BRANCH   8  26
ATOM     26  O   UNL     1      12.423  39.902  25.360  1.00  0.00    -0.508 OA
ATOM     27  H   UNL     1      11.485  39.639  25.079  1.00  0.00     0.293 HD
ENDBRANCH   8  26
TORSDOF 6
ENDMDL
MODEL 8
REMARK VINA RESULT:    -7.081      1.359      3.026
REMARK INTER + INTRA:          -8.826
REMARK INTER:                  -8.574
REMARK INTRA:                  -0.251
REMARK UNBOUND:                -0.296
REMARK SMILES O=c1c(O)c(-c2ccc(O)c(O)c2)oc2cc(O)cc(O)c12
REMARK SMILES IDX 5 1 3 2 2 3 1 4 22 5 20 6 19 7 17 8 16 9 15 10 14 11 6 12
REMARK SMILES IDX 7 13 8 14 9 15 13 16 11 17 10 18 12 20 4 22 21 24 18 26
REMARK H PARENT 10 19 12 21 4 23 21 25 18 27
REMARK Flexibility Score: inf
ROOT
ATOM      1  C   UNL     1      13.971  47.093  28.823  1.00  0.00     0.180 A 
ATOM      2  C   UNL     1      14.505  45.801  28.659  1.00  0.00     0.208 A 
ATOM      3  C   UNL     1      13.653  44.693  28.784  1.00  0.00     0.238 A 
ATOM      4  O   UNL     1      14.122  43.531  28.650  1.00  0.00    -0.285 OA
ATOM      5  C   UNL     1      12.283  44.895  29.051  1.00  0.00     0.111 A 
ATOM      6  C   UNL     1      11.356  43.833  29.187  1.00  0.00     0.134 A 
ATOM      7  C   UNL     1      10.006  44.116  29.443  1.00  0.00     0.093 A 
ATOM      8  C   UNL     1       9.566  45.436  29.564  1.00  0.00     0.123 A 
ATOM      9  C   UNL     1      10.476  46.489  29.430  1.00  0.00     0.094 A 
ATOM     10  C   UNL     1      11.826  46.228  29.176  1.00  0.00     0.146 A 
ATOM     11  O   UNL     1      12.670  47.245  29.059  1.00  0.00    -0.452 OA
ENDROOT
BRANCH   1  12
ATOM     12  C   UNL     1      14.809  48.310  28.725  1.00  0.00     0.025 A 
ATOM     13  C   UNL     1      15.740  48.639  29.722  1.00  0.00     0.016 A 
ATOM     14  C   UNL     1      16.502  49.804  29.619  1.00  0.00     0.051 A 
ATOM     15  C   UNL     1      16.344  50.668  28.530  1.00  0.00     0.157 A 
ATOM     16  C   UNL     1      14.632  49.185  27.642  1.00  0.00     0.062 A 
ATOM     17  C   UNL     1      15.392  50.356  27.530  1.00  0.00     0.158 A 
BRANCH  15  18
ATOM     18  O   UNL     1      17.140  51.813  28.484  1.00  0.00    -0.504 OA
ATOM     19  H   UNL     1      17.913  51.939  27.846  1.00  0.00     0.293 HD
ENDBRANCH  15  18
BRANCH  17  20
ATOM     20  O   UNL     1      15.171  51.173  26.419  1.00  0.00    -0.504 OA
ATOM     21  H   UNL     1      14.295  51.637  26.225  1.00  0.00     0.293 HD
ENDBRANCH  17  20
ENDBRANCH   1  12
BRANCH   2  22
ATOM     22  O   UNL     1      15.857  45.630  28.346  1.00  0.00    -0.502 OA
ATOM     23  H   UNL     1      16.598  45.878  28.990  1.00  0.00     0.293 HD
ENDBRANCH   2  22
BRANCH   6  24
ATOM     24  O   UNL     1      11.765  42.503  29.072  1.00  0.00    -0.507 OA
ATOM     25  H   UNL     1      11.258  41.748  29.519  1.00  0.00     0.293 HD
ENDBRANCH   6  24
BRANCH   8  26
ATOM     26  O   UNL     1       8.219  45.689  29.817  1.00  0.00    -0.508 OA
ATOM     27  H   UNL     1       7.488  45.274  29.252  1.00  0.00     0.293 HD
ENDBRANCH   8  26
TORSDOF 6
ENDMDL
MODEL 9
REMARK VINA RESULT:    -7.065      2.290      7.024
REMARK INTER + INTRA:          -8.806
REMARK INTER:                  -8.543
REMARK INTRA:                  -0.263
REMARK UNBOUND:                -0.296
REMARK SMILES O=c1c(O)c(-c2ccc(O)c(O)c2)oc2cc(O)cc(O)c12
REMARK SMILES IDX 5 1 3 2 2 3 1 4 22 5 20 6 19 7 17 8 16 9 15 10 14 11 6 12
REMARK SMILES IDX 7 13 8 14 9 15 13 16 11 17 10 18 12 20 4 22 21 24 18 26
REMARK H PARENT 10 19 12 21 4 23 21 25 18 27
REMARK Flexibility Score: inf
ROOT
ATOM      1  C   UNL     1      14.620  45.598  29.255  1.00  0.00     0.180 A 
ATOM      2  C   UNL     1      14.133  46.799  28.702  1.00  0.00     0.208 A 
ATOM      3  C   UNL     1      14.901  47.966  28.834  1.00  0.00     0.238 A 
ATOM      4  O   UNL     1      14.472  49.049  28.351  1.00  0.00    -0.285 OA
ATOM      5  C   UNL     1      16.145  47.911  29.496  1.00  0.00     0.111 A 
ATOM      6  C   UNL     1      16.982  49.040  29.667  1.00  0.00     0.134 A 
ATOM      7  C   UNL     1      18.210  48.902  30.330  1.00  0.00     0.093 A 
ATOM      8  C   UNL     1      18.618  47.661  30.823  1.00  0.00     0.123 A 
ATOM      9  C   UNL     1      17.796  46.541  30.656  1.00  0.00     0.094 A 
ATOM     10  C   UNL     1      16.567  46.658  30.000  1.00  0.00     0.146 A 
ATOM     11  O   UNL     1      15.804  45.582  29.860  1.00  0.00    -0.452 OA
ENDROOT
BRANCH   1  12
ATOM     12  C   UNL     1      13.859  44.330  29.175  1.00  0.00     0.025 A 
ATOM     13  C   UNL     1      14.205  43.325  28.259  1.00  0.00     0.016 A 
ATOM     14  C   UNL     1      13.458  42.148  28.186  1.00  0.00     0.051 A 
ATOM     15  C   UNL     1      12.346  41.955  29.013  1.00  0.00     0.157 A 
ATOM     16  C   UNL     1      12.731  44.149  29.990  1.00  0.00     0.062 A 
ATOM     17  C   UNL     1      11.975  42.972  29.925  1.00  0.00     0.158 A 
BRANCH  15  18
ATOM     18  O   UNL     1      11.645  40.755  28.894  1.00  0.00    -0.504 OA
ATOM     19  H   UNL     1      10.679  40.635  29.165  1.00  0.00     0.293 HD
ENDBRANCH  15  18
BRANCH  17  20
ATOM     20  O   UNL     1      10.874  42.856  30.775  1.00  0.00    -0.504 OA
ATOM     21  H   UNL     1      10.000  43.344  30.638  1.00  0.00     0.293 HD
ENDBRANCH  17  20
ENDBRANCH   1  12
BRANCH   2  22
ATOM     22  O   UNL     1      12.921  46.816  28.007  1.00  0.00    -0.502 OA
ATOM     23  H   UNL     1      12.319  46.004  27.946  1.00  0.00     0.293 HD
ENDBRANCH   2  22
BRANCH   6  24
ATOM     24  O   UNL     1      16.603  50.295  29.186  1.00  0.00    -0.507 OA
ATOM     25  H   UNL     1      16.707  50.547  28.211  1.00  0.00     0.293 HD
ENDBRANCH   6  24
BRANCH   8  26
ATOM     26  O   UNL     1      19.844  47.551  31.476  1.00  0.00    -0.508 OA
ATOM     27  H   UNL     1      19.983  47.926  32.407  1.00  0.00     0.293 HD
ENDBRANCH   8  26
TORSDOF 6
ENDMDL
