MODEL 1
REMARK VINA RESULT:    -4.261      0.000      0.000
REMARK INTER + INTRA:          -4.986
REMARK INTER:                  -4.884
REMARK INTRA:                  -0.102
REMARK UNBOUND:                -0.102
REMARK SMILES COc1ccc(C(C)=O)cc1O
REMARK SMILES IDX 6 1 10 2 11 3 3 4 4 5 5 6 7 7 8 8 9 9 12 10 2 12 1 13
REMARK H PARENT 12 11
REMARK Flexibility Score: inf
ROOT
ATOM      1  C   UNL     1      -0.449  -9.958 -42.498  1.00  0.00     0.021 A 
ATOM      2  C   UNL     1      -0.820 -11.308 -42.360  1.00  0.00     0.062 A 
ATOM      3  C   UNL     1      -2.168 -11.680 -42.297  1.00  0.00     0.158 A 
ATOM      4  C   UNL     1      -3.175 -10.703 -42.371  1.00  0.00     0.160 A 
ATOM      5  C   UNL     1      -2.809  -9.351 -42.509  1.00  0.00     0.051 A 
ATOM      6  C   UNL     1      -1.463  -8.986 -42.570  1.00  0.00     0.016 A 
ENDROOT
BRANCH   1   7
ATOM      7  C   UNL     1       0.980  -9.549 -42.565  1.00  0.00     0.159 C 
ATOM      8  C   UNL     1       2.022 -10.159 -41.674  1.00  0.00     0.093 C 
ATOM      9  O   UNL     1       1.341  -8.667 -43.391  1.00  0.00    -0.295 OA
ENDBRANCH   1   7
BRANCH   3  10
ATOM     10  O   UNL     1      -2.487 -13.032 -42.161  1.00  0.00    -0.504 OA
ATOM     11  H   UNL     1      -3.290 -13.445 -42.617  1.00  0.00     0.293 HD
ENDBRANCH   3  10
BRANCH   4  12
ATOM     12  O   UNL     1      -4.519 -11.106 -42.306  1.00  0.00    -0.493 OA
ATOM     13  C   UNL     1      -5.317 -11.442 -43.437  1.00  0.00     0.278 C 
ENDBRANCH   4  12
TORSDOF 3
ENDMDL
MODEL 2
REMARK VINA RESULT:    -4.239     14.644     16.415
REMARK INTER + INTRA:          -4.960
REMARK INTER:                  -4.825
REMARK INTRA:                  -0.135
REMARK UNBOUND:                -0.102
REMARK SMILES COc1ccc(C(C)=O)cc1O
REMARK SMILES IDX 6 1 10 2 11 3 3 4 4 5 5 6 7 7 8 8 9 9 12 10 2 12 1 13
REMARK H PARENT 12 11
REMARK Flexibility Score: inf
ROOT
ATOM      1  C   UNL     1      -1.345 -25.939 -46.784  1.00  0.00     0.021 A 
ATOM      2  C   UNL     1      -0.153 -26.552 -47.212  1.00  0.00     0.062 A 
ATOM      3  C   UNL     1       1.094 -26.006 -46.888  1.00  0.00     0.158 A 
ATOM      4  C   UNL     1       1.173 -24.829 -46.125  1.00  0.00     0.160 A 
ATOM      5  C   UNL     1      -0.016 -24.211 -45.694  1.00  0.00     0.051 A 
ATOM      6  C   UNL     1      -1.257 -24.760 -46.021  1.00  0.00     0.016 A 
ENDROOT
BRANCH   1   7
ATOM      7  C   UNL     1      -2.676 -26.509 -47.122  1.00  0.00     0.159 C 
ATOM      8  C   UNL     1      -3.854 -26.375 -46.202  1.00  0.00     0.093 C 
ATOM      9  O   UNL     1      -2.836 -27.125 -48.211  1.00  0.00    -0.295 OA
ENDBRANCH   1   7
BRANCH   3  10
ATOM     10  O   UNL     1       2.248 -26.651 -47.335  1.00  0.00    -0.504 OA
ATOM     11  H   UNL     1       2.514 -26.666 -48.312  1.00  0.00     0.293 HD
ENDBRANCH   3  10
BRANCH   4  12
ATOM     12  O   UNL     1       2.438 -24.304 -45.813  1.00  0.00    -0.493 OA
ATOM     13  C   UNL     1       3.112 -24.502 -44.575  1.00  0.00     0.278 C 
ENDBRANCH   4  12
TORSDOF 3
ENDMDL
MODEL 3
REMARK VINA RESULT:    -4.059      3.086      4.422
REMARK INTER + INTRA:          -4.754
REMARK INTER:                  -4.651
REMARK INTRA:                  -0.103
REMARK UNBOUND:                -0.102
REMARK SMILES COc1ccc(C(C)=O)cc1O
REMARK SMILES IDX 6 1 10 2 11 3 3 4 4 5 5 6 7 7 8 8 9 9 12 10 2 12 1 13
REMARK H PARENT 12 11
REMARK Flexibility Score: inf
ROOT
ATOM      1  C   UNL     1      -0.518  -9.527 -40.869  1.00  0.00     0.021 A 
ATOM      2  C   UNL     1      -0.294 -10.818 -40.356  1.00  0.00     0.062 A 
ATOM      3  C   UNL     1       0.563 -11.712 -41.006  1.00  0.00     0.158 A 
ATOM      4  C   UNL     1       1.217 -11.330 -42.190  1.00  0.00     0.160 A 
ATOM      5  C   UNL     1       0.997 -10.040 -42.708  1.00  0.00     0.051 A 
ATOM      6  C   UNL     1       0.140  -9.152 -42.055  1.00  0.00     0.016 A 
ENDROOT
BRANCH   1   7
ATOM      7  C   UNL     1      -1.427  -8.567 -40.187  1.00  0.00     0.159 C 
ATOM      8  C   UNL     1      -2.823  -8.315 -40.675  1.00  0.00     0.093 C 
ATOM      9  O   UNL     1      -1.028  -7.942 -39.167  1.00  0.00    -0.295 OA
ENDBRANCH   1   7
BRANCH   3  10
ATOM     10  O   UNL     1       0.754 -12.981 -40.458  1.00  0.00    -0.504 OA
ATOM     11  H   UNL     1       1.656 -13.440 -40.459  1.00  0.00     0.293 HD
ENDBRANCH   3  10
BRANCH   4  12
ATOM     12  O   UNL     1       2.073 -12.248 -42.821  1.00  0.00    -0.493 OA
ATOM     13  C   UNL     1       2.188 -12.405 -44.231  1.00  0.00     0.278 C 
ENDBRANCH   4  12
TORSDOF 3
ENDMDL
MODEL 4
REMARK VINA RESULT:    -3.956      3.122      3.556
REMARK INTER + INTRA:          -4.636
REMARK INTER:                  -4.527
REMARK INTRA:                  -0.109
REMARK UNBOUND:                -0.102
REMARK SMILES COc1ccc(C(C)=O)cc1O
REMARK SMILES IDX 6 1 10 2 11 3 3 4 4 5 5 6 7 7 8 8 9 9 12 10 2 12 1 13
REMARK H PARENT 12 11
REMARK Flexibility Score: inf
ROOT
ATOM      1  C   UNL     1       1.121 -10.698 -42.610  1.00  0.00     0.021 A 
ATOM      2  C   UNL     1       0.899 -11.789 -41.749  1.00  0.00     0.062 A 
ATOM      3  C   UNL     1       0.174 -11.633 -40.563  1.00  0.00     0.158 A 
ATOM      4  C   UNL     1      -0.347 -10.376 -40.212  1.00  0.00     0.160 A 
ATOM      5  C   UNL     1      -0.128  -9.282 -41.069  1.00  0.00     0.051 A 
ATOM      6  C   UNL     1       0.598  -9.442 -42.251  1.00  0.00     0.016 A 
ENDROOT
BRANCH   1   7
ATOM      7  C   UNL     1       1.892 -10.850 -43.873  1.00  0.00     0.159 C 
ATOM      8  C   UNL     1       2.417 -12.180 -44.327  1.00  0.00     0.093 C 
ATOM      9  O   UNL     1       2.116  -9.841 -44.595  1.00  0.00    -0.295 OA
ENDBRANCH   1   7
BRANCH   3  10
ATOM     10  O   UNL     1      -0.020 -12.746 -39.743  1.00  0.00    -0.504 OA
ATOM     11  H   UNL     1       0.442 -13.629 -39.914  1.00  0.00     0.293 HD
ENDBRANCH   3  10
BRANCH   4  12
ATOM     12  O   UNL     1      -1.072 -10.250 -39.016  1.00  0.00    -0.493 OA
ATOM     13  C   UNL     1      -0.705  -9.399 -37.936  1.00  0.00     0.278 C 
ENDBRANCH   4  12
TORSDOF 3
ENDMDL
MODEL 5
REMARK VINA RESULT:    -3.941      1.408      1.523
REMARK INTER + INTRA:          -4.619
REMARK INTER:                  -4.507
REMARK INTRA:                  -0.112
REMARK UNBOUND:                -0.102
REMARK SMILES COc1ccc(C(C)=O)cc1O
REMARK SMILES IDX 6 1 10 2 11 3 3 4 4 5 5 6 7 7 8 8 9 9 12 10 2 12 1 13
REMARK H PARENT 12 11
REMARK Flexibility Score: inf
ROOT
ATOM      1  C   UNL     1      -0.079 -10.101 -42.022  1.00  0.00     0.021 A 
ATOM      2  C   UNL     1      -0.708 -11.278 -42.470  1.00  0.00     0.062 A 
ATOM      3  C   UNL     1      -2.010 -11.594 -42.067  1.00  0.00     0.158 A 
ATOM      4  C   UNL     1      -2.712 -10.736 -41.204  1.00  0.00     0.160 A 
ATOM      5  C   UNL     1      -2.087  -9.558 -40.753  1.00  0.00     0.051 A 
ATOM      6  C   UNL     1      -0.787  -9.247 -41.158  1.00  0.00     0.016 A 
ENDROOT
BRANCH   1   7
ATOM      7  C   UNL     1       1.305  -9.753 -42.442  1.00  0.00     0.159 C 
ATOM      8  C   UNL     1       2.502 -10.484 -41.911  1.00  0.00     0.093 C 
ATOM      9  O   UNL     1       1.493  -8.820 -43.270  1.00  0.00    -0.295 OA
ENDBRANCH   1   7
BRANCH   3  10
ATOM     10  O   UNL     1      -2.592 -12.772 -42.538  1.00  0.00    -0.504 OA
ATOM     11  H   UNL     1      -2.044 -13.594 -42.759  1.00  0.00     0.293 HD
ENDBRANCH   3  10
BRANCH   4  12
ATOM     12  O   UNL     1      -4.018 -11.078 -40.817  1.00  0.00    -0.493 OA
ATOM     13  C   UNL     1      -4.388 -11.501 -39.508  1.00  0.00     0.278 C 
ENDBRANCH   4  12
TORSDOF 3
ENDMDL
MODEL 6
REMARK VINA RESULT:    -3.923      4.833      5.676
REMARK INTER + INTRA:          -4.598
REMARK INTER:                  -4.461
REMARK INTRA:                  -0.138
REMARK UNBOUND:                -0.102
REMARK SMILES COc1ccc(C(C)=O)cc1O
REMARK SMILES IDX 6 1 10 2 11 3 3 4 4 5 5 6 7 7 8 8 9 9 12 10 2 12 1 13
REMARK H PARENT 12 11
REMARK Flexibility Score: inf
ROOT
ATOM      1  C   UNL     1      -1.199  -9.362 -39.773  1.00  0.00     0.021 A 
ATOM      2  C   UNL     1      -0.837 -10.104 -38.634  1.00  0.00     0.062 A 
ATOM      3  C   UNL     1      -0.620  -9.472 -37.404  1.00  0.00     0.158 A 
ATOM      4  C   UNL     1      -0.764  -8.079 -37.289  1.00  0.00     0.160 A 
ATOM      5  C   UNL     1      -1.126  -7.333 -38.426  1.00  0.00     0.051 A 
ATOM      6  C   UNL     1      -1.340  -7.968 -39.651  1.00  0.00     0.016 A 
ENDROOT
BRANCH   1   7
ATOM      7  C   UNL     1      -1.431 -10.021 -41.087  1.00  0.00     0.159 C 
ATOM      8  C   UNL     1      -1.742  -9.233 -42.325  1.00  0.00     0.093 C 
ATOM      9  O   UNL     1      -1.366 -11.277 -41.178  1.00  0.00    -0.295 OA
ENDBRANCH   1   7
BRANCH   3  10
ATOM     10  O   UNL     1      -0.263 -10.251 -36.302  1.00  0.00    -0.504 OA
ATOM     11  H   UNL     1      -0.219 -11.261 -36.346  1.00  0.00     0.293 HD
ENDBRANCH   3  10
BRANCH   4  12
ATOM     12  O   UNL     1      -0.542  -7.473 -36.042  1.00  0.00    -0.493 OA
ATOM     13  C   UNL     1      -1.558  -6.884 -35.238  1.00  0.00     0.278 C 
ENDBRANCH   4  12
TORSDOF 3
ENDMDL
MODEL 7
REMARK VINA RESULT:    -3.903      4.353      5.472
REMARK INTER + INTRA:          -4.576
REMARK INTER:                  -4.471
REMARK INTRA:                  -0.105
REMARK UNBOUND:                -0.102
REMARK SMILES COc1ccc(C(C)=O)cc1O
REMARK SMILES IDX 6 1 10 2 11 3 3 4 4 5 5 6 7 7 8 8 9 9 12 10 2 12 1 13
REMARK H PARENT 12 11
REMARK Flexibility Score: inf
ROOT
ATOM      1  C   UNL     1      -1.340  -9.892 -40.268  1.00  0.00     0.021 A 
ATOM      2  C   UNL     1      -0.671  -8.779 -39.726  1.00  0.00     0.062 A 
ATOM      3  C   UNL     1      -0.514  -8.637 -38.343  1.00  0.00     0.158 A 
ATOM      4  C   UNL     1      -1.025  -9.612 -37.470  1.00  0.00     0.160 A 
ATOM      5  C   UNL     1      -1.694 -10.728 -38.006  1.00  0.00     0.051 A 
ATOM      6  C   UNL     1      -1.849 -10.864 -39.387  1.00  0.00     0.016 A 
ENDROOT
BRANCH   1   7
ATOM      7  C   UNL     1      -1.514 -10.054 -41.736  1.00  0.00     0.159 C 
ATOM      8  C   UNL     1      -2.046  -8.947 -42.598  1.00  0.00     0.093 C 
ATOM      9  O   UNL     1      -1.209 -11.147 -42.287  1.00  0.00    -0.295 OA
ENDBRANCH   1   7
BRANCH   3  10
ATOM     10  O   UNL     1       0.157  -7.516 -37.854  1.00  0.00    -0.504 OA
ATOM     11  H   UNL     1       0.614  -6.851 -38.465  1.00  0.00     0.293 HD
ENDBRANCH   3  10
BRANCH   4  12
ATOM     12  O   UNL     1      -0.851  -9.445 -36.086  1.00  0.00    -0.493 OA
ATOM     13  C   UNL     1      -0.187 -10.375 -35.237  1.00  0.00     0.278 C 
ENDBRANCH   4  12
TORSDOF 3
ENDMDL
MODEL 8
REMARK VINA RESULT:    -3.896     14.145     15.372
REMARK INTER + INTRA:          -4.567
REMARK INTER:                  -4.472
REMARK INTRA:                  -0.095
REMARK UNBOUND:                -0.102
REMARK SMILES COc1ccc(C(C)=O)cc1O
REMARK SMILES IDX 6 1 10 2 11 3 3 4 4 5 5 6 7 7 8 8 9 9 12 10 2 12 1 13
REMARK H PARENT 12 11
REMARK Flexibility Score: inf
ROOT
ATOM      1  C   UNL     1      -0.350 -24.727 -45.998  1.00  0.00     0.021 A 
ATOM      2  C   UNL     1      -0.528 -25.617 -47.073  1.00  0.00     0.062 A 
ATOM      3  C   UNL     1      -1.758 -26.251 -47.285  1.00  0.00     0.158 A 
ATOM      4  C   UNL     1      -2.838 -26.006 -46.421  1.00  0.00     0.160 A 
ATOM      5  C   UNL     1      -2.665 -25.117 -45.344  1.00  0.00     0.051 A 
ATOM      6  C   UNL     1      -1.436 -24.487 -45.137  1.00  0.00     0.016 A 
ENDROOT
BRANCH   1   7
ATOM      7  C   UNL     1       0.952 -24.047 -45.761  1.00  0.00     0.159 C 
ATOM      8  C   UNL     1       2.235 -24.568 -46.339  1.00  0.00     0.093 C 
ATOM      9  O   UNL     1       0.994 -23.001 -45.058  1.00  0.00    -0.295 OA
ENDBRANCH   1   7
BRANCH   3  10
ATOM     10  O   UNL     1      -1.886 -27.125 -48.366  1.00  0.00    -0.504 OA
ATOM     11  H   UNL     1      -1.098 -27.639 -48.741  1.00  0.00     0.293 HD
ENDBRANCH   3  10
BRANCH   4  12
ATOM     12  O   UNL     1      -4.060 -26.655 -46.659  1.00  0.00    -0.493 OA
ATOM     13  C   UNL     1      -5.265 -26.394 -45.947  1.00  0.00     0.278 C 
ENDBRANCH   4  12
TORSDOF 3
ENDMDL
MODEL 9
REMARK VINA RESULT:    -3.777      2.390      3.186
REMARK INTER + INTRA:          -4.431
REMARK INTER:                  -4.296
REMARK INTRA:                  -0.135
REMARK UNBOUND:                -0.102
REMARK SMILES COc1ccc(C(C)=O)cc1O
REMARK SMILES IDX 6 1 10 2 11 3 3 4 4 5 5 6 7 7 8 8 9 9 12 10 2 12 1 13
REMARK H PARENT 12 11
REMARK Flexibility Score: inf
ROOT
ATOM      1  C   UNL     1       1.127 -10.751 -42.248  1.00  0.00     0.021 A 
ATOM      2  C   UNL     1       1.003  -9.809 -41.210  1.00  0.00     0.062 A 
ATOM      3  C   UNL     1      -0.247  -9.515 -40.653  1.00  0.00     0.158 A 
ATOM      4  C   UNL     1      -1.402 -10.160 -41.126  1.00  0.00     0.160 A 
ATOM      5  C   UNL     1      -1.282 -11.103 -42.164  1.00  0.00     0.051 A 
ATOM      6  C   UNL     1      -0.033 -11.392 -42.717  1.00  0.00     0.016 A 
ENDROOT
BRANCH   1   7
ATOM      7  C   UNL     1       2.450 -11.072 -42.849  1.00  0.00     0.159 C 
ATOM      8  C   UNL     1       2.581 -11.565 -44.260  1.00  0.00     0.093 C 
ATOM      9  O   UNL     1       3.500 -10.930 -42.166  1.00  0.00    -0.295 OA
ENDBRANCH   1   7
BRANCH   3  10
ATOM     10  O   UNL     1      -0.320  -8.574 -39.625  1.00  0.00    -0.504 OA
ATOM     11  H   UNL     1      -0.791  -7.685 -39.739  1.00  0.00     0.293 HD
ENDBRANCH   3  10
BRANCH   4  12
ATOM     12  O   UNL     1      -2.642  -9.846 -40.547  1.00  0.00    -0.493 OA
ATOM     13  C   UNL     1      -3.381 -10.717 -39.697  1.00  0.00     0.278 C 
ENDBRANCH   4  12
TORSDOF 3
ENDMDL
