MODEL 1
REMARK VINA RESULT:    -6.259      0.000      0.000
REMARK INTER + INTRA:          -7.417
REMARK INTER:                  -7.723
REMARK INTRA:                   0.306
REMARK UNBOUND:                 0.306
REMARK SMILES Oc1cc(O)c2cc(O)c(-c3cc(O)c(O)c(O)c3)[o+]c2c1
REMARK SMILES IDX 10 1 20 2 21 3 22 4 2 5 3 6 4 7 6 8 7 9 8 10 11 11 12 12
REMARK SMILES IDX 13 13 19 14 15 15 17 16 14 17 16 19 18 21 9 23 1 25 5 27
REMARK H PARENT 14 18 16 20 18 22 9 24 1 26 5 28
REMARK Flexibility Score: inf
ROOT
ATOM      1  C   UNL     1      28.199   2.932  -9.961  1.00  0.00     0.402 A 
ATOM      2  O   UNL     1      28.368   4.226 -10.219  1.00  0.00    -0.202 OA
ATOM      3  C   UNL     1      28.102   4.776 -11.399  1.00  0.00     0.368 A 
ATOM      4  C   UNL     1      28.309   6.147 -11.571  1.00  0.00     0.162 A 
ATOM      5  C   UNL     1      28.035   6.752 -12.799  1.00  0.00     0.128 A 
ATOM      6  C   UNL     1      27.549   5.983 -13.862  1.00  0.00     0.093 A 
ATOM      7  C   UNL     1      27.333   4.608 -13.714  1.00  0.00     0.136 A 
ATOM      8  C   UNL     1      27.614   3.988 -12.468  1.00  0.00     0.125 A 
ATOM      9  C   UNL     1      27.440   2.614 -12.233  1.00  0.00     0.078 A 
ATOM     10  C   UNL     1      27.741   2.074 -10.979  1.00  0.00     0.223 A 
ENDROOT
BRANCH   1  11
ATOM     11  C   UNL     1      28.522   2.439  -8.602  1.00  0.00     0.091 A 
ATOM     12  C   UNL     1      28.060   1.195  -8.146  1.00  0.00     0.068 A 
ATOM     13  C   UNL     1      28.352   0.749  -6.851  1.00  0.00     0.162 A 
ATOM     14  C   UNL     1      29.256   3.255  -7.730  1.00  0.00     0.068 A 
ATOM     15  C   UNL     1      29.115   1.568  -5.986  1.00  0.00     0.200 A 
ATOM     16  C   UNL     1      29.557   2.821  -6.433  1.00  0.00     0.162 A 
BRANCH  13  17
ATOM     17  O   UNL     1      27.859  -0.501  -6.468  1.00  0.00    -0.504 OA
ATOM     18  H   UNL     1      28.394  -1.185  -5.952  1.00  0.00     0.293 HD
ENDBRANCH  13  17
BRANCH  15  19
ATOM     19  O   UNL     1      29.451   1.179  -4.687  1.00  0.00    -0.502 OA
ATOM     20  H   UNL     1      30.001   0.362  -4.465  1.00  0.00     0.293 HD
ENDBRANCH  15  19
BRANCH  16  21
ATOM     21  O   UNL     1      30.301   3.633  -5.579  1.00  0.00    -0.504 OA
ATOM     22  H   UNL     1      31.243   3.928  -5.811  1.00  0.00     0.293 HD
ENDBRANCH  16  21
ENDBRANCH   1  11
BRANCH  10  23
ATOM     23  O   UNL     1      27.617   0.702 -10.759  1.00  0.00    -0.500 OA
ATOM     24  H   UNL     1      27.415   0.327  -9.840  1.00  0.00     0.294 HD
ENDBRANCH  10  23
BRANCH   5  25
ATOM     25  O   UNL     1      28.248   8.121 -12.951  1.00  0.00    -0.507 OA
ATOM     26  H   UNL     1      29.092   8.480 -13.383  1.00  0.00     0.293 HD
ENDBRANCH   5  25
BRANCH   7  27
ATOM     27  O   UNL     1      26.844   3.910 -14.822  1.00  0.00    -0.507 OA
ATOM     28  H   UNL     1      26.098   3.229 -14.784  1.00  0.00     0.293 HD
ENDBRANCH   7  27
TORSDOF 7
ENDMDL
MODEL 2
REMARK VINA RESULT:    -5.883      3.707      8.161
REMARK INTER + INTRA:          -6.952
REMARK INTER:                  -6.683
REMARK INTRA:                  -0.270
REMARK UNBOUND:                 0.306
REMARK SMILES Oc1cc(O)c2cc(O)c(-c3cc(O)c(O)c(O)c3)[o+]c2c1
REMARK SMILES IDX 10 1 20 2 21 3 22 4 2 5 3 6 4 7 6 8 7 9 8 10 11 11 12 12
REMARK SMILES IDX 13 13 19 14 15 15 17 16 14 17 16 19 18 21 9 23 1 25 5 27
REMARK H PARENT 14 18 16 20 18 22 9 24 1 26 5 28
REMARK Flexibility Score: inf
ROOT
ATOM      1  C   UNL     1      28.342   4.347 -15.171  1.00  0.00     0.402 A 
ATOM      2  O   UNL     1      28.603   3.618 -14.090  1.00  0.00    -0.202 OA
ATOM      3  C   UNL     1      27.657   3.092 -13.317  1.00  0.00     0.368 A 
ATOM      4  C   UNL     1      28.030   2.338 -12.203  1.00  0.00     0.162 A 
ATOM      5  C   UNL     1      27.058   1.771 -11.377  1.00  0.00     0.128 A 
ATOM      6  C   UNL     1      25.702   1.959 -11.667  1.00  0.00     0.093 A 
ATOM      7  C   UNL     1      25.302   2.711 -12.778  1.00  0.00     0.136 A 
ATOM      8  C   UNL     1      26.288   3.291 -13.619  1.00  0.00     0.125 A 
ATOM      9  C   UNL     1      25.980   4.070 -14.747  1.00  0.00     0.078 A 
ATOM     10  C   UNL     1      27.006   4.612 -15.526  1.00  0.00     0.223 A 
ENDROOT
BRANCH   1  11
ATOM     11  C   UNL     1      29.484   4.870 -15.956  1.00  0.00     0.091 A 
ATOM     12  C   UNL     1      30.318   4.015 -16.693  1.00  0.00     0.068 A 
ATOM     13  C   UNL     1      31.408   4.518 -17.413  1.00  0.00     0.162 A 
ATOM     14  C   UNL     1      29.775   6.240 -15.919  1.00  0.00     0.068 A 
ATOM     15  C   UNL     1      31.680   5.906 -17.391  1.00  0.00     0.200 A 
ATOM     16  C   UNL     1      30.861   6.757 -16.636  1.00  0.00     0.162 A 
BRANCH  13  17
ATOM     17  O   UNL     1      32.193   3.607 -18.125  1.00  0.00    -0.504 OA
ATOM     18  H   UNL     1      31.819   2.842 -18.669  1.00  0.00     0.293 HD
ENDBRANCH  13  17
BRANCH  15  19
ATOM     19  O   UNL     1      32.744   6.474 -18.095  1.00  0.00    -0.502 OA
ATOM     20  H   UNL     1      32.643   6.982 -18.962  1.00  0.00     0.293 HD
ENDBRANCH  15  19
BRANCH  16  21
ATOM     21  O   UNL     1      31.133   8.125 -16.605  1.00  0.00    -0.504 OA
ATOM     22  H   UNL     1      30.431   8.812 -16.854  1.00  0.00     0.293 HD
ENDBRANCH  16  21
ENDBRANCH   1  11
BRANCH  10  23
ATOM     23  O   UNL     1      26.701   5.427 -16.616  1.00  0.00    -0.500 OA
ATOM     24  H   UNL     1      25.894   5.251 -17.203  1.00  0.00     0.294 HD
ENDBRANCH  10  23
BRANCH   5  25
ATOM     25  O   UNL     1      27.451   1.023 -10.270  1.00  0.00    -0.507 OA
ATOM     26  H   UNL     1      28.197   0.339 -10.330  1.00  0.00     0.293 HD
ENDBRANCH   5  25
BRANCH   7  27
ATOM     27  O   UNL     1      23.929   2.849 -13.002  1.00  0.00    -0.507 OA
ATOM     28  H   UNL     1      23.464   3.730 -13.168  1.00  0.00     0.293 HD
ENDBRANCH   7  27
TORSDOF 7
ENDMDL
MODEL 3
REMARK VINA RESULT:    -5.830      3.914      8.340
REMARK INTER + INTRA:          -6.887
REMARK INTER:                  -6.666
REMARK INTRA:                  -0.220
REMARK UNBOUND:                 0.306
REMARK SMILES Oc1cc(O)c2cc(O)c(-c3cc(O)c(O)c(O)c3)[o+]c2c1
REMARK SMILES IDX 10 1 20 2 21 3 22 4 2 5 3 6 4 7 6 8 7 9 8 10 11 11 12 12
REMARK SMILES IDX 13 13 19 14 15 15 17 16 14 17 16 19 18 21 9 23 1 25 5 27
REMARK H PARENT 14 18 16 20 18 22 9 24 1 26 5 28
REMARK Flexibility Score: inf
ROOT
ATOM      1  C   UNL     1      28.322   4.487 -15.222  1.00  0.00     0.402 A 
ATOM      2  O   UNL     1      28.497   3.673 -14.184  1.00  0.00    -0.202 OA
ATOM      3  C   UNL     1      27.493   3.182 -13.464  1.00  0.00     0.368 A 
ATOM      4  C   UNL     1      27.778   2.331 -12.393  1.00  0.00     0.162 A 
ATOM      5  C   UNL     1      26.744   1.798 -11.623  1.00  0.00     0.128 A 
ATOM      6  C   UNL     1      25.415   2.115 -11.924  1.00  0.00     0.093 A 
ATOM      7  C   UNL     1      25.104   2.965 -12.993  1.00  0.00     0.136 A 
ATOM      8  C   UNL     1      26.153   3.512 -13.777  1.00  0.00     0.125 A 
ATOM      9  C   UNL     1      25.935   4.382 -14.858  1.00  0.00     0.078 A 
ATOM     10  C   UNL     1      27.021   4.884 -15.583  1.00  0.00     0.223 A 
ENDROOT
BRANCH   1  11
ATOM     11  C   UNL     1      29.521   4.961 -15.951  1.00  0.00     0.091 A 
ATOM     12  C   UNL     1      29.879   6.317 -15.967  1.00  0.00     0.068 A 
ATOM     13  C   UNL     1      31.002   6.757 -16.679  1.00  0.00     0.162 A 
ATOM     14  C   UNL     1      30.283   4.046 -16.691  1.00  0.00     0.068 A 
ATOM     15  C   UNL     1      31.781   5.823 -17.401  1.00  0.00     0.200 A 
ATOM     16  C   UNL     1      31.410   4.472 -17.406  1.00  0.00     0.162 A 
BRANCH  13  17
ATOM     17  O   UNL     1      31.298   8.122 -16.647  1.00  0.00    -0.504 OA
ATOM     18  H   UNL     1      32.108   8.514 -16.189  1.00  0.00     0.293 HD
ENDBRANCH  13  17
BRANCH  15  19
ATOM     19  O   UNL     1      32.918   6.193 -18.124  1.00  0.00    -0.502 OA
ATOM     20  H   UNL     1      33.846   6.249 -17.729  1.00  0.00     0.293 HD
ENDBRANCH  15  19
BRANCH  16  21
ATOM     21  O   UNL     1      32.171   3.551 -18.125  1.00  0.00    -0.504 OA
ATOM     22  H   UNL     1      32.015   2.553 -18.042  1.00  0.00     0.293 HD
ENDBRANCH  16  21
ENDBRANCH   1  11
BRANCH  10  23
ATOM     23  O   UNL     1      26.809   5.788 -16.624  1.00  0.00    -0.500 OA
ATOM     24  H   UNL     1      26.187   5.575 -17.395  1.00  0.00     0.294 HD
ENDBRANCH  10  23
BRANCH   5  25
ATOM     25  O   UNL     1      27.048   0.952 -10.558  1.00  0.00    -0.507 OA
ATOM     26  H   UNL     1      26.898  -0.049 -10.617  1.00  0.00     0.293 HD
ENDBRANCH   5  25
BRANCH   7  27
ATOM     27  O   UNL     1      23.752   3.231 -13.231  1.00  0.00    -0.507 OA
ATOM     28  H   UNL     1      23.401   4.092 -13.626  1.00  0.00     0.293 HD
ENDBRANCH   7  27
TORSDOF 7
ENDMDL
MODEL 4
REMARK VINA RESULT:    -5.372      3.425      5.609
REMARK INTER + INTRA:          -6.322
REMARK INTER:                  -6.365
REMARK INTRA:                   0.044
REMARK UNBOUND:                 0.306
REMARK SMILES Oc1cc(O)c2cc(O)c(-c3cc(O)c(O)c(O)c3)[o+]c2c1
REMARK SMILES IDX 10 1 20 2 21 3 22 4 2 5 3 6 4 7 6 8 7 9 8 10 11 11 12 12
REMARK SMILES IDX 13 13 19 14 15 15 17 16 14 17 16 19 18 21 9 23 1 25 5 27
REMARK H PARENT 14 18 16 20 18 22 9 24 1 26 5 28
REMARK Flexibility Score: inf
ROOT
ATOM      1  C   UNL     1      27.494   4.482 -14.534  1.00  0.00     0.402 A 
ATOM      2  O   UNL     1      28.702   4.392 -15.081  1.00  0.00    -0.202 OA
ATOM      3  C   UNL     1      29.130   5.202 -16.045  1.00  0.00     0.368 A 
ATOM      4  C   UNL     1      30.419   5.030 -16.555  1.00  0.00     0.162 A 
ATOM      5  C   UNL     1      30.895   5.868 -17.565  1.00  0.00     0.128 A 
ATOM      6  C   UNL     1      30.078   6.887 -18.068  1.00  0.00     0.093 A 
ATOM      7  C   UNL     1      28.783   7.079 -17.573  1.00  0.00     0.136 A 
ATOM      8  C   UNL     1      28.293   6.227 -16.548  1.00  0.00     0.125 A 
ATOM      9  C   UNL     1      27.005   6.339 -16.001  1.00  0.00     0.078 A 
ATOM     10  C   UNL     1      26.592   5.459 -14.996  1.00  0.00     0.223 A 
ENDROOT
BRANCH   1  11
ATOM     11  C   UNL     1      27.137   3.527 -13.460  1.00  0.00     0.091 A 
ATOM     12  C   UNL     1      25.880   2.904 -13.422  1.00  0.00     0.068 A 
ATOM     13  C   UNL     1      25.545   2.020 -12.389  1.00  0.00     0.162 A 
ATOM     14  C   UNL     1      28.051   3.280 -12.426  1.00  0.00     0.068 A 
ATOM     15  C   UNL     1      26.484   1.757 -11.363  1.00  0.00     0.200 A 
ATOM     16  C   UNL     1      27.731   2.396 -11.388  1.00  0.00     0.162 A 
BRANCH  13  17
ATOM     17  O   UNL     1      24.276   1.437 -12.418  1.00  0.00    -0.504 OA
ATOM     18  H   UNL     1      24.100   0.457 -12.249  1.00  0.00     0.293 HD
ENDBRANCH  13  17
BRANCH  15  19
ATOM     19  O   UNL     1      26.218   0.878 -10.310  1.00  0.00    -0.502 OA
ATOM     20  H   UNL     1      25.495   0.174 -10.329  1.00  0.00     0.293 HD
ENDBRANCH  15  19
BRANCH  16  21
ATOM     21  O   UNL     1      28.653   2.146 -10.373  1.00  0.00    -0.504 OA
ATOM     22  H   UNL     1      29.464   1.558 -10.525  1.00  0.00     0.293 HD
ENDBRANCH  16  21
ENDBRANCH   1  11
BRANCH  10  23
ATOM     23  O   UNL     1      25.295   5.536 -14.487  1.00  0.00    -0.500 OA
ATOM     24  H   UNL     1      25.098   5.982 -13.599  1.00  0.00     0.294 HD
ENDBRANCH  10  23
BRANCH   5  25
ATOM     25  O   UNL     1      32.183   5.680 -18.061  1.00  0.00    -0.507 OA
ATOM     26  H   UNL     1      32.413   5.880 -19.027  1.00  0.00     0.293 HD
ENDBRANCH   5  25
BRANCH   7  27
ATOM     27  O   UNL     1      28.031   8.121 -18.125  1.00  0.00    -0.507 OA
ATOM     28  H   UNL     1      27.259   7.991 -18.763  1.00  0.00     0.293 HD
ENDBRANCH   7  27
TORSDOF 7
ENDMDL
MODEL 5
REMARK VINA RESULT:    -5.235      2.630      4.893
REMARK INTER + INTRA:          -6.153
REMARK INTER:                  -5.941
REMARK INTRA:                  -0.212
REMARK UNBOUND:                 0.306
REMARK SMILES Oc1cc(O)c2cc(O)c(-c3cc(O)c(O)c(O)c3)[o+]c2c1
REMARK SMILES IDX 10 1 20 2 21 3 22 4 2 5 3 6 4 7 6 8 7 9 8 10 11 11 12 12
REMARK SMILES IDX 13 13 19 14 15 15 17 16 14 17 16 19 18 21 9 23 1 25 5 27
REMARK H PARENT 14 18 16 20 18 22 9 24 1 26 5 28
REMARK Flexibility Score: inf
ROOT
ATOM      1  C   UNL     1      27.152   4.259 -13.905  1.00  0.00     0.402 A 
ATOM      2  O   UNL     1      28.189   4.762 -14.569  1.00  0.00    -0.202 OA
ATOM      3  C   UNL     1      28.070   5.441 -15.705  1.00  0.00     0.368 A 
ATOM      4  C   UNL     1      29.220   5.933 -16.327  1.00  0.00     0.162 A 
ATOM      5  C   UNL     1      29.124   6.653 -17.519  1.00  0.00     0.128 A 
ATOM      6  C   UNL     1      27.870   6.885 -18.094  1.00  0.00     0.093 A 
ATOM      7  C   UNL     1      26.703   6.403 -17.490  1.00  0.00     0.136 A 
ATOM      8  C   UNL     1      26.796   5.667 -16.279  1.00  0.00     0.125 A 
ATOM      9  C   UNL     1      25.681   5.136 -15.610  1.00  0.00     0.078 A 
ATOM     10  C   UNL     1      25.853   4.418 -14.422  1.00  0.00     0.223 A 
ENDROOT
BRANCH   1  11
ATOM     11  C   UNL     1      27.413   3.529 -12.644  1.00  0.00     0.091 A 
ATOM     12  C   UNL     1      27.973   4.171 -11.529  1.00  0.00     0.068 A 
ATOM     13  C   UNL     1      28.238   3.465 -10.349  1.00  0.00     0.162 A 
ATOM     14  C   UNL     1      27.150   2.154 -12.577  1.00  0.00     0.068 A 
ATOM     15  C   UNL     1      27.944   2.083 -10.281  1.00  0.00     0.200 A 
ATOM     16  C   UNL     1      27.407   1.436 -11.402  1.00  0.00     0.162 A 
BRANCH  13  17
ATOM     17  O   UNL     1      28.795   4.172  -9.280  1.00  0.00    -0.504 OA
ATOM     18  H   UNL     1      28.379   4.996  -8.869  1.00  0.00     0.293 HD
ENDBRANCH  13  17
BRANCH  15  19
ATOM     19  O   UNL     1      28.173   1.322  -9.132  1.00  0.00    -0.502 OA
ATOM     20  H   UNL     1      28.354   0.329  -9.137  1.00  0.00     0.293 HD
ENDBRANCH  15  19
BRANCH  16  21
ATOM     21  O   UNL     1      27.126   0.071 -11.341  1.00  0.00    -0.504 OA
ATOM     22  H   UNL     1      26.185  -0.271 -11.188  1.00  0.00     0.293 HD
ENDBRANCH  16  21
ENDBRANCH   1  11
BRANCH  10  23
ATOM     23  O   UNL     1      24.752   3.847 -13.785  1.00  0.00    -0.500 OA
ATOM     24  H   UNL     1      24.238   4.341 -13.065  1.00  0.00     0.294 HD
ENDBRANCH  10  23
BRANCH   5  25
ATOM     25  O   UNL     1      30.283   7.134 -18.124  1.00  0.00    -0.507 OA
ATOM     26  H   UNL     1      31.078   6.531 -18.301  1.00  0.00     0.293 HD
ENDBRANCH   5  25
BRANCH   7  27
ATOM     27  O   UNL     1      25.488   6.679 -18.124  1.00  0.00    -0.507 OA
ATOM     28  H   UNL     1      24.583   6.610 -17.680  1.00  0.00     0.293 HD
ENDBRANCH   7  27
TORSDOF 7
ENDMDL
MODEL 6
REMARK VINA RESULT:    -4.935      4.072      5.702
REMARK INTER + INTRA:          -5.784
REMARK INTER:                  -5.608
REMARK INTRA:                  -0.175
REMARK UNBOUND:                 0.306
REMARK SMILES Oc1cc(O)c2cc(O)c(-c3cc(O)c(O)c(O)c3)[o+]c2c1
REMARK SMILES IDX 10 1 20 2 21 3 22 4 2 5 3 6 4 7 6 8 7 9 8 10 11 11 12 12
REMARK SMILES IDX 13 13 19 14 15 15 17 16 14 17 16 19 18 21 9 23 1 25 5 27
REMARK H PARENT 14 18 16 20 18 22 9 24 1 26 5 28
REMARK Flexibility Score: inf
ROOT
ATOM      1  C   UNL     1      27.719   4.643 -13.713  1.00  0.00     0.402 A 
ATOM      2  O   UNL     1      28.529   5.188 -12.810  1.00  0.00    -0.202 OA
ATOM      3  C   UNL     1      29.428   6.122 -13.105  1.00  0.00     0.368 A 
ATOM      4  C   UNL     1      30.232   6.637 -12.085  1.00  0.00     0.162 A 
ATOM      5  C   UNL     1      31.182   7.621 -12.365  1.00  0.00     0.128 A 
ATOM      6  C   UNL     1      31.329   8.095 -13.674  1.00  0.00     0.093 A 
ATOM      7  C   UNL     1      30.534   7.595 -14.713  1.00  0.00     0.136 A 
ATOM      8  C   UNL     1      29.569   6.592 -14.433  1.00  0.00     0.125 A 
ATOM      9  C   UNL     1      28.739   6.025 -15.412  1.00  0.00     0.078 A 
ATOM     10  C   UNL     1      27.813   5.037 -15.061  1.00  0.00     0.223 A 
ENDROOT
BRANCH   1  11
ATOM     11  C   UNL     1      26.752   3.617 -13.259  1.00  0.00     0.091 A 
ATOM     12  C   UNL     1      25.373   3.766 -13.472  1.00  0.00     0.068 A 
ATOM     13  C   UNL     1      24.465   2.801 -13.018  1.00  0.00     0.162 A 
ATOM     14  C   UNL     1      27.214   2.500 -12.549  1.00  0.00     0.068 A 
ATOM     15  C   UNL     1      24.943   1.664 -12.326  1.00  0.00     0.200 A 
ATOM     16  C   UNL     1      26.318   1.526 -12.091  1.00  0.00     0.162 A 
BRANCH  13  17
ATOM     17  O   UNL     1      23.108   3.017 -13.269  1.00  0.00    -0.504 OA
ATOM     18  H   UNL     1      22.380   2.900 -12.579  1.00  0.00     0.293 HD
ENDBRANCH  13  17
BRANCH  15  19
ATOM     19  O   UNL     1      24.094   0.659 -11.856  1.00  0.00    -0.502 OA
ATOM     20  H   UNL     1      24.059   0.351 -10.895  1.00  0.00     0.293 HD
ENDBRANCH  15  19
BRANCH  16  21
ATOM     21  O   UNL     1      26.790   0.411 -11.401  1.00  0.00    -0.504 OA
ATOM     22  H   UNL     1      27.565  -0.141 -11.748  1.00  0.00     0.293 HD
ENDBRANCH  16  21
ENDBRANCH   1  11
BRANCH  10  23
ATOM     23  O   UNL     1      27.024   4.437 -16.041  1.00  0.00    -0.500 OA
ATOM     24  H   UNL     1      27.418   3.809 -16.732  1.00  0.00     0.294 HD
ENDBRANCH  10  23
BRANCH   5  25
ATOM     25  O   UNL     1      31.975   8.121 -11.335  1.00  0.00    -0.507 OA
ATOM     26  H   UNL     1      32.269   9.090 -11.317  1.00  0.00     0.293 HD
ENDBRANCH   5  25
BRANCH   7  27
ATOM     27  O   UNL     1      30.739   8.123 -15.991  1.00  0.00    -0.507 OA
ATOM     28  H   UNL     1      31.336   8.912 -16.193  1.00  0.00     0.293 HD
ENDBRANCH   7  27
TORSDOF 7
ENDMDL
MODEL 7
REMARK VINA RESULT:    -4.776      2.316      4.744
REMARK INTER + INTRA:          -5.586
REMARK INTER:                  -5.607
REMARK INTRA:                   0.020
REMARK UNBOUND:                 0.306
REMARK SMILES Oc1cc(O)c2cc(O)c(-c3cc(O)c(O)c(O)c3)[o+]c2c1
REMARK SMILES IDX 10 1 20 2 21 3 22 4 2 5 3 6 4 7 6 8 7 9 8 10 11 11 12 12
REMARK SMILES IDX 13 13 19 14 15 15 17 16 14 17 16 19 18 21 9 23 1 25 5 27
REMARK H PARENT 14 18 16 20 18 22 9 24 1 26 5 28
REMARK Flexibility Score: inf
ROOT
ATOM      1  C   UNL     1      28.106   4.694 -13.209  1.00  0.00     0.402 A 
ATOM      2  O   UNL     1      27.092   4.722 -14.069  1.00  0.00    -0.202 OA
ATOM      3  C   UNL     1      27.069   5.498 -15.148  1.00  0.00     0.368 A 
ATOM      4  C   UNL     1      25.958   5.455 -15.993  1.00  0.00     0.162 A 
ATOM      5  C   UNL     1      25.909   6.256 -17.135  1.00  0.00     0.128 A 
ATOM      6  C   UNL     1      26.979   7.108 -17.435  1.00  0.00     0.093 A 
ATOM      7  C   UNL     1      28.103   7.169 -16.603  1.00  0.00     0.136 A 
ATOM      8  C   UNL     1      28.156   6.358 -15.440  1.00  0.00     0.125 A 
ATOM      9  C   UNL     1      29.236   6.363 -14.543  1.00  0.00     0.078 A 
ATOM     10  C   UNL     1      29.215   5.538 -13.414  1.00  0.00     0.223 A 
ENDROOT
BRANCH   1  11
ATOM     11  C   UNL     1      28.018   3.779 -12.049  1.00  0.00     0.091 A 
ATOM     12  C   UNL     1      28.360   4.201 -10.755  1.00  0.00     0.068 A 
ATOM     13  C   UNL     1      28.295   3.320  -9.669  1.00  0.00     0.162 A 
ATOM     14  C   UNL     1      27.640   2.444 -12.252  1.00  0.00     0.068 A 
ATOM     15  C   UNL     1      27.887   1.982  -9.879  1.00  0.00     0.200 A 
ATOM     16  C   UNL     1      27.568   1.553 -11.174  1.00  0.00     0.162 A 
BRANCH  13  17
ATOM     17  O   UNL     1      28.649   3.813  -8.410  1.00  0.00    -0.504 OA
ATOM     18  H   UNL     1      28.328   4.695  -8.038  1.00  0.00     0.293 HD
ENDBRANCH  13  17
BRANCH  15  19
ATOM     19  O   UNL     1      27.790   1.055  -8.838  1.00  0.00    -0.502 OA
ATOM     20  H   UNL     1      27.339   1.241  -7.954  1.00  0.00     0.293 HD
ENDBRANCH  15  19
BRANCH  16  21
ATOM     21  O   UNL     1      27.176   0.231 -11.384  1.00  0.00    -0.504 OA
ATOM     22  H   UNL     1      27.840  -0.533 -11.349  1.00  0.00     0.293 HD
ENDBRANCH  16  21
ENDBRANCH   1  11
BRANCH  10  23
ATOM     23  O   UNL     1      30.264   5.580 -12.496  1.00  0.00    -0.500 OA
ATOM     24  H   UNL     1      31.064   4.963 -12.574  1.00  0.00     0.294 HD
ENDBRANCH  10  23
BRANCH   5  25
ATOM     25  O   UNL     1      24.792   6.199 -17.966  1.00  0.00    -0.507 OA
ATOM     26  H   UNL     1      24.849   6.445 -18.947  1.00  0.00     0.293 HD
ENDBRANCH   5  25
BRANCH   7  27
ATOM     27  O   UNL     1      29.130   8.042 -16.973  1.00  0.00    -0.507 OA
ATOM     28  H   UNL     1      29.118   8.620 -17.802  1.00  0.00     0.293 HD
ENDBRANCH   7  27
TORSDOF 7
ENDMDL
