MODEL 1
REMARK VINA RESULT:    -3.323      0.000      0.000
REMARK INTER + INTRA:          -4.156
REMARK INTER:                  -3.906
REMARK INTRA:                  -0.250
REMARK UNBOUND:                -0.250
REMARK SMILES [NH3+][C@@H](CO)C(=O)[O-]
REMARK SMILES IDX 3 1 2 2 1 3 5 7 6 8 7 9 4 10
REMARK H PARENT 1 4 1 5 1 6 4 11
REMARK Flexibility Score: inf
ROOT
ATOM      1  C   UNL     1     115.797 115.915  98.661  1.00  0.00     0.227 C 
ENDROOT
BRANCH   1   2
ATOM      2  C   UNL     1     116.650 116.913  99.465  1.00  0.00     0.253 C 
BRANCH   2   3
ATOM      3  N   UNL     1     117.338 116.245 100.577  1.00  0.00    -0.348 N 
ATOM      4  H   UNL     1     118.260 115.861 100.264  1.00  0.00     0.345 HD
ATOM      5  H   UNL     1     116.746 115.464 100.942  1.00  0.00     0.345 HD
ATOM      6  H   UNL     1     117.497 116.925 101.356  1.00  0.00     0.345 HD
ENDBRANCH   2   3
BRANCH   2   7
ATOM      7  C   UNL     1     115.781 118.027  99.984  1.00  0.00     0.102 C 
ATOM      8  O   UNL     1     115.948 118.468 101.152  1.00  0.00    -0.544 OA
ATOM      9  O   UNL     1     114.801 118.589  99.174  1.00  0.00    -0.544 OA
ENDBRANCH   2   7
ENDBRANCH   1   2
BRANCH   1  10
ATOM     10  O   UNL     1     114.614 115.607  99.345  1.00  0.00    -0.390 OA
ATOM     11  H   UNL     1     114.173 114.876  98.837  1.00  0.00     0.210 HD
ENDBRANCH   1  10
TORSDOF 4
ENDMDL
MODEL 2
REMARK VINA RESULT:    -3.280      2.021      2.230
REMARK INTER + INTRA:          -4.105
REMARK INTER:                  -3.724
REMARK INTRA:                  -0.381
REMARK UNBOUND:                -0.250
REMARK SMILES [NH3+][C@@H](CO)C(=O)[O-]
REMARK SMILES IDX 3 1 2 2 1 3 5 7 6 8 7 9 4 10
REMARK H PARENT 1 4 1 5 1 6 4 11
REMARK Flexibility Score: inf
ROOT
ATOM      1  C   UNL     1     115.001 116.374  99.288  1.00  0.00     0.227 C 
ENDROOT
BRANCH   1   2
ATOM      2  C   UNL     1     115.439 117.554 100.175  1.00  0.00     0.253 C 
BRANCH   2   3
ATOM      3  N   UNL     1     114.282 118.195 100.812  1.00  0.00    -0.348 N 
ATOM      4  H   UNL     1     113.387 117.792 100.447  1.00  0.00     0.345 HD
ATOM      5  H   UNL     1     114.298 119.224 100.622  1.00  0.00     0.345 HD
ATOM      6  H   UNL     1     114.323 118.055 101.848  1.00  0.00     0.345 HD
ENDBRANCH   2   3
BRANCH   2   7
ATOM      7  C   UNL     1     116.203 118.557  99.354  1.00  0.00     0.102 C 
ATOM      8  O   UNL     1     115.649 119.624  98.982  1.00  0.00    -0.544 OA
ATOM      9  O   UNL     1     117.530 118.320  99.014  1.00  0.00    -0.544 OA
ENDBRANCH   2   7
ENDBRANCH   1   2
BRANCH   1  10
ATOM     10  O   UNL     1     115.073 116.718  97.931  1.00  0.00    -0.390 OA
ATOM     11  H   UNL     1     116.038 116.748  97.696  1.00  0.00     0.210 HD
ENDBRANCH   1  10
TORSDOF 4
ENDMDL
MODEL 3
REMARK VINA RESULT:    -3.269      1.755      2.275
REMARK INTER + INTRA:          -4.092
REMARK INTER:                  -3.695
REMARK INTRA:                  -0.397
REMARK UNBOUND:                -0.250
REMARK SMILES [NH3+][C@@H](CO)C(=O)[O-]
REMARK SMILES IDX 3 1 2 2 1 3 5 7 6 8 7 9 4 10
REMARK H PARENT 1 4 1 5 1 6 4 11
REMARK Flexibility Score: inf
ROOT
ATOM      1  C   UNL     1     117.002 116.461  99.227  1.00  0.00     0.227 C 
ENDROOT
BRANCH   1   2
ATOM      2  C   UNL     1     115.713 116.764 100.012  1.00  0.00     0.253 C 
BRANCH   2   3
ATOM      3  N   UNL     1     114.586 115.968  99.509  1.00  0.00    -0.348 N 
ATOM      4  H   UNL     1     113.922 116.567  98.967  1.00  0.00     0.345 HD
ATOM      5  H   UNL     1     114.078 115.528 100.311  1.00  0.00     0.345 HD
ATOM      6  H   UNL     1     114.941 115.202  98.891  1.00  0.00     0.345 HD
ENDBRANCH   2   3
BRANCH   2   7
ATOM      7  C   UNL     1     115.393 118.233  99.924  1.00  0.00     0.102 C 
ATOM      8  O   UNL     1     114.715 118.676  98.960  1.00  0.00    -0.544 OA
ATOM      9  O   UNL     1     115.829 119.106 100.914  1.00  0.00    -0.544 OA
ENDBRANCH   2   7
ENDBRANCH   1   2
BRANCH   1  10
ATOM     10  O   UNL     1     117.573 117.640  98.732  1.00  0.00    -0.390 OA
ATOM     11  H   UNL     1     117.744 117.491  97.765  1.00  0.00     0.210 HD
ENDBRANCH   1  10
TORSDOF 4
ENDMDL
MODEL 4
REMARK VINA RESULT:    -3.166      2.084      3.249
REMARK INTER + INTRA:          -3.971
REMARK INTER:                  -3.755
REMARK INTRA:                  -0.216
REMARK UNBOUND:                -0.250
REMARK SMILES [NH3+][C@@H](CO)C(=O)[O-]
REMARK SMILES IDX 3 1 2 2 1 3 5 7 6 8 7 9 4 10
REMARK H PARENT 1 4 1 5 1 6 4 11
REMARK Flexibility Score: inf
ROOT
ATOM      1  C   UNL     1     115.763 119.558  99.225  1.00  0.00     0.227 C 
ENDROOT
BRANCH   1   2
ATOM      2  C   UNL     1     114.992 118.231  99.347  1.00  0.00     0.253 C 
BRANCH   2   3
ATOM      3  N   UNL     1     114.325 118.126 100.651  1.00  0.00    -0.348 N 
ATOM      4  H   UNL     1     114.969 117.713 101.365  1.00  0.00     0.345 HD
ATOM      5  H   UNL     1     113.474 117.522 100.566  1.00  0.00     0.345 HD
ATOM      6  H   UNL     1     114.019 119.073 100.972  1.00  0.00     0.345 HD
ENDBRANCH   2   3
BRANCH   2   7
ATOM      7  C   UNL     1     115.930 117.072  99.147  1.00  0.00     0.102 C 
ATOM      8  O   UNL     1     115.474 115.911  98.975  1.00  0.00    -0.544 OA
ATOM      9  O   UNL     1     117.305 117.277  99.134  1.00  0.00    -0.544 OA
ENDBRANCH   2   7
ENDBRANCH   1   2
BRANCH   1  10
ATOM     10  O   UNL     1     116.111 119.810  97.892  1.00  0.00    -0.390 OA
ATOM     11  H   UNL     1     116.762 119.107  97.629  1.00  0.00     0.210 HD
ENDBRANCH   1  10
TORSDOF 4
ENDMDL
MODEL 5
REMARK VINA RESULT:    -3.135     20.414     20.889
REMARK INTER + INTRA:          -3.935
REMARK INTER:                  -3.709
REMARK INTRA:                  -0.226
REMARK UNBOUND:                -0.250
REMARK SMILES [NH3+][C@@H](CO)C(=O)[O-]
REMARK SMILES IDX 3 1 2 2 1 3 5 7 6 8 7 9 4 10
REMARK H PARENT 1 4 1 5 1 6 4 11
REMARK Flexibility Score: inf
ROOT
ATOM      1  C   UNL     1      98.926 107.570 109.993  1.00  0.00     0.227 C 
ENDROOT
BRANCH   1   2
ATOM      2  C   UNL     1     100.371 107.355 110.480  1.00  0.00     0.253 C 
BRANCH   2   3
ATOM      3  N   UNL     1     100.394 106.791 111.835  1.00  0.00    -0.348 N 
ATOM      4  H   UNL     1      99.422 106.589 112.169  1.00  0.00     0.345 HD
ATOM      5  H   UNL     1     100.849 107.467 112.492  1.00  0.00     0.345 HD
ATOM      6  H   UNL     1     100.950 105.905 111.843  1.00  0.00     0.345 HD
ENDBRANCH   2   3
BRANCH   2   7
ATOM      7  C   UNL     1     101.124 108.657 110.444  1.00  0.00     0.102 C 
ATOM      8  O   UNL     1     100.749 109.584 109.679  1.00  0.00    -0.544 OA
ATOM      9  O   UNL     1     102.228 108.852 111.266  1.00  0.00    -0.544 OA
ENDBRANCH   2   7
ENDBRANCH   1   2
BRANCH   1  10
ATOM     10  O   UNL     1      98.876 107.626 108.594  1.00  0.00    -0.390 OA
ATOM     11  H   UNL     1      99.766 107.945 108.289  1.00  0.00     0.210 HD
ENDBRANCH   1  10
TORSDOF 4
ENDMDL
MODEL 6
REMARK VINA RESULT:    -3.091     20.629     21.152
REMARK INTER + INTRA:          -3.884
REMARK INTER:                  -3.480
REMARK INTRA:                  -0.403
REMARK UNBOUND:                -0.250
REMARK SMILES [NH3+][C@@H](CO)C(=O)[O-]
REMARK SMILES IDX 3 1 2 2 1 3 5 7 6 8 7 9 4 10
REMARK H PARENT 1 4 1 5 1 6 4 11
REMARK Flexibility Score: inf
ROOT
ATOM      1  C   UNL     1      98.908 107.518 109.644  1.00  0.00     0.227 C 
ENDROOT
BRANCH   1   2
ATOM      2  C   UNL     1      99.764 108.519 110.440  1.00  0.00     0.253 C 
BRANCH   2   3
ATOM      3  N   UNL     1     100.210 109.628 109.587  1.00  0.00    -0.348 N 
ATOM      4  H   UNL     1     100.173 109.357 108.577  1.00  0.00     0.345 HD
ATOM      5  H   UNL     1     101.191 109.894 109.836  1.00  0.00     0.345 HD
ATOM      6  H   UNL     1      99.599 110.463 109.741  1.00  0.00     0.345 HD
ENDBRANCH   2   3
BRANCH   2   7
ATOM      7  C   UNL     1     100.950 107.815 111.042  1.00  0.00     0.102 C 
ATOM      8  O   UNL     1     102.057 107.813 110.441  1.00  0.00    -0.544 OA
ATOM      9  O   UNL     1     100.838 107.176 112.271  1.00  0.00    -0.544 OA
ENDBRANCH   2   7
ENDBRANCH   1   2
BRANCH   1  10
ATOM     10  O   UNL     1      99.458 106.231 109.708  1.00  0.00    -0.390 OA
ATOM     11  H   UNL     1      98.756 105.639 110.086  1.00  0.00     0.210 HD
ENDBRANCH   1  10
TORSDOF 4
ENDMDL
MODEL 7
REMARK VINA RESULT:    -2.970     20.536     20.973
REMARK INTER + INTRA:          -3.741
REMARK INTER:                  -3.732
REMARK INTRA:                  -0.009
REMARK UNBOUND:                -0.250
REMARK SMILES [NH3+][C@@H](CO)C(=O)[O-]
REMARK SMILES IDX 3 1 2 2 1 3 5 7 6 8 7 9 4 10
REMARK H PARENT 1 4 1 5 1 6 4 11
REMARK Flexibility Score: inf
ROOT
ATOM      1  C   UNL     1     100.715 107.173 110.485  1.00  0.00     0.227 C 
ENDROOT
BRANCH   1   2
ATOM      2  C   UNL     1      99.449 107.985 110.158  1.00  0.00     0.253 C 
BRANCH   2   3
ATOM      3  N   UNL     1      98.875 107.574 108.870  1.00  0.00    -0.348 N 
ATOM      4  H   UNL     1      99.166 106.598 108.630  1.00  0.00     0.345 HD
ATOM      5  H   UNL     1      99.196 108.224 108.116  1.00  0.00     0.345 HD
ATOM      6  H   UNL     1      97.831 107.620 108.916  1.00  0.00     0.345 HD
ENDBRANCH   2   3
BRANCH   2   7
ATOM      7  C   UNL     1      99.773 109.455 110.138  1.00  0.00     0.102 C 
ATOM      8  O   UNL     1      98.925 110.295 110.539  1.00  0.00    -0.544 OA
ATOM      9  O   UNL     1     101.015 109.894 109.694  1.00  0.00    -0.544 OA
ENDBRANCH   2   7
ENDBRANCH   1   2
BRANCH   1  10
ATOM     10  O   UNL     1     100.582 105.847 110.053  1.00  0.00    -0.390 OA
ATOM     11  H   UNL     1     100.940 105.811 109.128  1.00  0.00     0.210 HD
ENDBRANCH   1  10
TORSDOF 4
ENDMDL
MODEL 8
REMARK VINA RESULT:    -2.950      7.935      8.555
REMARK INTER + INTRA:          -3.717
REMARK INTER:                  -3.496
REMARK INTRA:                  -0.222
REMARK UNBOUND:                -0.250
REMARK SMILES [NH3+][C@@H](CO)C(=O)[O-]
REMARK SMILES IDX 3 1 2 2 1 3 5 7 6 8 7 9 4 10
REMARK H PARENT 1 4 1 5 1 6 4 11
REMARK Flexibility Score: inf
ROOT
ATOM      1  C   UNL     1     111.527 119.952 105.065  1.00  0.00     0.227 C 
ENDROOT
BRANCH   1   2
ATOM      2  C   UNL     1     110.809 118.620 104.782  1.00  0.00     0.253 C 
BRANCH   2   3
ATOM      3  N   UNL     1     109.723 118.801 103.810  1.00  0.00    -0.348 N 
ATOM      4  H   UNL     1     108.812 118.963 104.299  1.00  0.00     0.345 HD
ATOM      5  H   UNL     1     109.643 117.950 103.207  1.00  0.00     0.345 HD
ATOM      6  H   UNL     1     109.931 119.619 103.192  1.00  0.00     0.345 HD
ENDBRANCH   2   3
BRANCH   2   7
ATOM      7  C   UNL     1     110.270 118.045 106.064  1.00  0.00     0.102 C 
ATOM      8  O   UNL     1     109.450 118.703 106.757  1.00  0.00    -0.544 OA
ATOM      9  O   UNL     1     110.661 116.779 106.484  1.00  0.00    -0.544 OA
ENDBRANCH   2   7
ENDBRANCH   1   2
BRANCH   1  10
ATOM     10  O   UNL     1     110.608 120.946 105.429  1.00  0.00    -0.390 OA
ATOM     11  H   UNL     1     111.082 121.815 105.350  1.00  0.00     0.210 HD
ENDBRANCH   1  10
TORSDOF 4
ENDMDL
MODEL 9
REMARK VINA RESULT:    -2.855     16.801     17.160
REMARK INTER + INTRA:          -3.606
REMARK INTER:                  -3.217
REMARK INTRA:                  -0.388
REMARK UNBOUND:                -0.250
REMARK SMILES [NH3+][C@@H](CO)C(=O)[O-]
REMARK SMILES IDX 3 1 2 2 1 3 5 7 6 8 7 9 4 10
REMARK H PARENT 1 4 1 5 1 6 4 11
REMARK Flexibility Score: inf
ROOT
ATOM      1  C   UNL     1     117.451 109.809 113.393  1.00  0.00     0.227 C 
ENDROOT
BRANCH   1   2
ATOM      2  C   UNL     1     116.883 109.768 114.823  1.00  0.00     0.253 C 
BRANCH   2   3
ATOM      3  N   UNL     1     117.909 110.125 115.811  1.00  0.00    -0.348 N 
ATOM      4  H   UNL     1     117.883 111.150 116.018  1.00  0.00     0.345 HD
ATOM      5  H   UNL     1     118.856 109.872 115.444  1.00  0.00     0.345 HD
ATOM      6  H   UNL     1     117.750 109.591 116.696  1.00  0.00     0.345 HD
ENDBRANCH   2   3
BRANCH   2   7
ATOM      7  C   UNL     1     116.331 108.399 115.116  1.00  0.00     0.102 C 
ATOM      8  O   UNL     1     115.088 108.200 115.097  1.00  0.00    -0.544 OA
ATOM      9  O   UNL     1     117.189 107.341 115.394  1.00  0.00    -0.544 OA
ENDBRANCH   2   7
ENDBRANCH   1   2
BRANCH   1  10
ATOM     10  O   UNL     1     116.970 108.734 112.635  1.00  0.00    -0.390 OA
ATOM     11  H   UNL     1     115.980 108.747 112.717  1.00  0.00     0.210 HD
ENDBRANCH   1  10
TORSDOF 4
ENDMDL
