MODEL 1
REMARK VINA RESULT:    -4.223      0.000      0.000
REMARK INTER + INTRA:          -5.262
REMARK INTER:                  -5.210
REMARK INTRA:                  -0.052
REMARK UNBOUND:                -0.052
REMARK SMILES CCCCCC(=O)[O-]
REMARK SMILES IDX 4 1 5 2 6 3 7 4 8 5 3 6 2 7 1 8
REMARK H PARENT
REMARK Flexibility Score: inf
ROOT
ATOM      1  C   UNL     1      12.202   1.891  -1.585  1.00  0.00     0.006 C 
ENDROOT
BRANCH   1   2
ATOM      2  C   UNL     1      10.979   1.824  -2.503  1.00  0.00     0.053 C 
BRANCH   2   3
ATOM      3  C   UNL     1      11.402   1.808  -3.938  1.00  0.00     0.041 C 
ATOM      4  O   UNL     1      11.912   0.771  -4.437  1.00  0.00    -0.550 OA
ATOM      5  O   UNL     1      11.278   2.956  -4.711  1.00  0.00    -0.550 OA
ENDBRANCH   2   3
ENDBRANCH   1   2
BRANCH   1   6
ATOM      6  C   UNL     1      11.935   1.167  -0.259  1.00  0.00     0.000 C 
BRANCH   6   7
ATOM      7  C   UNL     1      13.014   0.114   0.019  1.00  0.00    -0.003 C 
ATOM      8  C   UNL     1      12.935  -0.390   1.458  1.00  0.00     0.004 C 
ENDBRANCH   6   7
ENDBRANCH   1   6
TORSDOF 4
ENDMDL
MODEL 2
REMARK VINA RESULT:    -4.185      0.120      1.149
REMARK INTER + INTRA:          -5.216
REMARK INTER:                  -5.166
REMARK INTRA:                  -0.050
REMARK UNBOUND:                -0.052
REMARK SMILES CCCCCC(=O)[O-]
REMARK SMILES IDX 4 1 5 2 6 3 7 4 8 5 3 6 2 7 1 8
REMARK H PARENT
REMARK Flexibility Score: inf
ROOT
ATOM      1  C   UNL     1      12.157   2.012  -1.566  1.00  0.00     0.006 C 
ENDROOT
BRANCH   1   2
ATOM      2  C   UNL     1      10.944   1.844  -2.485  1.00  0.00     0.053 C 
BRANCH   2   3
ATOM      3  C   UNL     1      11.363   1.901  -3.921  1.00  0.00     0.041 C 
ATOM      4  O   UNL     1      11.171   2.947  -4.596  1.00  0.00    -0.550 OA
ATOM      5  O   UNL     1      11.921   0.782  -4.526  1.00  0.00    -0.550 OA
ENDBRANCH   2   3
ENDBRANCH   1   2
BRANCH   1   6
ATOM      6  C   UNL     1      11.942   1.285  -0.233  1.00  0.00     0.000 C 
BRANCH   6   7
ATOM      7  C   UNL     1      13.067   0.278   0.031  1.00  0.00    -0.003 C 
ATOM      8  C   UNL     1      12.887  -0.406   1.384  1.00  0.00     0.004 C 
ENDBRANCH   6   7
ENDBRANCH   1   6
TORSDOF 4
ENDMDL
MODEL 3
REMARK VINA RESULT:    -4.094      1.451      2.470
REMARK INTER + INTRA:          -5.104
REMARK INTER:                  -4.958
REMARK INTRA:                  -0.146
REMARK UNBOUND:                -0.052
REMARK SMILES CCCCCC(=O)[O-]
REMARK SMILES IDX 4 1 5 2 6 3 7 4 8 5 3 6 2 7 1 8
REMARK H PARENT
REMARK Flexibility Score: inf
ROOT
ATOM      1  C   UNL     1      12.280   1.622  -1.597  1.00  0.00     0.006 C 
ENDROOT
BRANCH   1   2
ATOM      2  C   UNL     1      11.838   2.764  -2.516  1.00  0.00     0.053 C 
BRANCH   2   3
ATOM      3  C   UNL     1      11.579   2.253  -3.899  1.00  0.00     0.041 C 
ATOM      4  O   UNL     1      11.217   3.044  -4.809  1.00  0.00    -0.550 OA
ATOM      5  O   UNL     1      11.692   0.895  -4.169  1.00  0.00    -0.550 OA
ENDBRANCH   2   3
ENDBRANCH   1   2
BRANCH   1   6
ATOM      6  C   UNL     1      11.463   1.613  -0.299  1.00  0.00     0.000 C 
BRANCH   6   7
ATOM      7  C   UNL     1      10.226   2.511  -0.421  1.00  0.00    -0.003 C 
ATOM      8  C   UNL     1       9.887   3.166   0.915  1.00  0.00     0.004 C 
ENDBRANCH   6   7
ENDBRANCH   1   6
TORSDOF 4
ENDMDL
MODEL 4
REMARK VINA RESULT:    -3.958      2.658      4.483
REMARK INTER + INTRA:          -4.936
REMARK INTER:                  -4.839
REMARK INTRA:                  -0.097
REMARK UNBOUND:                -0.052
REMARK SMILES CCCCCC(=O)[O-]
REMARK SMILES IDX 4 1 5 2 6 3 7 4 8 5 3 6 2 7 1 8
REMARK H PARENT
REMARK Flexibility Score: inf
ROOT
ATOM      1  C   UNL     1      11.076   2.559  -3.142  1.00  0.00     0.006 C 
ENDROOT
BRANCH   1   2
ATOM      2  C   UNL     1      12.244   2.452  -2.157  1.00  0.00     0.053 C 
BRANCH   2   3
ATOM      3  C   UNL     1      11.818   1.729  -0.917  1.00  0.00     0.041 C 
ATOM      4  O   UNL     1      10.715   2.000  -0.373  1.00  0.00    -0.550 OA
ATOM      5  O   UNL     1      12.662   0.792  -0.336  1.00  0.00    -0.550 OA
ENDBRANCH   2   3
ENDBRANCH   1   2
BRANCH   1   6
ATOM      6  C   UNL     1      11.487   2.071  -4.537  1.00  0.00     0.000 C 
BRANCH   6   7
ATOM      7  C   UNL     1      11.501   0.539  -4.601  1.00  0.00    -0.003 C 
ATOM      8  C   UNL     1      11.882   0.050  -5.996  1.00  0.00     0.004 C 
ENDBRANCH   6   7
ENDBRANCH   1   6
TORSDOF 4
ENDMDL
MODEL 5
REMARK VINA RESULT:    -3.918      2.978      4.365
REMARK INTER + INTRA:          -4.886
REMARK INTER:                  -4.705
REMARK INTRA:                  -0.181
REMARK UNBOUND:                -0.052
REMARK SMILES CCCCCC(=O)[O-]
REMARK SMILES IDX 4 1 5 2 6 3 7 4 8 5 3 6 2 7 1 8
REMARK H PARENT
REMARK Flexibility Score: inf
ROOT
ATOM      1  C   UNL     1      11.791   1.686  -0.972  1.00  0.00     0.006 C 
ENDROOT
BRANCH   1   2
ATOM      2  C   UNL     1      10.287   1.922  -0.809  1.00  0.00     0.053 C 
BRANCH   2   3
ATOM      3  C   UNL     1      10.033   3.217  -0.103  1.00  0.00     0.041 C 
ATOM      4  O   UNL     1       9.845   4.272  -0.764  1.00  0.00    -0.550 OA
ATOM      5  O   UNL     1      10.054   3.266   1.285  1.00  0.00    -0.550 OA
ENDBRANCH   2   3
ENDBRANCH   1   2
BRANCH   1   6
ATOM      6  C   UNL     1      12.260   2.079  -2.378  1.00  0.00     0.000 C 
BRANCH   6   7
ATOM      7  C   UNL     1      11.157   1.835  -3.414  1.00  0.00    -0.003 C 
ATOM      8  C   UNL     1      11.620   0.858  -4.492  1.00  0.00     0.004 C 
ENDBRANCH   6   7
ENDBRANCH   1   6
TORSDOF 4
ENDMDL
MODEL 6
REMARK VINA RESULT:    -3.783      2.197      2.582
REMARK INTER + INTRA:          -4.720
REMARK INTER:                  -4.673
REMARK INTRA:                  -0.047
REMARK UNBOUND:                -0.052
REMARK SMILES CCCCCC(=O)[O-]
REMARK SMILES IDX 4 1 5 2 6 3 7 4 8 5 3 6 2 7 1 8
REMARK H PARENT
REMARK Flexibility Score: inf
ROOT
ATOM      1  C   UNL     1      12.261   1.797  -1.733  1.00  0.00     0.006 C 
ENDROOT
BRANCH   1   2
ATOM      2  C   UNL     1      11.543   3.141  -1.885  1.00  0.00     0.053 C 
BRANCH   2   3
ATOM      3  C   UNL     1      10.125   3.032  -1.422  1.00  0.00     0.041 C 
ATOM      4  O   UNL     1       9.718   3.731  -0.456  1.00  0.00    -0.550 OA
ATOM      5  O   UNL     1       9.265   2.123  -2.025  1.00  0.00    -0.550 OA
ENDBRANCH   2   3
ENDBRANCH   1   2
BRANCH   1   6
ATOM      6  C   UNL     1      12.071   1.229  -0.321  1.00  0.00     0.000 C 
BRANCH   6   7
ATOM      7  C   UNL     1      13.071   0.101  -0.043  1.00  0.00    -0.003 C 
ATOM      8  C   UNL     1      12.988  -0.364   1.408  1.00  0.00     0.004 C 
ENDBRANCH   6   7
ENDBRANCH   1   6
TORSDOF 4
ENDMDL
MODEL 7
REMARK VINA RESULT:    -3.747      2.689      4.408
REMARK INTER + INTRA:          -4.675
REMARK INTER:                  -4.611
REMARK INTRA:                  -0.064
REMARK UNBOUND:                -0.052
REMARK SMILES CCCCCC(=O)[O-]
REMARK SMILES IDX 4 1 5 2 6 3 7 4 8 5 3 6 2 7 1 8
REMARK H PARENT
REMARK Flexibility Score: inf
ROOT
ATOM      1  C   UNL     1      12.008   2.109  -2.401  1.00  0.00     0.006 C 
ENDROOT
BRANCH   1   2
ATOM      2  C   UNL     1      11.662   1.777  -0.947  1.00  0.00     0.053 C 
BRANCH   2   3
ATOM      3  C   UNL     1      10.693   2.777  -0.398  1.00  0.00     0.041 C 
ATOM      4  O   UNL     1      10.301   2.691   0.795  1.00  0.00    -0.550 OA
ATOM      5  O   UNL     1      10.187   3.776  -1.220  1.00  0.00    -0.550 OA
ENDBRANCH   2   3
ENDBRANCH   1   2
BRANCH   1   6
ATOM      6  C   UNL     1      11.192   1.245  -3.371  1.00  0.00     0.000 C 
BRANCH   6   7
ATOM      7  C   UNL     1      11.535   1.580  -4.827  1.00  0.00    -0.003 C 
ATOM      8  C   UNL     1      11.807   0.313  -5.635  1.00  0.00     0.004 C 
ENDBRANCH   6   7
ENDBRANCH   1   6
TORSDOF 4
ENDMDL
MODEL 8
REMARK VINA RESULT:    -3.710      2.923      4.849
REMARK INTER + INTRA:          -4.630
REMARK INTER:                  -4.570
REMARK INTRA:                  -0.060
REMARK UNBOUND:                -0.052
REMARK SMILES CCCCCC(=O)[O-]
REMARK SMILES IDX 4 1 5 2 6 3 7 4 8 5 3 6 2 7 1 8
REMARK H PARENT
REMARK Flexibility Score: inf
ROOT
ATOM      1  C   UNL     1      12.428   1.583  -1.269  1.00  0.00     0.006 C 
ENDROOT
BRANCH   1   2
ATOM      2  C   UNL     1      11.868   0.960   0.013  1.00  0.00     0.053 C 
BRANCH   2   3
ATOM      3  C   UNL     1      12.864   0.019   0.616  1.00  0.00     0.041 C 
ATOM      4  O   UNL     1      12.665  -0.467   1.760  1.00  0.00    -0.550 OA
ATOM      5  O   UNL     1      14.036  -0.282  -0.067  1.00  0.00    -0.550 OA
ENDBRANCH   2   3
ENDBRANCH   1   2
BRANCH   1   6
ATOM      6  C   UNL     1      11.391   1.540  -2.399  1.00  0.00     0.000 C 
BRANCH   6   7
ATOM      7  C   UNL     1      11.597   2.701  -3.378  1.00  0.00    -0.003 C 
ATOM      8  C   UNL     1      11.464   2.232  -4.824  1.00  0.00     0.004 C 
ENDBRANCH   6   7
ENDBRANCH   1   6
TORSDOF 4
ENDMDL
MODEL 9
REMARK VINA RESULT:    -3.592      3.310      3.812
REMARK INTER + INTRA:          -4.485
REMARK INTER:                  -4.378
REMARK INTRA:                  -0.106
REMARK UNBOUND:                -0.052
REMARK SMILES CCCCCC(=O)[O-]
REMARK SMILES IDX 4 1 5 2 6 3 7 4 8 5 3 6 2 7 1 8
REMARK H PARENT
REMARK Flexibility Score: inf
ROOT
ATOM      1  C   UNL     1      11.002   2.299  -1.059  1.00  0.00     0.006 C 
ENDROOT
BRANCH   1   2
ATOM      2  C   UNL     1      10.528   2.509   0.381  1.00  0.00     0.053 C 
BRANCH   2   3
ATOM      3  C   UNL     1       9.567   3.654   0.454  1.00  0.00     0.041 C 
ATOM      4  O   UNL     1       8.474   3.526   1.065  1.00  0.00    -0.550 OA
ATOM      5  O   UNL     1       9.860   4.847  -0.194  1.00  0.00    -0.550 OA
ENDBRANCH   2   3
ENDBRANCH   1   2
BRANCH   1   6
ATOM      6  C   UNL     1      12.245   1.400  -1.104  1.00  0.00     0.000 C 
BRANCH   6   7
ATOM      7  C   UNL     1      12.346   0.540   0.160  1.00  0.00    -0.003 C 
ATOM      8  C   UNL     1      13.682  -0.197   0.219  1.00  0.00     0.004 C 
ENDBRANCH   6   7
ENDBRANCH   1   6
TORSDOF 4
ENDMDL
