MODEL 1
REMARK VINA RESULT:    -3.753      0.000      0.000
REMARK INTER + INTRA:         -15.050
REMARK INTER:                  -9.457
REMARK INTRA:                  -5.593
REMARK UNBOUND:                -5.593
REMARK SMILES CCCCCCCCCCCCCCCCCCCCCCCCCCCC(=O)[O-]
REMARK SMILES IDX 15 1 16 2 17 3 18 4 19 5 20 6 21 7 22 8 23 9 24 10 25 11
REMARK SMILES IDX 26 12 27 13 28 14 29 15 30 16 14 17 13 18 12 19 11 20 10 21
REMARK SMILES IDX 9 22 8 23 7 24 6 25 5 26 4 27 3 28 2 29 1 30
REMARK H PARENT
REMARK Flexibility Score: inf
ROOT
ATOM      1  C   UNL     1      98.606  84.929  85.370  1.00  0.00     0.000 C 
ENDROOT
BRANCH   1   2
ATOM      2  C   UNL     1      99.489  83.670  85.277  1.00  0.00     0.000 C 
BRANCH   2   3
ATOM      3  C   UNL     1      98.795  82.486  84.567  1.00  0.00     0.000 C 
BRANCH   3   4
ATOM      4  C   UNL     1      99.632  81.948  83.393  1.00  0.00     0.000 C 
BRANCH   4   5
ATOM      5  C   UNL     1     100.225  83.065  82.519  1.00  0.00     0.000 C 
BRANCH   5   6
ATOM      6  C   UNL     1      99.939  82.870  81.020  1.00  0.00     0.000 C 
BRANCH   6   7
ATOM      7  C   UNL     1      98.685  82.004  80.776  1.00  0.00     0.000 C 
BRANCH   7   8
ATOM      8  C   UNL     1      98.004  82.274  79.422  1.00  0.00     0.000 C 
BRANCH   8   9
ATOM      9  C   UNL     1      96.626  81.611  79.253  1.00  0.00     0.000 C 
BRANCH   9  10
ATOM     10  C   UNL     1      95.523  82.614  78.884  1.00  0.00     0.000 C 
BRANCH  10  11
ATOM     11  C   UNL     1      96.131  83.950  78.432  1.00  0.00     0.000 C 
BRANCH  11  12
ATOM     12  C   UNL     1      95.336  85.167  78.932  1.00  0.00     0.006 C 
BRANCH  12  13
ATOM     13  C   UNL     1      94.801  86.041  77.787  1.00  0.00     0.053 C 
BRANCH  13  14
ATOM     14  C   UNL     1      93.833  85.281  76.930  1.00  0.00     0.041 C 
ATOM     15  O   UNL     1      92.834  84.713  77.445  1.00  0.00    -0.550 OA
ATOM     16  O   UNL     1      94.062  85.164  75.564  1.00  0.00    -0.550 OA
ENDBRANCH  13  14
ENDBRANCH  12  13
ENDBRANCH  11  12
ENDBRANCH  10  11
ENDBRANCH   9  10
ENDBRANCH   8   9
ENDBRANCH   7   8
ENDBRANCH   6   7
ENDBRANCH   5   6
ENDBRANCH   4   5
ENDBRANCH   3   4
ENDBRANCH   2   3
ENDBRANCH   1   2
BRANCH   1  17
ATOM     17  C   UNL     1      99.407  86.246  85.467  1.00  0.00     0.000 C 
BRANCH  17  18
ATOM     18  C   UNL     1     100.758  86.207  84.734  1.00  0.00     0.000 C 
BRANCH  18  19
ATOM     19  C   UNL     1     101.153  87.566  84.134  1.00  0.00     0.000 C 
BRANCH  19  20
ATOM     20  C   UNL     1     101.475  87.480  82.635  1.00  0.00     0.000 C 
BRANCH  20  21
ATOM     21  C   UNL     1     102.175  86.162  82.255  1.00  0.00     0.000 C 
BRANCH  21  22
ATOM     22  C   UNL     1     102.231  85.940  80.728  1.00  0.00    -0.000 C 
BRANCH  22  23
ATOM     23  C   UNL     1     101.740  87.146  79.905  1.00  0.00    -0.000 C 
BRANCH  23  24
ATOM     24  C   UNL     1     100.435  86.909  79.124  1.00  0.00    -0.000 C 
BRANCH  24  25
ATOM     25  C   UNL     1      99.137  87.174  79.916  1.00  0.00    -0.000 C 
BRANCH  25  26
ATOM     26  C   UNL     1      98.430  85.920  80.464  1.00  0.00    -0.000 C 
BRANCH  26  27
ATOM     27  C   UNL     1      98.106  86.021  81.963  1.00  0.00    -0.000 C 
BRANCH  27  28
ATOM     28  C   UNL     1      96.655  85.622  82.289  1.00  0.00    -0.000 C 
BRANCH  28  29
ATOM     29  C   UNL     1      96.390  84.106  82.329  1.00  0.00    -0.003 C 
ATOM     30  C   UNL     1      95.550  83.676  83.531  1.00  0.00     0.004 C 
ENDBRANCH  28  29
ENDBRANCH  27  28
ENDBRANCH  26  27
ENDBRANCH  25  26
ENDBRANCH  24  25
ENDBRANCH  23  24
ENDBRANCH  22  23
ENDBRANCH  21  22
ENDBRANCH  20  21
ENDBRANCH  19  20
ENDBRANCH  18  19
ENDBRANCH  17  18
ENDBRANCH   1  17
TORSDOF 26
ENDMDL
MODEL 2
REMARK VINA RESULT:    -3.710      3.740      8.580
REMARK INTER + INTRA:         -14.943
REMARK INTER:                 -10.741
REMARK INTRA:                  -4.201
REMARK UNBOUND:                -5.593
REMARK SMILES CCCCCCCCCCCCCCCCCCCCCCCCCCCC(=O)[O-]
REMARK SMILES IDX 15 1 16 2 17 3 18 4 19 5 20 6 21 7 22 8 23 9 24 10 25 11
REMARK SMILES IDX 26 12 27 13 28 14 29 15 30 16 14 17 13 18 12 19 11 20 10 21
REMARK SMILES IDX 9 22 8 23 7 24 6 25 5 26 4 27 3 28 2 29 1 30
REMARK H PARENT
REMARK Flexibility Score: inf
ROOT
ATOM      1  C   UNL     1      93.236  85.006  78.367  1.00  0.00     0.000 C 
ENDROOT
BRANCH   1   2
ATOM      2  C   UNL     1      94.411  85.522  77.515  1.00  0.00     0.000 C 
BRANCH   2   3
ATOM      3  C   UNL     1      95.494  86.251  78.343  1.00  0.00     0.000 C 
BRANCH   3   4
ATOM      4  C   UNL     1      96.537  85.274  78.913  1.00  0.00     0.000 C 
BRANCH   4   5
ATOM      5  C   UNL     1      96.697  84.005  78.061  1.00  0.00     0.000 C 
BRANCH   5   6
ATOM      6  C   UNL     1      96.572  82.711  78.883  1.00  0.00     0.000 C 
BRANCH   6   7
ATOM      7  C   UNL     1      97.910  81.947  78.973  1.00  0.00     0.000 C 
BRANCH   7   8
ATOM      8  C   UNL     1      98.512  81.922  80.390  1.00  0.00     0.000 C 
BRANCH   8   9
ATOM      9  C   UNL     1      99.896  82.582  80.511  1.00  0.00     0.000 C 
BRANCH   9  10
ATOM     10  C   UNL     1      99.825  84.023  81.039  1.00  0.00     0.000 C 
BRANCH  10  11
ATOM     11  C   UNL     1      98.530  84.249  81.833  1.00  0.00     0.000 C 
BRANCH  11  12
ATOM     12  C   UNL     1      98.693  85.282  82.960  1.00  0.00     0.006 C 
BRANCH  12  13
ATOM     13  C   UNL     1      98.841  84.636  84.345  1.00  0.00     0.053 C 
BRANCH  13  14
ATOM     14  C   UNL     1      98.143  83.310  84.404  1.00  0.00     0.041 C 
ATOM     15  O   UNL     1      98.798  82.239  84.302  1.00  0.00    -0.550 OA
ATOM     16  O   UNL     1      96.759  83.259  84.525  1.00  0.00    -0.550 OA
ENDBRANCH  13  14
ENDBRANCH  12  13
ENDBRANCH  11  12
ENDBRANCH  10  11
ENDBRANCH   9  10
ENDBRANCH   8   9
ENDBRANCH   7   8
ENDBRANCH   6   7
ENDBRANCH   5   6
ENDBRANCH   4   5
ENDBRANCH   3   4
ENDBRANCH   2   3
ENDBRANCH   1   2
BRANCH   1  17
ATOM     17  C   UNL     1      93.072  83.470  78.336  1.00  0.00     0.000 C 
BRANCH  17  18
ATOM     18  C   UNL     1      92.058  82.975  77.291  1.00  0.00     0.000 C 
BRANCH  18  19
ATOM     19  C   UNL     1      91.203  84.108  76.702  1.00  0.00     0.000 C 
BRANCH  19  20
ATOM     20  C   UNL     1      89.698  83.809  76.768  1.00  0.00     0.000 C 
BRANCH  20  21
ATOM     21  C   UNL     1      89.135  83.918  78.196  1.00  0.00     0.000 C 
BRANCH  21  22
ATOM     22  C   UNL     1      89.509  85.251  78.880  1.00  0.00    -0.000 C 
BRANCH  22  23
ATOM     23  C   UNL     1      89.929  85.099  80.354  1.00  0.00    -0.000 C 
BRANCH  23  24
ATOM     24  C   UNL     1      89.981  83.649  80.867  1.00  0.00    -0.000 C 
BRANCH  24  25
ATOM     25  C   UNL     1      89.904  83.491  82.401  1.00  0.00    -0.000 C 
BRANCH  25  26
ATOM     26  C   UNL     1      90.352  84.719  83.214  1.00  0.00    -0.000 C 
BRANCH  26  27
ATOM     27  C   UNL     1      91.558  84.429  84.122  1.00  0.00    -0.000 C 
BRANCH  27  28
ATOM     28  C   UNL     1      92.728  83.768  83.369  1.00  0.00    -0.000 C 
BRANCH  28  29
ATOM     29  C   UNL     1      93.370  84.636  82.272  1.00  0.00    -0.003 C 
ATOM     30  C   UNL     1      94.726  84.107  81.806  1.00  0.00     0.004 C 
ENDBRANCH  28  29
ENDBRANCH  27  28
ENDBRANCH  26  27
ENDBRANCH  25  26
ENDBRANCH  24  25
ENDBRANCH  23  24
ENDBRANCH  22  23
ENDBRANCH  21  22
ENDBRANCH  20  21
ENDBRANCH  19  20
ENDBRANCH  18  19
ENDBRANCH  17  18
ENDBRANCH   1  17
TORSDOF 26
ENDMDL
MODEL 3
REMARK VINA RESULT:    -3.707      2.771      6.255
REMARK INTER + INTRA:         -14.935
REMARK INTER:                 -10.532
REMARK INTRA:                  -4.403
REMARK UNBOUND:                -5.593
REMARK SMILES CCCCCCCCCCCCCCCCCCCCCCCCCCCC(=O)[O-]
REMARK SMILES IDX 15 1 16 2 17 3 18 4 19 5 20 6 21 7 22 8 23 9 24 10 25 11
REMARK SMILES IDX 26 12 27 13 28 14 29 15 30 16 14 17 13 18 12 19 11 20 10 21
REMARK SMILES IDX 9 22 8 23 7 24 6 25 5 26 4 27 3 28 2 29 1 30
REMARK H PARENT
REMARK Flexibility Score: inf
ROOT
ATOM      1  C   UNL     1      92.327  83.948  83.785  1.00  0.00     0.000 C 
ENDROOT
BRANCH   1   2
ATOM      2  C   UNL     1      92.064  85.084  82.778  1.00  0.00     0.000 C 
BRANCH   2   3
ATOM      3  C   UNL     1      92.139  84.624  81.304  1.00  0.00     0.000 C 
BRANCH   3   4
ATOM      4  C   UNL     1      90.815  84.866  80.558  1.00  0.00     0.000 C 
BRANCH   4   5
ATOM      5  C   UNL     1      89.945  83.602  80.458  1.00  0.00     0.000 C 
BRANCH   5   6
ATOM      6  C   UNL     1      89.646  83.194  79.005  1.00  0.00     0.000 C 
BRANCH   6   7
ATOM      7  C   UNL     1      90.178  84.229  77.990  1.00  0.00     0.000 C 
BRANCH   7   8
ATOM      8  C   UNL     1      91.236  83.661  77.027  1.00  0.00     0.000 C 
BRANCH   8   9
ATOM      9  C   UNL     1      92.338  82.828  77.703  1.00  0.00     0.000 C 
BRANCH   9  10
ATOM     10  C   UNL     1      93.586  83.655  78.044  1.00  0.00     0.000 C 
BRANCH  10  11
ATOM     11  C   UNL     1      93.977  84.561  76.866  1.00  0.00     0.000 C 
BRANCH  11  12
ATOM     12  C   UNL     1      94.695  85.844  77.313  1.00  0.00     0.006 C 
BRANCH  12  13
ATOM     13  C   UNL     1      94.274  86.305  78.717  1.00  0.00     0.053 C 
BRANCH  13  14
ATOM     14  C   UNL     1      94.953  87.588  79.094  1.00  0.00     0.041 C 
ATOM     15  O   UNL     1      94.439  88.696  78.787  1.00  0.00    -0.550 OA
ATOM     16  O   UNL     1      96.180  87.556  79.746  1.00  0.00    -0.550 OA
ENDBRANCH  13  14
ENDBRANCH  12  13
ENDBRANCH  11  12
ENDBRANCH  10  11
ENDBRANCH   9  10
ENDBRANCH   8   9
ENDBRANCH   7   8
ENDBRANCH   6   7
ENDBRANCH   5   6
ENDBRANCH   4   5
ENDBRANCH   3   4
ENDBRANCH   2   3
ENDBRANCH   1   2
BRANCH   1  17
ATOM     17  C   UNL     1      93.782  83.898  84.300  1.00  0.00     0.000 C 
BRANCH  17  18
ATOM     18  C   UNL     1      94.710  83.007  83.456  1.00  0.00     0.000 C 
BRANCH  18  19
ATOM     19  C   UNL     1      95.986  83.733  83.003  1.00  0.00     0.000 C 
BRANCH  19  20
ATOM     20  C   UNL     1      95.744  84.663  81.805  1.00  0.00     0.000 C 
BRANCH  20  21
ATOM     21  C   UNL     1      96.377  84.132  80.506  1.00  0.00     0.000 C 
BRANCH  21  22
ATOM     22  C   UNL     1      96.250  82.599  80.370  1.00  0.00    -0.000 C 
BRANCH  22  23
ATOM     23  C   UNL     1      97.189  81.988  79.312  1.00  0.00    -0.000 C 
BRANCH  23  24
ATOM     24  C   UNL     1      98.685  82.040  79.666  1.00  0.00    -0.000 C 
BRANCH  24  25
ATOM     25  C   UNL     1      99.006  81.980  81.175  1.00  0.00    -0.000 C 
BRANCH  25  26
ATOM     26  C   UNL     1      99.763  83.197  81.738  1.00  0.00    -0.000 C 
BRANCH  26  27
ATOM     27  C   UNL     1     101.019  83.550  80.925  1.00  0.00    -0.000 C 
BRANCH  27  28
ATOM     28  C   UNL     1     101.110  85.050  80.587  1.00  0.00    -0.000 C 
BRANCH  28  29
ATOM     29  C   UNL     1      99.769  85.723  80.244  1.00  0.00    -0.003 C 
ATOM     30  C   UNL     1      99.160  86.480  81.423  1.00  0.00     0.004 C 
ENDBRANCH  28  29
ENDBRANCH  27  28
ENDBRANCH  26  27
ENDBRANCH  25  26
ENDBRANCH  24  25
ENDBRANCH  23  24
ENDBRANCH  22  23
ENDBRANCH  21  22
ENDBRANCH  20  21
ENDBRANCH  19  20
ENDBRANCH  18  19
ENDBRANCH  17  18
ENDBRANCH   1  17
TORSDOF 26
ENDMDL
MODEL 4
REMARK VINA RESULT:    -3.706      3.525      6.781
REMARK INTER + INTRA:         -14.932
REMARK INTER:                  -9.891
REMARK INTRA:                  -5.041
REMARK UNBOUND:                -5.593
REMARK SMILES CCCCCCCCCCCCCCCCCCCCCCCCCCCC(=O)[O-]
REMARK SMILES IDX 15 1 16 2 17 3 18 4 19 5 20 6 21 7 22 8 23 9 24 10 25 11
REMARK SMILES IDX 26 12 27 13 28 14 29 15 30 16 14 17 13 18 12 19 11 20 10 21
REMARK SMILES IDX 9 22 8 23 7 24 6 25 5 26 4 27 3 28 2 29 1 30
REMARK H PARENT
REMARK Flexibility Score: inf
ROOT
ATOM      1  C   UNL     1      98.792  86.657  78.973  1.00  0.00     0.000 C 
ENDROOT
BRANCH   1   2
ATOM      2  C   UNL     1      97.860  85.582  79.564  1.00  0.00     0.000 C 
BRANCH   2   3
ATOM      3  C   UNL     1      97.569  85.784  81.069  1.00  0.00     0.000 C 
BRANCH   3   4
ATOM      4  C   UNL     1      96.458  84.845  81.571  1.00  0.00     0.000 C 
BRANCH   4   5
ATOM      5  C   UNL     1      95.797  84.042  80.440  1.00  0.00     0.000 C 
BRANCH   5   6
ATOM      6  C   UNL     1      96.064  82.530  80.543  1.00  0.00     0.000 C 
BRANCH   6   7
ATOM      7  C   UNL     1      96.636  81.951  79.231  1.00  0.00     0.000 C 
BRANCH   7   8
ATOM      8  C   UNL     1      98.163  82.104  79.104  1.00  0.00     0.000 C 
BRANCH   8   9
ATOM      9  C   UNL     1      98.931  82.004  80.433  1.00  0.00     0.000 C 
BRANCH   9  10
ATOM     10  C   UNL     1     100.354  82.575  80.344  1.00  0.00     0.000 C 
BRANCH  10  11
ATOM     11  C   UNL     1     100.553  83.701  81.369  1.00  0.00     0.000 C 
BRANCH  11  12
ATOM     12  C   UNL     1     101.409  84.857  80.827  1.00  0.00     0.006 C 
BRANCH  12  13
ATOM     13  C   UNL     1     102.176  85.600  81.932  1.00  0.00     0.053 C 
BRANCH  13  14
ATOM     14  C   UNL     1     102.841  86.833  81.397  1.00  0.00     0.041 C 
ATOM     15  O   UNL     1     103.414  86.813  80.275  1.00  0.00    -0.550 OA
ATOM     16  O   UNL     1     102.867  87.993  82.161  1.00  0.00    -0.550 OA
ENDBRANCH  13  14
ENDBRANCH  12  13
ENDBRANCH  11  12
ENDBRANCH  10  11
ENDBRANCH   9  10
ENDBRANCH   8   9
ENDBRANCH   7   8
ENDBRANCH   6   7
ENDBRANCH   5   6
ENDBRANCH   4   5
ENDBRANCH   3   4
ENDBRANCH   2   3
ENDBRANCH   1   2
BRANCH   1  17
ATOM     17  C   UNL     1      98.577  88.064  79.572  1.00  0.00     0.000 C 
BRANCH  17  18
ATOM     18  C   UNL     1      97.992  89.080  78.577  1.00  0.00     0.000 C 
BRANCH  18  19
ATOM     19  C   UNL     1      96.644  89.659  79.034  1.00  0.00     0.000 C 
BRANCH  19  20
ATOM     20  C   UNL     1      96.311  89.302  80.491  1.00  0.00     0.000 C 
BRANCH  20  21
ATOM     21  C   UNL     1      95.052  88.425  80.612  1.00  0.00     0.000 C 
BRANCH  21  22
ATOM     22  C   UNL     1      94.385  88.155  79.246  1.00  0.00    -0.000 C 
BRANCH  22  23
ATOM     23  C   UNL     1      94.343  86.665  78.857  1.00  0.00    -0.000 C 
BRANCH  23  24
ATOM     24  C   UNL     1      95.078  86.316  77.551  1.00  0.00    -0.000 C 
BRANCH  24  25
ATOM     25  C   UNL     1      94.805  84.899  77.001  1.00  0.00    -0.000 C 
BRANCH  25  26
ATOM     26  C   UNL     1      93.325  84.570  76.733  1.00  0.00    -0.000 C 
BRANCH  26  27
ATOM     27  C   UNL     1      92.835  83.336  77.509  1.00  0.00    -0.000 C 
BRANCH  27  28
ATOM     28  C   UNL     1      92.079  83.704  78.799  1.00  0.00    -0.000 C 
BRANCH  28  29
ATOM     29  C   UNL     1      90.596  83.290  78.826  1.00  0.00    -0.003 C 
ATOM     30  C   UNL     1      89.838  83.696  77.564  1.00  0.00     0.004 C 
ENDBRANCH  28  29
ENDBRANCH  27  28
ENDBRANCH  26  27
ENDBRANCH  25  26
ENDBRANCH  24  25
ENDBRANCH  23  24
ENDBRANCH  22  23
ENDBRANCH  21  22
ENDBRANCH  20  21
ENDBRANCH  19  20
ENDBRANCH  18  19
ENDBRANCH  17  18
ENDBRANCH   1  17
TORSDOF 26
ENDMDL
MODEL 5
REMARK VINA RESULT:    -3.692      3.491      7.258
REMARK INTER + INTRA:         -14.896
REMARK INTER:                  -9.746
REMARK INTRA:                  -5.150
REMARK UNBOUND:                -5.593
REMARK SMILES CCCCCCCCCCCCCCCCCCCCCCCCCCCC(=O)[O-]
REMARK SMILES IDX 15 1 16 2 17 3 18 4 19 5 20 6 21 7 22 8 23 9 24 10 25 11
REMARK SMILES IDX 26 12 27 13 28 14 29 15 30 16 14 17 13 18 12 19 11 20 10 21
REMARK SMILES IDX 9 22 8 23 7 24 6 25 5 26 4 27 3 28 2 29 1 30
REMARK H PARENT
REMARK Flexibility Score: inf
ROOT
ATOM      1  C   UNL     1      97.449  86.126  79.286  1.00  0.00     0.000 C 
ENDROOT
BRANCH   1   2
ATOM      2  C   UNL     1      96.273  86.676  78.456  1.00  0.00     0.000 C 
BRANCH   2   3
ATOM      3  C   UNL     1      95.319  85.574  77.942  1.00  0.00     0.000 C 
BRANCH   3   4
ATOM      4  C   UNL     1      95.990  84.190  77.936  1.00  0.00     0.000 C 
BRANCH   4   5
ATOM      5  C   UNL     1      95.298  83.185  78.871  1.00  0.00     0.000 C 
BRANCH   5   6
ATOM      6  C   UNL     1      96.197  81.994  79.244  1.00  0.00     0.000 C 
BRANCH   6   7
ATOM      7  C   UNL     1      97.696  82.323  79.074  1.00  0.00     0.000 C 
BRANCH   7   8
ATOM      8  C   UNL     1      98.566  81.864  80.259  1.00  0.00     0.000 C 
BRANCH   8   9
ATOM      9  C   UNL     1      99.951  82.528  80.332  1.00  0.00     0.000 C 
BRANCH   9  10
ATOM     10  C   UNL     1     100.341  82.936  81.761  1.00  0.00     0.000 C 
BRANCH  10  11
ATOM     11  C   UNL     1      99.494  82.180  82.794  1.00  0.00     0.000 C 
BRANCH  11  12
ATOM     12  C   UNL     1     100.002  82.363  84.233  1.00  0.00     0.006 C 
BRANCH  12  13
ATOM     13  C   UNL     1      99.001  83.106  85.130  1.00  0.00     0.053 C 
BRANCH  13  14
ATOM     14  C   UNL     1      99.410  84.535  85.333  1.00  0.00     0.041 C 
ATOM     15  O   UNL     1      98.634  85.345  85.907  1.00  0.00    -0.550 OA
ATOM     16  O   UNL     1     100.632  84.982  84.845  1.00  0.00    -0.550 OA
ENDBRANCH  13  14
ENDBRANCH  12  13
ENDBRANCH  11  12
ENDBRANCH  10  11
ENDBRANCH   9  10
ENDBRANCH   8   9
ENDBRANCH   7   8
ENDBRANCH   6   7
ENDBRANCH   5   6
ENDBRANCH   4   5
ENDBRANCH   3   4
ENDBRANCH   2   3
ENDBRANCH   1   2
BRANCH   1  17
ATOM     17  C   UNL     1      97.269  86.300  80.811  1.00  0.00     0.000 C 
BRANCH  17  18
ATOM     18  C   UNL     1      97.558  85.024  81.620  1.00  0.00     0.000 C 
BRANCH  18  19
ATOM     19  C   UNL     1      96.601  84.840  82.808  1.00  0.00     0.000 C 
BRANCH  19  20
ATOM     20  C   UNL     1      95.559  83.739  82.564  1.00  0.00     0.000 C 
BRANCH  20  21
ATOM     21  C   UNL     1      94.181  84.304  82.177  1.00  0.00     0.000 C 
BRANCH  21  22
ATOM     22  C   UNL     1      93.958  85.737  82.707  1.00  0.00    -0.000 C 
BRANCH  22  23
ATOM     23  C   UNL     1      93.697  86.777  81.600  1.00  0.00    -0.000 C 
BRANCH  23  24
ATOM     24  C   UNL     1      92.801  86.288  80.449  1.00  0.00    -0.000 C 
BRANCH  24  25
ATOM     25  C   UNL     1      91.283  86.372  80.716  1.00  0.00    -0.000 C 
BRANCH  25  26
ATOM     26  C   UNL     1      90.423  85.337  79.967  1.00  0.00    -0.000 C 
BRANCH  26  27
ATOM     27  C   UNL     1      91.125  83.980  79.803  1.00  0.00    -0.000 C 
BRANCH  27  28
ATOM     28  C   UNL     1      90.520  83.126  78.673  1.00  0.00    -0.000 C 
BRANCH  28  29
ATOM     29  C   UNL     1      90.920  83.554  77.249  1.00  0.00    -0.003 C 
ATOM     30  C   UNL     1      92.356  83.174  76.891  1.00  0.00     0.004 C 
ENDBRANCH  28  29
ENDBRANCH  27  28
ENDBRANCH  26  27
ENDBRANCH  25  26
ENDBRANCH  24  25
ENDBRANCH  23  24
ENDBRANCH  22  23
ENDBRANCH  21  22
ENDBRANCH  20  21
ENDBRANCH  19  20
ENDBRANCH  18  19
ENDBRANCH  17  18
ENDBRANCH   1  17
TORSDOF 26
ENDMDL
MODEL 6
REMARK VINA RESULT:    -3.680      3.463      7.171
REMARK INTER + INTRA:         -14.867
REMARK INTER:                 -10.011
REMARK INTRA:                  -4.856
REMARK UNBOUND:                -5.593
REMARK SMILES CCCCCCCCCCCCCCCCCCCCCCCCCCCC(=O)[O-]
REMARK SMILES IDX 15 1 16 2 17 3 18 4 19 5 20 6 21 7 22 8 23 9 24 10 25 11
REMARK SMILES IDX 26 12 27 13 28 14 29 15 30 16 14 17 13 18 12 19 11 20 10 21
REMARK SMILES IDX 9 22 8 23 7 24 6 25 5 26 4 27 3 28 2 29 1 30
REMARK H PARENT
REMARK Flexibility Score: inf
ROOT
ATOM      1  C   UNL     1      97.679  87.382  79.727  1.00  0.00     0.000 C 
ENDROOT
BRANCH   1   2
ATOM      2  C   UNL     1      96.262  87.471  79.129  1.00  0.00     0.000 C 
BRANCH   2   3
ATOM      3  C   UNL     1      96.128  86.763  77.762  1.00  0.00     0.000 C 
BRANCH   3   4
ATOM      4  C   UNL     1      94.731  86.150  77.567  1.00  0.00     0.000 C 
BRANCH   4   5
ATOM      5  C   UNL     1      94.770  84.629  77.346  1.00  0.00     0.000 C 
BRANCH   5   6
ATOM      6  C   UNL     1      95.937  83.946  78.081  1.00  0.00     0.000 C 
BRANCH   6   7
ATOM      7  C   UNL     1      95.449  82.850  79.052  1.00  0.00     0.000 C 
BRANCH   7   8
ATOM      8  C   UNL     1      96.390  81.633  79.130  1.00  0.00     0.000 C 
BRANCH   8   9
ATOM      9  C   UNL     1      97.878  81.982  79.299  1.00  0.00     0.000 C 
BRANCH   9  10
ATOM     10  C   UNL     1      98.244  82.348  80.745  1.00  0.00     0.000 C 
BRANCH  10  11
ATOM     11  C   UNL     1      99.734  82.702  80.856  1.00  0.00     0.000 C 
BRANCH  11  12
ATOM     12  C   UNL     1     100.191  82.915  82.308  1.00  0.00     0.006 C 
BRANCH  12  13
ATOM     13  C   UNL     1      99.320  82.161  83.324  1.00  0.00     0.053 C 
BRANCH  13  14
ATOM     14  C   UNL     1      99.442  82.758  84.694  1.00  0.00     0.041 C 
ATOM     15  O   UNL     1     100.576  83.008  85.182  1.00  0.00    -0.550 OA
ATOM     16  O   UNL     1      98.301  82.997  85.450  1.00  0.00    -0.550 OA
ENDBRANCH  13  14
ENDBRANCH  12  13
ENDBRANCH  11  12
ENDBRANCH  10  11
ENDBRANCH   9  10
ENDBRANCH   8   9
ENDBRANCH   7   8
ENDBRANCH   6   7
ENDBRANCH   5   6
ENDBRANCH   4   5
ENDBRANCH   3   4
ENDBRANCH   2   3
ENDBRANCH   1   2
BRANCH   1  17
ATOM     17  C   UNL     1      97.992  86.021  80.388  1.00  0.00     0.000 C 
BRANCH  17  18
ATOM     18  C   UNL     1      98.266  86.113  81.899  1.00  0.00     0.000 C 
BRANCH  18  19
ATOM     19  C   UNL     1      97.235  85.346  82.742  1.00  0.00     0.000 C 
BRANCH  19  20
ATOM     20  C   UNL     1      95.822  85.399  82.140  1.00  0.00     0.000 C 
BRANCH  20  21
ATOM     21  C   UNL     1      95.059  84.073  82.307  1.00  0.00     0.000 C 
BRANCH  21  22
ATOM     22  C   UNL     1      95.342  83.393  83.664  1.00  0.00    -0.000 C 
BRANCH  22  23
ATOM     23  C   UNL     1      94.183  83.509  84.672  1.00  0.00    -0.000 C 
BRANCH  23  24
ATOM     24  C   UNL     1      92.790  83.199  84.096  1.00  0.00    -0.000 C 
BRANCH  24  25
ATOM     25  C   UNL     1      91.776  84.362  84.165  1.00  0.00    -0.000 C 
BRANCH  25  26
ATOM     26  C   UNL     1      90.464  84.141  83.390  1.00  0.00    -0.000 C 
BRANCH  26  27
ATOM     27  C   UNL     1      90.686  83.930  81.884  1.00  0.00    -0.000 C 
BRANCH  27  28
ATOM     28  C   UNL     1      91.410  85.112  81.215  1.00  0.00    -0.000 C 
BRANCH  28  29
ATOM     29  C   UNL     1      92.214  84.754  79.951  1.00  0.00    -0.003 C 
ATOM     30  C   UNL     1      91.533  83.689  79.091  1.00  0.00     0.004 C 
ENDBRANCH  28  29
ENDBRANCH  27  28
ENDBRANCH  26  27
ENDBRANCH  25  26
ENDBRANCH  24  25
ENDBRANCH  23  24
ENDBRANCH  22  23
ENDBRANCH  21  22
ENDBRANCH  20  21
ENDBRANCH  19  20
ENDBRANCH  18  19
ENDBRANCH  17  18
ENDBRANCH   1  17
TORSDOF 26
ENDMDL
MODEL 7
REMARK VINA RESULT:    -3.673      2.802      6.291
REMARK INTER + INTRA:         -14.848
REMARK INTER:                  -9.650
REMARK INTRA:                  -5.199
REMARK UNBOUND:                -5.593
REMARK SMILES CCCCCCCCCCCCCCCCCCCCCCCCCCCC(=O)[O-]
REMARK SMILES IDX 15 1 16 2 17 3 18 4 19 5 20 6 21 7 22 8 23 9 24 10 25 11
REMARK SMILES IDX 26 12 27 13 28 14 29 15 30 16 14 17 13 18 12 19 11 20 10 21
REMARK SMILES IDX 9 22 8 23 7 24 6 25 5 26 4 27 3 28 2 29 1 30
REMARK H PARENT
REMARK Flexibility Score: inf
ROOT
ATOM      1  C   UNL     1      95.987  85.820  80.684  1.00  0.00     0.000 C 
ENDROOT
BRANCH   1   2
ATOM      2  C   UNL     1      96.766  86.540  79.566  1.00  0.00     0.000 C 
BRANCH   2   3
ATOM      3  C   UNL     1      96.376  86.067  78.147  1.00  0.00     0.000 C 
BRANCH   3   4
ATOM      4  C   UNL     1      94.880  85.721  78.047  1.00  0.00     0.000 C 
BRANCH   4   5
ATOM      5  C   UNL     1      94.628  84.304  77.508  1.00  0.00     0.000 C 
BRANCH   5   6
ATOM      6  C   UNL     1      93.237  84.143  76.872  1.00  0.00     0.000 C 
BRANCH   6   7
ATOM      7  C   UNL     1      92.428  83.001  77.525  1.00  0.00     0.000 C 
BRANCH   7   8
ATOM      8  C   UNL     1      90.953  83.359  77.783  1.00  0.00     0.000 C 
BRANCH   8   9
ATOM      9  C   UNL     1      90.567  83.454  79.268  1.00  0.00     0.000 C 
BRANCH   9  10
ATOM     10  C   UNL     1      90.356  84.901  79.739  1.00  0.00     0.000 C 
BRANCH  10  11
ATOM     11  C   UNL     1      91.685  85.528  80.183  1.00  0.00     0.000 C 
BRANCH  11  12
ATOM     12  C   UNL     1      92.551  84.567  81.014  1.00  0.00     0.006 C 
BRANCH  12  13
ATOM     13  C   UNL     1      92.530  84.892  82.515  1.00  0.00     0.053 C 
BRANCH  13  14
ATOM     14  C   UNL     1      91.773  83.852  83.286  1.00  0.00     0.041 C 
ATOM     15  O   UNL     1      92.369  83.108  84.109  1.00  0.00    -0.550 OA
ATOM     16  O   UNL     1      90.413  83.675  83.060  1.00  0.00    -0.550 OA
ENDBRANCH  13  14
ENDBRANCH  12  13
ENDBRANCH  11  12
ENDBRANCH  10  11
ENDBRANCH   9  10
ENDBRANCH   8   9
ENDBRANCH   7   8
ENDBRANCH   6   7
ENDBRANCH   5   6
ENDBRANCH   4   5
ENDBRANCH   3   4
ENDBRANCH   2   3
ENDBRANCH   1   2
BRANCH   1  17
ATOM     17  C   UNL     1      96.668  84.528  81.184  1.00  0.00     0.000 C 
BRANCH  17  18
ATOM     18  C   UNL     1      95.866  83.249  80.889  1.00  0.00     0.000 C 
BRANCH  18  19
ATOM     19  C   UNL     1      96.578  82.310  79.903  1.00  0.00     0.000 C 
BRANCH  19  20
ATOM     20  C   UNL     1      97.921  82.873  79.415  1.00  0.00     0.000 C 
BRANCH  20  21
ATOM     21  C   UNL     1      99.113  81.982  79.807  1.00  0.00     0.000 C 
BRANCH  21  22
ATOM     22  C   UNL     1      99.969  82.600  80.934  1.00  0.00    -0.000 C 
BRANCH  22  23
ATOM     23  C   UNL     1      99.440  82.305  82.351  1.00  0.00    -0.000 C 
BRANCH  23  24
ATOM     24  C   UNL     1      99.362  83.528  83.281  1.00  0.00    -0.000 C 
BRANCH  24  25
ATOM     25  C   UNL     1     100.279  84.708  82.894  1.00  0.00    -0.000 C 
BRANCH  25  26
ATOM     26  C   UNL     1      99.576  86.070  82.745  1.00  0.00    -0.000 C 
BRANCH  26  27
ATOM     27  C   UNL     1     100.080  86.875  81.536  1.00  0.00    -0.000 C 
BRANCH  27  28
ATOM     28  C   UNL     1     100.304  86.002  80.288  1.00  0.00    -0.000 C 
BRANCH  28  29
ATOM     29  C   UNL     1     101.735  86.032  79.721  1.00  0.00    -0.003 C 
ATOM     30  C   UNL     1     102.759  86.594  80.707  1.00  0.00     0.004 C 
ENDBRANCH  28  29
ENDBRANCH  27  28
ENDBRANCH  26  27
ENDBRANCH  25  26
ENDBRANCH  24  25
ENDBRANCH  23  24
ENDBRANCH  22  23
ENDBRANCH  21  22
ENDBRANCH  20  21
ENDBRANCH  19  20
ENDBRANCH  18  19
ENDBRANCH  17  18
ENDBRANCH   1  17
TORSDOF 26
ENDMDL
MODEL 8
REMARK VINA RESULT:    -3.648      2.597      5.772
REMARK INTER + INTRA:         -14.786
REMARK INTER:                  -9.704
REMARK INTRA:                  -5.082
REMARK UNBOUND:                -5.593
REMARK SMILES CCCCCCCCCCCCCCCCCCCCCCCCCCCC(=O)[O-]
REMARK SMILES IDX 15 1 16 2 17 3 18 4 19 5 20 6 21 7 22 8 23 9 24 10 25 11
REMARK SMILES IDX 26 12 27 13 28 14 29 15 30 16 14 17 13 18 12 19 11 20 10 21
REMARK SMILES IDX 9 22 8 23 7 24 6 25 5 26 4 27 3 28 2 29 1 30
REMARK H PARENT
REMARK Flexibility Score: inf
ROOT
ATOM      1  C   UNL     1      97.802  89.375  79.792  1.00  0.00     0.000 C 
ENDROOT
BRANCH   1   2
ATOM      2  C   UNL     1      99.074  88.534  80.011  1.00  0.00     0.000 C 
BRANCH   2   3
ATOM      3  C   UNL     1      99.306  87.477  78.908  1.00  0.00     0.000 C 
BRANCH   3   4
ATOM      4  C   UNL     1     100.454  86.516  79.265  1.00  0.00     0.000 C 
BRANCH   4   5
ATOM      5  C   UNL     1     100.308  85.902  80.666  1.00  0.00     0.000 C 
BRANCH   5   6
ATOM      6  C   UNL     1     101.403  84.870  80.986  1.00  0.00     0.000 C 
BRANCH   6   7
ATOM      7  C   UNL     1     100.815  83.547  81.520  1.00  0.00     0.000 C 
BRANCH   7   8
ATOM      8  C   UNL     1     100.224  82.646  80.419  1.00  0.00     0.000 C 
BRANCH   8   9
ATOM      9  C   UNL     1      98.781  82.180  80.676  1.00  0.00     0.000 C 
BRANCH   9  10
ATOM     10  C   UNL     1      97.766  82.837  79.730  1.00  0.00     0.000 C 
BRANCH  10  11
ATOM     11  C   UNL     1      97.284  84.181  80.296  1.00  0.00     0.000 C 
BRANCH  11  12
ATOM     12  C   UNL     1      96.373  84.947  79.323  1.00  0.00     0.006 C 
BRANCH  12  13
ATOM     13  C   UNL     1      96.200  84.227  77.977  1.00  0.00     0.053 C 
BRANCH  13  14
ATOM     14  C   UNL     1      94.772  84.266  77.520  1.00  0.00     0.041 C 
ATOM     15  O   UNL     1      94.417  85.051  76.601  1.00  0.00    -0.550 OA
ATOM     16  O   UNL     1      93.823  83.464  78.143  1.00  0.00    -0.550 OA
ENDBRANCH  13  14
ENDBRANCH  12  13
ENDBRANCH  11  12
ENDBRANCH  10  11
ENDBRANCH   9  10
ENDBRANCH   8   9
ENDBRANCH   7   8
ENDBRANCH   6   7
ENDBRANCH   5   6
ENDBRANCH   4   5
ENDBRANCH   3   4
ENDBRANCH   2   3
ENDBRANCH   1   2
BRANCH   1  17
ATOM     17  C   UNL     1      96.560  88.538  79.415  1.00  0.00     0.000 C 
BRANCH  17  18
ATOM     18  C   UNL     1      95.905  88.961  78.089  1.00  0.00     0.000 C 
BRANCH  18  19
ATOM     19  C   UNL     1      96.270  88.033  76.919  1.00  0.00     0.000 C 
BRANCH  19  20
ATOM     20  C   UNL     1      97.238  88.690  75.924  1.00  0.00     0.000 C 
BRANCH  20  21
ATOM     21  C   UNL     1      97.423  90.195  76.185  1.00  0.00     0.000 C 
BRANCH  21  22
ATOM     22  C   UNL     1      98.827  90.698  75.783  1.00  0.00    -0.000 C 
BRANCH  22  23
ATOM     23  C   UNL     1      99.835  90.724  76.947  1.00  0.00    -0.000 C 
BRANCH  23  24
ATOM     24  C   UNL     1     101.055  89.803  76.769  1.00  0.00    -0.000 C 
BRANCH  24  25
ATOM     25  C   UNL     1     102.371  90.326  77.385  1.00  0.00    -0.000 C 
BRANCH  25  26
ATOM     26  C   UNL     1     103.180  89.293  78.190  1.00  0.00    -0.000 C 
BRANCH  26  27
ATOM     27  C   UNL     1     102.853  89.315  79.692  1.00  0.00    -0.000 C 
BRANCH  27  28
ATOM     28  C   UNL     1     103.431  88.104  80.447  1.00  0.00    -0.000 C 
BRANCH  28  29
ATOM     29  C   UNL     1     103.143  88.081  81.960  1.00  0.00    -0.003 C 
ATOM     30  C   UNL     1     101.899  88.881  82.344  1.00  0.00     0.004 C 
ENDBRANCH  28  29
ENDBRANCH  27  28
ENDBRANCH  26  27
ENDBRANCH  25  26
ENDBRANCH  24  25
ENDBRANCH  23  24
ENDBRANCH  22  23
ENDBRANCH  21  22
ENDBRANCH  20  21
ENDBRANCH  19  20
ENDBRANCH  18  19
ENDBRANCH  17  18
ENDBRANCH   1  17
TORSDOF 26
ENDMDL
MODEL 9
REMARK VINA RESULT:    -3.623      3.083      6.716
REMARK INTER + INTRA:         -14.722
REMARK INTER:                  -9.208
REMARK INTRA:                  -5.514
REMARK UNBOUND:                -5.593
REMARK SMILES CCCCCCCCCCCCCCCCCCCCCCCCCCCC(=O)[O-]
REMARK SMILES IDX 15 1 16 2 17 3 18 4 19 5 20 6 21 7 22 8 23 9 24 10 25 11
REMARK SMILES IDX 26 12 27 13 28 14 29 15 30 16 14 17 13 18 12 19 11 20 10 21
REMARK SMILES IDX 9 22 8 23 7 24 6 25 5 26 4 27 3 28 2 29 1 30
REMARK H PARENT
REMARK Flexibility Score: inf
ROOT
ATOM      1  C   UNL     1     101.665  84.665  80.887  1.00  0.00     0.000 C 
ENDROOT
BRANCH   1   2
ATOM      2  C   UNL     1     102.064  85.755  81.900  1.00  0.00     0.000 C 
BRANCH   2   3
ATOM      3  C   UNL     1     102.505  87.078  81.234  1.00  0.00     0.000 C 
BRANCH   3   4
ATOM      4  C   UNL     1     102.284  87.056  79.711  1.00  0.00     0.000 C 
BRANCH   4   5
ATOM      5  C   UNL     1     101.697  88.370  79.172  1.00  0.00     0.000 C 
BRANCH   5   6
ATOM      6  C   UNL     1     100.170  88.317  78.995  1.00  0.00     0.000 C 
BRANCH   6   7
ATOM      7  C   UNL     1      99.657  86.873  78.808  1.00  0.00     0.000 C 
BRANCH   7   8
ATOM      8  C   UNL     1      98.574  86.467  79.825  1.00  0.00     0.000 C 
BRANCH   8   9
ATOM      9  C   UNL     1      98.560  87.303  81.116  1.00  0.00     0.000 C 
BRANCH   9  10
ATOM     10  C   UNL     1      98.381  86.447  82.378  1.00  0.00     0.000 C 
BRANCH  10  11
ATOM     11  C   UNL     1      97.364  85.322  82.134  1.00  0.00     0.000 C 
BRANCH  11  12
ATOM     12  C   UNL     1      97.337  84.285  83.268  1.00  0.00     0.006 C 
BRANCH  12  13
ATOM     13  C   UNL     1      98.482  84.473  84.276  1.00  0.00     0.053 C 
BRANCH  13  14
ATOM     14  C   UNL     1      98.808  83.186  84.974  1.00  0.00     0.041 C 
ATOM     15  O   UNL     1      98.956  83.158  86.224  1.00  0.00    -0.550 OA
ATOM     16  O   UNL     1      98.994  82.024  84.234  1.00  0.00    -0.550 OA
ENDBRANCH  13  14
ENDBRANCH  12  13
ENDBRANCH  11  12
ENDBRANCH  10  11
ENDBRANCH   9  10
ENDBRANCH   8   9
ENDBRANCH   7   8
ENDBRANCH   6   7
ENDBRANCH   5   6
ENDBRANCH   4   5
ENDBRANCH   3   4
ENDBRANCH   2   3
ENDBRANCH   1   2
BRANCH   1  17
ATOM     17  C   UNL     1     100.702  83.604  81.463  1.00  0.00     0.000 C 
BRANCH  17  18
ATOM     18  C   UNL     1     100.253  82.550  80.436  1.00  0.00     0.000 C 
BRANCH  18  19
ATOM     19  C   UNL     1      98.753  82.229  80.524  1.00  0.00     0.000 C 
BRANCH  19  20
ATOM     20  C   UNL     1      98.115  81.997  79.146  1.00  0.00     0.000 C 
BRANCH  20  21
ATOM     21  C   UNL     1      96.617  81.655  79.238  1.00  0.00     0.000 C 
BRANCH  21  22
ATOM     22  C   UNL     1      95.806  82.740  79.978  1.00  0.00    -0.000 C 
BRANCH  22  23
ATOM     23  C   UNL     1      95.640  84.047  79.180  1.00  0.00    -0.000 C 
BRANCH  23  24
ATOM     24  C   UNL     1      94.557  85.001  79.715  1.00  0.00    -0.000 C 
BRANCH  24  25
ATOM     25  C   UNL     1      94.320  86.269  78.866  1.00  0.00    -0.000 C 
BRANCH  25  26
ATOM     26  C   UNL     1      94.369  87.599  79.639  1.00  0.00    -0.000 C 
BRANCH  26  27
ATOM     27  C   UNL     1      95.523  88.511  79.190  1.00  0.00    -0.000 C 
BRANCH  27  28
ATOM     28  C   UNL     1      96.128  88.087  77.839  1.00  0.00    -0.000 C 
BRANCH  28  29
ATOM     29  C   UNL     1      96.629  89.246  76.957  1.00  0.00    -0.003 C 
ATOM     30  C   UNL     1      97.448  88.774  75.757  1.00  0.00     0.004 C 
ENDBRANCH  28  29
ENDBRANCH  27  28
ENDBRANCH  26  27
ENDBRANCH  25  26
ENDBRANCH  24  25
ENDBRANCH  23  24
ENDBRANCH  22  23
ENDBRANCH  21  22
ENDBRANCH  20  21
ENDBRANCH  19  20
ENDBRANCH  18  19
ENDBRANCH  17  18
ENDBRANCH   1  17
TORSDOF 26
ENDMDL
