MODEL 1
REMARK VINA RESULT:    -3.934      0.000      0.000
REMARK INTER + INTRA:          -4.678
REMARK INTER:                  -4.624
REMARK INTRA:                  -0.054
REMARK UNBOUND:                -0.054
REMARK SMILES O=C([O-])CCC(=O)[O-]
REMARK SMILES IDX 4 1 2 2 1 3 3 4 5 5 6 6 7 7 8 8
REMARK H PARENT
REMARK Flexibility Score: inf
ROOT
ATOM      1  C   UNL     1      13.134  19.443   1.530  1.00  0.00     0.059 C 
ENDROOT
BRANCH   1   2
ATOM      2  C   UNL     1      12.872  20.471   2.588  1.00  0.00     0.042 C 
ATOM      3  O   UNL     1      13.737  20.708   3.470  1.00  0.00    -0.550 OA
ATOM      4  O   UNL     1      11.654  21.139   2.621  1.00  0.00    -0.550 OA
ENDBRANCH   1   2
BRANCH   1   5
ATOM      5  C   UNL     1      14.506  18.784   1.711  1.00  0.00     0.059 C 
BRANCH   5   6
ATOM      6  C   UNL     1      15.280  18.759   0.429  1.00  0.00     0.042 C 
ATOM      7  O   UNL     1      16.534  18.646   0.448  1.00  0.00    -0.550 OA
ATOM      8  O   UNL     1      14.613  18.817  -0.788  1.00  0.00    -0.550 OA
ENDBRANCH   5   6
ENDBRANCH   1   5
TORSDOF 3
ENDMDL
MODEL 2
REMARK VINA RESULT:    -3.930      3.148      4.120
REMARK INTER + INTRA:          -4.674
REMARK INTER:                  -4.617
REMARK INTRA:                  -0.057
REMARK UNBOUND:                -0.054
REMARK SMILES O=C([O-])CCC(=O)[O-]
REMARK SMILES IDX 4 1 2 2 1 3 3 4 5 5 6 6 7 7 8 8
REMARK H PARENT
REMARK Flexibility Score: inf
ROOT
ATOM      1  C   UNL     1      15.717  22.127  -0.468  1.00  0.00     0.059 C 
ENDROOT
BRANCH   1   2
ATOM      2  C   UNL     1      14.678  22.433  -1.504  1.00  0.00     0.042 C 
ATOM      3  O   UNL     1      14.295  21.539  -2.302  1.00  0.00    -0.550 OA
ATOM      4  O   UNL     1      14.162  23.719  -1.612  1.00  0.00    -0.550 OA
ENDBRANCH   1   2
BRANCH   1   5
ATOM      5  C   UNL     1      16.393  20.777  -0.729  1.00  0.00     0.059 C 
BRANCH   5   6
ATOM      6  C   UNL     1      16.432  19.932   0.507  1.00  0.00     0.042 C 
ATOM      7  O   UNL     1      16.517  18.678   0.415  1.00  0.00    -0.550 OA
ATOM      8  O   UNL     1      16.418  20.529   1.760  1.00  0.00    -0.550 OA
ENDBRANCH   5   6
ENDBRANCH   1   5
TORSDOF 3
ENDMDL
MODEL 3
REMARK VINA RESULT:    -3.927      3.139      4.427
REMARK INTER + INTRA:          -4.670
REMARK INTER:                  -4.606
REMARK INTRA:                  -0.064
REMARK UNBOUND:                -0.054
REMARK SMILES O=C([O-])CCC(=O)[O-]
REMARK SMILES IDX 4 1 2 2 1 3 3 4 5 5 6 6 7 7 8 8
REMARK H PARENT
REMARK Flexibility Score: inf
ROOT
ATOM      1  C   UNL     1      16.444  20.754  -0.750  1.00  0.00     0.059 C 
ENDROOT
BRANCH   1   2
ATOM      2  C   UNL     1      16.456  19.939   0.507  1.00  0.00     0.042 C 
ATOM      3  O   UNL     1      16.410  18.683   0.448  1.00  0.00    -0.550 OA
ATOM      4  O   UNL     1      16.479  20.569   1.745  1.00  0.00    -0.550 OA
ENDBRANCH   1   2
BRANCH   1   5
ATOM      5  C   UNL     1      15.806  22.130  -0.523  1.00  0.00     0.059 C 
BRANCH   5   6
ATOM      6  C   UNL     1      14.660  22.367  -1.459  1.00  0.00     0.042 C 
ATOM      7  O   UNL     1      14.256  23.540  -1.679  1.00  0.00    -0.550 OA
ATOM      8  O   UNL     1      14.066  21.299  -2.118  1.00  0.00    -0.550 OA
ENDBRANCH   5   6
ENDBRANCH   1   5
TORSDOF 3
ENDMDL
MODEL 4
REMARK VINA RESULT:    -3.922      0.378      4.207
REMARK INTER + INTRA:          -4.664
REMARK INTER:                  -4.591
REMARK INTRA:                  -0.074
REMARK UNBOUND:                -0.054
REMARK SMILES O=C([O-])CCC(=O)[O-]
REMARK SMILES IDX 4 1 2 2 1 3 3 4 5 5 6 6 7 7 8 8
REMARK H PARENT
REMARK Flexibility Score: inf
ROOT
ATOM      1  C   UNL     1      14.548  18.855   1.697  1.00  0.00     0.059 C 
ENDROOT
BRANCH   1   2
ATOM      2  C   UNL     1      15.308  18.843   0.406  1.00  0.00     0.042 C 
ATOM      3  O   UNL     1      14.693  18.801  -0.691  1.00  0.00    -0.550 OA
ATOM      4  O   UNL     1      16.697  18.836   0.418  1.00  0.00    -0.550 OA
ENDBRANCH   1   2
BRANCH   1   5
ATOM      5  C   UNL     1      13.106  19.334   1.498  1.00  0.00     0.059 C 
BRANCH   5   6
ATOM      6  C   UNL     1      12.817  20.565   2.302  1.00  0.00     0.042 C 
ATOM      7  O   UNL     1      11.628  20.884   2.568  1.00  0.00    -0.550 OA
ATOM      8  O   UNL     1      13.863  21.338   2.792  1.00  0.00    -0.550 OA
ENDBRANCH   5   6
ENDBRANCH   1   5
TORSDOF 3
ENDMDL
MODEL 5
REMARK VINA RESULT:    -3.916      9.015     10.567
REMARK INTER + INTRA:          -4.657
REMARK INTER:                  -4.601
REMARK INTRA:                  -0.056
REMARK UNBOUND:                -0.054
REMARK SMILES O=C([O-])CCC(=O)[O-]
REMARK SMILES IDX 4 1 2 2 1 3 3 4 5 5 6 6 7 7 8 8
REMARK H PARENT
REMARK Flexibility Score: inf
ROOT
ATOM      1  C   UNL     1      22.954  14.344   3.768  1.00  0.00     0.059 C 
ENDROOT
BRANCH   1   2
ATOM      2  C   UNL     1      22.760  12.866   3.923  1.00  0.00     0.042 C 
ATOM      3  O   UNL     1      23.410  12.229   4.793  1.00  0.00    -0.550 OA
ATOM      4  O   UNL     1      21.891  12.187   3.079  1.00  0.00    -0.550 OA
ENDBRANCH   1   2
BRANCH   1   5
ATOM      5  C   UNL     1      23.169  14.734   2.302  1.00  0.00     0.059 C 
BRANCH   5   6
ATOM      6  C   UNL     1      22.369  15.944   1.930  1.00  0.00     0.042 C 
ATOM      7  O   UNL     1      21.883  16.683   2.827  1.00  0.00    -0.550 OA
ATOM      8  O   UNL     1      22.194  16.280   0.593  1.00  0.00    -0.550 OA
ENDBRANCH   5   6
ENDBRANCH   1   5
TORSDOF 3
ENDMDL
MODEL 6
REMARK VINA RESULT:    -3.913      1.679      1.831
REMARK INTER + INTRA:          -4.654
REMARK INTER:                  -4.539
REMARK INTRA:                  -0.115
REMARK UNBOUND:                -0.054
REMARK SMILES O=C([O-])CCC(=O)[O-]
REMARK SMILES IDX 4 1 2 2 1 3 3 4 5 5 6 6 7 7 8 8
REMARK H PARENT
REMARK Flexibility Score: inf
ROOT
ATOM      1  C   UNL     1      14.274  20.621   1.174  1.00  0.00     0.059 C 
ENDROOT
BRANCH   1   2
ATOM      2  C   UNL     1      13.988  20.084   2.543  1.00  0.00     0.042 C 
ATOM      3  O   UNL     1      14.607  19.076   2.971  1.00  0.00    -0.550 OA
ATOM      4  O   UNL     1      13.006  20.675   3.329  1.00  0.00    -0.550 OA
ENDBRANCH   1   2
BRANCH   1   5
ATOM      5  C   UNL     1      15.764  20.931   0.990  1.00  0.00     0.059 C 
BRANCH   5   6
ATOM      6  C   UNL     1      16.414  19.971   0.040  1.00  0.00     0.042 C 
ATOM      7  O   UNL     1      16.717  18.810   0.422  1.00  0.00    -0.550 OA
ATOM      8  O   UNL     1      16.647  20.345  -1.277  1.00  0.00    -0.550 OA
ENDBRANCH   5   6
ENDBRANCH   1   5
TORSDOF 3
ENDMDL
MODEL 7
REMARK VINA RESULT:    -3.913      0.426      4.040
REMARK INTER + INTRA:          -4.653
REMARK INTER:                  -4.580
REMARK INTRA:                  -0.074
REMARK UNBOUND:                -0.054
REMARK SMILES O=C([O-])CCC(=O)[O-]
REMARK SMILES IDX 4 1 2 2 1 3 3 4 5 5 6 6 7 7 8 8
REMARK H PARENT
REMARK Flexibility Score: inf
ROOT
ATOM      1  C   UNL     1      14.521  18.875   1.733  1.00  0.00     0.059 C 
ENDROOT
BRANCH   1   2
ATOM      2  C   UNL     1      15.293  18.797   0.451  1.00  0.00     0.042 C 
ATOM      3  O   UNL     1      16.551  18.759   0.469  1.00  0.00    -0.550 OA
ATOM      4  O   UNL     1      14.623  18.808  -0.766  1.00  0.00    -0.550 OA
ENDBRANCH   1   2
BRANCH   1   5
ATOM      5  C   UNL     1      13.079  19.338   1.496  1.00  0.00     0.059 C 
BRANCH   5   6
ATOM      6  C   UNL     1      12.775  20.599   2.245  1.00  0.00     0.042 C 
ATOM      7  O   UNL     1      11.585  20.890   2.538  1.00  0.00    -0.550 OA
ATOM      8  O   UNL     1      13.807  21.433   2.655  1.00  0.00    -0.550 OA
ENDBRANCH   5   6
ENDBRANCH   1   5
TORSDOF 3
ENDMDL
MODEL 8
REMARK VINA RESULT:    -3.903      2.535      3.776
REMARK INTER + INTRA:          -4.642
REMARK INTER:                  -4.536
REMARK INTRA:                  -0.106
REMARK UNBOUND:                -0.054
REMARK SMILES O=C([O-])CCC(=O)[O-]
REMARK SMILES IDX 4 1 2 2 1 3 3 4 5 5 6 6 7 7 8 8
REMARK H PARENT
REMARK Flexibility Score: inf
ROOT
ATOM      1  C   UNL     1      14.250  20.747  -0.437  1.00  0.00     0.059 C 
ENDROOT
BRANCH   1   2
ATOM      2  C   UNL     1      14.960  21.334  -1.619  1.00  0.00     0.042 C 
ATOM      3  O   UNL     1      15.969  20.758  -2.102  1.00  0.00    -0.550 OA
ATOM      4  O   UNL     1      14.529  22.538  -2.160  1.00  0.00    -0.550 OA
ENDBRANCH   1   2
BRANCH   1   5
ATOM      5  C   UNL     1      14.407  19.223  -0.384  1.00  0.00     0.059 C 
BRANCH   5   6
ATOM      6  C   UNL     1      15.338  18.802   0.711  1.00  0.00     0.042 C 
ATOM      7  O   UNL     1      14.882  18.468   1.837  1.00  0.00    -0.550 OA
ATOM      8  O   UNL     1      16.706  18.738   0.477  1.00  0.00    -0.550 OA
ENDBRANCH   5   6
ENDBRANCH   1   5
TORSDOF 3
ENDMDL
MODEL 9
REMARK VINA RESULT:    -3.902      2.492      3.585
REMARK INTER + INTRA:          -4.641
REMARK INTER:                  -4.534
REMARK INTRA:                  -0.106
REMARK UNBOUND:                -0.054
REMARK SMILES O=C([O-])CCC(=O)[O-]
REMARK SMILES IDX 4 1 2 2 1 3 3 4 5 5 6 6 7 7 8 8
REMARK H PARENT
REMARK Flexibility Score: inf
ROOT
ATOM      1  C   UNL     1      14.375  19.282  -0.291  1.00  0.00     0.059 C 
ENDROOT
BRANCH   1   2
ATOM      2  C   UNL     1      15.355  18.804   0.736  1.00  0.00     0.042 C 
ATOM      3  O   UNL     1      16.572  18.678   0.442  1.00  0.00    -0.550 OA
ATOM      4  O   UNL     1      14.916  18.459   2.008  1.00  0.00    -0.550 OA
ENDBRANCH   1   2
BRANCH   1   5
ATOM      5  C   UNL     1      14.324  20.813  -0.352  1.00  0.00     0.059 C 
BRANCH   5   6
ATOM      6  C   UNL     1      14.969  21.338  -1.598  1.00  0.00     0.042 C 
ATOM      7  O   UNL     1      15.929  20.715  -2.125  1.00  0.00    -0.550 OA
ATOM      8  O   UNL     1      14.483  22.491  -2.202  1.00  0.00    -0.550 OA
ENDBRANCH   5   6
ENDBRANCH   1   5
TORSDOF 3
ENDMDL
