MODEL 1
REMARK VINA RESULT:    -4.364      0.000      0.000
REMARK INTER + INTRA:          -5.451
REMARK INTER:                  -5.256
REMARK INTRA:                  -0.195
REMARK UNBOUND:                -0.195
REMARK SMILES C=CCc1ccc(O)c(OC)c1
REMARK SMILES IDX 9 1 7 2 6 3 5 4 4 5 12 6 10 7 11 8 8 9 3 11 2 12 1 13
REMARK H PARENT 8 10
REMARK Flexibility Score: inf
ROOT
ATOM      1  C   UNL     1     165.151 180.528 163.807  1.00  0.00     0.160 A 
ATOM      2  C   UNL     1     164.855 181.653 164.591  1.00  0.00     0.157 A 
ATOM      3  C   UNL     1     164.204 182.754 164.021  1.00  0.00     0.050 A 
ATOM      4  C   UNL     1     163.844 182.740 162.672  1.00  0.00     0.008 A 
ATOM      5  C   UNL     1     164.123 181.618 161.878  1.00  0.00    -0.040 A 
ATOM      6  C   UNL     1     164.784 180.517 162.447  1.00  0.00     0.054 A 
ENDROOT
BRANCH   1   7
ATOM      7  O   UNL     1     165.808 179.445 164.413  1.00  0.00    -0.493 OA
ATOM      8  C   UNL     1     165.754 178.102 163.942  1.00  0.00     0.278 C 
ENDBRANCH   1   7
BRANCH   2   9
ATOM      9  O   UNL     1     165.214 181.669 165.937  1.00  0.00    -0.504 OA
ATOM     10  H   UNL     1     166.179 181.565 166.230  1.00  0.00     0.293 HD
ENDBRANCH   2   9
BRANCH   5  11
ATOM     11  C   UNL     1     163.761 181.610 160.417  1.00  0.00     0.062 C 
BRANCH  11  12
ATOM     12  C   UNL     1     164.960 181.282 159.573  1.00  0.00    -0.030 C 
ATOM     13  C   UNL     1     164.885 180.431 158.545  1.00  0.00     0.004 C 
ENDBRANCH  11  12
ENDBRANCH   5  11
TORSDOF 4
ENDMDL
MODEL 2
REMARK VINA RESULT:    -4.348     20.652     23.131
REMARK INTER + INTRA:          -5.433
REMARK INTER:                  -5.238
REMARK INTRA:                  -0.195
REMARK UNBOUND:                -0.195
REMARK SMILES C=CCc1ccc(O)c(OC)c1
REMARK SMILES IDX 9 1 7 2 6 3 5 4 4 5 12 6 10 7 11 8 8 9 3 11 2 12 1 13
REMARK H PARENT 8 10
REMARK Flexibility Score: inf
ROOT
ATOM      1  C   UNL     1     180.473 165.160 163.849  1.00  0.00     0.160 A 
ATOM      2  C   UNL     1     180.776 164.043 164.641  1.00  0.00     0.157 A 
ATOM      3  C   UNL     1     181.433 162.941 164.080  1.00  0.00     0.050 A 
ATOM      4  C   UNL     1     181.795 162.947 162.731  1.00  0.00     0.008 A 
ATOM      5  C   UNL     1     181.510 164.062 161.929  1.00  0.00    -0.040 A 
ATOM      6  C   UNL     1     180.842 165.163 162.489  1.00  0.00     0.054 A 
ENDROOT
BRANCH   1   7
ATOM      7  O   UNL     1     179.810 166.243 164.446  1.00  0.00    -0.493 OA
ATOM      8  C   UNL     1     180.035 167.610 164.115  1.00  0.00     0.278 C 
ENDBRANCH   1   7
BRANCH   2   9
ATOM      9  O   UNL     1     180.416 164.035 165.987  1.00  0.00    -0.504 OA
ATOM     10  H   UNL     1     180.057 163.199 166.435  1.00  0.00     0.293 HD
ENDBRANCH   2   9
BRANCH   5  11
ATOM     11  C   UNL     1     181.873 164.061 160.468  1.00  0.00     0.062 C 
BRANCH  11  12
ATOM     12  C   UNL     1     180.715 164.528 159.631  1.00  0.00    -0.030 C 
ATOM     13  C   UNL     1     180.897 165.246 158.518  1.00  0.00     0.004 C 
ENDBRANCH  11  12
ENDBRANCH   5  11
TORSDOF 4
ENDMDL
MODEL 3
REMARK VINA RESULT:    -4.196     20.244     22.810
REMARK INTER + INTRA:          -5.249
REMARK INTER:                  -5.048
REMARK INTRA:                  -0.202
REMARK UNBOUND:                -0.195
REMARK SMILES C=CCc1ccc(O)c(OC)c1
REMARK SMILES IDX 9 1 7 2 6 3 5 4 4 5 12 6 10 7 11 8 8 9 3 11 2 12 1 13
REMARK H PARENT 8 10
REMARK Flexibility Score: inf
ROOT
ATOM      1  C   UNL     1     179.814 165.006 163.645  1.00  0.00     0.160 A 
ATOM      2  C   UNL     1     180.536 164.231 164.565  1.00  0.00     0.157 A 
ATOM      3  C   UNL     1     181.588 163.418 164.125  1.00  0.00     0.050 A 
ATOM      4  C   UNL     1     181.929 163.375 162.772  1.00  0.00     0.008 A 
ATOM      5  C   UNL     1     181.224 164.152 161.841  1.00  0.00    -0.040 A 
ATOM      6  C   UNL     1     180.162 164.960 162.280  1.00  0.00     0.054 A 
ENDROOT
BRANCH   1   7
ATOM      7  O   UNL     1     178.763 165.805 164.123  1.00  0.00    -0.493 OA
ATOM      8  C   UNL     1     177.468 165.871 163.534  1.00  0.00     0.278 C 
ENDBRANCH   1   7
BRANCH   2   9
ATOM      9  O   UNL     1     180.198 164.273 165.916  1.00  0.00    -0.504 OA
ATOM     10  H   UNL     1     179.808 163.467 166.391  1.00  0.00     0.293 HD
ENDBRANCH   2   9
BRANCH   5  11
ATOM     11  C   UNL     1     181.569 164.087 160.378  1.00  0.00     0.062 C 
BRANCH  11  12
ATOM     12  C   UNL     1     180.439 164.615 159.540  1.00  0.00    -0.030 C 
ATOM     13  C   UNL     1     180.656 165.413 158.489  1.00  0.00     0.004 C 
ENDBRANCH  11  12
ENDBRANCH   5  11
TORSDOF 4
ENDMDL
MODEL 4
REMARK VINA RESULT:    -4.047     20.545     21.388
REMARK INTER + INTRA:          -5.070
REMARK INTER:                  -4.799
REMARK INTRA:                  -0.271
REMARK UNBOUND:                -0.195
REMARK SMILES C=CCc1ccc(O)c(OC)c1
REMARK SMILES IDX 9 1 7 2 6 3 5 4 4 5 12 6 10 7 11 8 8 9 3 11 2 12 1 13
REMARK H PARENT 8 10
REMARK Flexibility Score: inf
ROOT
ATOM      1  C   UNL     1     181.793 170.506 168.036  1.00  0.00     0.160 A 
ATOM      2  C   UNL     1     181.695 171.419 169.096  1.00  0.00     0.157 A 
ATOM      3  C   UNL     1     180.999 171.073 170.261  1.00  0.00     0.050 A 
ATOM      4  C   UNL     1     180.401 169.817 170.378  1.00  0.00     0.008 A 
ATOM      5  C   UNL     1     180.499 168.887 169.332  1.00  0.00    -0.040 A 
ATOM      6  C   UNL     1     181.188 169.238 168.159  1.00  0.00     0.054 A 
ENDROOT
BRANCH   1   7
ATOM      7  O   UNL     1     182.494 170.891 166.883  1.00  0.00    -0.493 OA
ATOM      8  C   UNL     1     182.316 170.306 165.597  1.00  0.00     0.278 C 
ENDBRANCH   1   7
BRANCH   2   9
ATOM      9  O   UNL     1     182.291 172.673 168.981  1.00  0.00    -0.504 OA
ATOM     10  H   UNL     1     181.789 173.523 169.212  1.00  0.00     0.293 HD
ENDBRANCH   2   9
BRANCH   5  11
ATOM     11  C   UNL     1     179.832 167.543 169.443  1.00  0.00     0.062 C 
BRANCH  11  12
ATOM     12  C   UNL     1     180.471 166.718 170.524  1.00  0.00    -0.030 C 
ATOM     13  C   UNL     1     181.728 166.274 170.420  1.00  0.00     0.004 C 
ENDBRANCH  11  12
ENDBRANCH   5  11
TORSDOF 4
ENDMDL
MODEL 5
REMARK VINA RESULT:    -4.039      7.421      9.128
REMARK INTER + INTRA:          -5.060
REMARK INTER:                  -4.821
REMARK INTRA:                  -0.239
REMARK UNBOUND:                -0.195
REMARK SMILES C=CCc1ccc(O)c(OC)c1
REMARK SMILES IDX 9 1 7 2 6 3 5 4 4 5 12 6 10 7 11 8 8 9 3 11 2 12 1 13
REMARK H PARENT 8 10
REMARK Flexibility Score: inf
ROOT
ATOM      1  C   UNL     1     164.004 178.452 170.737  1.00  0.00     0.160 A 
ATOM      2  C   UNL     1     164.023 177.862 172.009  1.00  0.00     0.157 A 
ATOM      3  C   UNL     1     164.386 176.518 172.156  1.00  0.00     0.050 A 
ATOM      4  C   UNL     1     164.735 175.756 171.039  1.00  0.00     0.008 A 
ATOM      5  C   UNL     1     164.733 176.334 169.761  1.00  0.00    -0.040 A 
ATOM      6  C   UNL     1     164.358 177.680 169.612  1.00  0.00     0.054 A 
ENDROOT
BRANCH   1   7
ATOM      7  O   UNL     1     163.630 179.801 170.630  1.00  0.00    -0.493 OA
ATOM      8  C   UNL     1     163.984 180.652 169.545  1.00  0.00     0.278 C 
ENDBRANCH   1   7
BRANCH   2   9
ATOM      9  O   UNL     1     163.674 178.621 173.125  1.00  0.00    -0.504 OA
ATOM     10  H   UNL     1     162.705 178.785 173.374  1.00  0.00     0.293 HD
ENDBRANCH   2   9
BRANCH   5  11
ATOM     11  C   UNL     1     165.081 175.508 168.551  1.00  0.00     0.062 C 
BRANCH  11  12
ATOM     12  C   UNL     1     163.838 174.992 167.882  1.00  0.00    -0.030 C 
ATOM     13  C   UNL     1     163.369 173.764 168.122  1.00  0.00     0.004 C 
ENDBRANCH  11  12
ENDBRANCH   5  11
TORSDOF 4
ENDMDL
MODEL 6
REMARK VINA RESULT:    -4.036     20.757     22.249
REMARK INTER + INTRA:          -5.057
REMARK INTER:                  -4.794
REMARK INTRA:                  -0.263
REMARK UNBOUND:                -0.195
REMARK SMILES C=CCc1ccc(O)c(OC)c1
REMARK SMILES IDX 9 1 7 2 6 3 5 4 4 5 12 6 10 7 11 8 8 9 3 11 2 12 1 13
REMARK H PARENT 8 10
REMARK Flexibility Score: inf
ROOT
ATOM      1  C   UNL     1     181.613 167.267 170.754  1.00  0.00     0.160 A 
ATOM      2  C   UNL     1     181.610 167.784 172.058  1.00  0.00     0.157 A 
ATOM      3  C   UNL     1     181.251 169.119 172.284  1.00  0.00     0.050 A 
ATOM      4  C   UNL     1     180.890 169.943 171.216  1.00  0.00     0.008 A 
ATOM      5  C   UNL     1     180.877 169.438 169.907  1.00  0.00    -0.040 A 
ATOM      6  C   UNL     1     181.247 168.102 169.679  1.00  0.00     0.054 A 
ENDROOT
BRANCH   1   7
ATOM      7  O   UNL     1     181.984 165.926 170.567  1.00  0.00    -0.493 OA
ATOM      8  C   UNL     1     181.563 165.118 169.473  1.00  0.00     0.278 C 
ENDBRANCH   1   7
BRANCH   2   9
ATOM      9  O   UNL     1     181.969 166.964 173.125  1.00  0.00    -0.504 OA
ATOM     10  H   UNL     1     181.273 166.541 173.728  1.00  0.00     0.293 HD
ENDBRANCH   2   9
BRANCH   5  11
ATOM     11  C   UNL     1     180.517 170.331 168.750  1.00  0.00     0.062 C 
BRANCH  11  12
ATOM     12  C   UNL     1     181.190 171.668 168.879  1.00  0.00    -0.030 C 
ATOM     13  C   UNL     1     182.367 171.921 168.297  1.00  0.00     0.004 C 
ENDBRANCH  11  12
ENDBRANCH   5  11
TORSDOF 4
ENDMDL
MODEL 7
REMARK VINA RESULT:    -3.932      6.731      8.607
REMARK INTER + INTRA:          -4.931
REMARK INTER:                  -4.718
REMARK INTRA:                  -0.213
REMARK UNBOUND:                -0.195
REMARK SMILES C=CCc1ccc(O)c(OC)c1
REMARK SMILES IDX 9 1 7 2 6 3 5 4 4 5 12 6 10 7 11 8 8 9 3 11 2 12 1 13
REMARK H PARENT 8 10
REMARK Flexibility Score: inf
ROOT
ATOM      1  C   UNL     1     164.666 176.610 169.397  1.00  0.00     0.160 A 
ATOM      2  C   UNL     1     164.717 175.924 170.619  1.00  0.00     0.157 A 
ATOM      3  C   UNL     1     164.449 176.600 171.816  1.00  0.00     0.050 A 
ATOM      4  C   UNL     1     164.125 177.958 171.803  1.00  0.00     0.008 A 
ATOM      5  C   UNL     1     164.059 178.656 170.588  1.00  0.00    -0.040 A 
ATOM      6  C   UNL     1     164.338 177.981 169.388  1.00  0.00     0.054 A 
ENDROOT
BRANCH   1   7
ATOM      7  O   UNL     1     164.946 175.900 168.219  1.00  0.00    -0.493 OA
ATOM      8  C   UNL     1     163.964 175.489 167.273  1.00  0.00     0.278 C 
ENDBRANCH   1   7
BRANCH   2   9
ATOM      9  O   UNL     1     165.039 174.569 170.635  1.00  0.00    -0.504 OA
ATOM     10  H   UNL     1     165.440 174.109 169.826  1.00  0.00     0.293 HD
ENDBRANCH   2   9
BRANCH   5  11
ATOM     11  C   UNL     1     163.739 180.127 170.571  1.00  0.00     0.062 C 
BRANCH  11  12
ATOM     12  C   UNL     1     164.064 180.727 169.232  1.00  0.00    -0.030 C 
ATOM     13  C   UNL     1     163.330 181.714 168.707  1.00  0.00     0.004 C 
ENDBRANCH  11  12
ENDBRANCH   5  11
TORSDOF 4
ENDMDL
MODEL 8
REMARK VINA RESULT:    -3.913     19.978     22.842
REMARK INTER + INTRA:          -4.908
REMARK INTER:                  -4.697
REMARK INTRA:                  -0.211
REMARK UNBOUND:                -0.195
REMARK SMILES C=CCc1ccc(O)c(OC)c1
REMARK SMILES IDX 9 1 7 2 6 3 5 4 4 5 12 6 10 7 11 8 8 9 3 11 2 12 1 13
REMARK H PARENT 8 10
REMARK Flexibility Score: inf
ROOT
ATOM      1  C   UNL     1     180.924 168.586 169.560  1.00  0.00     0.160 A 
ATOM      2  C   UNL     1     181.009 169.244 170.796  1.00  0.00     0.157 A 
ATOM      3  C   UNL     1     181.415 168.543 171.939  1.00  0.00     0.050 A 
ATOM      4  C   UNL     1     181.741 167.188 171.856  1.00  0.00     0.008 A 
ATOM      5  C   UNL     1     181.671 166.518 170.626  1.00  0.00    -0.040 A 
ATOM      6  C   UNL     1     181.255 167.219 169.482  1.00  0.00     0.054 A 
ENDROOT
BRANCH   1   7
ATOM      7  O   UNL     1     180.508 169.321 168.439  1.00  0.00    -0.493 OA
ATOM      8  C   UNL     1     179.246 169.170 167.797  1.00  0.00     0.278 C 
ENDBRANCH   1   7
BRANCH   2   9
ATOM      9  O   UNL     1     180.685 170.596 170.881  1.00  0.00    -0.504 OA
ATOM     10  H   UNL     1     180.834 171.228 170.102  1.00  0.00     0.293 HD
ENDBRANCH   2   9
BRANCH   5  11
ATOM     11  C   UNL     1     181.994 165.051 170.538  1.00  0.00     0.062 C 
BRANCH  11  12
ATOM     12  C   UNL     1     181.880 164.564 169.120  1.00  0.00    -0.030 C 
ATOM     13  C   UNL     1     182.659 163.586 168.648  1.00  0.00     0.004 C 
ENDBRANCH  11  12
ENDBRANCH   5  11
TORSDOF 4
ENDMDL
MODEL 9
REMARK VINA RESULT:    -3.885      7.194      8.869
REMARK INTER + INTRA:          -4.875
REMARK INTER:                  -4.629
REMARK INTRA:                  -0.246
REMARK UNBOUND:                -0.195
REMARK SMILES C=CCc1ccc(O)c(OC)c1
REMARK SMILES IDX 9 1 7 2 6 3 5 4 4 5 12 6 10 7 11 8 8 9 3 11 2 12 1 13
REMARK H PARENT 8 10
REMARK Flexibility Score: inf
ROOT
ATOM      1  C   UNL     1     164.999 177.733 170.958  1.00  0.00     0.160 A 
ATOM      2  C   UNL     1     165.306 178.591 169.892  1.00  0.00     0.157 A 
ATOM      3  C   UNL     1     165.429 178.082 168.593  1.00  0.00     0.050 A 
ATOM      4  C   UNL     1     165.245 176.720 168.349  1.00  0.00     0.008 A 
ATOM      5  C   UNL     1     164.927 175.850 169.403  1.00  0.00    -0.040 A 
ATOM      6  C   UNL     1     164.813 176.358 170.707  1.00  0.00     0.054 A 
ENDROOT
BRANCH   1   7
ATOM      7  O   UNL     1     164.888 178.279 172.246  1.00  0.00    -0.493 OA
ATOM      8  C   UNL     1     163.675 178.356 172.988  1.00  0.00     0.278 C 
ENDBRANCH   1   7
BRANCH   2   9
ATOM      9  O   UNL     1     165.490 179.951 170.133  1.00  0.00    -0.504 OA
ATOM     10  H   UNL     1     164.748 180.528 170.515  1.00  0.00     0.293 HD
ENDBRANCH   2   9
BRANCH   5  11
ATOM     11  C   UNL     1     164.756 174.376 169.148  1.00  0.00     0.062 C 
BRANCH  11  12
ATOM     12  C   UNL     1     164.070 174.139 167.832  1.00  0.00    -0.030 C 
ATOM     13  C   UNL     1     162.878 173.538 167.759  1.00  0.00     0.004 C 
ENDBRANCH  11  12
ENDBRANCH   5  11
TORSDOF 4
ENDMDL
