MODEL 1
REMARK VINA RESULT:    -4.492      0.000      0.000
REMARK INTER + INTRA:          -8.103
REMARK INTER:                  -6.987
REMARK INTRA:                  -1.116
REMARK UNBOUND:                -1.116
REMARK SMILES COc1cc(CNC(=O)CCCCC=CC(C)C)ccc1O
REMARK SMILES IDX 11 1 12 2 13 3 14 4 15 5 16 6 17 7 18 8 10 9 8 10 9 11 7 12
REMARK SMILES IDX 6 14 5 15 4 16 19 17 3 18 20 19 21 20 2 21 1 22 22 23
REMARK H PARENT 7 13 22 24
REMARK Flexibility Score: inf
ROOT
ATOM      1  C   UNL     1     185.875 192.047 209.472  1.00  0.00     0.010 C 
ENDROOT
BRANCH   1   2
ATOM      2  C   UNL     1     184.949 193.063 208.778  1.00  0.00     0.005 C 
BRANCH   2   3
ATOM      3  C   UNL     1     184.543 192.667 207.346  1.00  0.00     0.027 C 
BRANCH   3   4
ATOM      4  C   UNL     1     185.000 193.663 206.306  1.00  0.00    -0.031 C 
ATOM      5  C   UNL     1     186.239 193.730 205.782  1.00  0.00    -0.028 C 
BRANCH   5   6
ATOM      6  C   UNL     1     187.394 192.819 206.140  1.00  0.00     0.005 C 
ATOM      7  C   UNL     1     187.260 191.497 205.380  1.00  0.00     0.012 C 
ATOM      8  C   UNL     1     188.718 193.506 205.791  1.00  0.00     0.012 C 
ENDBRANCH   5   6
ENDBRANCH   3   4
ENDBRANCH   2   3
ENDBRANCH   1   2
BRANCH   1   9
ATOM      9  C   UNL     1     187.009 192.719 210.255  1.00  0.00     0.100 C 
BRANCH   9  10
ATOM     10  C   UNL     1     188.323 192.481 209.575  1.00  0.00     0.220 C 
ATOM     11  O   UNL     1     188.596 191.332 209.134  1.00  0.00    -0.275 OA
ATOM     12  N   UNL     1     189.280 193.546 209.470  1.00  0.00    -0.352 N 
ATOM     13  H   UNL     1     189.041 194.484 209.868  1.00  0.00     0.163 HD
BRANCH  12  14
ATOM     14  C   UNL     1     190.587 193.368 208.841  1.00  0.00     0.151 C 
BRANCH  14  15
ATOM     15  C   UNL     1     191.686 193.643 209.830  1.00  0.00    -0.025 A 
ATOM     16  C   UNL     1     192.667 194.604 209.539  1.00  0.00     0.056 A 
ATOM     17  C   UNL     1     191.753 192.933 211.038  1.00  0.00     0.009 A 
ATOM     18  C   UNL     1     193.712 194.859 210.450  1.00  0.00     0.160 A 
ATOM     19  C   UNL     1     192.782 193.187 211.946  1.00  0.00     0.050 A 
ATOM     20  C   UNL     1     193.761 194.146 211.656  1.00  0.00     0.157 A 
BRANCH  18  21
ATOM     21  O   UNL     1     194.715 195.807 210.192  1.00  0.00    -0.493 OA
ATOM     22  C   UNL     1     194.807 196.577 208.997  1.00  0.00     0.278 C 
ENDBRANCH  18  21
BRANCH  20  23
ATOM     23  O   UNL     1     194.788 194.396 212.565  1.00  0.00    -0.504 OA
ATOM     24  H   UNL     1     194.648 194.295 213.563  1.00  0.00     0.293 HD
ENDBRANCH  20  23
ENDBRANCH  14  15
ENDBRANCH  12  14
ENDBRANCH   9  10
ENDBRANCH   1   9
TORSDOF 10
ENDMDL
MODEL 2
REMARK VINA RESULT:    -4.373      3.500      7.693
REMARK INTER + INTRA:          -7.918
REMARK INTER:                  -5.798
REMARK INTRA:                  -2.120
REMARK UNBOUND:                -1.116
REMARK SMILES COc1cc(CNC(=O)CCCCC=CC(C)C)ccc1O
REMARK SMILES IDX 11 1 12 2 13 3 14 4 15 5 16 6 17 7 18 8 10 9 8 10 9 11 7 12
REMARK SMILES IDX 6 14 5 15 4 16 19 17 3 18 20 19 21 20 2 21 1 22 22 23
REMARK H PARENT 7 13 22 24
REMARK Flexibility Score: inf
ROOT
ATOM      1  C   UNL     1     189.960 191.297 209.902  1.00  0.00     0.010 C 
ENDROOT
BRANCH   1   2
ATOM      2  C   UNL     1     191.040 191.537 208.830  1.00  0.00     0.005 C 
BRANCH   2   3
ATOM      3  C   UNL     1     191.107 192.989 208.320  1.00  0.00     0.027 C 
BRANCH   3   4
ATOM      4  C   UNL     1     191.138 193.084 206.814  1.00  0.00    -0.031 C 
ATOM      5  C   UNL     1     190.065 192.989 206.004  1.00  0.00    -0.028 C 
BRANCH   5   6
ATOM      6  C   UNL     1     188.638 192.771 206.460  1.00  0.00     0.005 C 
ATOM      7  C   UNL     1     187.705 193.712 205.693  1.00  0.00     0.012 C 
ATOM      8  C   UNL     1     188.241 191.311 206.223  1.00  0.00     0.012 C 
ENDBRANCH   5   6
ENDBRANCH   3   4
ENDBRANCH   2   3
ENDBRANCH   1   2
BRANCH   1   9
ATOM      9  C   UNL     1     189.021 192.496 210.072  1.00  0.00     0.100 C 
BRANCH   9  10
ATOM     10  C   UNL     1     187.593 192.060 209.950  1.00  0.00     0.220 C 
ATOM     11  O   UNL     1     187.285 190.863 210.196  1.00  0.00    -0.275 OA
ATOM     12  N   UNL     1     186.592 192.992 209.511  1.00  0.00    -0.352 N 
ATOM     13  H   UNL     1     186.877 193.974 209.287  1.00  0.00     0.163 HD
BRANCH  12  14
ATOM     14  C   UNL     1     185.189 192.618 209.349  1.00  0.00     0.151 C 
BRANCH  14  15
ATOM     15  C   UNL     1     184.773 192.753 207.909  1.00  0.00    -0.025 A 
ATOM     16  C   UNL     1     184.779 191.628 207.070  1.00  0.00     0.056 A 
ATOM     17  C   UNL     1     184.397 194.000 207.390  1.00  0.00     0.009 A 
ATOM     18  C   UNL     1     184.409 191.745 205.714  1.00  0.00     0.160 A 
ATOM     19  C   UNL     1     184.023 194.119 206.050  1.00  0.00     0.050 A 
ATOM     20  C   UNL     1     184.028 192.997 205.212  1.00  0.00     0.157 A 
BRANCH  18  21
ATOM     21  O   UNL     1     184.408 190.644 204.842  1.00  0.00    -0.493 OA
ATOM     22  C   UNL     1     185.101 189.424 205.084  1.00  0.00     0.278 C 
ENDBRANCH  18  21
BRANCH  20  23
ATOM     23  O   UNL     1     183.655 193.120 203.874  1.00  0.00    -0.504 OA
ATOM     24  H   UNL     1     183.272 193.983 203.509  1.00  0.00     0.293 HD
ENDBRANCH  20  23
ENDBRANCH  14  15
ENDBRANCH  12  14
ENDBRANCH   9  10
ENDBRANCH   1   9
TORSDOF 10
ENDMDL
MODEL 3
REMARK VINA RESULT:    -4.337      1.417      2.741
REMARK INTER + INTRA:          -7.862
REMARK INTER:                  -6.680
REMARK INTRA:                  -1.182
REMARK UNBOUND:                -1.116
REMARK SMILES COc1cc(CNC(=O)CCCCC=CC(C)C)ccc1O
REMARK SMILES IDX 11 1 12 2 13 3 14 4 15 5 16 6 17 7 18 8 10 9 8 10 9 11 7 12
REMARK SMILES IDX 6 14 5 15 4 16 19 17 3 18 20 19 21 20 2 21 1 22 22 23
REMARK H PARENT 7 13 22 24
REMARK Flexibility Score: inf
ROOT
ATOM      1  C   UNL     1     188.120 192.333 209.846  1.00  0.00     0.010 C 
ENDROOT
BRANCH   1   2
ATOM      2  C   UNL     1     186.646 192.580 210.215  1.00  0.00     0.005 C 
BRANCH   2   3
ATOM      3  C   UNL     1     185.647 192.186 209.110  1.00  0.00     0.027 C 
BRANCH   3   4
ATOM      4  C   UNL     1     184.720 193.313 208.724  1.00  0.00    -0.031 C 
ATOM      5  C   UNL     1     184.438 193.693 207.462  1.00  0.00    -0.028 C 
BRANCH   5   6
ATOM      6  C   UNL     1     185.000 193.059 206.208  1.00  0.00     0.005 C 
ATOM      7  C   UNL     1     183.931 193.054 205.112  1.00  0.00     0.012 C 
ATOM      8  C   UNL     1     186.237 193.836 205.748  1.00  0.00     0.012 C 
ENDBRANCH   5   6
ENDBRANCH   3   4
ENDBRANCH   2   3
ENDBRANCH   1   2
BRANCH   1   9
ATOM      9  C   UNL     1     188.314 192.046 208.353  1.00  0.00     0.100 C 
BRANCH   9  10
ATOM     10  C   UNL     1     189.309 192.999 207.765  1.00  0.00     0.220 C 
ATOM     11  O   UNL     1     189.765 192.788 206.608  1.00  0.00    -0.275 OA
ATOM     12  N   UNL     1     189.773 194.118 208.535  1.00  0.00    -0.352 N 
ATOM     13  H   UNL     1     189.400 194.258 209.503  1.00  0.00     0.163 HD
BRANCH  12  14
ATOM     14  C   UNL     1     190.760 195.067 208.024  1.00  0.00     0.151 C 
BRANCH  14  15
ATOM     15  C   UNL     1     192.053 194.937 208.782  1.00  0.00    -0.025 A 
ATOM     16  C   UNL     1     192.121 194.111 209.915  1.00  0.00     0.056 A 
ATOM     17  C   UNL     1     193.192 195.649 208.378  1.00  0.00     0.009 A 
ATOM     18  C   UNL     1     193.322 193.994 210.644  1.00  0.00     0.160 A 
ATOM     19  C   UNL     1     194.385 195.531 209.093  1.00  0.00     0.050 A 
ATOM     20  C   UNL     1     194.454 194.706 210.223  1.00  0.00     0.157 A 
BRANCH  18  21
ATOM     21  O   UNL     1     193.427 193.184 211.786  1.00  0.00    -0.493 OA
ATOM     22  C   UNL     1     192.385 192.994 212.738  1.00  0.00     0.278 C 
ENDBRANCH  18  21
BRANCH  20  23
ATOM     23  O   UNL     1     195.647 194.592 210.935  1.00  0.00    -0.504 OA
ATOM     24  H   UNL     1     195.796 193.840 211.598  1.00  0.00     0.293 HD
ENDBRANCH  20  23
ENDBRANCH  14  15
ENDBRANCH  12  14
ENDBRANCH   9  10
ENDBRANCH   1   9
TORSDOF 10
ENDMDL
MODEL 4
REMARK VINA RESULT:    -4.296      1.663      2.739
REMARK INTER + INTRA:          -7.798
REMARK INTER:                  -7.134
REMARK INTRA:                  -0.664
REMARK UNBOUND:                -1.116
REMARK SMILES COc1cc(CNC(=O)CCCCC=CC(C)C)ccc1O
REMARK SMILES IDX 11 1 12 2 13 3 14 4 15 5 16 6 17 7 18 8 10 9 8 10 9 11 7 12
REMARK SMILES IDX 6 14 5 15 4 16 19 17 3 18 20 19 21 20 2 21 1 22 22 23
REMARK H PARENT 7 13 22 24
REMARK Flexibility Score: inf
ROOT
ATOM      1  C   UNL     1     188.114 192.071 210.137  1.00  0.00     0.010 C 
ENDROOT
BRANCH   1   2
ATOM      2  C   UNL     1     186.681 192.629 210.216  1.00  0.00     0.005 C 
BRANCH   2   3
ATOM      3  C   UNL     1     185.773 192.195 209.049  1.00  0.00     0.027 C 
BRANCH   3   4
ATOM      4  C   UNL     1     184.751 193.241 208.676  1.00  0.00    -0.031 C 
ATOM      5  C   UNL     1     184.449 193.623 207.419  1.00  0.00    -0.028 C 
BRANCH   5   6
ATOM      6  C   UNL     1     185.079 193.070 206.159  1.00  0.00     0.005 C 
ATOM      7  C   UNL     1     184.012 192.933 205.069  1.00  0.00     0.012 C 
ATOM      8  C   UNL     1     186.203 194.001 205.695  1.00  0.00     0.012 C 
ENDBRANCH   5   6
ENDBRANCH   3   4
ENDBRANCH   2   3
ENDBRANCH   1   2
BRANCH   1   9
ATOM      9  C   UNL     1     188.329 190.864 211.056  1.00  0.00     0.100 C 
BRANCH   9  10
ATOM     10  C   UNL     1     189.638 190.984 211.775  1.00  0.00     0.220 C 
ATOM     11  O   UNL     1     189.914 190.178 212.705  1.00  0.00    -0.275 OA
ATOM     12  N   UNL     1     190.550 192.039 211.434  1.00  0.00    -0.352 N 
ATOM     13  H   UNL     1     190.288 192.711 210.676  1.00  0.00     0.163 HD
BRANCH  12  14
ATOM     14  C   UNL     1     191.830 192.221 212.116  1.00  0.00     0.151 C 
BRANCH  14  15
ATOM     15  C   UNL     1     192.612 193.335 211.473  1.00  0.00    -0.025 A 
ATOM     16  C   UNL     1     193.751 193.849 212.110  1.00  0.00     0.056 A 
ATOM     17  C   UNL     1     192.201 193.879 210.248  1.00  0.00     0.009 A 
ATOM     18  C   UNL     1     194.482 194.905 211.527  1.00  0.00     0.160 A 
ATOM     19  C   UNL     1     192.925 194.920 209.664  1.00  0.00     0.050 A 
ATOM     20  C   UNL     1     194.063 195.433 210.298  1.00  0.00     0.157 A 
BRANCH  18  21
ATOM     21  O   UNL     1     195.623 195.451 212.137  1.00  0.00    -0.493 OA
ATOM     22  C   UNL     1     195.605 196.551 213.041  1.00  0.00     0.278 C 
ENDBRANCH  18  21
BRANCH  20  23
ATOM     23  O   UNL     1     194.783 196.474 209.712  1.00  0.00    -0.504 OA
ATOM     24  H   UNL     1     195.553 196.920 210.195  1.00  0.00     0.293 HD
ENDBRANCH  20  23
ENDBRANCH  14  15
ENDBRANCH  12  14
ENDBRANCH   9  10
ENDBRANCH   1   9
TORSDOF 10
ENDMDL
MODEL 5
REMARK VINA RESULT:    -4.290      2.917      6.795
REMARK INTER + INTRA:          -7.789
REMARK INTER:                  -5.470
REMARK INTRA:                  -2.320
REMARK UNBOUND:                -1.116
REMARK SMILES COc1cc(CNC(=O)CCCCC=CC(C)C)ccc1O
REMARK SMILES IDX 11 1 12 2 13 3 14 4 15 5 16 6 17 7 18 8 10 9 8 10 9 11 7 12
REMARK SMILES IDX 6 14 5 15 4 16 19 17 3 18 20 19 21 20 2 21 1 22 22 23
REMARK H PARENT 7 13 22 24
REMARK Flexibility Score: inf
ROOT
ATOM      1  C   UNL     1     191.648 192.919 210.377  1.00  0.00     0.010 C 
ENDROOT
BRANCH   1   2
ATOM      2  C   UNL     1     192.392 192.933 209.028  1.00  0.00     0.005 C 
BRANCH   2   3
ATOM      3  C   UNL     1     191.698 193.770 207.937  1.00  0.00     0.027 C 
BRANCH   3   4
ATOM      4  C   UNL     1     190.206 193.880 208.137  1.00  0.00    -0.031 C 
ATOM      5  C   UNL     1     189.286 193.035 207.630  1.00  0.00    -0.028 C 
BRANCH   5   6
ATOM      6  C   UNL     1     189.586 191.825 206.772  1.00  0.00     0.005 C 
ATOM      7  C   UNL     1     189.818 190.605 207.668  1.00  0.00     0.012 C 
ATOM      8  C   UNL     1     188.419 191.572 205.813  1.00  0.00     0.012 C 
ENDBRANCH   5   6
ENDBRANCH   3   4
ENDBRANCH   2   3
ENDBRANCH   1   2
BRANCH   1   9
ATOM      9  C   UNL     1     191.613 191.527 211.018  1.00  0.00     0.100 C 
BRANCH   9  10
ATOM     10  C   UNL     1     190.214 191.178 211.426  1.00  0.00     0.220 C 
ATOM     11  O   UNL     1     190.002 190.118 212.074  1.00  0.00    -0.275 OA
ATOM     12  N   UNL     1     189.121 192.024 211.040  1.00  0.00    -0.352 N 
ATOM     13  H   UNL     1     189.319 192.886 210.479  1.00  0.00     0.163 HD
BRANCH  12  14
ATOM     14  C   UNL     1     187.734 191.723 211.387  1.00  0.00     0.151 C 
BRANCH  14  15
ATOM     15  C   UNL     1     186.987 191.228 210.179  1.00  0.00    -0.025 A 
ATOM     16  C   UNL     1     186.229 192.123 209.408  1.00  0.00     0.056 A 
ATOM     17  C   UNL     1     187.025 189.872 209.823  1.00  0.00     0.009 A 
ATOM     18  C   UNL     1     185.511 191.668 208.283  1.00  0.00     0.160 A 
ATOM     19  C   UNL     1     186.321 189.418 208.707  1.00  0.00     0.050 A 
ATOM     20  C   UNL     1     185.565 190.311 207.936  1.00  0.00     0.157 A 
BRANCH  18  21
ATOM     21  O   UNL     1     184.736 192.532 207.491  1.00  0.00    -0.493 OA
ATOM     22  C   UNL     1     184.377 193.859 207.861  1.00  0.00     0.278 C 
ENDBRANCH  18  21
BRANCH  20  23
ATOM     23  O   UNL     1     184.861 189.854 206.822  1.00  0.00    -0.504 OA
ATOM     24  H   UNL     1     184.589 190.482 206.076  1.00  0.00     0.293 HD
ENDBRANCH  20  23
ENDBRANCH  14  15
ENDBRANCH  12  14
ENDBRANCH   9  10
ENDBRANCH   1   9
TORSDOF 10
ENDMDL
MODEL 6
REMARK VINA RESULT:    -4.273      2.685      4.111
REMARK INTER + INTRA:          -7.762
REMARK INTER:                  -6.039
REMARK INTRA:                  -1.722
REMARK UNBOUND:                -1.116
REMARK SMILES COc1cc(CNC(=O)CCCCC=CC(C)C)ccc1O
REMARK SMILES IDX 11 1 12 2 13 3 14 4 15 5 16 6 17 7 18 8 10 9 8 10 9 11 7 12
REMARK SMILES IDX 6 14 5 15 4 16 19 17 3 18 20 19 21 20 2 21 1 22 22 23
REMARK H PARENT 7 13 22 24
REMARK Flexibility Score: inf
ROOT
ATOM      1  C   UNL     1     183.864 193.020 205.384  1.00  0.00     0.010 C 
ENDROOT
BRANCH   1   2
ATOM      2  C   UNL     1     184.583 192.395 204.174  1.00  0.00     0.005 C 
BRANCH   2   3
ATOM      3  C   UNL     1     184.785 190.871 204.282  1.00  0.00     0.027 C 
BRANCH   3   4
ATOM      4  C   UNL     1     186.112 190.411 203.728  1.00  0.00    -0.031 C 
ATOM      5  C   UNL     1     187.300 190.525 204.354  1.00  0.00    -0.028 C 
BRANCH   5   6
ATOM      6  C   UNL     1     187.515 191.134 205.723  1.00  0.00     0.005 C 
ATOM      7  C   UNL     1     187.728 190.020 206.752  1.00  0.00     0.012 C 
ATOM      8  C   UNL     1     188.728 192.067 205.686  1.00  0.00     0.012 C 
ENDBRANCH   5   6
ENDBRANCH   3   4
ENDBRANCH   2   3
ENDBRANCH   1   2
BRANCH   1   9
ATOM      9  C   UNL     1     184.836 193.641 206.393  1.00  0.00     0.100 C 
BRANCH   9  10
ATOM     10  C   UNL     1     185.015 192.733 207.571  1.00  0.00     0.220 C 
ATOM     11  O   UNL     1     184.413 191.626 207.600  1.00  0.00    -0.275 OA
ATOM     12  N   UNL     1     185.833 193.145 208.677  1.00  0.00    -0.352 N 
ATOM     13  H   UNL     1     186.301 194.080 208.641  1.00  0.00     0.163 HD
BRANCH  12  14
ATOM     14  C   UNL     1     186.025 192.313 209.863  1.00  0.00     0.151 C 
BRANCH  14  15
ATOM     15  C   UNL     1     187.492 192.140 210.149  1.00  0.00    -0.025 A 
ATOM     16  C   UNL     1     188.445 192.693 209.280  1.00  0.00     0.056 A 
ATOM     17  C   UNL     1     187.919 191.413 211.269  1.00  0.00     0.009 A 
ATOM     18  C   UNL     1     189.823 192.523 209.527  1.00  0.00     0.160 A 
ATOM     19  C   UNL     1     189.282 191.247 211.522  1.00  0.00     0.050 A 
ATOM     20  C   UNL     1     190.234 191.799 210.656  1.00  0.00     0.157 A 
BRANCH  18  21
ATOM     21  O   UNL     1     190.807 193.055 208.678  1.00  0.00    -0.493 OA
ATOM     22  C   UNL     1     190.738 194.341 208.071  1.00  0.00     0.278 C 
ENDBRANCH  18  21
BRANCH  20  23
ATOM     23  O   UNL     1     191.595 191.631 210.910  1.00  0.00    -0.504 OA
ATOM     24  H   UNL     1     191.948 191.542 211.855  1.00  0.00     0.293 HD
ENDBRANCH  20  23
ENDBRANCH  14  15
ENDBRANCH  12  14
ENDBRANCH   9  10
ENDBRANCH   1   9
TORSDOF 10
ENDMDL
MODEL 7
REMARK VINA RESULT:    -4.266      2.293      3.541
REMARK INTER + INTRA:          -7.751
REMARK INTER:                  -5.693
REMARK INTRA:                  -2.058
REMARK UNBOUND:                -1.116
REMARK SMILES COc1cc(CNC(=O)CCCCC=CC(C)C)ccc1O
REMARK SMILES IDX 11 1 12 2 13 3 14 4 15 5 16 6 17 7 18 8 10 9 8 10 9 11 7 12
REMARK SMILES IDX 6 14 5 15 4 16 19 17 3 18 20 19 21 20 2 21 1 22 22 23
REMARK H PARENT 7 13 22 24
REMARK Flexibility Score: inf
ROOT
ATOM      1  C   UNL     1     184.365 193.154 207.133  1.00  0.00     0.010 C 
ENDROOT
BRANCH   1   2
ATOM      2  C   UNL     1     185.080 194.118 206.168  1.00  0.00     0.005 C 
BRANCH   2   3
ATOM      3  C   UNL     1     186.205 193.463 205.345  1.00  0.00     0.027 C 
BRANCH   3   4
ATOM      4  C   UNL     1     187.526 193.427 206.074  1.00  0.00    -0.031 C 
ATOM      5  C   UNL     1     188.408 192.408 206.041  1.00  0.00    -0.028 C 
BRANCH   5   6
ATOM      6  C   UNL     1     188.232 191.120 205.267  1.00  0.00     0.005 C 
ATOM      7  C   UNL     1     189.601 190.485 205.009  1.00  0.00     0.012 C 
ATOM      8  C   UNL     1     187.337 190.162 206.058  1.00  0.00     0.012 C 
ENDBRANCH   5   6
ENDBRANCH   3   4
ENDBRANCH   2   3
ENDBRANCH   1   2
BRANCH   1   9
ATOM      9  C   UNL     1     184.651 193.473 208.605  1.00  0.00     0.100 C 
BRANCH   9  10
ATOM     10  C   UNL     1     185.641 192.498 209.165  1.00  0.00     0.220 C 
ATOM     11  O   UNL     1     185.624 191.300 208.774  1.00  0.00    -0.275 OA
ATOM     12  N   UNL     1     186.570 192.920 210.175  1.00  0.00    -0.352 N 
ATOM     13  H   UNL     1     186.547 193.914 210.504  1.00  0.00     0.163 HD
BRANCH  12  14
ATOM     14  C   UNL     1     187.542 192.009 210.777  1.00  0.00     0.151 C 
BRANCH  14  15
ATOM     15  C   UNL     1     188.783 191.934 209.930  1.00  0.00    -0.025 A 
ATOM     16  C   UNL     1     189.443 193.112 209.547  1.00  0.00     0.056 A 
ATOM     17  C   UNL     1     189.279 190.694 209.500  1.00  0.00     0.009 A 
ATOM     18  C   UNL     1     190.597 193.056 208.739  1.00  0.00     0.160 A 
ATOM     19  C   UNL     1     190.425 190.633 208.706  1.00  0.00     0.050 A 
ATOM     20  C   UNL     1     191.085 191.808 208.324  1.00  0.00     0.157 A 
BRANCH  18  21
ATOM     21  O   UNL     1     191.281 194.212 208.330  1.00  0.00    -0.493 OA
ATOM     22  C   UNL     1     192.138 194.980 209.168  1.00  0.00     0.278 C 
ENDBRANCH  18  21
BRANCH  20  23
ATOM     23  O   UNL     1     192.228 191.743 207.529  1.00  0.00    -0.504 OA
ATOM     24  H   UNL     1     192.917 191.011 207.653  1.00  0.00     0.293 HD
ENDBRANCH  20  23
ENDBRANCH  14  15
ENDBRANCH  12  14
ENDBRANCH   9  10
ENDBRANCH   1   9
TORSDOF 10
ENDMDL
MODEL 8
REMARK VINA RESULT:    -4.250      0.974      1.806
REMARK INTER + INTRA:          -7.727
REMARK INTER:                  -6.516
REMARK INTRA:                  -1.211
REMARK UNBOUND:                -1.116
REMARK SMILES COc1cc(CNC(=O)CCCCC=CC(C)C)ccc1O
REMARK SMILES IDX 11 1 12 2 13 3 14 4 15 5 16 6 17 7 18 8 10 9 8 10 9 11 7 12
REMARK SMILES IDX 6 14 5 15 4 16 19 17 3 18 20 19 21 20 2 21 1 22 22 23
REMARK H PARENT 7 13 22 24
REMARK Flexibility Score: inf
ROOT
ATOM      1  C   UNL     1     186.078 191.922 209.346  1.00  0.00     0.010 C 
ENDROOT
BRANCH   1   2
ATOM      2  C   UNL     1     185.103 192.889 208.649  1.00  0.00     0.005 C 
BRANCH   2   3
ATOM      3  C   UNL     1     184.748 192.489 207.204  1.00  0.00     0.027 C 
BRANCH   3   4
ATOM      4  C   UNL     1     185.252 193.476 206.178  1.00  0.00    -0.031 C 
ATOM      5  C   UNL     1     186.528 193.582 205.758  1.00  0.00    -0.028 C 
BRANCH   5   6
ATOM      6  C   UNL     1     187.683 192.730 206.239  1.00  0.00     0.005 C 
ATOM      7  C   UNL     1     187.775 191.461 205.386  1.00  0.00     0.012 C 
ATOM      8  C   UNL     1     188.985 193.531 206.150  1.00  0.00     0.012 C 
ENDBRANCH   5   6
ENDBRANCH   3   4
ENDBRANCH   2   3
ENDBRANCH   1   2
BRANCH   1   9
ATOM      9  C   UNL     1     187.160 192.652 210.150  1.00  0.00     0.100 C 
BRANCH   9  10
ATOM     10  C   UNL     1     188.515 192.110 209.810  1.00  0.00     0.220 C 
ATOM     11  O   UNL     1     188.610 191.029 209.169  1.00  0.00    -0.275 OA
ATOM     12  N   UNL     1     189.694 192.798 210.255  1.00  0.00    -0.352 N 
ATOM     13  H   UNL     1     189.590 193.680 210.809  1.00  0.00     0.163 HD
BRANCH  12  14
ATOM     14  C   UNL     1     191.042 192.306 209.975  1.00  0.00     0.151 C 
BRANCH  14  15
ATOM     15  C   UNL     1     191.981 193.457 209.738  1.00  0.00    -0.025 A 
ATOM     16  C   UNL     1     193.024 193.708 210.642  1.00  0.00     0.056 A 
ATOM     17  C   UNL     1     191.813 194.297 208.628  1.00  0.00     0.009 A 
ATOM     18  C   UNL     1     193.901 194.795 210.441  1.00  0.00     0.160 A 
ATOM     19  C   UNL     1     192.682 195.370 208.420  1.00  0.00     0.050 A 
ATOM     20  C   UNL     1     193.724 195.621 209.322  1.00  0.00     0.157 A 
BRANCH  18  21
ATOM     21  O   UNL     1     194.952 195.082 211.326  1.00  0.00    -0.493 OA
ATOM     22  C   UNL     1     194.836 195.928 212.467  1.00  0.00     0.278 C 
ENDBRANCH  18  21
BRANCH  20  23
ATOM     23  O   UNL     1     194.589 196.694 209.112  1.00  0.00    -0.504 OA
ATOM     24  H   UNL     1     194.664 197.144 208.208  1.00  0.00     0.293 HD
ENDBRANCH  20  23
ENDBRANCH  14  15
ENDBRANCH  12  14
ENDBRANCH   9  10
ENDBRANCH   1   9
TORSDOF 10
ENDMDL
MODEL 9
REMARK VINA RESULT:    -4.230      2.484      6.489
REMARK INTER + INTRA:          -7.696
REMARK INTER:                  -5.598
REMARK INTRA:                  -2.098
REMARK UNBOUND:                -1.116
REMARK SMILES COc1cc(CNC(=O)CCCCC=CC(C)C)ccc1O
REMARK SMILES IDX 11 1 12 2 13 3 14 4 15 5 16 6 17 7 18 8 10 9 8 10 9 11 7 12
REMARK SMILES IDX 6 14 5 15 4 16 19 17 3 18 20 19 21 20 2 21 1 22 22 23
REMARK H PARENT 7 13 22 24
REMARK Flexibility Score: inf
ROOT
ATOM      1  C   UNL     1     193.301 191.589 212.658  1.00  0.00     0.010 C 
ENDROOT
BRANCH   1   2
ATOM      2  C   UNL     1     192.468 190.412 213.197  1.00  0.00     0.005 C 
BRANCH   2   3
ATOM      3  C   UNL     1     191.024 190.787 213.580  1.00  0.00     0.027 C 
BRANCH   3   4
ATOM      4  C   UNL     1     189.991 189.896 212.934  1.00  0.00    -0.031 C 
ATOM      5  C   UNL     1     189.422 190.106 211.730  1.00  0.00    -0.028 C 
BRANCH   5   6
ATOM      6  C   UNL     1     189.718 191.273 210.813  1.00  0.00     0.005 C 
ATOM      7  C   UNL     1     190.580 190.797 209.640  1.00  0.00     0.012 C 
ATOM      8  C   UNL     1     188.404 191.873 210.303  1.00  0.00     0.012 C 
ENDBRANCH   5   6
ENDBRANCH   3   4
ENDBRANCH   2   3
ENDBRANCH   1   2
BRANCH   1   9
ATOM      9  C   UNL     1     192.491 192.887 212.555  1.00  0.00     0.100 C 
BRANCH   9  10
ATOM     10  C   UNL     1     192.771 193.573 211.254  1.00  0.00     0.220 C 
ATOM     11  O   UNL     1     193.944 193.577 210.792  1.00  0.00    -0.275 OA
ATOM     12  N   UNL     1     191.717 194.261 210.563  1.00  0.00    -0.352 N 
ATOM     13  H   UNL     1     190.757 194.267 210.980  1.00  0.00     0.163 HD
BRANCH  12  14
ATOM     14  C   UNL     1     191.935 194.969 209.304  1.00  0.00     0.151 C 
BRANCH  14  15
ATOM     15  C   UNL     1     191.465 194.133 208.144  1.00  0.00    -0.025 A 
ATOM     16  C   UNL     1     190.126 194.198 207.730  1.00  0.00     0.056 A 
ATOM     17  C   UNL     1     192.351 193.270 207.482  1.00  0.00     0.009 A 
ATOM     18  C   UNL     1     189.669 193.406 206.657  1.00  0.00     0.160 A 
ATOM     19  C   UNL     1     191.905 192.489 206.415  1.00  0.00     0.050 A 
ATOM     20  C   UNL     1     190.569 192.554 206.000  1.00  0.00     0.157 A 
BRANCH  18  21
ATOM     21  O   UNL     1     188.336 193.438 206.218  1.00  0.00    -0.493 OA
ATOM     22  C   UNL     1     187.292 192.628 206.751  1.00  0.00     0.278 C 
ENDBRANCH  18  21
BRANCH  20  23
ATOM     23  O   UNL     1     190.127 191.772 204.935  1.00  0.00    -0.504 OA
ATOM     24  H   UNL     1     189.245 191.276 204.974  1.00  0.00     0.293 HD
ENDBRANCH  20  23
ENDBRANCH  14  15
ENDBRANCH  12  14
ENDBRANCH   9  10
ENDBRANCH   1   9
TORSDOF 10
ENDMDL
