MODEL 1
REMARK VINA RESULT:    -4.799      0.000      0.000
REMARK INTER + INTRA:          -5.470
REMARK INTER:                  -5.220
REMARK INTRA:                  -0.250
REMARK UNBOUND:                -0.250
REMARK SMILES O=C([O-])c1ccccc1O
REMARK SMILES IDX 4 1 9 2 5 3 8 4 6 5 7 6 2 7 1 8 3 9 10 10
REMARK H PARENT 10 11
REMARK Flexibility Score: inf
ROOT
ATOM      1  C   UNL     1       7.533 -30.203 -19.759  1.00  0.00     0.039 A 
ATOM      2  C   UNL     1       7.500 -30.865 -18.505  1.00  0.00     0.124 A 
ATOM      3  C   UNL     1       7.775 -30.958 -20.922  1.00  0.00     0.014 A 
ATOM      4  C   UNL     1       7.770 -32.238 -18.441  1.00  0.00     0.047 A 
ATOM      5  C   UNL     1       8.019 -32.331 -20.842  1.00  0.00     0.001 A 
ATOM      6  C   UNL     1       8.027 -32.968 -19.602  1.00  0.00     0.004 A 
ENDROOT
BRANCH   1   7
ATOM      7  C   UNL     1       7.360 -28.739 -19.888  1.00  0.00     0.075 C 
ATOM      8  O   UNL     1       7.898 -27.963 -19.055  1.00  0.00    -0.545 OA
ATOM      9  O   UNL     1       6.549 -28.203 -20.881  1.00  0.00    -0.545 OA
ENDBRANCH   1   7
BRANCH   2  10
ATOM     10  O   UNL     1       7.173 -30.209 -17.318  1.00  0.00    -0.507 OA
ATOM     11  H   UNL     1       6.865 -30.690 -16.484  1.00  0.00     0.293 HD
ENDBRANCH   2  10
TORSDOF 2
ENDMDL
MODEL 2
REMARK VINA RESULT:    -4.599      3.915      5.199
REMARK INTER + INTRA:          -5.253
REMARK INTER:                  -5.003
REMARK INTRA:                  -0.250
REMARK UNBOUND:                -0.250
REMARK SMILES O=C([O-])c1ccccc1O
REMARK SMILES IDX 4 1 9 2 5 3 8 4 6 5 7 6 2 7 1 8 3 9 10 10
REMARK H PARENT 10 11
REMARK Flexibility Score: inf
ROOT
ATOM      1  C   UNL     1       9.601 -33.675 -19.174  1.00  0.00     0.039 A 
ATOM      2  C   UNL     1      10.224 -33.223 -20.365  1.00  0.00     0.124 A 
ATOM      3  C   UNL     1       8.234 -33.404 -18.975  1.00  0.00     0.014 A 
ATOM      4  C   UNL     1       9.489 -32.466 -21.287  1.00  0.00     0.047 A 
ATOM      5  C   UNL     1       7.510 -32.668 -19.916  1.00  0.00     0.001 A 
ATOM      6  C   UNL     1       8.139 -32.190 -21.065  1.00  0.00     0.004 A 
ENDROOT
BRANCH   1   7
ATOM      7  C   UNL     1      10.343 -34.389 -18.112  1.00  0.00     0.075 C 
ATOM      8  O   UNL     1      10.291 -33.982 -16.921  1.00  0.00    -0.545 OA
ATOM      9  O   UNL     1      11.160 -35.470 -18.419  1.00  0.00    -0.545 OA
ENDBRANCH   1   7
BRANCH   2  10
ATOM     10  O   UNL     1      11.547 -33.531 -20.684  1.00  0.00    -0.507 OA
ATOM     11  H   UNL     1      11.907 -33.526 -21.629  1.00  0.00     0.293 HD
ENDBRANCH   2  10
TORSDOF 2
ENDMDL
MODEL 3
REMARK VINA RESULT:    -4.563     10.412     11.062
REMARK INTER + INTRA:          -5.213
REMARK INTER:                  -4.964
REMARK INTRA:                  -0.249
REMARK UNBOUND:                -0.250
REMARK SMILES O=C([O-])c1ccccc1O
REMARK SMILES IDX 4 1 9 2 5 3 8 4 6 5 7 6 2 7 1 8 3 9 10 10
REMARK H PARENT 10 11
REMARK Flexibility Score: inf
ROOT
ATOM      1  C   UNL     1      17.771 -32.582 -21.417  1.00  0.00     0.039 A 
ATOM      2  C   UNL     1      18.053 -31.209 -21.201  1.00  0.00     0.124 A 
ATOM      3  C   UNL     1      16.438 -33.026 -21.326  1.00  0.00     0.014 A 
ATOM      4  C   UNL     1      17.017 -30.338 -20.842  1.00  0.00     0.047 A 
ATOM      5  C   UNL     1      15.414 -32.139 -20.990  1.00  0.00     0.001 A 
ATOM      6  C   UNL     1      15.704 -30.799 -20.738  1.00  0.00     0.004 A 
ENDROOT
BRANCH   1   7
ATOM      7  C   UNL     1      18.831 -33.575 -21.697  1.00  0.00     0.075 C 
ATOM      8  O   UNL     1      19.729 -33.320 -22.543  1.00  0.00    -0.545 OA
ATOM      9  O   UNL     1      18.815 -34.825 -21.089  1.00  0.00    -0.545 OA
ENDBRANCH   1   7
BRANCH   2  10
ATOM     10  O   UNL     1      19.329 -30.669 -21.366  1.00  0.00    -0.507 OA
ATOM     11  H   UNL     1      19.723 -29.974 -20.747  1.00  0.00     0.293 HD
ENDBRANCH   2  10
TORSDOF 2
ENDMDL
MODEL 4
REMARK VINA RESULT:    -4.533     10.245     10.751
REMARK INTER + INTRA:          -5.181
REMARK INTER:                  -4.932
REMARK INTRA:                  -0.250
REMARK UNBOUND:                -0.250
REMARK SMILES O=C([O-])c1ccccc1O
REMARK SMILES IDX 4 1 9 2 5 3 8 4 6 5 7 6 2 7 1 8 3 9 10 10
REMARK H PARENT 10 11
REMARK Flexibility Score: inf
ROOT
ATOM      1  C   UNL     1      17.887 -30.618 -20.647  1.00  0.00     0.039 A 
ATOM      2  C   UNL     1      18.591 -31.571 -21.427  1.00  0.00     0.124 A 
ATOM      3  C   UNL     1      16.646 -30.977 -20.089  1.00  0.00     0.014 A 
ATOM      4  C   UNL     1      18.013 -32.822 -21.678  1.00  0.00     0.047 A 
ATOM      5  C   UNL     1      16.095 -32.237 -20.330  1.00  0.00     0.001 A 
ATOM      6  C   UNL     1      16.773 -33.155 -21.132  1.00  0.00     0.004 A 
ENDROOT
BRANCH   1   7
ATOM      7  C   UNL     1      18.392 -29.244 -20.429  1.00  0.00     0.075 C 
ATOM      8  O   UNL     1      18.878 -28.589 -21.389  1.00  0.00    -0.545 OA
ATOM      9  O   UNL     1      18.402 -28.683 -19.158  1.00  0.00    -0.545 OA
ENDBRANCH   1   7
BRANCH   2  10
ATOM     10  O   UNL     1      19.868 -31.331 -21.936  1.00  0.00    -0.507 OA
ATOM     11  H   UNL     1      20.065 -31.241 -22.923  1.00  0.00     0.293 HD
ENDBRANCH   2  10
TORSDOF 2
ENDMDL
MODEL 5
REMARK VINA RESULT:    -4.525      9.699     10.942
REMARK INTER + INTRA:          -5.172
REMARK INTER:                  -4.931
REMARK INTRA:                  -0.241
REMARK UNBOUND:                -0.250
REMARK SMILES O=C([O-])c1ccccc1O
REMARK SMILES IDX 4 1 9 2 5 3 8 4 6 5 7 6 2 7 1 8 3 9 10 10
REMARK H PARENT 10 11
REMARK Flexibility Score: inf
ROOT
ATOM      1  C   UNL     1       8.029 -25.049 -10.159  1.00  0.00     0.039 A 
ATOM      2  C   UNL     1       7.805 -24.742 -11.525  1.00  0.00     0.124 A 
ATOM      3  C   UNL     1       9.316 -25.448  -9.752  1.00  0.00     0.014 A 
ATOM      4  C   UNL     1       8.845 -24.902 -12.450  1.00  0.00     0.047 A 
ATOM      5  C   UNL     1      10.348 -25.580 -10.684  1.00  0.00     0.001 A 
ATOM      6  C   UNL     1      10.110 -25.317 -12.033  1.00  0.00     0.004 A 
ENDROOT
BRANCH   1   7
ATOM      7  C   UNL     1       6.949 -25.001  -9.148  1.00  0.00     0.075 C 
ATOM      8  O   UNL     1       6.942 -25.820  -8.191  1.00  0.00    -0.545 OA
ATOM      9  O   UNL     1       5.894 -24.106  -9.275  1.00  0.00    -0.545 OA
ENDBRANCH   1   7
BRANCH   2  10
ATOM     10  O   UNL     1       6.587 -24.248 -11.995  1.00  0.00    -0.507 OA
ATOM     11  H   UNL     1       6.358 -24.175 -12.977  1.00  0.00     0.293 HD
ENDBRANCH   2  10
TORSDOF 2
ENDMDL
MODEL 6
REMARK VINA RESULT:    -4.497      8.836      9.843
REMARK INTER + INTRA:          -5.142
REMARK INTER:                  -4.899
REMARK INTRA:                  -0.243
REMARK UNBOUND:                -0.250
REMARK SMILES O=C([O-])c1ccccc1O
REMARK SMILES IDX 4 1 9 2 5 3 8 4 6 5 7 6 2 7 1 8 3 9 10 10
REMARK H PARENT 10 11
REMARK Flexibility Score: inf
ROOT
ATOM      1  C   UNL     1       7.932 -24.722 -12.163  1.00  0.00     0.039 A 
ATOM      2  C   UNL     1       7.233 -24.637 -10.932  1.00  0.00     0.124 A 
ATOM      3  C   UNL     1       9.234 -25.257 -12.171  1.00  0.00     0.014 A 
ATOM      4  C   UNL     1       7.870 -25.025  -9.746  1.00  0.00     0.047 A 
ATOM      5  C   UNL     1       9.846 -25.660 -10.982  1.00  0.00     0.001 A 
ATOM      6  C   UNL     1       9.168 -25.534  -9.769  1.00  0.00     0.004 A 
ENDROOT
BRANCH   1   7
ATOM      7  C   UNL     1       7.359 -24.235 -13.437  1.00  0.00     0.075 C 
ATOM      8  O   UNL     1       6.848 -23.085 -13.502  1.00  0.00    -0.545 OA
ATOM      9  O   UNL     1       7.309 -25.057 -14.556  1.00  0.00    -0.545 OA
ENDBRANCH   1   7
BRANCH   2  10
ATOM     10  O   UNL     1       5.907 -24.210 -10.849  1.00  0.00    -0.507 OA
ATOM     11  H   UNL     1       5.607 -23.436 -10.273  1.00  0.00     0.293 HD
ENDBRANCH   2  10
TORSDOF 2
ENDMDL
MODEL 7
REMARK VINA RESULT:    -4.407      8.758     10.489
REMARK INTER + INTRA:          -5.044
REMARK INTER:                  -4.791
REMARK INTRA:                  -0.253
REMARK UNBOUND:                -0.250
REMARK SMILES O=C([O-])c1ccccc1O
REMARK SMILES IDX 4 1 9 2 5 3 8 4 6 5 7 6 2 7 1 8 3 9 10 10
REMARK H PARENT 10 11
REMARK Flexibility Score: inf
ROOT
ATOM      1  C   UNL     1       6.785 -22.419 -14.347  1.00  0.00     0.039 A 
ATOM      2  C   UNL     1       5.761 -21.589 -13.823  1.00  0.00     0.124 A 
ATOM      3  C   UNL     1       7.562 -21.947 -15.421  1.00  0.00     0.014 A 
ATOM      4  C   UNL     1       5.502 -20.349 -14.422  1.00  0.00     0.047 A 
ATOM      5  C   UNL     1       7.304 -20.699 -15.991  1.00  0.00     0.001 A 
ATOM      6  C   UNL     1       6.269 -19.905 -15.499  1.00  0.00     0.004 A 
ENDROOT
BRANCH   1   7
ATOM      7  C   UNL     1       7.044 -23.781 -13.829  1.00  0.00     0.075 C 
ATOM      8  O   UNL     1       7.213 -24.740 -14.629  1.00  0.00    -0.545 OA
ATOM      9  O   UNL     1       7.034 -24.038 -12.464  1.00  0.00    -0.545 OA
ENDBRANCH   1   7
BRANCH   2  10
ATOM     10  O   UNL     1       5.010 -21.939 -12.700  1.00  0.00    -0.507 OA
ATOM     11  H   UNL     1       4.288 -21.350 -12.308  1.00  0.00     0.293 HD
ENDBRANCH   2  10
TORSDOF 2
ENDMDL
MODEL 8
REMARK VINA RESULT:    -4.312      2.407      3.689
REMARK INTER + INTRA:          -4.941
REMARK INTER:                  -4.747
REMARK INTRA:                  -0.194
REMARK UNBOUND:                -0.250
REMARK SMILES O=C([O-])c1ccccc1O
REMARK SMILES IDX 4 1 9 2 5 3 8 4 6 5 7 6 2 7 1 8 3 9 10 10
REMARK H PARENT 10 11
REMARK Flexibility Score: inf
ROOT
ATOM      1  C   UNL     1       8.958 -32.185 -17.994  1.00  0.00     0.039 A 
ATOM      2  C   UNL     1       7.658 -31.913 -18.491  1.00  0.00     0.124 A 
ATOM      3  C   UNL     1       9.946 -32.642 -18.886  1.00  0.00     0.014 A 
ATOM      4  C   UNL     1       7.366 -32.162 -19.839  1.00  0.00     0.047 A 
ATOM      5  C   UNL     1       9.644 -32.864 -20.231  1.00  0.00     0.001 A 
ATOM      6  C   UNL     1       8.352 -32.634 -20.705  1.00  0.00     0.004 A 
ENDROOT
BRANCH   1   7
ATOM      7  C   UNL     1       9.306 -32.043 -16.563  1.00  0.00     0.075 C 
ATOM      8  O   UNL     1       9.340 -30.902 -16.031  1.00  0.00    -0.545 OA
ATOM      9  O   UNL     1       9.667 -33.150 -15.805  1.00  0.00    -0.545 OA
ENDBRANCH   1   7
BRANCH   2  10
ATOM     10  O   UNL     1       6.648 -31.367 -17.697  1.00  0.00    -0.507 OA
ATOM     11  H   UNL     1       6.094 -31.911 -17.051  1.00  0.00     0.293 HD
ENDBRANCH   2  10
TORSDOF 2
ENDMDL
MODEL 9
REMARK VINA RESULT:    -4.290     12.380     13.111
REMARK INTER + INTRA:          -4.917
REMARK INTER:                  -4.667
REMARK INTRA:                  -0.251
REMARK UNBOUND:                -0.250
REMARK SMILES O=C([O-])c1ccccc1O
REMARK SMILES IDX 4 1 9 2 5 3 8 4 6 5 7 6 2 7 1 8 3 9 10 10
REMARK H PARENT 10 11
REMARK Flexibility Score: inf
ROOT
ATOM      1  C   UNL     1      18.901 -27.467 -23.113  1.00  0.00     0.039 A 
ATOM      2  C   UNL     1      20.216 -27.356 -23.632  1.00  0.00     0.124 A 
ATOM      3  C   UNL     1      17.893 -26.629 -23.625  1.00  0.00     0.014 A 
ATOM      4  C   UNL     1      20.500 -26.376 -24.593  1.00  0.00     0.047 A 
ATOM      5  C   UNL     1      18.189 -25.673 -24.600  1.00  0.00     0.001 A 
ATOM      6  C   UNL     1      19.493 -25.540 -25.075  1.00  0.00     0.004 A 
ENDROOT
BRANCH   1   7
ATOM      7  C   UNL     1      18.555 -28.408 -22.025  1.00  0.00     0.075 C 
ATOM      8  O   UNL     1      17.957 -27.994 -20.996  1.00  0.00    -0.545 OA
ATOM      9  O   UNL     1      18.942 -29.741 -22.087  1.00  0.00    -0.545 OA
ENDBRANCH   1   7
BRANCH   2  10
ATOM     10  O   UNL     1      21.250 -28.211 -23.250  1.00  0.00    -0.507 OA
ATOM     11  H   UNL     1      21.311 -29.176 -23.545  1.00  0.00     0.293 HD
ENDBRANCH   2  10
TORSDOF 2
ENDMDL
