MODEL 1
REMARK VINA RESULT:    -4.454      0.000      0.000
REMARK INTER + INTRA:          -8.201
REMARK INTER:                  -7.059
REMARK INTRA:                  -1.143
REMARK UNBOUND:                -1.143
REMARK SMILES CCCCCCCCCCCC(=O)[O-]
REMARK SMILES IDX 7 1 8 2 9 3 10 4 11 5 12 6 13 7 14 8 6 9 5 10 4 11 3 12 2 13
REMARK SMILES IDX 1 14
REMARK H PARENT
REMARK Flexibility Score: inf
ROOT
ATOM      1  C   UNL     1      15.394 -34.323  21.450  1.00  0.00     0.000 C 
ENDROOT
BRANCH   1   2
ATOM      2  C   UNL     1      14.641 -33.038  21.835  1.00  0.00     0.000 C 
BRANCH   2   3
ATOM      3  C   UNL     1      13.884 -32.417  20.652  1.00  0.00     0.000 C 
BRANCH   3   4
ATOM      4  C   UNL     1      13.468 -30.971  20.965  1.00  0.00     0.006 C 
BRANCH   4   5
ATOM      5  C   UNL     1      12.770 -30.851  22.327  1.00  0.00     0.053 C 
BRANCH   5   6
ATOM      6  C   UNL     1      13.239 -29.647  23.088  1.00  0.00     0.041 C 
ATOM      7  O   UNL     1      12.474 -29.083  23.914  1.00  0.00    -0.550 OA
ATOM      8  O   UNL     1      14.508 -29.130  22.860  1.00  0.00    -0.550 OA
ENDBRANCH   5   6
ENDBRANCH   4   5
ENDBRANCH   3   4
ENDBRANCH   2   3
ENDBRANCH   1   2
BRANCH   1   9
ATOM      9  C   UNL     1      15.190 -34.707  19.974  1.00  0.00     0.000 C 
BRANCH   9  10
ATOM     10  C   UNL     1      16.511 -35.041  19.262  1.00  0.00    -0.000 C 
BRANCH  10  11
ATOM     11  C   UNL     1      17.334 -33.789  18.919  1.00  0.00    -0.000 C 
BRANCH  11  12
ATOM     12  C   UNL     1      18.670 -33.787  19.678  1.00  0.00    -0.000 C 
BRANCH  12  13
ATOM     13  C   UNL     1      18.816 -32.575  20.612  1.00  0.00    -0.003 C 
ATOM     14  C   UNL     1      17.678 -31.567  20.455  1.00  0.00     0.004 C 
ENDBRANCH  12  13
ENDBRANCH  11  12
ENDBRANCH  10  11
ENDBRANCH   9  10
ENDBRANCH   1   9
TORSDOF 10
ENDMDL
MODEL 2
REMARK VINA RESULT:    -4.451      3.325      6.766
REMARK INTER + INTRA:          -8.196
REMARK INTER:                  -7.607
REMARK INTRA:                  -0.590
REMARK UNBOUND:                -1.143
REMARK SMILES CCCCCCCCCCCC(=O)[O-]
REMARK SMILES IDX 7 1 8 2 9 3 10 4 11 5 12 6 13 7 14 8 6 9 5 10 4 11 3 12 2 13
REMARK SMILES IDX 1 14
REMARK H PARENT
REMARK Flexibility Score: inf
ROOT
ATOM      1  C   UNL     1      13.991 -30.337  21.255  1.00  0.00     0.000 C 
ENDROOT
BRANCH   1   2
ATOM      2  C   UNL     1      13.467 -31.654  20.661  1.00  0.00     0.000 C 
BRANCH   2   3
ATOM      3  C   UNL     1      14.335 -32.864  21.041  1.00  0.00     0.000 C 
BRANCH   3   4
ATOM      4  C   UNL     1      14.592 -33.759  19.819  1.00  0.00     0.006 C 
BRANCH   4   5
ATOM      5  C   UNL     1      16.088 -34.026  19.600  1.00  0.00     0.053 C 
BRANCH   5   6
ATOM      6  C   UNL     1      16.498 -35.366  20.134  1.00  0.00     0.041 C 
ATOM      7  O   UNL     1      16.897 -35.479  21.322  1.00  0.00    -0.550 OA
ATOM      8  O   UNL     1      16.470 -36.482  19.307  1.00  0.00    -0.550 OA
ENDBRANCH   5   6
ENDBRANCH   4   5
ENDBRANCH   3   4
ENDBRANCH   2   3
ENDBRANCH   1   2
BRANCH   1   9
ATOM      9  C   UNL     1      14.305 -30.450  22.758  1.00  0.00     0.000 C 
BRANCH   9  10
ATOM     10  C   UNL     1      13.145 -29.962  23.641  1.00  0.00    -0.000 C 
BRANCH  10  11
ATOM     11  C   UNL     1      12.063 -29.218  22.843  1.00  0.00    -0.000 C 
BRANCH  11  12
ATOM     12  C   UNL     1      11.557 -27.992  23.618  1.00  0.00    -0.000 C 
BRANCH  12  13
ATOM     13  C   UNL     1      12.618 -27.413  24.567  1.00  0.00    -0.003 C 
ATOM     14  C   UNL     1      13.261 -26.136  24.026  1.00  0.00     0.004 C 
ENDBRANCH  12  13
ENDBRANCH  11  12
ENDBRANCH  10  11
ENDBRANCH   9  10
ENDBRANCH   1   9
TORSDOF 10
ENDMDL
MODEL 3
REMARK VINA RESULT:    -4.346      3.604      5.657
REMARK INTER + INTRA:          -8.030
REMARK INTER:                  -6.683
REMARK INTRA:                  -1.347
REMARK UNBOUND:                -1.143
REMARK SMILES CCCCCCCCCCCC(=O)[O-]
REMARK SMILES IDX 7 1 8 2 9 3 10 4 11 5 12 6 13 7 14 8 6 9 5 10 4 11 3 12 2 13
REMARK SMILES IDX 1 14
REMARK H PARENT
REMARK Flexibility Score: inf
ROOT
ATOM      1  C   UNL     1      13.795 -32.253  23.873  1.00  0.00     0.000 C 
ENDROOT
BRANCH   1   2
ATOM      2  C   UNL     1      14.747 -33.265  23.214  1.00  0.00     0.000 C 
BRANCH   2   3
ATOM      3  C   UNL     1      14.599 -33.310  21.685  1.00  0.00     0.000 C 
BRANCH   3   4
ATOM      4  C   UNL     1      15.964 -33.507  21.008  1.00  0.00     0.006 C 
BRANCH   4   5
ATOM      5  C   UNL     1      15.828 -34.004  19.562  1.00  0.00     0.053 C 
BRANCH   5   6
ATOM      6  C   UNL     1      16.790 -35.114  19.262  1.00  0.00     0.041 C 
ATOM      7  O   UNL     1      16.409 -36.313  19.316  1.00  0.00    -0.550 OA
ATOM      8  O   UNL     1      18.113 -34.824  18.955  1.00  0.00    -0.550 OA
ENDBRANCH   5   6
ENDBRANCH   4   5
ENDBRANCH   3   4
ENDBRANCH   2   3
ENDBRANCH   1   2
BRANCH   1   9
ATOM      9  C   UNL     1      13.211 -31.247  22.864  1.00  0.00     0.000 C 
BRANCH   9  10
ATOM     10  C   UNL     1      13.212 -29.806  23.400  1.00  0.00    -0.000 C 
BRANCH  10  11
ATOM     11  C   UNL     1      14.299 -28.933  22.754  1.00  0.00    -0.000 C 
BRANCH  11  12
ATOM     12  C   UNL     1      14.910 -29.635  21.532  1.00  0.00    -0.000 C 
BRANCH  12  13
ATOM     13  C   UNL     1      16.440 -29.750  21.620  1.00  0.00    -0.003 C 
ATOM     14  C   UNL     1      16.911 -30.378  22.932  1.00  0.00     0.004 C 
ENDBRANCH  12  13
ENDBRANCH  11  12
ENDBRANCH  10  11
ENDBRANCH   9  10
ENDBRANCH   1   9
TORSDOF 10
ENDMDL
MODEL 4
REMARK VINA RESULT:    -4.312      1.168      1.604
REMARK INTER + INTRA:          -7.975
REMARK INTER:                  -6.881
REMARK INTRA:                  -1.094
REMARK UNBOUND:                -1.143
REMARK SMILES CCCCCCCCCCCC(=O)[O-]
REMARK SMILES IDX 7 1 8 2 9 3 10 4 11 5 12 6 13 7 14 8 6 9 5 10 4 11 3 12 2 13
REMARK SMILES IDX 1 14
REMARK H PARENT
REMARK Flexibility Score: inf
ROOT
ATOM      1  C   UNL     1      14.588 -33.280  21.078  1.00  0.00     0.000 C 
ENDROOT
BRANCH   1   2
ATOM      2  C   UNL     1      15.271 -33.877  22.320  1.00  0.00     0.000 C 
BRANCH   2   3
ATOM      3  C   UNL     1      15.220 -32.936  23.535  1.00  0.00     0.000 C 
BRANCH   3   4
ATOM      4  C   UNL     1      13.886 -32.176  23.583  1.00  0.00     0.006 C 
BRANCH   4   5
ATOM      5  C   UNL     1      14.074 -30.662  23.408  1.00  0.00     0.053 C 
BRANCH   5   6
ATOM      6  C   UNL     1      12.812 -29.993  22.954  1.00  0.00     0.041 C 
ATOM      7  O   UNL     1      12.466 -28.889  23.451  1.00  0.00    -0.550 OA
ATOM      8  O   UNL     1      12.002 -30.606  22.006  1.00  0.00    -0.550 OA
ENDBRANCH   5   6
ENDBRANCH   4   5
ENDBRANCH   3   4
ENDBRANCH   2   3
ENDBRANCH   1   2
BRANCH   1   9
ATOM      9  C   UNL     1      14.845 -34.110  19.807  1.00  0.00     0.000 C 
BRANCH   9  10
ATOM     10  C   UNL     1      16.264 -34.701  19.765  1.00  0.00    -0.000 C 
BRANCH  10  11
ATOM     11  C   UNL     1      17.249 -33.828  18.972  1.00  0.00    -0.000 C 
BRANCH  11  12
ATOM     12  C   UNL     1      18.558 -33.634  19.751  1.00  0.00    -0.000 C 
BRANCH  12  13
ATOM     13  C   UNL     1      18.406 -32.655  20.926  1.00  0.00    -0.003 C 
ATOM     14  C   UNL     1      17.705 -31.356  20.527  1.00  0.00     0.004 C 
ENDBRANCH  12  13
ENDBRANCH  11  12
ENDBRANCH  10  11
ENDBRANCH   9  10
ENDBRANCH   1   9
TORSDOF 10
ENDMDL
MODEL 5
REMARK VINA RESULT:    -4.283      2.861      5.999
REMARK INTER + INTRA:          -7.929
REMARK INTER:                  -7.184
REMARK INTRA:                  -0.745
REMARK UNBOUND:                -1.143
REMARK SMILES CCCCCCCCCCCC(=O)[O-]
REMARK SMILES IDX 7 1 8 2 9 3 10 4 11 5 12 6 13 7 14 8 6 9 5 10 4 11 3 12 2 13
REMARK SMILES IDX 1 14
REMARK H PARENT
REMARK Flexibility Score: inf
ROOT
ATOM      1  C   UNL     1      13.239 -31.145  20.738  1.00  0.00     0.000 C 
ENDROOT
BRANCH   1   2
ATOM      2  C   UNL     1      14.557 -31.824  21.145  1.00  0.00     0.000 C 
BRANCH   2   3
ATOM      3  C   UNL     1      14.573 -33.327  20.826  1.00  0.00     0.000 C 
BRANCH   3   4
ATOM      4  C   UNL     1      15.333 -34.108  21.908  1.00  0.00     0.006 C 
BRANCH   4   5
ATOM      5  C   UNL     1      14.970 -33.642  23.325  1.00  0.00     0.053 C 
BRANCH   5   6
ATOM      6  C   UNL     1      16.190 -33.323  24.136  1.00  0.00     0.041 C 
ATOM      7  O   UNL     1      16.555 -34.097  25.060  1.00  0.00    -0.550 OA
ATOM      8  O   UNL     1      16.902 -32.156  23.893  1.00  0.00    -0.550 OA
ENDBRANCH   5   6
ENDBRANCH   4   5
ENDBRANCH   3   4
ENDBRANCH   2   3
ENDBRANCH   1   2
BRANCH   1   9
ATOM      9  C   UNL     1      12.361 -30.784  21.950  1.00  0.00     0.000 C 
BRANCH   9  10
ATOM     10  C   UNL     1      13.188 -30.329  23.163  1.00  0.00    -0.000 C 
BRANCH  10  11
ATOM     11  C   UNL     1      13.494 -28.823  23.143  1.00  0.00    -0.000 C 
BRANCH  11  12
ATOM     12  C   UNL     1      12.394 -28.032  23.869  1.00  0.00    -0.000 C 
BRANCH  12  13
ATOM     13  C   UNL     1      12.644 -26.516  23.844  1.00  0.00    -0.003 C 
ATOM     14  C   UNL     1      13.622 -26.060  24.928  1.00  0.00     0.004 C 
ENDBRANCH  12  13
ENDBRANCH  11  12
ENDBRANCH  10  11
ENDBRANCH   9  10
ENDBRANCH   1   9
TORSDOF 10
ENDMDL
MODEL 6
REMARK VINA RESULT:    -4.271      1.396      2.481
REMARK INTER + INTRA:          -7.910
REMARK INTER:                  -7.315
REMARK INTRA:                  -0.595
REMARK UNBOUND:                -1.143
REMARK SMILES CCCCCCCCCCCC(=O)[O-]
REMARK SMILES IDX 7 1 8 2 9 3 10 4 11 5 12 6 13 7 14 8 6 9 5 10 4 11 3 12 2 13
REMARK SMILES IDX 1 14
REMARK H PARENT
REMARK Flexibility Score: inf
ROOT
ATOM      1  C   UNL     1      13.615 -32.136  20.526  1.00  0.00     0.000 C 
ENDROOT
BRANCH   1   2
ATOM      2  C   UNL     1      13.293 -31.049  21.564  1.00  0.00     0.000 C 
BRANCH   2   3
ATOM      3  C   UNL     1      14.514 -30.185  21.918  1.00  0.00     0.000 C 
BRANCH   3   4
ATOM      4  C   UNL     1      14.106 -28.996  22.802  1.00  0.00     0.006 C 
BRANCH   4   5
ATOM      5  C   UNL     1      12.754 -29.222  23.491  1.00  0.00     0.053 C 
BRANCH   5   6
ATOM      6  C   UNL     1      12.119 -27.930  23.908  1.00  0.00     0.041 C 
ATOM      7  O   UNL     1      12.510 -27.339  24.949  1.00  0.00    -0.550 OA
ATOM      8  O   UNL     1      11.072 -27.398  23.166  1.00  0.00    -0.550 OA
ENDBRANCH   5   6
ENDBRANCH   4   5
ENDBRANCH   3   4
ENDBRANCH   2   3
ENDBRANCH   1   2
BRANCH   1   9
ATOM      9  C   UNL     1      15.024 -32.728  20.709  1.00  0.00     0.000 C 
BRANCH   9  10
ATOM     10  C   UNL     1      15.006 -34.258  20.857  1.00  0.00    -0.000 C 
BRANCH  10  11
ATOM     11  C   UNL     1      15.812 -34.971  19.760  1.00  0.00    -0.000 C 
BRANCH  11  12
ATOM     12  C   UNL     1      16.665 -33.969  18.968  1.00  0.00    -0.000 C 
BRANCH  12  13
ATOM     13  C   UNL     1      18.171 -34.248  19.091  1.00  0.00    -0.003 C 
ATOM     14  C   UNL     1      18.869 -33.304  20.071  1.00  0.00     0.004 C 
ENDBRANCH  12  13
ENDBRANCH  11  12
ENDBRANCH  10  11
ENDBRANCH   9  10
ENDBRANCH   1   9
TORSDOF 10
ENDMDL
MODEL 7
REMARK VINA RESULT:    -4.262      2.817      5.674
REMARK INTER + INTRA:          -7.897
REMARK INTER:                  -6.642
REMARK INTRA:                  -1.254
REMARK UNBOUND:                -1.143
REMARK SMILES CCCCCCCCCCCC(=O)[O-]
REMARK SMILES IDX 7 1 8 2 9 3 10 4 11 5 12 6 13 7 14 8 6 9 5 10 4 11 3 12 2 13
REMARK SMILES IDX 1 14
REMARK H PARENT
REMARK Flexibility Score: inf
ROOT
ATOM      1  C   UNL     1      16.299 -30.621  23.131  1.00  0.00     0.000 C 
ENDROOT
BRANCH   1   2
ATOM      2  C   UNL     1      16.571 -32.121  23.329  1.00  0.00     0.000 C 
BRANCH   2   3
ATOM      3  C   UNL     1      15.292 -32.923  23.618  1.00  0.00     0.000 C 
BRANCH   3   4
ATOM      4  C   UNL     1      15.048 -33.976  22.528  1.00  0.00     0.006 C 
BRANCH   4   5
ATOM      5  C   UNL     1      16.155 -33.979  21.464  1.00  0.00     0.053 C 
BRANCH   5   6
ATOM      6  C   UNL     1      15.595 -33.878  20.078  1.00  0.00     0.041 C 
ATOM      7  O   UNL     1      14.382 -33.590  19.904  1.00  0.00    -0.550 OA
ATOM      8  O   UNL     1      16.406 -34.135  18.979  1.00  0.00    -0.550 OA
ENDBRANCH   5   6
ENDBRANCH   4   5
ENDBRANCH   3   4
ENDBRANCH   2   3
ENDBRANCH   1   2
BRANCH   1   9
ATOM      9  C   UNL     1      16.052 -30.255  21.656  1.00  0.00     0.000 C 
BRANCH   9  10
ATOM     10  C   UNL     1      14.666 -29.628  21.427  1.00  0.00    -0.000 C 
BRANCH  10  11
ATOM     11  C   UNL     1      13.532 -30.664  21.468  1.00  0.00    -0.000 C 
BRANCH  11  12
ATOM     12  C   UNL     1      12.390 -30.189  22.380  1.00  0.00    -0.000 C 
BRANCH  12  13
ATOM     13  C   UNL     1      12.870 -29.218  23.471  1.00  0.00    -0.003 C 
ATOM     14  C   UNL     1      11.818 -28.170  23.834  1.00  0.00     0.004 C 
ENDBRANCH  12  13
ENDBRANCH  11  12
ENDBRANCH  10  11
ENDBRANCH   9  10
ENDBRANCH   1   9
TORSDOF 10
ENDMDL
MODEL 8
REMARK VINA RESULT:    -4.248      2.987      6.632
REMARK INTER + INTRA:          -7.875
REMARK INTER:                  -7.057
REMARK INTRA:                  -0.818
REMARK UNBOUND:                -1.143
REMARK SMILES CCCCCCCCCCCC(=O)[O-]
REMARK SMILES IDX 7 1 8 2 9 3 10 4 11 5 12 6 13 7 14 8 6 9 5 10 4 11 3 12 2 13
REMARK SMILES IDX 1 14
REMARK H PARENT
REMARK Flexibility Score: inf
ROOT
ATOM      1  C   UNL     1      14.893 -29.812  21.587  1.00  0.00     0.000 C 
ENDROOT
BRANCH   1   2
ATOM      2  C   UNL     1      15.902 -29.926  22.742  1.00  0.00     0.000 C 
BRANCH   2   3
ATOM      3  C   UNL     1      17.121 -30.790  22.382  1.00  0.00     0.000 C 
BRANCH   3   4
ATOM      4  C   UNL     1      17.211 -31.005  20.864  1.00  0.00     0.006 C 
BRANCH   4   5
ATOM      5  C   UNL     1      17.697 -32.416  20.505  1.00  0.00     0.053 C 
BRANCH   5   6
ATOM      6  C   UNL     1      16.582 -33.274  19.988  1.00  0.00     0.041 C 
ATOM      7  O   UNL     1      16.762 -34.005  18.978  1.00  0.00    -0.550 OA
ATOM      8  O   UNL     1      15.337 -33.241  20.601  1.00  0.00    -0.550 OA
ENDBRANCH   5   6
ENDBRANCH   4   5
ENDBRANCH   3   4
ENDBRANCH   2   3
ENDBRANCH   1   2
BRANCH   1   9
ATOM      9  C   UNL     1      13.482 -30.281  21.987  1.00  0.00     0.000 C 
BRANCH   9  10
ATOM     10  C   UNL     1      13.078 -29.804  23.392  1.00  0.00    -0.000 C 
BRANCH  10  11
ATOM     11  C   UNL     1      12.028 -28.683  23.359  1.00  0.00    -0.000 C 
BRANCH  11  12
ATOM     12  C   UNL     1      12.353 -27.599  24.397  1.00  0.00    -0.000 C 
BRANCH  12  13
ATOM     13  C   UNL     1      13.488 -26.667  23.943  1.00  0.00    -0.003 C 
ATOM     14  C   UNL     1      14.045 -25.814  25.083  1.00  0.00     0.004 C 
ENDBRANCH  12  13
ENDBRANCH  11  12
ENDBRANCH  10  11
ENDBRANCH   9  10
ENDBRANCH   1   9
TORSDOF 10
ENDMDL
MODEL 9
REMARK VINA RESULT:    -4.219      3.166      5.746
REMARK INTER + INTRA:          -7.828
REMARK INTER:                  -6.488
REMARK INTRA:                  -1.340
REMARK UNBOUND:                -1.143
REMARK SMILES CCCCCCCCCCCC(=O)[O-]
REMARK SMILES IDX 7 1 8 2 9 3 10 4 11 5 12 6 13 7 14 8 6 9 5 10 4 11 3 12 2 13
REMARK SMILES IDX 1 14
REMARK H PARENT
REMARK Flexibility Score: inf
ROOT
ATOM      1  C   UNL     1      17.060 -31.058  21.126  1.00  0.00     0.000 C 
ENDROOT
BRANCH   1   2
ATOM      2  C   UNL     1      17.223 -32.022  22.312  1.00  0.00     0.000 C 
BRANCH   2   3
ATOM      3  C   UNL     1      17.416 -33.481  21.869  1.00  0.00     0.000 C 
BRANCH   3   4
ATOM      4  C   UNL     1      16.117 -34.282  22.043  1.00  0.00     0.006 C 
BRANCH   4   5
ATOM      5  C   UNL     1      15.260 -34.282  20.769  1.00  0.00     0.053 C 
BRANCH   5   6
ATOM      6  C   UNL     1      16.020 -34.803  19.587  1.00  0.00     0.041 C 
ATOM      7  O   UNL     1      16.412 -34.013  18.688  1.00  0.00    -0.550 OA
ATOM      8  O   UNL     1      16.265 -36.164  19.462  1.00  0.00    -0.550 OA
ENDBRANCH   5   6
ENDBRANCH   4   5
ENDBRANCH   3   4
ENDBRANCH   2   3
ENDBRANCH   1   2
BRANCH   1   9
ATOM      9  C   UNL     1      16.720 -29.624  21.572  1.00  0.00     0.000 C 
BRANCH   9  10
ATOM     10  C   UNL     1      15.257 -29.478  22.022  1.00  0.00    -0.000 C 
BRANCH  10  11
ATOM     11  C   UNL     1      14.278 -30.244  21.120  1.00  0.00    -0.000 C 
BRANCH  11  12
ATOM     12  C   UNL     1      13.171 -30.907  21.952  1.00  0.00    -0.000 C 
BRANCH  12  13
ATOM     13  C   UNL     1      13.492 -30.925  23.455  1.00  0.00    -0.003 C 
ATOM     14  C   UNL     1      13.824 -32.325  23.972  1.00  0.00     0.004 C 
ENDBRANCH  12  13
ENDBRANCH  11  12
ENDBRANCH  10  11
ENDBRANCH   9  10
ENDBRANCH   1   9
TORSDOF 10
ENDMDL
