MODEL 1
REMARK VINA RESULT:    13.109      0.000      0.000
REMARK INTER + INTRA:          23.564
REMARK INTER:                  23.837
REMARK INTRA:                  -0.273
REMARK UNBOUND:                -0.273
REMARK SMILES CCCCCC=CCC=CCCCCCCCC(=O)[O-]
REMARK SMILES IDX 11 1 12 2 13 3 14 4 15 5 16 6 17 7 18 8 19 9 20 10 10 11
REMARK SMILES IDX 9 12 8 13 7 14 6 15 5 16 4 17 3 18 2 19 1 20
REMARK H PARENT
REMARK Flexibility Score: inf
ROOT
ATOM      1  C   UNL     1      78.135   2.315  61.876  1.00  0.00     0.027 C 
ENDROOT
BRANCH   1   2
ATOM      2  C   UNL     1      77.319   1.013  61.947  1.00  0.00     0.004 C 
BRANCH   2   3
ATOM      3  C   UNL     1      77.229   0.455  63.379  1.00  0.00     0.000 C 
BRANCH   3   4
ATOM      4  C   UNL     1      78.595   0.406  64.085  1.00  0.00     0.000 C 
BRANCH   4   5
ATOM      5  C   UNL     1      78.628  -0.416  65.389  1.00  0.00     0.000 C 
BRANCH   5   6
ATOM      6  C   UNL     1      80.030  -0.649  65.978  1.00  0.00     0.006 C 
BRANCH   6   7
ATOM      7  C   UNL     1      79.997  -0.992  67.473  1.00  0.00     0.053 C 
BRANCH   7   8
ATOM      8  C   UNL     1      78.972  -2.047  67.743  1.00  0.00     0.041 C 
ATOM      9  O   UNL     1      79.318  -3.251  67.868  1.00  0.00    -0.550 OA
ATOM     10  O   UNL     1      77.627  -1.706  67.818  1.00  0.00    -0.550 OA
ENDBRANCH   7   8
ENDBRANCH   6   7
ENDBRANCH   5   6
ENDBRANCH   4   5
ENDBRANCH   3   4
ENDBRANCH   2   3
ENDBRANCH   1   2
BRANCH   1  11
ATOM     11  C   UNL     1      77.678   3.330  62.888  1.00  0.00    -0.031 C 
ATOM     12  C   UNL     1      78.499   4.295  63.334  1.00  0.00    -0.027 C 
BRANCH  12  13
ATOM     13  C   UNL     1      78.093   5.234  64.434  1.00  0.00     0.054 C 
BRANCH  13  14
ATOM     14  C   UNL     1      78.724   6.597  64.271  1.00  0.00    -0.027 C 
ATOM     15  C   UNL     1      78.480   7.663  65.058  1.00  0.00    -0.031 C 
BRANCH  15  16
ATOM     16  C   UNL     1      77.573   7.660  66.266  1.00  0.00     0.027 C 
BRANCH  16  17
ATOM     17  C   UNL     1      77.059   9.067  66.608  1.00  0.00     0.004 C 
BRANCH  17  18
ATOM     18  C   UNL     1      78.063  10.163  66.210  1.00  0.00     0.000 C 
BRANCH  18  19
ATOM     19  C   UNL     1      79.224  10.287  67.208  1.00  0.00    -0.003 C 
ATOM     20  C   UNL     1      80.585  10.397  66.521  1.00  0.00     0.004 C 
ENDBRANCH  18  19
ENDBRANCH  17  18
ENDBRANCH  16  17
ENDBRANCH  15  16
ENDBRANCH  13  14
ENDBRANCH  12  13
ENDBRANCH   1  11
TORSDOF 14
ENDMDL
MODEL 2
REMARK VINA RESULT:    13.111      4.331      9.316
REMARK INTER + INTRA:          23.568
REMARK INTER:                  23.975
REMARK INTRA:                  -0.407
REMARK UNBOUND:                -0.273
REMARK SMILES CCCCCC=CCC=CCCCCCCCC(=O)[O-]
REMARK SMILES IDX 11 1 12 2 13 3 14 4 15 5 16 6 17 7 18 8 19 9 20 10 10 11
REMARK SMILES IDX 9 12 8 13 7 14 6 15 5 16 4 17 3 18 2 19 1 20
REMARK H PARENT
REMARK Flexibility Score: inf
ROOT
ATOM      1  C   UNL     1      78.733   5.209  64.072  1.00  0.00     0.027 C 
ENDROOT
BRANCH   1   2
ATOM      2  C   UNL     1      77.820   6.423  64.310  1.00  0.00     0.004 C 
BRANCH   2   3
ATOM      3  C   UNL     1      78.504   7.514  65.153  1.00  0.00     0.000 C 
BRANCH   3   4
ATOM      4  C   UNL     1      77.633   7.992  66.328  1.00  0.00     0.000 C 
BRANCH   4   5
ATOM      5  C   UNL     1      77.113   9.438  66.210  1.00  0.00     0.000 C 
BRANCH   5   6
ATOM      6  C   UNL     1      78.091  10.524  66.693  1.00  0.00     0.006 C 
BRANCH   6   7
ATOM      7  C   UNL     1      79.331   9.943  67.383  1.00  0.00     0.053 C 
BRANCH   7   8
ATOM      8  C   UNL     1      80.577  10.478  66.753  1.00  0.00     0.041 C 
ATOM      9  O   UNL     1      81.549  10.833  67.471  1.00  0.00    -0.550 OA
ATOM     10  O   UNL     1      80.652  10.622  65.374  1.00  0.00    -0.550 OA
ENDBRANCH   7   8
ENDBRANCH   6   7
ENDBRANCH   5   6
ENDBRANCH   4   5
ENDBRANCH   3   4
ENDBRANCH   2   3
ENDBRANCH   1   2
BRANCH   1  11
ATOM     11  C   UNL     1      78.013   4.076  63.392  1.00  0.00    -0.031 C 
ATOM     12  C   UNL     1      78.671   3.165  62.659  1.00  0.00    -0.027 C 
BRANCH  12  13
ATOM     13  C   UNL     1      77.948   2.107  61.875  1.00  0.00     0.054 C 
BRANCH  13  14
ATOM     14  C   UNL     1      77.036   1.281  62.753  1.00  0.00    -0.027 C 
ATOM     15  C   UNL     1      77.433   0.561  63.821  1.00  0.00    -0.031 C 
BRANCH  15  16
ATOM     16  C   UNL     1      78.846   0.500  64.349  1.00  0.00     0.027 C 
BRANCH  16  17
ATOM     17  C   UNL     1      79.082  -0.735  65.232  1.00  0.00     0.004 C 
BRANCH  17  18
ATOM     18  C   UNL     1      79.319  -0.356  66.705  1.00  0.00     0.000 C 
BRANCH  18  19
ATOM     19  C   UNL     1      79.163  -1.555  67.652  1.00  0.00    -0.003 C 
ATOM     20  C   UNL     1      77.931  -2.403  67.336  1.00  0.00     0.004 C 
ENDBRANCH  18  19
ENDBRANCH  17  18
ENDBRANCH  16  17
ENDBRANCH  15  16
ENDBRANCH  13  14
ENDBRANCH  12  13
ENDBRANCH   1  11
TORSDOF 14
ENDMDL
MODEL 3
REMARK VINA RESULT:    13.933      1.388      2.108
REMARK INTER + INTRA:          25.064
REMARK INTER:                  26.273
REMARK INTRA:                  -1.209
REMARK UNBOUND:                -0.273
REMARK SMILES CCCCCC=CCC=CCCCCCCCC(=O)[O-]
REMARK SMILES IDX 11 1 12 2 13 3 14 4 15 5 16 6 17 7 18 8 19 9 20 10 10 11
REMARK SMILES IDX 9 12 8 13 7 14 6 15 5 16 4 17 3 18 2 19 1 20
REMARK H PARENT
REMARK Flexibility Score: inf
ROOT
ATOM      1  C   UNL     1      77.685   2.570  61.978  1.00  0.00     0.027 C 
ENDROOT
BRANCH   1   2
ATOM      2  C   UNL     1      76.876   1.291  62.250  1.00  0.00     0.004 C 
BRANCH   2   3
ATOM      3  C   UNL     1      76.875   0.904  63.740  1.00  0.00     0.000 C 
BRANCH   3   4
ATOM      4  C   UNL     1      77.886  -0.208  64.067  1.00  0.00     0.000 C 
BRANCH   4   5
ATOM      5  C   UNL     1      79.242   0.280  64.613  1.00  0.00     0.000 C 
BRANCH   5   6
ATOM      6  C   UNL     1      79.882  -0.628  65.679  1.00  0.00     0.006 C 
BRANCH   6   7
ATOM      7  C   UNL     1      79.174  -0.540  67.037  1.00  0.00     0.053 C 
BRANCH   7   8
ATOM      8  C   UNL     1      78.900  -1.909  67.571  1.00  0.00     0.041 C 
ATOM      9  O   UNL     1      77.773  -2.444  67.399  1.00  0.00    -0.550 OA
ATOM     10  O   UNL     1      79.876  -2.581  68.296  1.00  0.00    -0.550 OA
ENDBRANCH   7   8
ENDBRANCH   6   7
ENDBRANCH   5   6
ENDBRANCH   4   5
ENDBRANCH   3   4
ENDBRANCH   2   3
ENDBRANCH   1   2
BRANCH   1  11
ATOM     11  C   UNL     1      77.757   3.467  63.184  1.00  0.00    -0.031 C 
ATOM     12  C   UNL     1      78.767   4.335  63.354  1.00  0.00    -0.027 C 
BRANCH  12  13
ATOM     13  C   UNL     1      78.914   5.143  64.612  1.00  0.00     0.054 C 
BRANCH  13  14
ATOM     14  C   UNL     1      78.609   6.605  64.379  1.00  0.00    -0.027 C 
ATOM     15  C   UNL     1      79.519   7.544  64.055  1.00  0.00    -0.031 C 
BRANCH  15  16
ATOM     16  C   UNL     1      80.987   7.283  63.818  1.00  0.00     0.027 C 
BRANCH  16  17
ATOM     17  C   UNL     1      81.867   8.447  64.298  1.00  0.00     0.004 C 
BRANCH  17  18
ATOM     18  C   UNL     1      81.264   9.816  63.938  1.00  0.00     0.000 C 
BRANCH  18  19
ATOM     19  C   UNL     1      81.414  10.841  65.071  1.00  0.00    -0.003 C 
ATOM     20  C   UNL     1      80.778  10.374  66.381  1.00  0.00     0.004 C 
ENDBRANCH  18  19
ENDBRANCH  17  18
ENDBRANCH  16  17
ENDBRANCH  15  16
ENDBRANCH  13  14
ENDBRANCH  12  13
ENDBRANCH   1  11
TORSDOF 14
ENDMDL
MODEL 4
REMARK VINA RESULT:    14.339      6.383     12.185
REMARK INTER + INTRA:          25.801
REMARK INTER:                  26.381
REMARK INTRA:                  -0.581
REMARK UNBOUND:                -0.273
REMARK SMILES CCCCCC=CCC=CCCCCCCCC(=O)[O-]
REMARK SMILES IDX 11 1 12 2 13 3 14 4 15 5 16 6 17 7 18 8 19 9 20 10 10 11
REMARK SMILES IDX 9 12 8 13 7 14 6 15 5 16 4 17 3 18 2 19 1 20
REMARK H PARENT
REMARK Flexibility Score: inf
ROOT
ATOM      1  C   UNL     1      81.180  -1.689  68.202  1.00  0.00     0.027 C 
ENDROOT
BRANCH   1   2
ATOM      2  C   UNL     1      79.776  -2.160  67.788  1.00  0.00     0.004 C 
BRANCH   2   3
ATOM      3  C   UNL     1      78.970  -1.053  67.084  1.00  0.00     0.000 C 
BRANCH   3   4
ATOM      4  C   UNL     1      79.485  -0.753  65.666  1.00  0.00     0.000 C 
BRANCH   4   5
ATOM      5  C   UNL     1      78.872   0.494  64.999  1.00  0.00     0.000 C 
BRANCH   5   6
ATOM      6  C   UNL     1      78.109   0.225  63.689  1.00  0.00     0.006 C 
BRANCH   6   7
ATOM      7  C   UNL     1      77.147   1.360  63.318  1.00  0.00     0.053 C 
BRANCH   7   8
ATOM      8  C   UNL     1      77.875   2.444  62.591  1.00  0.00     0.041 C 
ATOM      9  O   UNL     1      78.875   2.169  61.877  1.00  0.00    -0.550 OA
ATOM     10  O   UNL     1      77.475   3.767  62.733  1.00  0.00    -0.550 OA
ENDBRANCH   7   8
ENDBRANCH   6   7
ENDBRANCH   5   6
ENDBRANCH   4   5
ENDBRANCH   3   4
ENDBRANCH   2   3
ENDBRANCH   1   2
BRANCH   1  11
ATOM     11  C   UNL     1      82.220  -2.760  68.014  1.00  0.00    -0.031 C 
ATOM     12  C   UNL     1      83.521  -2.525  68.251  1.00  0.00    -0.027 C 
BRANCH  12  13
ATOM     13  C   UNL     1      84.579  -3.548  67.947  1.00  0.00     0.054 C 
BRANCH  13  14
ATOM     14  C   UNL     1      85.204  -4.101  69.207  1.00  0.00    -0.027 C 
ATOM     15  C   UNL     1      86.454  -4.595  69.298  1.00  0.00    -0.031 C 
BRANCH  15  16
ATOM     16  C   UNL     1      87.457  -4.631  68.170  1.00  0.00     0.027 C 
BRANCH  16  17
ATOM     17  C   UNL     1      88.455  -5.790  68.317  1.00  0.00     0.004 C 
BRANCH  17  18
ATOM     18  C   UNL     1      88.068  -7.000  67.449  1.00  0.00     0.000 C 
BRANCH  18  19
ATOM     19  C   UNL     1      88.609  -8.324  68.010  1.00  0.00    -0.003 C 
ATOM     20  C   UNL     1      89.569  -9.026  67.049  1.00  0.00     0.004 C 
ENDBRANCH  18  19
ENDBRANCH  17  18
ENDBRANCH  16  17
ENDBRANCH  15  16
ENDBRANCH  13  14
ENDBRANCH  12  13
ENDBRANCH   1  11
TORSDOF 14
ENDMDL
MODEL 5
REMARK VINA RESULT:    15.051      2.435      4.767
REMARK INTER + INTRA:          27.095
REMARK INTER:                  27.737
REMARK INTRA:                  -0.642
REMARK UNBOUND:                -0.273
REMARK SMILES CCCCCC=CCC=CCCCCCCCC(=O)[O-]
REMARK SMILES IDX 11 1 12 2 13 3 14 4 15 5 16 6 17 7 18 8 19 9 20 10 10 11
REMARK SMILES IDX 9 12 8 13 7 14 6 15 5 16 4 17 3 18 2 19 1 20
REMARK H PARENT
REMARK Flexibility Score: inf
ROOT
ATOM      1  C   UNL     1      79.538  -0.379  65.432  1.00  0.00     0.027 C 
ENDROOT
BRANCH   1   2
ATOM      2  C   UNL     1      79.093  -0.449  66.902  1.00  0.00     0.004 C 
BRANCH   2   3
ATOM      3  C   UNL     1      78.381  -1.772  67.237  1.00  0.00     0.000 C 
BRANCH   3   4
ATOM      4  C   UNL     1      79.236  -2.701  68.116  1.00  0.00     0.000 C 
BRANCH   4   5
ATOM      5  C   UNL     1      80.463  -2.035  68.771  1.00  0.00     0.000 C 
BRANCH   5   6
ATOM      6  C   UNL     1      81.825  -2.486  68.214  1.00  0.00     0.006 C 
BRANCH   6   7
ATOM      7  C   UNL     1      82.889  -2.647  69.307  1.00  0.00     0.053 C 
BRANCH   7   8
ATOM      8  C   UNL     1      84.130  -3.261  68.740  1.00  0.00     0.041 C 
ATOM      9  O   UNL     1      84.593  -2.855  67.642  1.00  0.00    -0.550 OA
ATOM     10  O   UNL     1      84.753  -4.309  69.405  1.00  0.00    -0.550 OA
ENDBRANCH   7   8
ENDBRANCH   6   7
ENDBRANCH   5   6
ENDBRANCH   4   5
ENDBRANCH   3   4
ENDBRANCH   2   3
ENDBRANCH   1   2
BRANCH   1  11
ATOM     11  C   UNL     1      78.377  -0.188  64.493  1.00  0.00    -0.031 C 
ATOM     12  C   UNL     1      78.289   0.889  63.697  1.00  0.00    -0.027 C 
BRANCH  12  13
ATOM     13  C   UNL     1      77.076   1.151  62.850  1.00  0.00     0.054 C 
BRANCH  13  14
ATOM     14  C   UNL     1      77.299   2.291  61.884  1.00  0.00    -0.027 C 
ATOM     15  C   UNL     1      77.470   3.581  62.235  1.00  0.00    -0.031 C 
BRANCH  15  16
ATOM     16  C   UNL     1      77.519   4.095  63.655  1.00  0.00     0.027 C 
BRANCH  16  17
ATOM     17  C   UNL     1      78.781   4.926  63.928  1.00  0.00     0.004 C 
BRANCH  17  18
ATOM     18  C   UNL     1      78.459   6.416  64.136  1.00  0.00     0.000 C 
BRANCH  18  19
ATOM     19  C   UNL     1      78.241   6.769  65.615  1.00  0.00    -0.003 C 
ATOM     20  C   UNL     1      77.667   8.172  65.810  1.00  0.00     0.004 C 
ENDBRANCH  18  19
ENDBRANCH  17  18
ENDBRANCH  16  17
ENDBRANCH  15  16
ENDBRANCH  13  14
ENDBRANCH  12  13
ENDBRANCH   1  11
TORSDOF 14
ENDMDL
MODEL 6
REMARK VINA RESULT:    15.740      6.525     10.019
REMARK INTER + INTRA:          28.349
REMARK INTER:                  28.865
REMARK INTRA:                  -0.516
REMARK UNBOUND:                -0.273
REMARK SMILES CCCCCC=CCC=CCCCCCCCC(=O)[O-]
REMARK SMILES IDX 11 1 12 2 13 3 14 4 15 5 16 6 17 7 18 8 19 9 20 10 10 11
REMARK SMILES IDX 9 12 8 13 7 14 6 15 5 16 4 17 3 18 2 19 1 20
REMARK H PARENT
REMARK Flexibility Score: inf
ROOT
ATOM      1  C   UNL     1      83.613  -3.035  67.753  1.00  0.00     0.027 C 
ENDROOT
BRANCH   1   2
ATOM      2  C   UNL     1      84.508  -3.509  68.911  1.00  0.00     0.004 C 
BRANCH   2   3
ATOM      3  C   UNL     1      85.538  -4.562  68.462  1.00  0.00     0.000 C 
BRANCH   3   4
ATOM      4  C   UNL     1      86.782  -4.601  69.366  1.00  0.00     0.000 C 
BRANCH   4   5
ATOM      5  C   UNL     1      88.020  -5.279  68.746  1.00  0.00     0.000 C 
BRANCH   5   6
ATOM      6  C   UNL     1      87.734  -6.163  67.519  1.00  0.00     0.006 C 
BRANCH   6   7
ATOM      7  C   UNL     1      88.998  -6.825  66.957  1.00  0.00     0.053 C 
BRANCH   7   8
ATOM      8  C   UNL     1      89.163  -8.199  67.523  1.00  0.00     0.041 C 
ATOM      9  O   UNL     1      89.638  -9.125  66.814  1.00  0.00    -0.550 OA
ATOM     10  O   UNL     1      88.756  -8.468  68.823  1.00  0.00    -0.550 OA
ENDBRANCH   7   8
ENDBRANCH   6   7
ENDBRANCH   5   6
ENDBRANCH   4   5
ENDBRANCH   3   4
ENDBRANCH   2   3
ENDBRANCH   1   2
BRANCH   1  11
ATOM     11  C   UNL     1      82.353  -2.374  68.241  1.00  0.00    -0.031 C 
ATOM     12  C   UNL     1      81.387  -1.991  67.391  1.00  0.00    -0.027 C 
BRANCH  12  13
ATOM     13  C   UNL     1      80.184  -1.219  67.854  1.00  0.00     0.054 C 
BRANCH  13  14
ATOM     14  C   UNL     1      78.921  -1.679  67.165  1.00  0.00    -0.027 C 
ATOM     15  C   UNL     1      78.394  -1.120  66.059  1.00  0.00    -0.031 C 
BRANCH  15  16
ATOM     16  C   UNL     1      79.005   0.029  65.292  1.00  0.00     0.027 C 
BRANCH  16  17
ATOM     17  C   UNL     1      78.401   0.175  63.887  1.00  0.00     0.004 C 
BRANCH  17  18
ATOM     18  C   UNL     1      77.606   1.484  63.733  1.00  0.00     0.000 C 
BRANCH  18  19
ATOM     19  C   UNL     1      78.070   2.315  62.527  1.00  0.00    -0.003 C 
ATOM     20  C   UNL     1      79.513   2.014  62.121  1.00  0.00     0.004 C 
ENDBRANCH  18  19
ENDBRANCH  17  18
ENDBRANCH  16  17
ENDBRANCH  15  16
ENDBRANCH  13  14
ENDBRANCH  12  13
ENDBRANCH   1  11
TORSDOF 14
ENDMDL
