MODEL 1
REMARK VINA RESULT:    -4.361      0.000      0.000
REMARK INTER + INTRA:          -7.201
REMARK INTER:                  -6.273
REMARK INTRA:                  -0.928
REMARK UNBOUND:                -0.928
REMARK SMILES O=C(CO)[C@H](O)[C@H](O)[C@@H](O)CO
REMARK SMILES IDX 7 1 9 2 11 3 12 4 10 6 5 8 2 9 1 10 3 11 4 12 6 14 8 16
REMARK H PARENT 12 5 10 7 4 13 6 15 8 17
REMARK Flexibility Score: inf
ROOT
ATOM      1  C   UNL     1      84.633  63.281  16.095  1.00  0.00     0.181 C 
ENDROOT
BRANCH   1   2
ATOM      2  C   UNL     1      85.373  62.029  15.539  1.00  0.00     0.171 C 
BRANCH   2   3
ATOM      3  C   UNL     1      84.897  60.698  16.155  1.00  0.00     0.190 C 
BRANCH   3   4
ATOM      4  O   UNL     1      85.297  60.581  17.495  1.00  0.00    -0.394 OA
ATOM      5  H   UNL     1      84.485  60.363  18.021  1.00  0.00     0.210 HD
ENDBRANCH   3   4
ENDBRANCH   2   3
BRANCH   2   6
ATOM      6  O   UNL     1      86.764  62.162  15.701  1.00  0.00    -0.388 OA
ATOM      7  H   UNL     1      87.035  63.025  15.292  1.00  0.00     0.211 HD
ENDBRANCH   2   6
ENDBRANCH   1   2
BRANCH   1   8
ATOM      8  C   UNL     1      85.102  64.616  15.461  1.00  0.00     0.214 C 
BRANCH   8   9
ATOM      9  C   UNL     1      84.110  65.740  15.678  1.00  0.00     0.189 C 
ATOM     10  O   UNL     1      83.483  65.788  16.725  1.00  0.00    -0.294 OA
BRANCH   9  11
ATOM     11  C   UNL     1      83.861  66.793  14.631  1.00  0.00     0.234 C 
BRANCH  11  12
ATOM     12  O   UNL     1      83.090  66.263  13.587  1.00  0.00    -0.388 OA
ATOM     13  H   UNL     1      82.727  65.397  13.912  1.00  0.00     0.211 HD
ENDBRANCH  11  12
ENDBRANCH   9  11
ENDBRANCH   8   9
BRANCH   8  14
ATOM     14  O   UNL     1      85.309  64.448  14.082  1.00  0.00    -0.382 OA
ATOM     15  H   UNL     1      85.385  63.472  13.918  1.00  0.00     0.211 HD
ENDBRANCH   8  14
ENDBRANCH   1   8
BRANCH   1  16
ATOM     16  O   UNL     1      84.803  63.345  17.490  1.00  0.00    -0.387 OA
ATOM     17  H   UNL     1      85.763  63.174  17.677  1.00  0.00     0.211 HD
ENDBRANCH   1  16
TORSDOF 10
ENDMDL
MODEL 2
REMARK VINA RESULT:    -4.319      2.679      4.121
REMARK INTER + INTRA:          -7.141
REMARK INTER:                  -6.373
REMARK INTRA:                  -0.768
REMARK UNBOUND:                -0.928
REMARK SMILES O=C(CO)[C@H](O)[C@H](O)[C@@H](O)CO
REMARK SMILES IDX 7 1 9 2 11 3 12 4 10 6 5 8 2 9 1 10 3 11 4 12 6 14 8 16
REMARK H PARENT 12 5 10 7 4 13 6 15 8 17
REMARK Flexibility Score: inf
ROOT
ATOM      1  C   UNL     1      84.317  60.483  14.621  1.00  0.00     0.181 C 
ENDROOT
BRANCH   1   2
ATOM      2  C   UNL     1      84.452  59.972  13.156  1.00  0.00     0.171 C 
BRANCH   2   3
ATOM      3  C   UNL     1      85.898  59.624  12.749  1.00  0.00     0.190 C 
BRANCH   3   4
ATOM      4  O   UNL     1      85.968  58.366  12.131  1.00  0.00    -0.394 OA
ATOM      5  H   UNL     1      86.140  58.527  11.167  1.00  0.00     0.210 HD
ENDBRANCH   3   4
ENDBRANCH   2   3
BRANCH   2   6
ATOM      6  O   UNL     1      83.912  60.906  12.253  1.00  0.00    -0.388 OA
ATOM      7  H   UNL     1      83.461  60.399  11.528  1.00  0.00     0.211 HD
ENDBRANCH   2   6
ENDBRANCH   1   2
BRANCH   1   8
ATOM      8  C   UNL     1      85.360  61.564  15.004  1.00  0.00     0.214 C 
BRANCH   8   9
ATOM      9  C   UNL     1      85.306  61.925  16.474  1.00  0.00     0.189 C 
ATOM     10  O   UNL     1      85.674  61.107  17.303  1.00  0.00    -0.294 OA
BRANCH   9  11
ATOM     11  C   UNL     1      84.795  63.260  16.946  1.00  0.00     0.234 C 
BRANCH  11  12
ATOM     12  O   UNL     1      85.630  64.288  16.485  1.00  0.00    -0.388 OA
ATOM     13  H   UNL     1      86.397  63.850  16.030  1.00  0.00     0.211 HD
ENDBRANCH  11  12
ENDBRANCH   9  11
ENDBRANCH   8   9
BRANCH   8  14
ATOM     14  O   UNL     1      85.154  62.724  14.240  1.00  0.00    -0.382 OA
ATOM     15  H   UNL     1      85.546  63.481  14.749  1.00  0.00     0.211 HD
ENDBRANCH   8  14
ENDBRANCH   1   8
BRANCH   1  16
ATOM     16  O   UNL     1      84.427  59.397  15.508  1.00  0.00    -0.387 OA
ATOM     17  H   UNL     1      83.543  58.945  15.531  1.00  0.00     0.211 HD
ENDBRANCH   1  16
TORSDOF 10
ENDMDL
MODEL 3
REMARK VINA RESULT:    -4.266      1.673      4.293
REMARK INTER + INTRA:          -7.065
REMARK INTER:                  -6.276
REMARK INTRA:                  -0.788
REMARK UNBOUND:                -0.928
REMARK SMILES O=C(CO)[C@H](O)[C@H](O)[C@@H](O)CO
REMARK SMILES IDX 7 1 9 2 11 3 12 4 10 6 5 8 2 9 1 10 3 11 4 12 6 14 8 16
REMARK H PARENT 12 5 10 7 4 13 6 15 8 17
REMARK Flexibility Score: inf
ROOT
ATOM      1  C   UNL     1      85.159  64.048  15.924  1.00  0.00     0.181 C 
ENDROOT
BRANCH   1   2
ATOM      2  C   UNL     1      85.797  65.262  15.186  1.00  0.00     0.171 C 
BRANCH   2   3
ATOM      3  C   UNL     1      85.221  65.507  13.777  1.00  0.00     0.190 C 
BRANCH   3   4
ATOM      4  O   UNL     1      83.893  65.956  13.836  1.00  0.00    -0.394 OA
ATOM      5  H   UNL     1      83.357  65.348  13.263  1.00  0.00     0.210 HD
ENDBRANCH   3   4
ENDBRANCH   2   3
BRANCH   2   6
ATOM      6  O   UNL     1      87.194  65.121  15.114  1.00  0.00    -0.388 OA
ATOM      7  H   UNL     1      87.527  65.755  14.426  1.00  0.00     0.211 HD
ENDBRANCH   2   6
ENDBRANCH   1   2
BRANCH   1   8
ATOM      8  C   UNL     1      85.516  62.676  15.294  1.00  0.00     0.214 C 
BRANCH   8   9
ATOM      9  C   UNL     1      84.634  61.557  15.806  1.00  0.00     0.189 C 
ATOM     10  O   UNL     1      84.456  61.440  17.009  1.00  0.00    -0.294 OA
BRANCH   9  11
ATOM     11  C   UNL     1      83.983  60.571  14.873  1.00  0.00     0.234 C 
BRANCH  11  12
ATOM     12  O   UNL     1      82.587  60.665  14.969  1.00  0.00    -0.388 OA
ATOM     13  H   UNL     1      82.394  61.342  15.670  1.00  0.00     0.211 HD
ENDBRANCH  11  12
ENDBRANCH   9  11
ENDBRANCH   8   9
BRANCH   8  14
ATOM     14  O   UNL     1      86.858  62.360  15.559  1.00  0.00    -0.382 OA
ATOM     15  H   UNL     1      87.154  62.949  16.302  1.00  0.00     0.211 HD
ENDBRANCH   8  14
ENDBRANCH   1   8
BRANCH   1  16
ATOM     16  O   UNL     1      83.761  64.196  15.951  1.00  0.00    -0.387 OA
ATOM     17  H   UNL     1      83.387  63.381  16.377  1.00  0.00     0.211 HD
ENDBRANCH   1  16
TORSDOF 10
ENDMDL
MODEL 4
REMARK VINA RESULT:    -4.165      1.630      4.617
REMARK INTER + INTRA:          -6.920
REMARK INTER:                  -6.324
REMARK INTRA:                  -0.596
REMARK UNBOUND:                -0.928
REMARK SMILES O=C(CO)[C@H](O)[C@H](O)[C@@H](O)CO
REMARK SMILES IDX 7 1 9 2 11 3 12 4 10 6 5 8 2 9 1 10 3 11 4 12 6 14 8 16
REMARK H PARENT 12 5 10 7 4 13 6 15 8 17
REMARK Flexibility Score: inf
ROOT
ATOM      1  C   UNL     1      85.466  63.584  15.376  1.00  0.00     0.181 C 
ENDROOT
BRANCH   1   2
ATOM      2  C   UNL     1      84.574  64.509  16.256  1.00  0.00     0.171 C 
BRANCH   2   3
ATOM      3  C   UNL     1      84.013  65.732  15.504  1.00  0.00     0.190 C 
BRANCH   3   4
ATOM      4  O   UNL     1      82.746  66.094  15.986  1.00  0.00    -0.394 OA
ATOM      5  H   UNL     1      82.184  66.303  15.194  1.00  0.00     0.210 HD
ENDBRANCH   3   4
ENDBRANCH   2   3
BRANCH   2   6
ATOM      6  O   UNL     1      85.275  64.931  17.400  1.00  0.00    -0.388 OA
ATOM      7  H   UNL     1      84.846  64.508  18.190  1.00  0.00     0.211 HD
ENDBRANCH   2   6
ENDBRANCH   1   2
BRANCH   1   8
ATOM      8  C   UNL     1      85.619  62.146  15.938  1.00  0.00     0.214 C 
BRANCH   8   9
ATOM      9  C   UNL     1      85.330  61.085  14.898  1.00  0.00     0.189 C 
ATOM     10  O   UNL     1      86.043  61.009  13.908  1.00  0.00    -0.294 OA
BRANCH   9  11
ATOM     11  C   UNL     1      84.177  60.128  15.039  1.00  0.00     0.234 C 
BRANCH  11  12
ATOM     12  O   UNL     1      82.964  60.831  15.044  1.00  0.00    -0.388 OA
ATOM     13  H   UNL     1      82.271  60.204  15.382  1.00  0.00     0.211 HD
ENDBRANCH  11  12
ENDBRANCH   9  11
ENDBRANCH   8   9
BRANCH   8  14
ATOM     14  O   UNL     1      84.758  61.963  17.032  1.00  0.00    -0.382 OA
ATOM     15  H   UNL     1      85.273  62.194  17.848  1.00  0.00     0.211 HD
ENDBRANCH   8  14
ENDBRANCH   1   8
BRANCH   1  16
ATOM     16  O   UNL     1      86.740  64.162  15.228  1.00  0.00    -0.387 OA
ATOM     17  H   UNL     1      87.405  63.427  15.285  1.00  0.00     0.211 HD
ENDBRANCH   1  16
TORSDOF 10
ENDMDL
MODEL 5
REMARK VINA RESULT:    -4.142     10.472     11.500
REMARK INTER + INTRA:          -6.887
REMARK INTER:                  -6.293
REMARK INTRA:                  -0.594
REMARK UNBOUND:                -0.928
REMARK SMILES O=C(CO)[C@H](O)[C@H](O)[C@@H](O)CO
REMARK SMILES IDX 7 1 9 2 11 3 12 4 10 6 5 8 2 9 1 10 3 11 4 12 6 14 8 16
REMARK H PARENT 12 5 10 7 4 13 6 15 8 17
REMARK Flexibility Score: inf
ROOT
ATOM      1  C   UNL     1      79.090  55.829  10.776  1.00  0.00     0.181 C 
ENDROOT
BRANCH   1   2
ATOM      2  C   UNL     1      80.593  56.023  10.419  1.00  0.00     0.171 C 
BRANCH   2   3
ATOM      3  C   UNL     1      81.503  54.881  10.911  1.00  0.00     0.190 C 
BRANCH   3   4
ATOM      4  O   UNL     1      80.878  54.121  11.911  1.00  0.00    -0.394 OA
ATOM      5  H   UNL     1      80.096  54.645  12.225  1.00  0.00     0.210 HD
ENDBRANCH   3   4
ENDBRANCH   2   3
BRANCH   2   6
ATOM      6  O   UNL     1      81.063  57.255  10.907  1.00  0.00    -0.388 OA
ATOM      7  H   UNL     1      81.066  57.206  11.899  1.00  0.00     0.211 HD
ENDBRANCH   2   6
ENDBRANCH   1   2
BRANCH   1   8
ATOM      8  C   UNL     1      78.122  56.618   9.856  1.00  0.00     0.214 C 
BRANCH   8   9
ATOM      9  C   UNL     1      77.916  55.941   8.517  1.00  0.00     0.189 C 
ATOM     10  O   UNL     1      77.981  54.723   8.448  1.00  0.00    -0.294 OA
BRANCH   9  11
ATOM     11  C   UNL     1      77.651  56.728   7.261  1.00  0.00     0.234 C 
BRANCH  11  12
ATOM     12  O   UNL     1      78.487  56.283   6.227  1.00  0.00    -0.388 OA
ATOM     13  H   UNL     1      78.477  56.990   5.528  1.00  0.00     0.211 HD
ENDBRANCH  11  12
ENDBRANCH   9  11
ENDBRANCH   8   9
BRANCH   8  14
ATOM     14  O   UNL     1      78.612  57.916   9.642  1.00  0.00    -0.382 OA
ATOM     15  H   UNL     1      79.602  57.864   9.689  1.00  0.00     0.211 HD
ENDBRANCH   8  14
ENDBRANCH   1   8
BRANCH   1  16
ATOM     16  O   UNL     1      78.872  56.211  12.113  1.00  0.00    -0.387 OA
ATOM     17  H   UNL     1      79.625  55.848  12.648  1.00  0.00     0.211 HD
ENDBRANCH   1  16
TORSDOF 10
ENDMDL
MODEL 6
REMARK VINA RESULT:    -4.067      3.164      5.181
REMARK INTER + INTRA:          -6.778
REMARK INTER:                  -5.962
REMARK INTRA:                  -0.816
REMARK UNBOUND:                -0.928
REMARK SMILES O=C(CO)[C@H](O)[C@H](O)[C@@H](O)CO
REMARK SMILES IDX 7 1 9 2 11 3 12 4 10 6 5 8 2 9 1 10 3 11 4 12 6 14 8 16
REMARK H PARENT 12 5 10 7 4 13 6 15 8 17
REMARK Flexibility Score: inf
ROOT
ATOM      1  C   UNL     1      84.806  60.652  13.572  1.00  0.00     0.181 C 
ENDROOT
BRANCH   1   2
ATOM      2  C   UNL     1      83.887  60.063  12.462  1.00  0.00     0.171 C 
BRANCH   2   3
ATOM      3  C   UNL     1      84.057  60.740  11.088  1.00  0.00     0.190 C 
BRANCH   3   4
ATOM      4  O   UNL     1      85.368  60.604  10.607  1.00  0.00    -0.394 OA
ATOM      5  H   UNL     1      85.699  59.722  10.918  1.00  0.00     0.210 HD
ENDBRANCH   3   4
ENDBRANCH   2   3
BRANCH   2   6
ATOM      6  O   UNL     1      82.538  60.113  12.857  1.00  0.00    -0.388 OA
ATOM      7  H   UNL     1      81.987  59.810  12.089  1.00  0.00     0.211 HD
ENDBRANCH   2   6
ENDBRANCH   1   2
BRANCH   1   8
ATOM      8  C   UNL     1      84.168  60.634  14.986  1.00  0.00     0.214 C 
BRANCH   8   9
ATOM      9  C   UNL     1      84.768  61.677  15.905  1.00  0.00     0.189 C 
ATOM     10  O   UNL     1      84.464  62.851  15.755  1.00  0.00    -0.294 OA
BRANCH   9  11
ATOM     11  C   UNL     1      85.745  61.311  16.991  1.00  0.00     0.234 C 
BRANCH  11  12
ATOM     12  O   UNL     1      85.127  60.481  17.937  1.00  0.00    -0.388 OA
ATOM     13  H   UNL     1      84.865  59.650  17.459  1.00  0.00     0.211 HD
ENDBRANCH  11  12
ENDBRANCH   9  11
ENDBRANCH   8   9
BRANCH   8  14
ATOM     14  O   UNL     1      84.325  59.366  15.568  1.00  0.00    -0.382 OA
ATOM     15  H   UNL     1      85.204  59.015  15.269  1.00  0.00     0.211 HD
ENDBRANCH   8  14
ENDBRANCH   1   8
BRANCH   1  16
ATOM     16  O   UNL     1      85.158  61.972  13.239  1.00  0.00    -0.387 OA
ATOM     17  H   UNL     1      85.136  62.503  14.078  1.00  0.00     0.211 HD
ENDBRANCH   1  16
TORSDOF 10
ENDMDL
MODEL 7
REMARK VINA RESULT:    -4.021     12.540     14.181
REMARK INTER + INTRA:          -6.712
REMARK INTER:                  -5.918
REMARK INTRA:                  -0.795
REMARK UNBOUND:                -0.928
REMARK SMILES O=C(CO)[C@H](O)[C@H](O)[C@@H](O)CO
REMARK SMILES IDX 7 1 9 2 11 3 12 4 10 6 5 8 2 9 1 10 3 11 4 12 6 14 8 16
REMARK H PARENT 12 5 10 7 4 13 6 15 8 17
REMARK Flexibility Score: inf
ROOT
ATOM      1  C   UNL     1      79.006  55.258   8.466  1.00  0.00     0.181 C 
ENDROOT
BRANCH   1   2
ATOM      2  C   UNL     1      77.733  56.150   8.364  1.00  0.00     0.171 C 
BRANCH   2   3
ATOM      3  C   UNL     1      77.685  57.024   7.095  1.00  0.00     0.190 C 
BRANCH   3   4
ATOM      4  O   UNL     1      78.413  56.445   6.045  1.00  0.00    -0.394 OA
ATOM      5  H   UNL     1      78.072  56.843   5.203  1.00  0.00     0.210 HD
ENDBRANCH   3   4
ENDBRANCH   2   3
BRANCH   2   6
ATOM      6  O   UNL     1      77.601  56.959   9.507  1.00  0.00    -0.388 OA
ATOM      7  H   UNL     1      77.450  56.360  10.285  1.00  0.00     0.211 HD
ENDBRANCH   2   6
ENDBRANCH   1   2
BRANCH   1   8
ATOM      8  C   UNL     1      78.732  53.750   8.228  1.00  0.00     0.214 C 
BRANCH   8   9
ATOM      9  C   UNL     1      79.997  52.919   8.270  1.00  0.00     0.189 C 
ATOM     10  O   UNL     1      81.075  53.461   8.079  1.00  0.00    -0.294 OA
BRANCH   9  11
ATOM     11  C   UNL     1      79.963  51.435   8.524  1.00  0.00     0.234 C 
BRANCH  11  12
ATOM     12  O   UNL     1      78.691  50.924   8.232  1.00  0.00    -0.388 OA
ATOM     13  H   UNL     1      78.330  50.553   9.081  1.00  0.00     0.211 HD
ENDBRANCH  11  12
ENDBRANCH   9  11
ENDBRANCH   8   9
BRANCH   8  14
ATOM     14  O   UNL     1      78.104  53.566   6.985  1.00  0.00    -0.382 OA
ATOM     15  H   UNL     1      78.723  53.915   6.292  1.00  0.00     0.211 HD
ENDBRANCH   8  14
ENDBRANCH   1   8
BRANCH   1  16
ATOM     16  O   UNL     1      79.597  55.427   9.731  1.00  0.00    -0.387 OA
ATOM     17  H   UNL     1      79.009  56.035  10.252  1.00  0.00     0.211 HD
ENDBRANCH   1  16
TORSDOF 10
ENDMDL
MODEL 8
REMARK VINA RESULT:    -3.994     12.165     13.657
REMARK INTER + INTRA:          -6.674
REMARK INTER:                  -5.565
REMARK INTRA:                  -1.109
REMARK UNBOUND:                -0.928
REMARK SMILES O=C(CO)[C@H](O)[C@H](O)[C@@H](O)CO
REMARK SMILES IDX 7 1 9 2 11 3 12 4 10 6 5 8 2 9 1 10 3 11 4 12 6 14 8 16
REMARK H PARENT 12 5 10 7 4 13 6 15 8 17
REMARK Flexibility Score: inf
ROOT
ATOM      1  C   UNL     1      78.181  54.934   8.459  1.00  0.00     0.181 C 
ENDROOT
BRANCH   1   2
ATOM      2  C   UNL     1      77.669  56.395   8.291  1.00  0.00     0.171 C 
BRANCH   2   3
ATOM      3  C   UNL     1      77.579  56.860   6.823  1.00  0.00     0.190 C 
BRANCH   3   4
ATOM      4  O   UNL     1      78.736  56.521   6.106  1.00  0.00    -0.394 OA
ATOM      5  H   UNL     1      79.506  56.899   6.605  1.00  0.00     0.210 HD
ENDBRANCH   3   4
ENDBRANCH   2   3
BRANCH   2   6
ATOM      6  O   UNL     1      78.469  57.288   9.027  1.00  0.00    -0.388 OA
ATOM      7  H   UNL     1      77.905  58.070   9.268  1.00  0.00     0.211 HD
ENDBRANCH   2   6
ENDBRANCH   1   2
BRANCH   1   8
ATOM      8  C   UNL     1      79.689  54.837   8.811  1.00  0.00     0.214 C 
BRANCH   8   9
ATOM      9  C   UNL     1      80.336  53.589   8.246  1.00  0.00     0.189 C 
ATOM     10  O   UNL     1      80.026  52.499   8.701  1.00  0.00    -0.294 OA
BRANCH   9  11
ATOM     11  C   UNL     1      81.366  53.656   7.150  1.00  0.00     0.234 C 
BRANCH  11  12
ATOM     12  O   UNL     1      80.947  54.541   6.147  1.00  0.00    -0.388 OA
ATOM     13  H   UNL     1      79.982  54.718   6.307  1.00  0.00     0.211 HD
ENDBRANCH  11  12
ENDBRANCH   9  11
ENDBRANCH   8   9
BRANCH   8  14
ATOM     14  O   UNL     1      79.859  54.851  10.204  1.00  0.00    -0.382 OA
ATOM     15  H   UNL     1      80.638  55.437  10.395  1.00  0.00     0.211 HD
ENDBRANCH   8  14
ENDBRANCH   1   8
BRANCH   1  16
ATOM     16  O   UNL     1      77.933  54.211   7.278  1.00  0.00    -0.387 OA
ATOM     17  H   UNL     1      78.781  53.759   7.026  1.00  0.00     0.211 HD
ENDBRANCH   1  16
TORSDOF 10
ENDMDL
MODEL 9
REMARK VINA RESULT:    -3.958     12.890     13.927
REMARK INTER + INTRA:          -6.621
REMARK INTER:                  -5.854
REMARK INTRA:                  -0.767
REMARK UNBOUND:                -0.928
REMARK SMILES O=C(CO)[C@H](O)[C@H](O)[C@@H](O)CO
REMARK SMILES IDX 7 1 9 2 11 3 12 4 10 6 5 8 2 9 1 10 3 11 4 12 6 14 8 16
REMARK H PARENT 12 5 10 7 4 13 6 15 8 17
REMARK Flexibility Score: inf
ROOT
ATOM      1  C   UNL     1      79.509  53.584   8.845  1.00  0.00     0.181 C 
ENDROOT
BRANCH   1   2
ATOM      2  C   UNL     1      79.847  52.135   8.386  1.00  0.00     0.171 C 
BRANCH   2   3
ATOM      3  C   UNL     1      80.676  52.070   7.088  1.00  0.00     0.190 C 
BRANCH   3   4
ATOM      4  O   UNL     1      79.862  51.835   5.970  1.00  0.00    -0.394 OA
ATOM      5  H   UNL     1      80.139  52.481   5.270  1.00  0.00     0.210 HD
ENDBRANCH   3   4
ENDBRANCH   2   3
BRANCH   2   6
ATOM      6  O   UNL     1      78.673  51.373   8.244  1.00  0.00    -0.388 OA
ATOM      7  H   UNL     1      78.007  51.720   8.894  1.00  0.00     0.211 HD
ENDBRANCH   2   6
ENDBRANCH   1   2
BRANCH   1   8
ATOM      8  C   UNL     1      78.830  54.445   7.747  1.00  0.00     0.214 C 
BRANCH   8   9
ATOM      9  C   UNL     1      78.179  55.691   8.309  1.00  0.00     0.189 C 
ATOM     10  O   UNL     1      78.058  55.807   9.519  1.00  0.00    -0.294 OA
BRANCH   9  11
ATOM     11  C   UNL     1      77.660  56.786   7.416  1.00  0.00     0.234 C 
BRANCH  11  12
ATOM     12  O   UNL     1      78.192  56.651   6.126  1.00  0.00    -0.388 OA
ATOM     13  H   UNL     1      77.626  57.202   5.524  1.00  0.00     0.211 HD
ENDBRANCH  11  12
ENDBRANCH   9  11
ENDBRANCH   8   9
BRANCH   8  14
ATOM     14  O   UNL     1      77.861  53.686   7.072  1.00  0.00    -0.382 OA
ATOM     15  H   UNL     1      77.154  53.465   7.733  1.00  0.00     0.211 HD
ENDBRANCH   8  14
ENDBRANCH   1   8
BRANCH   1  16
ATOM     16  O   UNL     1      80.684  54.226   9.277  1.00  0.00    -0.387 OA
ATOM     17  H   UNL     1      81.296  53.522   9.616  1.00  0.00     0.211 HD
ENDBRANCH   1  16
TORSDOF 10
ENDMDL
