MODEL 1
REMARK VINA RESULT:    -5.230      0.000      0.000
REMARK INTER + INTRA:          -6.516
REMARK INTER:                  -6.300
REMARK INTRA:                  -0.216
REMARK UNBOUND:                -0.216
REMARK SMILES [NH3+][C@H](Cc1cnc[nH]1)C(=O)[O-]
REMARK SMILES IDX 3 1 2 2 1 3 9 7 10 8 11 9 4 10 5 11 8 12 6 13 7 14
REMARK H PARENT 1 4 1 5 1 6 8 15
REMARK Flexibility Score: inf
ROOT
ATOM      1  C   UNL     1     -25.089 -16.651 -14.853  1.00  0.00     0.127 C 
ENDROOT
BRANCH   1   2
ATOM      2  C   UNL     1     -24.499 -18.039 -14.537  1.00  0.00     0.233 C 
BRANCH   2   3
ATOM      3  N   UNL     1     -23.122 -18.162 -15.034  1.00  0.00    -0.350 N 
ATOM      4  H   UNL     1     -22.526 -18.688 -14.354  1.00  0.00     0.345 HD
ATOM      5  H   UNL     1     -23.120 -18.665 -15.952  1.00  0.00     0.345 HD
ATOM      6  H   UNL     1     -22.710 -17.214 -15.189  1.00  0.00     0.345 HD
ENDBRANCH   2   3
BRANCH   2   7
ATOM      7  C   UNL     1     -24.534 -18.277 -13.051  1.00  0.00     0.099 C 
ATOM      8  O   UNL     1     -25.466 -18.951 -12.539  1.00  0.00    -0.544 OA
ATOM      9  O   UNL     1     -23.548 -17.738 -12.231  1.00  0.00    -0.544 OA
ENDBRANCH   2   7
ENDBRANCH   1   2
BRANCH   1  10
ATOM     10  C   UNL     1     -24.029 -15.589 -14.874  1.00  0.00     0.041 A 
ATOM     11  C   UNL     1     -23.562 -14.919 -15.982  1.00  0.00     0.134 A 
ATOM     12  N   UNL     1     -23.423 -15.095 -13.784  1.00  0.00    -0.348 N 
ATOM     13  N   UNL     1     -22.651 -14.005 -15.590  1.00  0.00    -0.245 NA
ATOM     14  C   UNL     1     -22.593 -14.143 -14.248  1.00  0.00     0.196 A 
ATOM     15  H   UNL     1     -23.568 -15.379 -12.790  1.00  0.00     0.167 HD
ENDBRANCH   1  10
TORSDOF 4
ENDMDL
MODEL 2
REMARK VINA RESULT:    -5.230      1.683      2.173
REMARK INTER + INTRA:          -6.516
REMARK INTER:                  -6.380
REMARK INTRA:                  -0.136
REMARK UNBOUND:                -0.216
REMARK SMILES [NH3+][C@H](Cc1cnc[nH]1)C(=O)[O-]
REMARK SMILES IDX 3 1 2 2 1 3 9 7 10 8 11 9 4 10 5 11 8 12 6 13 7 14
REMARK H PARENT 1 4 1 5 1 6 8 15
REMARK Flexibility Score: inf
ROOT
ATOM      1  C   UNL     1     -24.351 -15.194 -14.175  1.00  0.00     0.127 C 
ENDROOT
BRANCH   1   2
ATOM      2  C   UNL     1     -24.732 -16.234 -15.247  1.00  0.00     0.233 C 
BRANCH   2   3
ATOM      3  N   UNL     1     -23.873 -16.120 -16.434  1.00  0.00    -0.350 N 
ATOM      4  H   UNL     1     -23.730 -15.118 -16.694  1.00  0.00     0.345 HD
ATOM      5  H   UNL     1     -22.945 -16.562 -16.243  1.00  0.00     0.345 HD
ATOM      6  H   UNL     1     -24.308 -16.626 -17.240  1.00  0.00     0.345 HD
ENDBRANCH   2   3
BRANCH   2   7
ATOM      7  C   UNL     1     -24.629 -17.619 -14.666  1.00  0.00     0.099 C 
ATOM      8  O   UNL     1     -23.513 -18.200 -14.608  1.00  0.00    -0.544 OA
ATOM      9  O   UNL     1     -25.767 -18.274 -14.209  1.00  0.00    -0.544 OA
ENDBRANCH   2   7
ENDBRANCH   1   2
BRANCH   1  10
ATOM     10  C   UNL     1     -22.876 -14.919 -14.168  1.00  0.00     0.041 A 
ATOM     11  C   UNL     1     -22.234 -13.876 -14.796  1.00  0.00     0.134 A 
ATOM     12  N   UNL     1     -21.971 -15.634 -13.484  1.00  0.00    -0.348 N 
ATOM     13  N   UNL     1     -20.917 -13.938 -14.514  1.00  0.00    -0.245 NA
ATOM     14  C   UNL     1     -20.795 -15.020 -13.715  1.00  0.00     0.196 A 
ATOM     15  H   UNL     1     -22.138 -16.478 -12.893  1.00  0.00     0.167 HD
ENDBRANCH   1  10
TORSDOF 4
ENDMDL
MODEL 3
REMARK VINA RESULT:    -4.967      2.685      4.141
REMARK INTER + INTRA:          -6.199
REMARK INTER:                  -6.075
REMARK INTRA:                  -0.124
REMARK UNBOUND:                -0.216
REMARK SMILES [NH3+][C@H](Cc1cnc[nH]1)C(=O)[O-]
REMARK SMILES IDX 3 1 2 2 1 3 9 7 10 8 11 9 4 10 5 11 8 12 6 13 7 14
REMARK H PARENT 1 4 1 5 1 6 8 15
REMARK Flexibility Score: inf
ROOT
ATOM      1  C   UNL     1     -25.207 -16.668 -15.253  1.00  0.00     0.127 C 
ENDROOT
BRANCH   1   2
ATOM      2  C   UNL     1     -24.849 -15.188 -15.494  1.00  0.00     0.233 C 
BRANCH   2   3
ATOM      3  N   UNL     1     -24.506 -14.506 -14.239  1.00  0.00    -0.350 N 
ATOM      4  H   UNL     1     -24.822 -13.509 -14.259  1.00  0.00     0.345 HD
ATOM      5  H   UNL     1     -24.962 -14.994 -13.434  1.00  0.00     0.345 HD
ATOM      6  H   UNL     1     -23.472 -14.536 -14.085  1.00  0.00     0.345 HD
ENDBRANCH   2   3
BRANCH   2   7
ATOM      7  C   UNL     1     -23.698 -15.098 -16.461  1.00  0.00     0.099 C 
ATOM      8  O   UNL     1     -23.890 -15.281 -17.692  1.00  0.00    -0.544 OA
ATOM      9  O   UNL     1     -22.414 -14.831 -15.999  1.00  0.00    -0.544 OA
ENDBRANCH   2   7
ENDBRANCH   1   2
BRANCH   1  10
ATOM     10  C   UNL     1     -24.144 -17.373 -14.463  1.00  0.00     0.041 A 
ATOM     11  C   UNL     1     -24.200 -17.711 -13.130  1.00  0.00     0.134 A 
ATOM     12  N   UNL     1     -22.993 -17.834 -14.976  1.00  0.00    -0.348 N 
ATOM     13  N   UNL     1     -23.078 -18.380 -12.798  1.00  0.00    -0.245 NA
ATOM     14  C   UNL     1     -22.368 -18.435 -13.947  1.00  0.00     0.196 A 
ATOM     15  H   UNL     1     -22.656 -17.755 -15.961  1.00  0.00     0.167 HD
ENDBRANCH   1  10
TORSDOF 4
ENDMDL
MODEL 4
REMARK VINA RESULT:    -4.936      2.890      4.269
REMARK INTER + INTRA:          -6.161
REMARK INTER:                  -6.079
REMARK INTRA:                  -0.082
REMARK UNBOUND:                -0.216
REMARK SMILES [NH3+][C@H](Cc1cnc[nH]1)C(=O)[O-]
REMARK SMILES IDX 3 1 2 2 1 3 9 7 10 8 11 9 4 10 5 11 8 12 6 13 7 14
REMARK H PARENT 1 4 1 5 1 6 8 15
REMARK Flexibility Score: inf
ROOT
ATOM      1  C   UNL     1     -23.391 -14.843 -13.906  1.00  0.00     0.127 C 
ENDROOT
BRANCH   1   2
ATOM      2  C   UNL     1     -22.658 -14.541 -15.228  1.00  0.00     0.233 C 
BRANCH   2   3
ATOM      3  N   UNL     1     -21.543 -15.472 -15.449  1.00  0.00    -0.350 N 
ATOM      4  H   UNL     1     -20.904 -15.115 -16.196  1.00  0.00     0.345 HD
ATOM      5  H   UNL     1     -21.001 -15.593 -14.563  1.00  0.00     0.345 HD
ATOM      6  H   UNL     1     -21.909 -16.410 -15.730  1.00  0.00     0.345 HD
ENDBRANCH   2   3
BRANCH   2   7
ATOM      7  C   UNL     1     -23.631 -14.621 -16.375  1.00  0.00     0.099 C 
ATOM      8  O   UNL     1     -24.646 -13.875 -16.397  1.00  0.00    -0.544 OA
ATOM      9  O   UNL     1     -23.426 -15.531 -17.406  1.00  0.00    -0.544 OA
ENDBRANCH   2   7
ENDBRANCH   1   2
BRANCH   1  10
ATOM     10  C   UNL     1     -23.907 -16.252 -13.867  1.00  0.00     0.041 A 
ATOM     11  C   UNL     1     -23.502 -17.250 -13.010  1.00  0.00     0.134 A 
ATOM     12  N   UNL     1     -24.897 -16.723 -14.640  1.00  0.00    -0.348 N 
ATOM     13  N   UNL     1     -24.234 -18.357 -13.249  1.00  0.00    -0.245 NA
ATOM     14  C   UNL     1     -25.070 -17.998 -14.247  1.00  0.00     0.196 A 
ATOM     15  H   UNL     1     -25.426 -16.211 -15.380  1.00  0.00     0.167 HD
ENDBRANCH   1  10
TORSDOF 4
ENDMDL
MODEL 5
REMARK VINA RESULT:    -4.776      1.718      2.096
REMARK INTER + INTRA:          -5.969
REMARK INTER:                  -5.766
REMARK INTRA:                  -0.204
REMARK UNBOUND:                -0.216
REMARK SMILES [NH3+][C@H](Cc1cnc[nH]1)C(=O)[O-]
REMARK SMILES IDX 3 1 2 2 1 3 9 7 10 8 11 9 4 10 5 11 8 12 6 13 7 14
REMARK H PARENT 1 4 1 5 1 6 8 15
REMARK Flexibility Score: inf
ROOT
ATOM      1  C   UNL     1     -25.249 -17.381 -14.991  1.00  0.00     0.127 C 
ENDROOT
BRANCH   1   2
ATOM      2  C   UNL     1     -24.921 -17.691 -13.518  1.00  0.00     0.233 C 
BRANCH   2   3
ATOM      3  N   UNL     1     -25.744 -18.796 -13.005  1.00  0.00    -0.350 N 
ATOM      4  H   UNL     1     -26.133 -19.365 -13.791  1.00  0.00     0.345 HD
ATOM      5  H   UNL     1     -25.166 -19.412 -12.388  1.00  0.00     0.345 HD
ATOM      6  H   UNL     1     -26.532 -18.418 -12.431  1.00  0.00     0.345 HD
ENDBRANCH   2   3
BRANCH   2   7
ATOM      7  C   UNL     1     -23.461 -18.032 -13.386  1.00  0.00     0.099 C 
ATOM      8  O   UNL     1     -22.899 -17.988 -12.259  1.00  0.00    -0.544 OA
ATOM      9  O   UNL     1     -22.717 -18.377 -14.509  1.00  0.00    -0.544 OA
ENDBRANCH   2   7
ENDBRANCH   1   2
BRANCH   1  10
ATOM     10  C   UNL     1     -24.696 -16.052 -15.414  1.00  0.00     0.041 A 
ATOM     11  C   UNL     1     -25.012 -14.824 -14.880  1.00  0.00     0.134 A 
ATOM     12  N   UNL     1     -23.750 -15.883 -16.351  1.00  0.00    -0.348 N 
ATOM     13  N   UNL     1     -24.271 -13.876 -15.487  1.00  0.00    -0.245 NA
ATOM     14  C   UNL     1     -23.517 -14.558 -16.376  1.00  0.00     0.196 A 
ATOM     15  H   UNL     1     -23.288 -16.618 -16.930  1.00  0.00     0.167 HD
ENDBRANCH   1  10
TORSDOF 4
ENDMDL
MODEL 6
REMARK VINA RESULT:    -4.603      2.787      4.173
REMARK INTER + INTRA:          -5.761
REMARK INTER:                  -5.697
REMARK INTRA:                  -0.064
REMARK UNBOUND:                -0.216
REMARK SMILES [NH3+][C@H](Cc1cnc[nH]1)C(=O)[O-]
REMARK SMILES IDX 3 1 2 2 1 3 9 7 10 8 11 9 4 10 5 11 8 12 6 13 7 14
REMARK H PARENT 1 4 1 5 1 6 8 15
REMARK Flexibility Score: inf
ROOT
ATOM      1  C   UNL     1     -24.959 -16.550 -15.934  1.00  0.00     0.127 C 
ENDROOT
BRANCH   1   2
ATOM      2  C   UNL     1     -23.669 -15.706 -15.961  1.00  0.00     0.233 C 
BRANCH   2   3
ATOM      3  N   UNL     1     -23.267 -15.383 -17.337  1.00  0.00    -0.350 N 
ATOM      4  H   UNL     1     -23.863 -14.618 -17.728  1.00  0.00     0.345 HD
ATOM      5  H   UNL     1     -22.266 -15.080 -17.351  1.00  0.00     0.345 HD
ATOM      6  H   UNL     1     -23.353 -16.231 -17.943  1.00  0.00     0.345 HD
ENDBRANCH   2   3
BRANCH   2   7
ATOM      7  C   UNL     1     -23.877 -14.440 -15.173  1.00  0.00     0.099 C 
ATOM      8  O   UNL     1     -25.003 -13.875 -15.168  1.00  0.00    -0.544 OA
ATOM      9  O   UNL     1     -22.824 -13.875 -14.463  1.00  0.00    -0.544 OA
ENDBRANCH   2   7
ENDBRANCH   1   2
BRANCH   1  10
ATOM     10  C   UNL     1     -25.022 -17.428 -14.719  1.00  0.00     0.041 A 
ATOM     11  C   UNL     1     -24.050 -17.562 -13.753  1.00  0.00     0.134 A 
ATOM     12  N   UNL     1     -26.082 -18.172 -14.370  1.00  0.00    -0.348 N 
ATOM     13  N   UNL     1     -24.496 -18.401 -12.796  1.00  0.00    -0.245 NA
ATOM     14  C   UNL     1     -25.734 -18.751 -13.207  1.00  0.00     0.196 A 
ATOM     15  H   UNL     1     -26.986 -18.275 -14.883  1.00  0.00     0.167 HD
ENDBRANCH   1  10
TORSDOF 4
ENDMDL
MODEL 7
REMARK VINA RESULT:    -4.531      1.897      2.441
REMARK INTER + INTRA:          -5.674
REMARK INTER:                  -5.722
REMARK INTRA:                   0.048
REMARK UNBOUND:                -0.216
REMARK SMILES [NH3+][C@H](Cc1cnc[nH]1)C(=O)[O-]
REMARK SMILES IDX 3 1 2 2 1 3 9 7 10 8 11 9 4 10 5 11 8 12 6 13 7 14
REMARK H PARENT 1 4 1 5 1 6 8 15
REMARK Flexibility Score: inf
ROOT
ATOM      1  C   UNL     1     -22.185 -16.277 -13.898  1.00  0.00     0.127 C 
ENDROOT
BRANCH   1   2
ATOM      2  C   UNL     1     -22.869 -17.534 -13.324  1.00  0.00     0.233 C 
BRANCH   2   3
ATOM      3  N   UNL     1     -23.531 -17.249 -12.044  1.00  0.00    -0.350 N 
ATOM      4  H   UNL     1     -22.827 -17.021 -11.304  1.00  0.00     0.345 HD
ATOM      5  H   UNL     1     -24.186 -16.442 -12.155  1.00  0.00     0.345 HD
ATOM      6  H   UNL     1     -24.092 -18.077 -11.739  1.00  0.00     0.345 HD
ENDBRANCH   2   3
BRANCH   2   7
ATOM      7  C   UNL     1     -23.870 -18.062 -14.316  1.00  0.00     0.099 C 
ATOM      8  O   UNL     1     -23.489 -18.468 -15.446  1.00  0.00    -0.544 OA
ATOM      9  O   UNL     1     -25.224 -18.088 -14.000  1.00  0.00    -0.544 OA
ENDBRANCH   2   7
ENDBRANCH   1   2
BRANCH   1  10
ATOM     10  C   UNL     1     -23.124 -15.478 -14.753  1.00  0.00     0.041 A 
ATOM     11  C   UNL     1     -24.115 -14.631 -14.313  1.00  0.00     0.134 A 
ATOM     12  N   UNL     1     -23.083 -15.433 -16.094  1.00  0.00    -0.348 N 
ATOM     13  N   UNL     1     -24.708 -14.056 -15.379  1.00  0.00    -0.245 NA
ATOM     14  C   UNL     1     -24.054 -14.570 -16.443  1.00  0.00     0.196 A 
ATOM     15  H   UNL     1     -22.435 -15.948 -16.729  1.00  0.00     0.167 HD
ENDBRANCH   1  10
TORSDOF 4
ENDMDL
MODEL 8
REMARK VINA RESULT:    -4.282      2.424      4.316
REMARK INTER + INTRA:          -5.374
REMARK INTER:                  -5.576
REMARK INTRA:                   0.202
REMARK UNBOUND:                -0.216
REMARK SMILES [NH3+][C@H](Cc1cnc[nH]1)C(=O)[O-]
REMARK SMILES IDX 3 1 2 2 1 3 9 7 10 8 11 9 4 10 5 11 8 12 6 13 7 14
REMARK H PARENT 1 4 1 5 1 6 8 15
REMARK Flexibility Score: inf
ROOT
ATOM      1  C   UNL     1     -23.479 -16.446 -15.459  1.00  0.00     0.127 C 
ENDROOT
BRANCH   1   2
ATOM      2  C   UNL     1     -23.184 -15.115 -14.738  1.00  0.00     0.233 C 
BRANCH   2   3
ATOM      3  N   UNL     1     -23.910 -15.021 -13.465  1.00  0.00    -0.350 N 
ATOM      4  H   UNL     1     -23.937 -14.033 -13.125  1.00  0.00     0.345 HD
ATOM      5  H   UNL     1     -24.889 -15.369 -13.588  1.00  0.00     0.345 HD
ATOM      6  H   UNL     1     -23.447 -15.620 -12.743  1.00  0.00     0.345 HD
ENDBRANCH   2   3
BRANCH   2   7
ATOM      7  C   UNL     1     -21.703 -14.988 -14.499  1.00  0.00     0.099 C 
ATOM      8  O   UNL     1     -21.128 -13.880 -14.665  1.00  0.00    -0.544 OA
ATOM      9  O   UNL     1     -20.958 -16.096 -14.111  1.00  0.00    -0.544 OA
ENDBRANCH   2   7
ENDBRANCH   1   2
BRANCH   1  10
ATOM     10  C   UNL     1     -24.373 -17.332 -14.642  1.00  0.00     0.041 A 
ATOM     11  C   UNL     1     -24.025 -18.022 -13.503  1.00  0.00     0.134 A 
ATOM     12  N   UNL     1     -25.678 -17.528 -14.883  1.00  0.00    -0.348 N 
ATOM     13  N   UNL     1     -25.112 -18.663 -13.029  1.00  0.00    -0.245 NA
ATOM     14  C   UNL     1     -26.097 -18.339 -13.894  1.00  0.00     0.196 A 
ATOM     15  H   UNL     1     -26.250 -17.132 -15.662  1.00  0.00     0.167 HD
ENDBRANCH   1  10
TORSDOF 4
ENDMDL
MODEL 9
REMARK VINA RESULT:    -4.099      2.823      3.289
REMARK INTER + INTRA:          -5.153
REMARK INTER:                  -5.155
REMARK INTRA:                   0.002
REMARK UNBOUND:                -0.216
REMARK SMILES [NH3+][C@H](Cc1cnc[nH]1)C(=O)[O-]
REMARK SMILES IDX 3 1 2 2 1 3 9 7 10 8 11 9 4 10 5 11 8 12 6 13 7 14
REMARK H PARENT 1 4 1 5 1 6 8 15
REMARK Flexibility Score: inf
ROOT
ATOM      1  C   UNL     1     -23.621 -16.391 -13.838  1.00  0.00     0.127 C 
ENDROOT
BRANCH   1   2
ATOM      2  C   UNL     1     -24.366 -16.526 -15.180  1.00  0.00     0.233 C 
BRANCH   2   3
ATOM      3  N   UNL     1     -25.599 -17.312 -15.033  1.00  0.00    -0.350 N 
ATOM      4  H   UNL     1     -25.642 -17.763 -14.090  1.00  0.00     0.345 HD
ATOM      5  H   UNL     1     -26.432 -16.692 -15.156  1.00  0.00     0.345 HD
ATOM      6  H   UNL     1     -25.641 -18.054 -15.770  1.00  0.00     0.345 HD
ENDBRANCH   2   3
BRANCH   2   7
ATOM      7  C   UNL     1     -24.689 -15.158 -15.720  1.00  0.00     0.099 C 
ATOM      8  O   UNL     1     -25.401 -14.365 -15.050  1.00  0.00    -0.544 OA
ATOM      9  O   UNL     1     -24.219 -14.769 -16.969  1.00  0.00    -0.544 OA
ENDBRANCH   2   7
ENDBRANCH   1   2
BRANCH   1  10
ATOM     10  C   UNL     1     -22.313 -15.672 -14.001  1.00  0.00     0.041 A 
ATOM     11  C   UNL     1     -22.100 -14.319 -13.872  1.00  0.00     0.134 A 
ATOM     12  N   UNL     1     -21.138 -16.274 -14.239  1.00  0.00    -0.348 N 
ATOM     13  N   UNL     1     -20.786 -14.063 -14.039  1.00  0.00    -0.245 NA
ATOM     14  C   UNL     1     -20.234 -15.276 -14.261  1.00  0.00     0.196 A 
ATOM     15  H   UNL     1     -20.958 -17.293 -14.370  1.00  0.00     0.167 HD
ENDBRANCH   1  10
TORSDOF 4
ENDMDL
