MODEL 1
REMARK VINA RESULT:    -5.142      0.000      0.000
REMARK INTER + INTRA:          -5.721
REMARK INTER:                  -5.443
REMARK INTRA:                  -0.278
REMARK UNBOUND:                -0.278
REMARK SMILES CC1=CC[C@@]23[C@@H]([C@@H]12)[C@H](C(C)C)CC[C@@H]3C
REMARK SMILES IDX 15 1 14 2 13 3 12 4 8 5 6 6 5 7 7 8 2 9 3 10 4 11 1 12 9 13
REMARK SMILES IDX 10 14 11 15
REMARK H PARENT
REMARK Flexibility Score: inf
ROOT
ATOM      1  C   UNL     1      31.284  11.881  31.111  1.00  0.00     0.008 C 
ATOM      2  C   UNL     1      30.303  10.758  31.499  1.00  0.00    -0.007 C 
ATOM      3  C   UNL     1      29.275  10.533  30.371  1.00  0.00     0.004 C 
ATOM      4  C   UNL     1      29.853   9.701  29.225  1.00  0.00     0.004 C 
ATOM      5  C   UNL     1      30.155   8.259  29.683  1.00  0.00    -0.004 C 
ATOM      6  C   UNL     1      31.066   8.257  30.942  1.00  0.00     0.007 C 
ATOM      7  C   UNL     1      31.080   9.472  31.886  1.00  0.00    -0.013 C 
ATOM      8  C   UNL     1      30.260   8.234  32.247  1.00  0.00     0.025 C 
ATOM      9  C   UNL     1      30.959   7.651  33.425  1.00  0.00    -0.073 C 
ATOM     10  C   UNL     1      32.014   8.362  33.798  1.00  0.00    -0.027 C 
ATOM     11  C   UNL     1      32.212   9.553  32.928  1.00  0.00     0.035 C 
ATOM     12  C   UNL     1      30.527   6.391  34.108  1.00  0.00     0.039 C 
ENDROOT
BRANCH   5  13
ATOM     13  C   UNL     1      30.805   7.395  28.554  1.00  0.00    -0.014 C 
ATOM     14  C   UNL     1      29.767   6.762  27.609  1.00  0.00     0.007 C 
ATOM     15  C   UNL     1      31.672   6.270  29.152  1.00  0.00     0.007 C 
ENDBRANCH   5  13
TORSDOF 1
ENDMDL
MODEL 2
REMARK VINA RESULT:    -5.104      1.261      3.631
REMARK INTER + INTRA:          -5.681
REMARK INTER:                  -5.388
REMARK INTRA:                  -0.294
REMARK UNBOUND:                -0.278
REMARK SMILES CC1=CC[C@@]23[C@@H]([C@@H]12)[C@H](C(C)C)CC[C@@H]3C
REMARK SMILES IDX 15 1 14 2 13 3 12 4 8 5 6 6 5 7 7 8 2 9 3 10 4 11 1 12 9 13
REMARK SMILES IDX 10 14 11 15
REMARK H PARENT
REMARK Flexibility Score: inf
ROOT
ATOM      1  C   UNL     1      29.757   5.908  31.223  1.00  0.00     0.008 C 
ATOM      2  C   UNL     1      30.896   6.928  31.038  1.00  0.00    -0.007 C 
ATOM      3  C   UNL     1      30.987   7.367  29.563  1.00  0.00     0.004 C 
ATOM      4  C   UNL     1      29.928   8.412  29.207  1.00  0.00     0.004 C 
ATOM      5  C   UNL     1      30.181   9.737  29.957  1.00  0.00    -0.004 C 
ATOM      6  C   UNL     1      30.293   9.493  31.489  1.00  0.00     0.007 C 
ATOM      7  C   UNL     1      30.723   8.116  32.022  1.00  0.00    -0.013 C 
ATOM      8  C   UNL     1      31.740   9.254  31.938  1.00  0.00     0.025 C 
ATOM      9  C   UNL     1      32.037   9.596  33.357  1.00  0.00    -0.073 C 
ATOM     10  C   UNL     1      31.380   8.831  34.217  1.00  0.00    -0.027 C 
ATOM     11  C   UNL     1      30.518   7.836  33.523  1.00  0.00     0.035 C 
ATOM     12  C   UNL     1      32.967  10.694  33.769  1.00  0.00     0.039 C 
ENDROOT
BRANCH   5  13
ATOM     13  C   UNL     1      29.082  10.809  29.666  1.00  0.00    -0.014 C 
ATOM     14  C   UNL     1      29.505  11.827  28.591  1.00  0.00     0.007 C 
ATOM     15  C   UNL     1      28.712  11.579  30.950  1.00  0.00     0.007 C 
ENDBRANCH   5  13
TORSDOF 1
ENDMDL
MODEL 3
REMARK VINA RESULT:    -5.042      1.257      4.460
REMARK INTER + INTRA:          -5.615
REMARK INTER:                  -5.330
REMARK INTRA:                  -0.285
REMARK UNBOUND:                -0.278
REMARK SMILES CC1=CC[C@@]23[C@@H]([C@@H]12)[C@H](C(C)C)CC[C@@H]3C
REMARK SMILES IDX 15 1 14 2 13 3 12 4 8 5 6 6 5 7 7 8 2 9 3 10 4 11 1 12 9 13
REMARK SMILES IDX 10 14 11 15
REMARK H PARENT
REMARK Flexibility Score: inf
ROOT
ATOM      1  C   UNL     1      31.260  11.888  32.036  1.00  0.00     0.008 C 
ATOM      2  C   UNL     1      32.002  10.538  32.018  1.00  0.00    -0.007 C 
ATOM      3  C   UNL     1      32.725  10.307  33.360  1.00  0.00     0.004 C 
ATOM      4  C   UNL     1      31.769   9.822  34.452  1.00  0.00     0.004 C 
ATOM      5  C   UNL     1      31.224   8.415  34.128  1.00  0.00    -0.004 C 
ATOM      6  C   UNL     1      30.584   8.382  32.712  1.00  0.00     0.007 C 
ATOM      7  C   UNL     1      31.028   9.391  31.640  1.00  0.00    -0.013 C 
ATOM      8  C   UNL     1      31.586   7.968  31.627  1.00  0.00     0.025 C 
ATOM      9  C   UNL     1      30.995   7.345  30.410  1.00  0.00    -0.073 C 
ATOM     10  C   UNL     1      30.224   8.180  29.730  1.00  0.00    -0.027 C 
ATOM     11  C   UNL     1      30.156   9.519  30.376  1.00  0.00     0.035 C 
ATOM     12  C   UNL     1      31.236   5.924  30.004  1.00  0.00     0.039 C 
ENDROOT
BRANCH   5  13
ATOM     13  C   UNL     1      30.195   7.911  35.191  1.00  0.00    -0.014 C 
ATOM     14  C   UNL     1      30.856   7.150  36.354  1.00  0.00     0.007 C 
ATOM     15  C   UNL     1      29.139   6.994  34.543  1.00  0.00     0.007 C 
ENDBRANCH   5  13
TORSDOF 1
ENDMDL
MODEL 4
REMARK VINA RESULT:    -4.893      9.891     11.955
REMARK INTER + INTRA:          -5.458
REMARK INTER:                  -5.225
REMARK INTRA:                  -0.233
REMARK UNBOUND:                -0.278
REMARK SMILES CC1=CC[C@@]23[C@@H]([C@@H]12)[C@H](C(C)C)CC[C@@H]3C
REMARK SMILES IDX 15 1 14 2 13 3 12 4 8 5 6 6 5 7 7 8 2 9 3 10 4 11 1 12 9 13
REMARK SMILES IDX 10 14 11 15
REMARK H PARENT
REMARK Flexibility Score: inf
ROOT
ATOM      1  C   UNL     1      21.902  10.927  31.857  1.00  0.00     0.008 C 
ATOM      2  C   UNL     1      21.578   9.904  30.752  1.00  0.00    -0.007 C 
ATOM      3  C   UNL     1      20.811   8.704  31.343  1.00  0.00     0.004 C 
ATOM      4  C   UNL     1      19.329   9.017  31.556  1.00  0.00     0.004 C 
ATOM      5  C   UNL     1      18.608   9.233  30.208  1.00  0.00    -0.004 C 
ATOM      6  C   UNL     1      19.333  10.315  29.360  1.00  0.00     0.007 C 
ATOM      7  C   UNL     1      20.829  10.593  29.580  1.00  0.00    -0.013 C 
ATOM      8  C   UNL     1      20.380   9.712  28.415  1.00  0.00     0.025 C 
ATOM      9  C   UNL     1      20.686  10.514  27.198  1.00  0.00    -0.073 C 
ATOM     10  C   UNL     1      21.250  11.679  27.481  1.00  0.00    -0.027 C 
ATOM     11  C   UNL     1      21.419  11.869  28.947  1.00  0.00     0.035 C 
ATOM     12  C   UNL     1      20.379  10.059  25.805  1.00  0.00     0.039 C 
ENDROOT
BRANCH   5  13
ATOM     13  C   UNL     1      17.103   9.617  30.389  1.00  0.00    -0.014 C 
ATOM     14  C   UNL     1      16.886  10.719  31.441  1.00  0.00     0.007 C 
ATOM     15  C   UNL     1      16.266   8.386  30.790  1.00  0.00     0.007 C 
ENDBRANCH   5  13
TORSDOF 1
ENDMDL
MODEL 5
REMARK VINA RESULT:    -4.793      3.229      4.633
REMARK INTER + INTRA:          -5.351
REMARK INTER:                  -5.024
REMARK INTRA:                  -0.327
REMARK UNBOUND:                -0.278
REMARK SMILES CC1=CC[C@@]23[C@@H]([C@@H]12)[C@H](C(C)C)CC[C@@H]3C
REMARK SMILES IDX 15 1 14 2 13 3 12 4 8 5 6 6 5 7 7 8 2 9 3 10 4 11 1 12 9 13
REMARK SMILES IDX 10 14 11 15
REMARK H PARENT
REMARK Flexibility Score: inf
ROOT
ATOM      1  C   UNL     1      28.830  11.909  36.373  1.00  0.00     0.008 C 
ATOM      2  C   UNL     1      28.863  10.467  35.834  1.00  0.00    -0.007 C 
ATOM      3  C   UNL     1      28.377  10.431  34.371  1.00  0.00     0.004 C 
ATOM      4  C   UNL     1      29.466  10.875  33.392  1.00  0.00     0.004 C 
ATOM      5  C   UNL     1      30.637   9.869  33.371  1.00  0.00    -0.004 C 
ATOM      6  C   UNL     1      31.183   9.625  34.806  1.00  0.00     0.007 C 
ATOM      7  C   UNL     1      30.274   9.850  36.026  1.00  0.00    -0.013 C 
ATOM      8  C   UNL     1      30.504   8.435  35.495  1.00  0.00     0.025 C 
ATOM      9  C   UNL     1      31.306   7.763  36.555  1.00  0.00    -0.073 C 
ATOM     10  C   UNL     1      31.543   8.550  37.595  1.00  0.00    -0.027 C 
ATOM     11  C   UNL     1      30.942   9.899  37.414  1.00  0.00     0.035 C 
ATOM     12  C   UNL     1      31.802   6.354  36.453  1.00  0.00     0.039 C 
ENDROOT
BRANCH   5  13
ATOM     13  C   UNL     1      31.798  10.321  32.428  1.00  0.00    -0.014 C 
ATOM     14  C   UNL     1      33.124  10.551  33.174  1.00  0.00     0.007 C 
ATOM     15  C   UNL     1      31.426  11.617  31.680  1.00  0.00     0.007 C 
ENDBRANCH   5  13
TORSDOF 1
ENDMDL
MODEL 6
REMARK VINA RESULT:    -4.789      2.599      5.062
REMARK INTER + INTRA:          -5.347
REMARK INTER:                  -5.033
REMARK INTRA:                  -0.314
REMARK UNBOUND:                -0.278
REMARK SMILES CC1=CC[C@@]23[C@@H]([C@@H]12)[C@H](C(C)C)CC[C@@H]3C
REMARK SMILES IDX 15 1 14 2 13 3 12 4 8 5 6 6 5 7 7 8 2 9 3 10 4 11 1 12 9 13
REMARK SMILES IDX 10 14 11 15
REMARK H PARENT
REMARK Flexibility Score: inf
ROOT
ATOM      1  C   UNL     1      29.452   5.887  34.059  1.00  0.00     0.008 C 
ATOM      2  C   UNL     1      30.664   6.598  34.690  1.00  0.00    -0.007 C 
ATOM      3  C   UNL     1      31.837   6.643  33.690  1.00  0.00     0.004 C 
ATOM      4  C   UNL     1      31.665   7.753  32.651  1.00  0.00     0.004 C 
ATOM      5  C   UNL     1      31.743   9.147  33.310  1.00  0.00    -0.004 C 
ATOM      6  C   UNL     1      30.730   9.262  34.484  1.00  0.00     0.007 C 
ATOM      7  C   UNL     1      30.254   7.998  35.219  1.00  0.00    -0.013 C 
ATOM      8  C   UNL     1      31.351   8.870  35.830  1.00  0.00     0.025 C 
ATOM      9  C   UNL     1      30.717   9.480  37.032  1.00  0.00    -0.073 C 
ATOM     10  C   UNL     1      29.466   9.082  37.210  1.00  0.00    -0.027 C 
ATOM     11  C   UNL     1      29.034   8.131  36.150  1.00  0.00     0.035 C 
ATOM     12  C   UNL     1      31.414  10.449  37.936  1.00  0.00     0.039 C 
ENDROOT
BRANCH   5  13
ATOM     13  C   UNL     1      31.508  10.306  32.287  1.00  0.00    -0.014 C 
ATOM     14  C   UNL     1      32.317  11.573  32.619  1.00  0.00     0.007 C 
ATOM     15  C   UNL     1      30.015  10.684  32.216  1.00  0.00     0.007 C 
ENDBRANCH   5  13
TORSDOF 1
ENDMDL
MODEL 7
REMARK VINA RESULT:    -4.744      3.092      5.784
REMARK INTER + INTRA:          -5.300
REMARK INTER:                  -4.962
REMARK INTRA:                  -0.337
REMARK UNBOUND:                -0.278
REMARK SMILES CC1=CC[C@@]23[C@@H]([C@@H]12)[C@H](C(C)C)CC[C@@H]3C
REMARK SMILES IDX 15 1 14 2 13 3 12 4 8 5 6 6 5 7 7 8 2 9 3 10 4 11 1 12 9 13
REMARK SMILES IDX 10 14 11 15
REMARK H PARENT
REMARK Flexibility Score: inf
ROOT
ATOM      1  C   UNL     1      31.588  11.124  24.766  1.00  0.00     0.008 C 
ATOM      2  C   UNL     1      30.148  10.608  24.944  1.00  0.00    -0.007 C 
ATOM      3  C   UNL     1      30.064   9.115  24.569  1.00  0.00     0.004 C 
ATOM      4  C   UNL     1      30.580   8.211  25.691  1.00  0.00     0.004 C 
ATOM      5  C   UNL     1      29.663   8.288  26.931  1.00  0.00    -0.004 C 
ATOM      6  C   UNL     1      29.473   9.762  27.388  1.00  0.00     0.007 C 
ATOM      7  C   UNL     1      29.640  10.910  26.379  1.00  0.00    -0.013 C 
ATOM      8  C   UNL     1      28.241  10.416  26.750  1.00  0.00     0.025 C 
ATOM      9  C   UNL     1      27.639  11.540  27.520  1.00  0.00    -0.073 C 
ATOM     10  C   UNL     1      28.450  12.583  27.623  1.00  0.00    -0.027 C 
ATOM     11  C   UNL     1      29.750  12.341  26.939  1.00  0.00     0.035 C 
ATOM     12  C   UNL     1      26.271  11.493  28.125  1.00  0.00     0.039 C 
ENDROOT
BRANCH   5  13
ATOM     13  C   UNL     1      30.193   7.424  28.121  1.00  0.00    -0.014 C 
ATOM     14  C   UNL     1      30.181   8.178  29.464  1.00  0.00     0.007 C 
ATOM     15  C   UNL     1      31.628   6.933  27.849  1.00  0.00     0.007 C 
ENDBRANCH   5  13
TORSDOF 1
ENDMDL
MODEL 8
REMARK VINA RESULT:    -4.643      3.827      6.634
REMARK INTER + INTRA:          -5.193
REMARK INTER:                  -4.882
REMARK INTRA:                  -0.311
REMARK UNBOUND:                -0.278
REMARK SMILES CC1=CC[C@@]23[C@@H]([C@@H]12)[C@H](C(C)C)CC[C@@H]3C
REMARK SMILES IDX 15 1 14 2 13 3 12 4 8 5 6 6 5 7 7 8 2 9 3 10 4 11 1 12 9 13
REMARK SMILES IDX 10 14 11 15
REMARK H PARENT
REMARK Flexibility Score: inf
ROOT
ATOM      1  C   UNL     1      29.375   7.712  22.710  1.00  0.00     0.008 C 
ATOM      2  C   UNL     1      30.509   7.984  23.716  1.00  0.00    -0.007 C 
ATOM      3  C   UNL     1      31.039   9.422  23.549  1.00  0.00     0.004 C 
ATOM      4  C   UNL     1      30.129  10.452  24.221  1.00  0.00     0.004 C 
ATOM      5  C   UNL     1      30.132  10.279  25.755  1.00  0.00    -0.004 C 
ATOM      6  C   UNL     1      29.776   8.818  26.148  1.00  0.00     0.007 C 
ATOM      7  C   UNL     1      30.036   7.668  25.161  1.00  0.00    -0.013 C 
ATOM      8  C   UNL     1      31.021   7.934  26.299  1.00  0.00     0.025 C 
ATOM      9  C   UNL     1      30.872   6.762  27.205  1.00  0.00    -0.073 C 
ATOM     10  C   UNL     1      29.992   5.878  26.759  1.00  0.00    -0.027 C 
ATOM     11  C   UNL     1      29.388   6.304  25.467  1.00  0.00     0.035 C 
ATOM     12  C   UNL     1      31.624   6.605  28.490  1.00  0.00     0.039 C 
ENDROOT
BRANCH   5  13
ATOM     13  C   UNL     1      29.164  11.275  26.472  1.00  0.00    -0.014 C 
ATOM     14  C   UNL     1      29.732  11.817  27.796  1.00  0.00     0.007 C 
ATOM     15  C   UNL     1      27.804  10.610  26.759  1.00  0.00     0.007 C 
ENDBRANCH   5  13
TORSDOF 1
ENDMDL
MODEL 9
REMARK VINA RESULT:    -4.612      3.884      6.405
REMARK INTER + INTRA:          -5.161
REMARK INTER:                  -4.819
REMARK INTRA:                  -0.342
REMARK UNBOUND:                -0.278
REMARK SMILES CC1=CC[C@@]23[C@@H]([C@@H]12)[C@H](C(C)C)CC[C@@H]3C
REMARK SMILES IDX 15 1 14 2 13 3 12 4 8 5 6 6 5 7 7 8 2 9 3 10 4 11 1 12 9 13
REMARK SMILES IDX 10 14 11 15
REMARK H PARENT
REMARK Flexibility Score: inf
ROOT
ATOM      1  C   UNL     1      28.691  10.983  37.673  1.00  0.00     0.008 C 
ATOM      2  C   UNL     1      30.187  10.871  37.323  1.00  0.00    -0.007 C 
ATOM      3  C   UNL     1      30.946  10.138  38.447  1.00  0.00     0.004 C 
ATOM      4  C   UNL     1      30.763   8.621  38.370  1.00  0.00     0.004 C 
ATOM      5  C   UNL     1      31.427   8.046  37.100  1.00  0.00    -0.004 C 
ATOM      6  C   UNL     1      30.914   8.778  35.828  1.00  0.00     0.007 C 
ATOM      7  C   UNL     1      30.368  10.212  35.930  1.00  0.00    -0.013 C 
ATOM      8  C   UNL     1      31.797   9.971  35.444  1.00  0.00     0.025 C 
ATOM      9  C   UNL     1      31.773  10.353  34.005  1.00  0.00    -0.073 C 
ATOM     10  C   UNL     1      30.585  10.786  33.609  1.00  0.00    -0.027 C 
ATOM     11  C   UNL     1      29.594  10.768  34.719  1.00  0.00     0.035 C 
ATOM     12  C   UNL     1      32.959  10.246  33.098  1.00  0.00     0.039 C 
ENDROOT
BRANCH   5  13
ATOM     13  C   UNL     1      31.208   6.505  36.955  1.00  0.00    -0.014 C 
ATOM     14  C   UNL     1      30.959   6.068  35.500  1.00  0.00     0.007 C 
ATOM     15  C   UNL     1      30.019   6.035  37.817  1.00  0.00     0.007 C 
ENDBRANCH   5  13
TORSDOF 1
ENDMDL
