MODEL 1
REMARK VINA RESULT:    -7.424      0.000      0.000
REMARK INTER + INTRA:         -13.945
REMARK INTER:                 -11.764
REMARK INTRA:                  -2.180
REMARK UNBOUND:                -2.180
REMARK SMILES C[C@H]1O[C@H](O[C@H]2[C@@H](Oc3cc(O)c4c(c3)O[C@@H](c3ccc(O)cc3)CC4=O)O[C@H](CO)[C@@H](O)[C@@H]2O)[C@H](O)[C@H](O)[C@@H]1O
REMARK SMILES IDX 6 1 34 2 32 3 29 4 28 5 7 6 5 7 4 8 1 9 2 10 40 11 3 12
REMARK SMILES IDX 38 13 36 14 41 15 39 17 37 19 35 21 8 23 9 24 10 25 15 26
REMARK SMILES IDX 11 27 14 28 13 29 16 30 26 31 17 32 27 33 25 34 12 35 18 37
REMARK SMILES IDX 19 38 24 39 20 40 23 41 21 42 22 43 33 45 30 47 31 48
REMARK H PARENT 41 16 39 18 37 20 35 22 12 36 22 44 33 46 31 49
REMARK Flexibility Score: inf
ROOT
ATOM      1  C   UNL     1       7.557  -6.090 -35.048  1.00  0.00     0.221 C 
ATOM      2  C   UNL     1       8.655  -5.835 -36.095  1.00  0.00     0.181 C 
ATOM      3  C   UNL     1      10.026  -6.255 -35.545  1.00  0.00     0.177 C 
ATOM      4  C   UNL     1       9.951  -7.705 -35.014  1.00  0.00     0.179 C 
ATOM      5  O   UNL     1       8.954  -7.812 -34.011  1.00  0.00    -0.332 OA
ATOM      6  C   UNL     1       7.659  -7.536 -34.523  1.00  0.00     0.339 C 
ENDROOT
BRANCH   1   7
ATOM      7  O   UNL     1       6.296  -5.898 -35.666  1.00  0.00    -0.337 OA
BRANCH   7   8
ATOM      8  C   UNL     1       5.627  -4.742 -35.180  1.00  0.00     0.282 C 
ATOM      9  C   UNL     1       5.190  -2.927 -38.355  1.00  0.00     0.041 C 
ATOM     10  C   UNL     1       5.015  -4.067 -37.351  1.00  0.00     0.150 C 
ATOM     11  C   UNL     1       3.511  -4.351 -37.100  1.00  0.00     0.174 C 
ATOM     12  O   UNL     1       5.666  -3.698 -36.143  1.00  0.00    -0.344 OA
ATOM     13  C   UNL     1       3.341  -5.451 -36.033  1.00  0.00     0.179 C 
ATOM     14  C   UNL     1       4.173  -5.092 -34.794  1.00  0.00     0.202 C 
BRANCH  11  15
ATOM     15  O   UNL     1       2.830  -4.694 -38.283  1.00  0.00    -0.388 OA
ATOM     16  H   UNL     1       1.961  -4.213 -38.287  1.00  0.00     0.211 HD
ENDBRANCH  11  15
BRANCH  13  17
ATOM     17  O   UNL     1       3.752  -6.700 -36.537  1.00  0.00    -0.387 OA
ATOM     18  H   UNL     1       4.742  -6.678 -36.602  1.00  0.00     0.211 HD
ENDBRANCH  13  17
BRANCH  14  19
ATOM     19  O   UNL     1       4.153  -6.162 -33.883  1.00  0.00    -0.385 OA
ATOM     20  H   UNL     1       5.091  -6.466 -33.775  1.00  0.00     0.211 HD
ENDBRANCH  14  19
ENDBRANCH   7   8
ENDBRANCH   1   7
BRANCH   2  21
ATOM     21  O   UNL     1       8.686  -4.470 -36.427  1.00  0.00    -0.387 OA
ATOM     22  H   UNL     1       8.065  -4.008 -35.804  1.00  0.00     0.211 HD
ENDBRANCH   2  21
BRANCH   6  23
ATOM     23  O   UNL     1       7.285  -8.458 -35.551  1.00  0.00    -0.462 OA
BRANCH  23  24
ATOM     24  C   UNL     1       6.245  -9.397 -35.464  1.00  0.00     0.130 A 
ATOM     25  C   UNL     1       5.678 -10.007 -36.598  1.00  0.00     0.093 A 
ATOM     26  C   UNL     1       5.764  -9.728 -34.197  1.00  0.00     0.094 A 
ATOM     27  C   UNL     1       4.611 -10.910 -36.463  1.00  0.00     0.133 A 
ATOM     28  C   UNL     1       4.733 -10.656 -34.048  1.00  0.00     0.138 A 
ATOM     29  C   UNL     1       4.126 -11.231 -35.177  1.00  0.00     0.102 A 
ATOM     30  O   UNL     1       4.304 -11.007 -32.763  1.00  0.00    -0.484 OA
ATOM     31  C   UNL     1       2.970 -12.134 -34.954  1.00  0.00     0.174 C 
ATOM     32  C   UNL     1       3.521 -12.179 -32.518  1.00  0.00     0.211 C 
ATOM     33  O   UNL     1       2.420 -12.737 -35.914  1.00  0.00    -0.294 OA
ATOM     34  C   UNL     1       2.399 -12.278 -33.570  1.00  0.00     0.131 C 
BRANCH  27  35
ATOM     35  O   UNL     1       4.038 -11.474 -37.602  1.00  0.00    -0.507 OA
ATOM     36  H   UNL     1       3.943 -10.955 -38.467  1.00  0.00     0.293 HD
ENDBRANCH  27  35
BRANCH  32  37
ATOM     37  C   UNL     1       3.053 -12.175 -31.072  1.00  0.00    -0.007 A 
ATOM     38  C   UNL     1       3.604 -11.222 -30.196  1.00  0.00     0.011 A 
ATOM     39  C   UNL     1       2.141 -13.120 -30.552  1.00  0.00     0.011 A 
ATOM     40  C   UNL     1       3.238 -11.192 -28.848  1.00  0.00     0.046 A 
ATOM     41  C   UNL     1       1.779 -13.088 -29.201  1.00  0.00     0.046 A 
ATOM     42  C   UNL     1       2.327 -12.124 -28.347  1.00  0.00     0.115 A 
BRANCH  42  43
ATOM     43  O   UNL     1       1.975 -12.086 -27.000  1.00  0.00    -0.508 OA
ATOM     44  H   UNL     1       1.153 -11.586 -26.681  1.00  0.00     0.293 HD
ENDBRANCH  42  43
ENDBRANCH  32  37
ENDBRANCH  23  24
ENDBRANCH   6  23
BRANCH   3  45
ATOM     45  O   UNL     1      10.984  -6.171 -36.569  1.00  0.00    -0.387 OA
ATOM     46  H   UNL     1      11.502  -5.338 -36.413  1.00  0.00     0.211 HD
ENDBRANCH   3  45
BRANCH   4  47
ATOM     47  C   UNL     1      11.285  -8.142 -34.394  1.00  0.00     0.191 C 
BRANCH  47  48
ATOM     48  O   UNL     1      12.163  -7.054 -34.301  1.00  0.00    -0.394 OA
ATOM     49  H   UNL     1      12.478  -6.874 -35.224  1.00  0.00     0.210 HD
ENDBRANCH  47  48
ENDBRANCH   4  47
TORSDOF 14
ENDMDL
MODEL 2
REMARK VINA RESULT:    -7.370      1.277      1.588
REMARK INTER + INTRA:         -13.859
REMARK INTER:                 -11.783
REMARK INTRA:                  -2.076
REMARK UNBOUND:                -2.180
REMARK SMILES C[C@H]1O[C@H](O[C@H]2[C@@H](Oc3cc(O)c4c(c3)O[C@@H](c3ccc(O)cc3)CC4=O)O[C@H](CO)[C@@H](O)[C@@H]2O)[C@H](O)[C@H](O)[C@@H]1O
REMARK SMILES IDX 6 1 34 2 32 3 29 4 28 5 7 6 5 7 4 8 1 9 2 10 40 11 3 12
REMARK SMILES IDX 38 13 36 14 41 15 39 17 37 19 35 21 8 23 9 24 10 25 15 26
REMARK SMILES IDX 11 27 14 28 13 29 16 30 26 31 17 32 27 33 25 34 12 35 18 37
REMARK SMILES IDX 19 38 24 39 20 40 23 41 21 42 22 43 33 45 30 47 31 48
REMARK H PARENT 41 16 39 18 37 20 35 22 12 36 22 44 33 46 31 49
REMARK Flexibility Score: inf
ROOT
ATOM      1  C   UNL     1       6.265  -6.255 -34.667  1.00  0.00     0.221 C 
ATOM      2  C   UNL     1       7.080  -5.645 -35.819  1.00  0.00     0.181 C 
ATOM      3  C   UNL     1       8.562  -5.544 -35.430  1.00  0.00     0.177 C 
ATOM      4  C   UNL     1       9.063  -6.919 -34.930  1.00  0.00     0.179 C 
ATOM      5  O   UNL     1       8.284  -7.357 -33.829  1.00  0.00    -0.332 OA
ATOM      6  C   UNL     1       6.927  -7.564 -34.191  1.00  0.00     0.339 C 
ENDROOT
BRANCH   1   7
ATOM      7  O   UNL     1       4.958  -6.531 -35.140  1.00  0.00    -0.337 OA
BRANCH   7   8
ATOM      8  C   UNL     1       3.998  -5.606 -34.648  1.00  0.00     0.282 C 
ATOM      9  C   UNL     1       2.907  -4.122 -37.838  1.00  0.00     0.041 C 
ATOM     10  C   UNL     1       3.121  -5.224 -36.799  1.00  0.00     0.150 C 
ATOM     11  C   UNL     1       1.780  -5.929 -36.463  1.00  0.00     0.174 C 
ATOM     12  O   UNL     1       3.685  -4.634 -35.636  1.00  0.00    -0.344 OA
ATOM     13  C   UNL     1       1.990  -6.988 -35.363  1.00  0.00     0.179 C 
ATOM     14  C   UNL     1       2.731  -6.353 -34.177  1.00  0.00     0.202 C 
BRANCH  11  15
ATOM     15  O   UNL     1       1.181  -6.501 -37.600  1.00  0.00    -0.388 OA
ATOM     16  H   UNL     1       1.182  -5.820 -38.323  1.00  0.00     0.211 HD
ENDBRANCH  11  15
BRANCH  13  17
ATOM     17  O   UNL     1       2.729  -8.079 -35.858  1.00  0.00    -0.387 OA
ATOM     18  H   UNL     1       3.592  -8.095 -35.367  1.00  0.00     0.211 HD
ENDBRANCH  13  17
BRANCH  14  19
ATOM     19  O   UNL     1       3.067  -7.347 -33.242  1.00  0.00    -0.385 OA
ATOM     20  H   UNL     1       2.839  -8.219 -33.655  1.00  0.00     0.211 HD
ENDBRANCH  14  19
ENDBRANCH   7   8
ENDBRANCH   1   7
BRANCH   2  21
ATOM     21  O   UNL     1       6.591  -4.362 -36.118  1.00  0.00    -0.387 OA
ATOM     22  H   UNL     1       7.208  -3.968 -36.789  1.00  0.00     0.211 HD
ENDBRANCH   2  21
BRANCH   6  23
ATOM     23  O   UNL     1       6.793  -8.575 -35.195  1.00  0.00    -0.462 OA
BRANCH  23  24
ATOM     24  C   UNL     1       5.790  -9.554 -35.237  1.00  0.00     0.130 A 
ATOM     25  C   UNL     1       5.401 -10.193 -36.428  1.00  0.00     0.093 A 
ATOM     26  C   UNL     1       5.159  -9.898 -34.040  1.00  0.00     0.094 A 
ATOM     27  C   UNL     1       4.363 -11.138 -36.426  1.00  0.00     0.133 A 
ATOM     28  C   UNL     1       4.155 -10.867 -34.018  1.00  0.00     0.138 A 
ATOM     29  C   UNL     1       3.726 -11.472 -35.211  1.00  0.00     0.102 A 
ATOM     30  O   UNL     1       3.575 -11.228 -32.797  1.00  0.00    -0.484 OA
ATOM     31  C   UNL     1       2.587 -12.420 -35.133  1.00  0.00     0.174 C 
ATOM     32  C   UNL     1       2.814 -12.429 -32.645  1.00  0.00     0.211 C 
ATOM     33  O   UNL     1       2.193 -13.051 -36.150  1.00  0.00    -0.294 OA
ATOM     34  C   UNL     1       1.845 -12.580 -33.834  1.00  0.00     0.131 C 
BRANCH  27  35
ATOM     35  O   UNL     1       3.968 -11.732 -37.623  1.00  0.00    -0.507 OA
ATOM     36  H   UNL     1       4.373 -12.603 -37.948  1.00  0.00     0.293 HD
ENDBRANCH  27  35
BRANCH  32  37
ATOM     37  C   UNL     1       2.159 -12.437 -31.273  1.00  0.00    -0.007 A 
ATOM     38  C   UNL     1       0.938 -11.757 -31.114  1.00  0.00     0.011 A 
ATOM     39  C   UNL     1       2.748 -13.039 -30.139  1.00  0.00     0.011 A 
ATOM     40  C   UNL     1       0.307 -11.700 -29.868  1.00  0.00     0.046 A 
ATOM     41  C   UNL     1       2.114 -12.978 -28.893  1.00  0.00     0.046 A 
ATOM     42  C   UNL     1       0.892 -12.309 -28.756  1.00  0.00     0.115 A 
BRANCH  42  43
ATOM     43  O   UNL     1       0.254 -12.240 -27.520  1.00  0.00    -0.508 OA
ATOM     44  H   UNL     1      -0.623 -12.718 -27.349  1.00  0.00     0.293 HD
ENDBRANCH  42  43
ENDBRANCH  32  37
ENDBRANCH  23  24
ENDBRANCH   6  23
BRANCH   3  45
ATOM     45  O   UNL     1       9.311  -5.142 -36.549  1.00  0.00    -0.387 OA
ATOM     46  H   UNL     1       9.100  -5.779 -37.282  1.00  0.00     0.211 HD
ENDBRANCH   3  45
BRANCH   4  47
ATOM     47  C   UNL     1      10.524  -6.847 -34.468  1.00  0.00     0.191 C 
BRANCH  47  48
ATOM     48  O   UNL     1      10.919  -8.063 -33.895  1.00  0.00    -0.394 OA
ATOM     49  H   UNL     1      11.828  -8.251 -34.243  1.00  0.00     0.210 HD
ENDBRANCH  47  48
ENDBRANCH   4  47
TORSDOF 14
ENDMDL
MODEL 3
REMARK VINA RESULT:    -6.739      1.991      5.187
REMARK INTER + INTRA:         -12.859
REMARK INTER:                 -11.035
REMARK INTRA:                  -1.824
REMARK UNBOUND:                -2.180
REMARK SMILES C[C@H]1O[C@H](O[C@H]2[C@@H](Oc3cc(O)c4c(c3)O[C@@H](c3ccc(O)cc3)CC4=O)O[C@H](CO)[C@@H](O)[C@@H]2O)[C@H](O)[C@H](O)[C@@H]1O
REMARK SMILES IDX 6 1 34 2 32 3 29 4 28 5 7 6 5 7 4 8 1 9 2 10 40 11 3 12
REMARK SMILES IDX 38 13 36 14 41 15 39 17 37 19 35 21 8 23 9 24 10 25 15 26
REMARK SMILES IDX 11 27 14 28 13 29 16 30 26 31 17 32 27 33 25 34 12 35 18 37
REMARK SMILES IDX 19 38 24 39 20 40 23 41 21 42 22 43 33 45 30 47 31 48
REMARK H PARENT 41 16 39 18 37 20 35 22 12 36 22 44 33 46 31 49
REMARK Flexibility Score: inf
ROOT
ATOM      1  C   UNL     1       4.387  -6.553 -36.078  1.00  0.00     0.221 C 
ATOM      2  C   UNL     1       3.829  -5.236 -35.514  1.00  0.00     0.181 C 
ATOM      3  C   UNL     1       2.385  -5.019 -35.990  1.00  0.00     0.177 C 
ATOM      4  C   UNL     1       1.540  -6.275 -35.676  1.00  0.00     0.179 C 
ATOM      5  O   UNL     1       2.107  -7.419 -36.295  1.00  0.00    -0.332 OA
ATOM      6  C   UNL     1       3.402  -7.705 -35.790  1.00  0.00     0.339 C 
ENDROOT
BRANCH   1   7
ATOM      7  O   UNL     1       5.626  -6.821 -35.446  1.00  0.00    -0.337 OA
BRANCH   7   8
ATOM      8  C   UNL     1       6.705  -6.868 -36.370  1.00  0.00     0.282 C 
ATOM      9  C   UNL     1       8.484  -3.804 -35.366  1.00  0.00     0.041 C 
ATOM     10  C   UNL     1       7.900  -5.208 -35.205  1.00  0.00     0.150 C 
ATOM     11  C   UNL     1       8.994  -6.207 -34.744  1.00  0.00     0.174 C 
ATOM     12  O   UNL     1       7.349  -5.605 -36.453  1.00  0.00    -0.344 OA
ATOM     13  C   UNL     1       8.416  -7.633 -34.654  1.00  0.00     0.179 C 
ATOM     14  C   UNL     1       7.702  -7.978 -35.969  1.00  0.00     0.202 C 
BRANCH  11  15
ATOM     15  O   UNL     1       9.580  -5.827 -33.522  1.00  0.00    -0.388 OA
ATOM     16  H   UNL     1       9.174  -6.378 -32.803  1.00  0.00     0.211 HD
ENDBRANCH  11  15
BRANCH  13  17
ATOM     17  O   UNL     1       7.512  -7.737 -33.579  1.00  0.00    -0.387 OA
ATOM     18  H   UNL     1       7.912  -7.249 -32.813  1.00  0.00     0.211 HD
ENDBRANCH  13  17
BRANCH  14  19
ATOM     19  O   UNL     1       7.036  -9.209 -35.837  1.00  0.00    -0.385 OA
ATOM     20  H   UNL     1       7.672  -9.913 -36.130  1.00  0.00     0.211 HD
ENDBRANCH  14  19
ENDBRANCH   7   8
ENDBRANCH   1   7
BRANCH   2  21
ATOM     21  O   UNL     1       4.626  -4.161 -35.945  1.00  0.00    -0.387 OA
ATOM     22  H   UNL     1       4.449  -3.405 -35.326  1.00  0.00     0.211 HD
ENDBRANCH   2  21
BRANCH   6  23
ATOM     23  O   UNL     1       3.376  -7.989 -34.388  1.00  0.00    -0.462 OA
BRANCH  23  24
ATOM     24  C   UNL     1       3.175  -9.255 -33.817  1.00  0.00     0.130 A 
ATOM     25  C   UNL     1       2.960 -10.411 -34.589  1.00  0.00     0.093 A 
ATOM     26  C   UNL     1       3.191  -9.356 -32.425  1.00  0.00     0.094 A 
ATOM     27  C   UNL     1       2.724 -11.648 -33.970  1.00  0.00     0.133 A 
ATOM     28  C   UNL     1       3.000 -10.588 -31.799  1.00  0.00     0.138 A 
ATOM     29  C   UNL     1       2.733 -11.738 -32.561  1.00  0.00     0.102 A 
ATOM     30  O   UNL     1       3.071 -10.670 -30.404  1.00  0.00    -0.484 OA
ATOM     31  C   UNL     1       2.440 -12.996 -31.832  1.00  0.00     0.174 C 
ATOM     32  C   UNL     1       3.236 -11.917 -29.724  1.00  0.00     0.211 C 
ATOM     33  O   UNL     1       2.259 -14.080 -32.449  1.00  0.00    -0.294 OA
ATOM     34  C   UNL     1       2.287 -12.967 -30.336  1.00  0.00     0.131 C 
BRANCH  27  35
ATOM     35  O   UNL     1       2.474 -12.775 -34.753  1.00  0.00    -0.507 OA
ATOM     36  H   UNL     1       2.973 -12.945 -35.619  1.00  0.00     0.293 HD
ENDBRANCH  27  35
BRANCH  32  37
ATOM     37  C   UNL     1       3.078 -11.697 -28.228  1.00  0.00    -0.007 A 
ATOM     38  C   UNL     1       3.672 -10.557 -27.657  1.00  0.00     0.011 A 
ATOM     39  C   UNL     1       2.420 -12.612 -27.377  1.00  0.00     0.011 A 
ATOM     40  C   UNL     1       3.590 -10.319 -26.282  1.00  0.00     0.046 A 
ATOM     41  C   UNL     1       2.342 -12.371 -26.002  1.00  0.00     0.046 A 
ATOM     42  C   UNL     1       2.926 -11.224 -25.452  1.00  0.00     0.115 A 
BRANCH  42  43
ATOM     43  O   UNL     1       2.857 -10.978 -24.083  1.00  0.00    -0.508 OA
ATOM     44  H   UNL     1       3.617 -10.526 -23.587  1.00  0.00     0.293 HD
ENDBRANCH  42  43
ENDBRANCH  32  37
ENDBRANCH  23  24
ENDBRANCH   6  23
BRANCH   3  45
ATOM     45  O   UNL     1       1.841  -3.903 -35.334  1.00  0.00    -0.387 OA
ATOM     46  H   UNL     1       0.921  -4.152 -35.055  1.00  0.00     0.211 HD
ENDBRANCH   3  45
BRANCH   4  47
ATOM     47  C   UNL     1       0.104  -6.127 -36.196  1.00  0.00     0.191 C 
BRANCH  47  48
ATOM     48  O   UNL     1      -0.114  -6.981 -37.285  1.00  0.00    -0.394 OA
ATOM     49  H   UNL     1       0.291  -6.534 -38.072  1.00  0.00     0.210 HD
ENDBRANCH  47  48
ENDBRANCH   4  47
TORSDOF 14
ENDMDL
MODEL 4
REMARK VINA RESULT:    -6.710      3.160      9.469
REMARK INTER + INTRA:         -12.813
REMARK INTER:                 -10.910
REMARK INTRA:                  -1.903
REMARK UNBOUND:                -2.180
REMARK SMILES C[C@H]1O[C@H](O[C@H]2[C@@H](Oc3cc(O)c4c(c3)O[C@@H](c3ccc(O)cc3)CC4=O)O[C@H](CO)[C@@H](O)[C@@H]2O)[C@H](O)[C@H](O)[C@@H]1O
REMARK SMILES IDX 6 1 34 2 32 3 29 4 28 5 7 6 5 7 4 8 1 9 2 10 40 11 3 12
REMARK SMILES IDX 38 13 36 14 41 15 39 17 37 19 35 21 8 23 9 24 10 25 15 26
REMARK SMILES IDX 11 27 14 28 13 29 16 30 26 31 17 32 27 33 25 34 12 35 18 37
REMARK SMILES IDX 19 38 24 39 20 40 23 41 21 42 22 43 33 45 30 47 31 48
REMARK H PARENT 41 16 39 18 37 20 35 22 12 36 22 44 33 46 31 49
REMARK Flexibility Score: inf
ROOT
ATOM      1  C   UNL     1       0.728  -9.711 -32.195  1.00  0.00     0.221 C 
ATOM      2  C   UNL     1      -0.595 -10.305 -32.707  1.00  0.00     0.181 C 
ATOM      3  C   UNL     1      -1.748  -9.316 -32.482  1.00  0.00     0.177 C 
ATOM      4  C   UNL     1      -1.375  -7.939 -33.078  1.00  0.00     0.179 C 
ATOM      5  O   UNL     1      -0.177  -7.456 -32.491  1.00  0.00    -0.332 OA
ATOM      6  C   UNL     1       0.929  -8.298 -32.779  1.00  0.00     0.339 C 
ENDROOT
BRANCH   1   7
ATOM      7  O   UNL     1       1.788 -10.552 -32.615  1.00  0.00    -0.337 OA
BRANCH   7   8
ATOM      8  C   UNL     1       2.870 -10.558 -31.693  1.00  0.00     0.282 C 
ATOM      9  C   UNL     1       1.568 -12.998 -29.261  1.00  0.00     0.041 C 
ATOM     10  C   UNL     1       2.065 -12.490 -30.614  1.00  0.00     0.150 C 
ATOM     11  C   UNL     1       3.239 -13.363 -31.130  1.00  0.00     0.174 C 
ATOM     12  O   UNL     1       2.473 -11.138 -30.458  1.00  0.00    -0.344 OA
ATOM     13  C   UNL     1       3.783 -12.802 -32.459  1.00  0.00     0.179 C 
ATOM     14  C   UNL     1       4.080 -11.304 -32.297  1.00  0.00     0.202 C 
BRANCH  11  15
ATOM     15  O   UNL     1       2.875 -14.715 -31.270  1.00  0.00    -0.388 OA
ATOM     16  H   UNL     1       2.288 -14.955 -30.506  1.00  0.00     0.211 HD
ENDBRANCH  11  15
BRANCH  13  17
ATOM     17  O   UNL     1       2.853 -12.994 -33.498  1.00  0.00    -0.387 OA
ATOM     18  H   UNL     1       2.320 -12.160 -33.572  1.00  0.00     0.211 HD
ENDBRANCH  13  17
BRANCH  14  19
ATOM     19  O   UNL     1       4.423 -10.752 -33.544  1.00  0.00    -0.385 OA
ATOM     20  H   UNL     1       5.407 -10.833 -33.633  1.00  0.00     0.211 HD
ENDBRANCH  14  19
ENDBRANCH   7   8
ENDBRANCH   1   7
BRANCH   2  21
ATOM     21  O   UNL     1      -0.872 -11.502 -32.026  1.00  0.00    -0.387 OA
ATOM     22  H   UNL     1      -0.399 -11.454 -31.154  1.00  0.00     0.211 HD
ENDBRANCH   2  21
BRANCH   6  23
ATOM     23  O   UNL     1       1.184  -8.379 -34.184  1.00  0.00    -0.462 OA
BRANCH  23  24
ATOM     24  C   UNL     1       2.071  -7.562 -34.900  1.00  0.00     0.130 A 
ATOM     25  C   UNL     1       1.634  -6.593 -35.822  1.00  0.00     0.093 A 
ATOM     26  C   UNL     1       3.440  -7.728 -34.680  1.00  0.00     0.094 A 
ATOM     27  C   UNL     1       2.562  -5.826 -36.545  1.00  0.00     0.133 A 
ATOM     28  C   UNL     1       4.370  -6.943 -35.362  1.00  0.00     0.138 A 
ATOM     29  C   UNL     1       3.944  -6.009 -36.321  1.00  0.00     0.102 A 
ATOM     30  O   UNL     1       5.733  -7.095 -35.085  1.00  0.00    -0.484 OA
ATOM     31  C   UNL     1       4.987  -5.277 -37.082  1.00  0.00     0.174 C 
ATOM     32  C   UNL     1       6.699  -6.113 -35.467  1.00  0.00     0.211 C 
ATOM     33  O   UNL     1       4.679  -4.378 -37.909  1.00  0.00    -0.294 OA
ATOM     34  C   UNL     1       6.432  -5.662 -36.916  1.00  0.00     0.131 C 
BRANCH  27  35
ATOM     35  O   UNL     1       2.109  -4.898 -37.481  1.00  0.00    -0.507 OA
ATOM     36  H   UNL     1       1.320  -5.092 -38.088  1.00  0.00     0.293 HD
ENDBRANCH  27  35
BRANCH  32  37
ATOM     37  C   UNL     1       8.095  -6.656 -35.206  1.00  0.00    -0.007 A 
ATOM     38  C   UNL     1       8.352  -7.263 -33.964  1.00  0.00     0.011 A 
ATOM     39  C   UNL     1       9.160  -6.524 -36.125  1.00  0.00     0.011 A 
ATOM     40  C   UNL     1       9.625  -7.750 -33.654  1.00  0.00     0.046 A 
ATOM     41  C   UNL     1      10.433  -7.010 -35.810  1.00  0.00     0.046 A 
ATOM     42  C   UNL     1      10.668  -7.625 -34.574  1.00  0.00     0.115 A 
BRANCH  42  43
ATOM     43  O   UNL     1      11.932  -8.109 -34.250  1.00  0.00    -0.508 OA
ATOM     44  H   UNL     1      12.118  -8.547 -33.355  1.00  0.00     0.293 HD
ENDBRANCH  42  43
ENDBRANCH  32  37
ENDBRANCH  23  24
ENDBRANCH   6  23
BRANCH   3  45
ATOM     45  O   UNL     1      -2.909  -9.805 -33.104  1.00  0.00    -0.387 OA
ATOM     46  H   UNL     1      -3.127  -9.178 -33.843  1.00  0.00     0.211 HD
ENDBRANCH   3  45
BRANCH   4  47
ATOM     47  C   UNL     1      -2.474  -6.901 -32.817  1.00  0.00     0.191 C 
BRANCH  47  48
ATOM     48  O   UNL     1      -3.125  -7.170 -31.605  1.00  0.00    -0.394 OA
ATOM     49  H   UNL     1      -4.075  -7.336 -31.833  1.00  0.00     0.210 HD
ENDBRANCH  47  48
ENDBRANCH   4  47
TORSDOF 14
ENDMDL
MODEL 5
REMARK VINA RESULT:    -6.671      2.896      9.576
REMARK INTER + INTRA:         -12.752
REMARK INTER:                 -10.755
REMARK INTRA:                  -1.997
REMARK UNBOUND:                -2.180
REMARK SMILES C[C@H]1O[C@H](O[C@H]2[C@@H](Oc3cc(O)c4c(c3)O[C@@H](c3ccc(O)cc3)CC4=O)O[C@H](CO)[C@@H](O)[C@@H]2O)[C@H](O)[C@H](O)[C@@H]1O
REMARK SMILES IDX 6 1 34 2 32 3 29 4 28 5 7 6 5 7 4 8 1 9 2 10 40 11 3 12
REMARK SMILES IDX 38 13 36 14 41 15 39 17 37 19 35 21 8 23 9 24 10 25 15 26
REMARK SMILES IDX 11 27 14 28 13 29 16 30 26 31 17 32 27 33 25 34 12 35 18 37
REMARK SMILES IDX 19 38 24 39 20 40 23 41 21 42 22 43 33 45 30 47 31 48
REMARK H PARENT 41 16 39 18 37 20 35 22 12 36 22 44 33 46 31 49
REMARK Flexibility Score: inf
ROOT
ATOM      1  C   UNL     1       0.291  -9.781 -30.613  1.00  0.00     0.221 C 
ATOM      2  C   UNL     1      -1.065 -10.268 -31.150  1.00  0.00     0.181 C 
ATOM      3  C   UNL     1      -1.612  -9.283 -32.193  1.00  0.00     0.177 C 
ATOM      4  C   UNL     1      -0.536  -9.018 -33.272  1.00  0.00     0.179 C 
ATOM      5  O   UNL     1       0.647  -8.512 -32.676  1.00  0.00    -0.332 OA
ATOM      6  C   UNL     1       1.234  -9.452 -31.788  1.00  0.00     0.339 C 
ENDROOT
BRANCH   1   7
ATOM      7  O   UNL     1       0.859 -10.815 -29.827  1.00  0.00    -0.337 OA
BRANCH   7   8
ATOM      8  C   UNL     1       1.904 -10.344 -28.987  1.00  0.00     0.282 C 
ATOM      9  C   UNL     1       0.336 -10.918 -25.704  1.00  0.00     0.041 C 
ATOM     10  C   UNL     1       0.918 -11.288 -27.069  1.00  0.00     0.150 C 
ATOM     11  C   UNL     1       2.040 -12.348 -26.918  1.00  0.00     0.174 C 
ATOM     12  O   UNL     1       1.421 -10.105 -27.672  1.00  0.00    -0.344 OA
ATOM     13  C   UNL     1       2.671 -12.663 -28.289  1.00  0.00     0.179 C 
ATOM     14  C   UNL     1       3.075 -11.351 -28.978  1.00  0.00     0.202 C 
BRANCH  11  15
ATOM     15  O   UNL     1       1.580 -13.525 -26.298  1.00  0.00    -0.388 OA
ATOM     16  H   UNL     1       2.332 -14.173 -26.275  1.00  0.00     0.211 HD
ENDBRANCH  11  15
BRANCH  13  17
ATOM     17  O   UNL     1       1.767 -13.370 -29.103  1.00  0.00    -0.387 OA
ATOM     18  H   UNL     1       2.257 -13.635 -29.924  1.00  0.00     0.211 HD
ENDBRANCH  13  17
BRANCH  14  19
ATOM     19  O   UNL     1       3.502 -11.618 -30.290  1.00  0.00    -0.385 OA
ATOM     20  H   UNL     1       4.170 -12.349 -30.233  1.00  0.00     0.211 HD
ENDBRANCH  14  19
ENDBRANCH   7   8
ENDBRANCH   1   7
BRANCH   2  21
ATOM     21  O   UNL     1      -1.982 -10.380 -30.092  1.00  0.00    -0.387 OA
ATOM     22  H   UNL     1      -1.751 -11.210 -29.597  1.00  0.00     0.211 HD
ENDBRANCH   2  21
BRANCH   6  23
ATOM     23  O   UNL     1       1.615 -10.654 -32.463  1.00  0.00    -0.462 OA
BRANCH  23  24
ATOM     24  C   UNL     1       2.536 -10.740 -33.518  1.00  0.00     0.130 A 
ATOM     25  C   UNL     1       2.380 -11.637 -34.591  1.00  0.00     0.093 A 
ATOM     26  C   UNL     1       3.648  -9.896 -33.489  1.00  0.00     0.094 A 
ATOM     27  C   UNL     1       3.349 -11.714 -35.603  1.00  0.00     0.133 A 
ATOM     28  C   UNL     1       4.596  -9.935 -34.512  1.00  0.00     0.138 A 
ATOM     29  C   UNL     1       4.474 -10.863 -35.560  1.00  0.00     0.102 A 
ATOM     30  O   UNL     1       5.674  -9.043 -34.484  1.00  0.00    -0.484 OA
ATOM     31  C   UNL     1       5.568 -10.920 -36.561  1.00  0.00     0.174 C 
ATOM     32  C   UNL     1       6.473  -8.781 -35.640  1.00  0.00     0.211 C 
ATOM     33  O   UNL     1       5.494 -11.679 -37.563  1.00  0.00    -0.294 OA
ATOM     34  C   UNL     1       6.816 -10.110 -36.341  1.00  0.00     0.131 C 
BRANCH  27  35
ATOM     35  O   UNL     1       3.195 -12.637 -36.637  1.00  0.00    -0.507 OA
ATOM     36  H   UNL     1       3.514 -12.443 -37.579  1.00  0.00     0.293 HD
ENDBRANCH  27  35
BRANCH  32  37
ATOM     37  C   UNL     1       7.670  -7.933 -35.241  1.00  0.00    -0.007 A 
ATOM     38  C   UNL     1       8.750  -7.842 -36.138  1.00  0.00     0.011 A 
ATOM     39  C   UNL     1       7.775  -7.285 -33.991  1.00  0.00     0.011 A 
ATOM     40  C   UNL     1       9.891  -7.105 -35.811  1.00  0.00     0.046 A 
ATOM     41  C   UNL     1       8.921  -6.550 -33.667  1.00  0.00     0.046 A 
ATOM     42  C   UNL     1       9.980  -6.458 -34.577  1.00  0.00     0.115 A 
BRANCH  42  43
ATOM     43  O   UNL     1      11.126  -5.732 -34.262  1.00  0.00    -0.508 OA
ATOM     44  H   UNL     1      11.087  -4.912 -33.667  1.00  0.00     0.293 HD
ENDBRANCH  42  43
ENDBRANCH  32  37
ENDBRANCH  23  24
ENDBRANCH   6  23
BRANCH   3  45
ATOM     45  O   UNL     1      -2.761  -9.826 -32.790  1.00  0.00    -0.387 OA
ATOM     46  H   UNL     1      -3.304  -9.062 -33.120  1.00  0.00     0.211 HD
ENDBRANCH   3  45
BRANCH   4  47
ATOM     47  C   UNL     1      -1.019  -7.986 -34.300  1.00  0.00     0.191 C 
BRANCH  47  48
ATOM     48  O   UNL     1      -2.090  -8.498 -35.044  1.00  0.00    -0.394 OA
ATOM     49  H   UNL     1      -1.738  -8.668 -35.955  1.00  0.00     0.210 HD
ENDBRANCH  47  48
ENDBRANCH   4  47
TORSDOF 14
ENDMDL
MODEL 6
REMARK VINA RESULT:    -6.603      2.811      9.076
REMARK INTER + INTRA:         -12.644
REMARK INTER:                 -10.718
REMARK INTRA:                  -1.926
REMARK UNBOUND:                -2.180
REMARK SMILES C[C@H]1O[C@H](O[C@H]2[C@@H](Oc3cc(O)c4c(c3)O[C@@H](c3ccc(O)cc3)CC4=O)O[C@H](CO)[C@@H](O)[C@@H]2O)[C@H](O)[C@H](O)[C@@H]1O
REMARK SMILES IDX 6 1 34 2 32 3 29 4 28 5 7 6 5 7 4 8 1 9 2 10 40 11 3 12
REMARK SMILES IDX 38 13 36 14 41 15 39 17 37 19 35 21 8 23 9 24 10 25 15 26
REMARK SMILES IDX 11 27 14 28 13 29 16 30 26 31 17 32 27 33 25 34 12 35 18 37
REMARK SMILES IDX 19 38 24 39 20 40 23 41 21 42 22 43 33 45 30 47 31 48
REMARK H PARENT 41 16 39 18 37 20 35 22 12 36 22 44 33 46 31 49
REMARK Flexibility Score: inf
ROOT
ATOM      1  C   UNL     1       1.462  -9.503 -33.204  1.00  0.00     0.221 C 
ATOM      2  C   UNL     1       0.098 -10.148 -33.500  1.00  0.00     0.181 C 
ATOM      3  C   UNL     1      -0.988  -9.539 -32.601  1.00  0.00     0.177 C 
ATOM      4  C   UNL     1      -0.953  -7.997 -32.716  1.00  0.00     0.179 C 
ATOM      5  O   UNL     1       0.328  -7.504 -32.360  1.00  0.00    -0.332 OA
ATOM      6  C   UNL     1       1.336  -7.966 -33.245  1.00  0.00     0.339 C 
ENDROOT
BRANCH   1   7
ATOM      7  O   UNL     1       2.383  -9.929 -34.193  1.00  0.00    -0.337 OA
BRANCH   7   8
ATOM      8  C   UNL     1       3.090 -11.099 -33.804  1.00  0.00     0.282 C 
ATOM      9  C   UNL     1       2.356 -13.235 -36.714  1.00  0.00     0.041 C 
ATOM     10  C   UNL     1       2.924 -12.032 -35.960  1.00  0.00     0.150 C 
ATOM     11  C   UNL     1       4.445 -11.885 -36.226  1.00  0.00     0.174 C 
ATOM     12  O   UNL     1       2.671 -12.218 -34.574  1.00  0.00    -0.344 OA
ATOM     13  C   UNL     1       5.025 -10.715 -35.406  1.00  0.00     0.179 C 
ATOM     14  C   UNL     1       4.612 -10.870 -33.935  1.00  0.00     0.202 C 
BRANCH  11  15
ATOM     15  O   UNL     1       4.732 -11.727 -37.594  1.00  0.00    -0.388 OA
ATOM     16  H   UNL     1       4.556 -10.780 -37.837  1.00  0.00     0.211 HD
ENDBRANCH  11  15
BRANCH  13  17
ATOM     17  O   UNL     1       4.563  -9.482 -35.904  1.00  0.00    -0.387 OA
ATOM     18  H   UNL     1       3.595  -9.588 -36.096  1.00  0.00     0.211 HD
ENDBRANCH  13  17
BRANCH  14  19
ATOM     19  O   UNL     1       4.999  -9.728 -33.213  1.00  0.00    -0.385 OA
ATOM     20  H   UNL     1       4.849  -9.930 -32.253  1.00  0.00     0.211 HD
ENDBRANCH  14  19
ENDBRANCH   7   8
ENDBRANCH   1   7
BRANCH   2  21
ATOM     21  O   UNL     1       0.168 -11.532 -33.270  1.00  0.00    -0.387 OA
ATOM     22  H   UNL     1       0.139 -11.974 -34.160  1.00  0.00     0.211 HD
ENDBRANCH   2  21
BRANCH   6  23
ATOM     23  O   UNL     1       1.106  -7.529 -34.588  1.00  0.00    -0.462 OA
BRANCH  23  24
ATOM     24  C   UNL     1       1.943  -6.676 -35.322  1.00  0.00     0.130 A 
ATOM     25  C   UNL     1       1.458  -5.808 -36.318  1.00  0.00     0.093 A 
ATOM     26  C   UNL     1       3.311  -6.700 -35.044  1.00  0.00     0.094 A 
ATOM     27  C   UNL     1       2.340  -5.003 -37.054  1.00  0.00     0.133 A 
ATOM     28  C   UNL     1       4.193  -5.873 -35.741  1.00  0.00     0.138 A 
ATOM     29  C   UNL     1       3.723  -5.041 -36.771  1.00  0.00     0.102 A 
ATOM     30  O   UNL     1       5.551  -5.880 -35.407  1.00  0.00    -0.484 OA
ATOM     31  C   UNL     1       4.725  -4.261 -37.539  1.00  0.00     0.174 C 
ATOM     32  C   UNL     1       6.439  -4.836 -35.815  1.00  0.00     0.211 C 
ATOM     33  O   UNL     1       4.371  -3.445 -38.431  1.00  0.00    -0.294 OA
ATOM     34  C   UNL     1       6.191  -4.498 -37.298  1.00  0.00     0.131 C 
BRANCH  27  35
ATOM     35  O   UNL     1       1.843  -4.178 -38.062  1.00  0.00    -0.507 OA
ATOM     36  H   UNL     1       1.880  -4.446 -39.040  1.00  0.00     0.293 HD
ENDBRANCH  27  35
BRANCH  32  37
ATOM     37  C   UNL     1       7.867  -5.229 -35.472  1.00  0.00    -0.007 A 
ATOM     38  C   UNL     1       8.414  -6.362 -36.100  1.00  0.00     0.011 A 
ATOM     39  C   UNL     1       8.645  -4.551 -34.508  1.00  0.00     0.011 A 
ATOM     40  C   UNL     1       9.710  -6.793 -35.799  1.00  0.00     0.046 A 
ATOM     41  C   UNL     1       9.940  -4.986 -34.208  1.00  0.00     0.046 A 
ATOM     42  C   UNL     1      10.475  -6.107 -34.853  1.00  0.00     0.115 A 
BRANCH  42  43
ATOM     43  O   UNL     1      11.762  -6.550 -34.559  1.00  0.00    -0.508 OA
ATOM     44  H   UNL     1      12.451  -6.696 -35.287  1.00  0.00     0.293 HD
ENDBRANCH  42  43
ENDBRANCH  32  37
ENDBRANCH  23  24
ENDBRANCH   6  23
BRANCH   3  45
ATOM     45  O   UNL     1      -2.246 -10.018 -33.001  1.00  0.00    -0.387 OA
ATOM     46  H   UNL     1      -2.247 -10.998 -32.839  1.00  0.00     0.211 HD
ENDBRANCH   3  45
BRANCH   4  47
ATOM     47  C   UNL     1      -1.981  -7.344 -31.782  1.00  0.00     0.191 C 
BRANCH  47  48
ATOM     48  O   UNL     1      -2.326  -8.221 -30.744  1.00  0.00    -0.394 OA
ATOM     49  H   UNL     1      -1.592  -8.166 -30.081  1.00  0.00     0.210 HD
ENDBRANCH  47  48
ENDBRANCH   4  47
TORSDOF 14
ENDMDL
MODEL 7
REMARK VINA RESULT:    -6.587      3.066      8.546
REMARK INTER + INTRA:         -12.619
REMARK INTER:                 -11.169
REMARK INTRA:                  -1.449
REMARK UNBOUND:                -2.180
REMARK SMILES C[C@H]1O[C@H](O[C@H]2[C@@H](Oc3cc(O)c4c(c3)O[C@@H](c3ccc(O)cc3)CC4=O)O[C@H](CO)[C@@H](O)[C@@H]2O)[C@H](O)[C@H](O)[C@@H]1O
REMARK SMILES IDX 6 1 34 2 32 3 29 4 28 5 7 6 5 7 4 8 1 9 2 10 40 11 3 12
REMARK SMILES IDX 38 13 36 14 41 15 39 17 37 19 35 21 8 23 9 24 10 25 15 26
REMARK SMILES IDX 11 27 14 28 13 29 16 30 26 31 17 32 27 33 25 34 12 35 18 37
REMARK SMILES IDX 19 38 24 39 20 40 23 41 21 42 22 43 33 45 30 47 31 48
REMARK H PARENT 41 16 39 18 37 20 35 22 12 36 22 44 33 46 31 49
REMARK Flexibility Score: inf
ROOT
ATOM      1  C   UNL     1      -0.137 -11.503 -30.917  1.00  0.00     0.221 C 
ATOM      2  C   UNL     1      -0.035 -10.709 -29.604  1.00  0.00     0.181 C 
ATOM      3  C   UNL     1       0.519 -11.600 -28.482  1.00  0.00     0.177 C 
ATOM      4  C   UNL     1       1.833 -12.268 -28.948  1.00  0.00     0.179 C 
ATOM      5  O   UNL     1       1.611 -13.024 -30.127  1.00  0.00    -0.332 OA
ATOM      6  C   UNL     1       1.204 -12.204 -31.212  1.00  0.00     0.339 C 
ENDROOT
BRANCH   1   7
ATOM      7  O   UNL     1      -0.439 -10.597 -31.964  1.00  0.00    -0.337 OA
BRANCH   7   8
ATOM      8  C   UNL     1      -0.399  -9.243 -31.537  1.00  0.00     0.282 C 
ATOM      9  C   UNL     1       1.798  -7.857 -34.147  1.00  0.00     0.041 C 
ATOM     10  C   UNL     1       0.553  -8.530 -33.568  1.00  0.00     0.150 C 
ATOM     11  C   UNL     1      -0.730  -7.767 -33.992  1.00  0.00     0.174 C 
ATOM     12  O   UNL     1       0.679  -8.554 -32.153  1.00  0.00    -0.344 OA
ATOM     13  C   UNL     1      -1.975  -8.407 -33.346  1.00  0.00     0.179 C 
ATOM     14  C   UNL     1      -1.748  -8.550 -31.834  1.00  0.00     0.202 C 
BRANCH  11  15
ATOM     15  O   UNL     1      -0.871  -7.701 -35.391  1.00  0.00    -0.388 OA
ATOM     16  H   UNL     1      -1.387  -8.497 -35.685  1.00  0.00     0.211 HD
ENDBRANCH  11  15
BRANCH  13  17
ATOM     17  O   UNL     1      -2.236  -9.669 -33.911  1.00  0.00    -0.387 OA
ATOM     18  H   UNL     1      -1.523 -10.284 -33.596  1.00  0.00     0.211 HD
ENDBRANCH  13  17
BRANCH  14  19
ATOM     19  O   UNL     1      -2.807  -9.276 -31.263  1.00  0.00    -0.385 OA
ATOM     20  H   UNL     1      -3.332  -8.637 -30.716  1.00  0.00     0.211 HD
ENDBRANCH  14  19
ENDBRANCH   7   8
ENDBRANCH   1   7
BRANCH   2  21
ATOM     21  O   UNL     1      -1.304 -10.234 -29.236  1.00  0.00    -0.387 OA
ATOM     22  H   UNL     1      -1.692  -9.794 -30.038  1.00  0.00     0.211 HD
ENDBRANCH   2  21
BRANCH   6  23
ATOM     23  O   UNL     1       2.201 -11.234 -31.549  1.00  0.00    -0.462 OA
BRANCH  23  24
ATOM     24  C   UNL     1       2.897 -11.170 -32.765  1.00  0.00     0.130 A 
ATOM     25  C   UNL     1       2.532 -11.931 -33.890  1.00  0.00     0.093 A 
ATOM     26  C   UNL     1       3.997 -10.314 -32.846  1.00  0.00     0.094 A 
ATOM     27  C   UNL     1       3.285 -11.863 -35.073  1.00  0.00     0.133 A 
ATOM     28  C   UNL     1       4.728 -10.207 -34.030  1.00  0.00     0.138 A 
ATOM     29  C   UNL     1       4.400 -11.001 -35.142  1.00  0.00     0.102 A 
ATOM     30  O   UNL     1       5.794  -9.304 -34.100  1.00  0.00    -0.484 OA
ATOM     31  C   UNL     1       5.277 -10.912 -36.335  1.00  0.00     0.174 C 
ATOM     32  C   UNL     1       6.354  -8.885 -35.348  1.00  0.00     0.211 C 
ATOM     33  O   UNL     1       5.006 -11.543 -37.391  1.00  0.00    -0.294 OA
ATOM     34  C   UNL     1       6.549 -10.110 -36.262  1.00  0.00     0.131 C 
BRANCH  27  35
ATOM     35  O   UNL     1       2.928 -12.653 -36.164  1.00  0.00    -0.507 OA
ATOM     36  H   UNL     1       2.172 -13.327 -36.113  1.00  0.00     0.293 HD
ENDBRANCH  27  35
BRANCH  32  37
ATOM     37  C   UNL     1       7.609  -8.069 -35.085  1.00  0.00    -0.007 A 
ATOM     38  C   UNL     1       8.633  -8.093 -36.050  1.00  0.00     0.011 A 
ATOM     39  C   UNL     1       7.822  -7.340 -33.894  1.00  0.00     0.011 A 
ATOM     40  C   UNL     1       9.824  -7.390 -35.848  1.00  0.00     0.046 A 
ATOM     41  C   UNL     1       9.017  -6.640 -33.695  1.00  0.00     0.046 A 
ATOM     42  C   UNL     1      10.019  -6.663 -34.672  1.00  0.00     0.115 A 
BRANCH  42  43
ATOM     43  O   UNL     1      11.213  -5.972 -34.481  1.00  0.00    -0.508 OA
ATOM     44  H   UNL     1      11.231  -5.052 -34.056  1.00  0.00     0.293 HD
ENDBRANCH  42  43
ENDBRANCH  32  37
ENDBRANCH  23  24
ENDBRANCH   6  23
BRANCH   3  45
ATOM     45  O   UNL     1       0.761 -10.817 -27.341  1.00  0.00    -0.387 OA
ATOM     46  H   UNL     1       1.203 -11.406 -26.675  1.00  0.00     0.211 HD
ENDBRANCH   3  45
BRANCH   4  47
ATOM     47  C   UNL     1       2.385 -13.220 -27.880  1.00  0.00     0.191 C 
BRANCH  47  48
ATOM     48  O   UNL     1       1.345 -13.722 -27.086  1.00  0.00    -0.394 OA
ATOM     49  H   UNL     1       0.573 -13.118 -27.228  1.00  0.00     0.210 HD
ENDBRANCH  47  48
ENDBRANCH   4  47
TORSDOF 14
ENDMDL
MODEL 8
REMARK VINA RESULT:    -6.564      4.691     10.342
REMARK INTER + INTRA:         -12.581
REMARK INTER:                 -11.307
REMARK INTRA:                  -1.274
REMARK UNBOUND:                -2.180
REMARK SMILES C[C@H]1O[C@H](O[C@H]2[C@@H](Oc3cc(O)c4c(c3)O[C@@H](c3ccc(O)cc3)CC4=O)O[C@H](CO)[C@@H](O)[C@@H]2O)[C@H](O)[C@H](O)[C@@H]1O
REMARK SMILES IDX 6 1 34 2 32 3 29 4 28 5 7 6 5 7 4 8 1 9 2 10 40 11 3 12
REMARK SMILES IDX 38 13 36 14 41 15 39 17 37 19 35 21 8 23 9 24 10 25 15 26
REMARK SMILES IDX 11 27 14 28 13 29 16 30 26 31 17 32 27 33 25 34 12 35 18 37
REMARK SMILES IDX 19 38 24 39 20 40 23 41 21 42 22 43 33 45 30 47 31 48
REMARK H PARENT 41 16 39 18 37 20 35 22 12 36 22 44 33 46 31 49
REMARK Flexibility Score: inf
ROOT
ATOM      1  C   UNL     1       3.755  -8.874 -24.122  1.00  0.00     0.221 C 
ATOM      2  C   UNL     1       4.975  -9.633 -23.574  1.00  0.00     0.181 C 
ATOM      3  C   UNL     1       4.585 -11.069 -23.193  1.00  0.00     0.177 C 
ATOM      4  C   UNL     1       3.872 -11.748 -24.386  1.00  0.00     0.179 C 
ATOM      5  O   UNL     1       2.728 -11.001 -24.766  1.00  0.00    -0.332 OA
ATOM      6  C   UNL     1       3.074  -9.704 -25.229  1.00  0.00     0.339 C 
ENDROOT
BRANCH   1   7
ATOM      7  O   UNL     1       4.200  -7.641 -24.660  1.00  0.00    -0.337 OA
BRANCH   7   8
ATOM      8  C   UNL     1       3.122  -6.808 -25.064  1.00  0.00     0.282 C 
ATOM      9  C   UNL     1       3.201  -4.355 -22.317  1.00  0.00     0.041 C 
ATOM     10  C   UNL     1       3.723  -5.125 -23.531  1.00  0.00     0.150 C 
ATOM     11  C   UNL     1       4.157  -4.148 -24.655  1.00  0.00     0.174 C 
ATOM     12  O   UNL     1       2.691  -5.988 -23.987  1.00  0.00    -0.344 OA
ATOM     13  C   UNL     1       4.614  -4.930 -25.902  1.00  0.00     0.179 C 
ATOM     14  C   UNL     1       3.536  -5.955 -26.284  1.00  0.00     0.202 C 
BRANCH  11  15
ATOM     15  O   UNL     1       5.161  -3.259 -24.228  1.00  0.00    -0.388 OA
ATOM     16  H   UNL     1       4.719  -2.478 -23.803  1.00  0.00     0.211 HD
ENDBRANCH  11  15
BRANCH  13  17
ATOM     17  O   UNL     1       5.833  -5.588 -25.658  1.00  0.00    -0.387 OA
ATOM     18  H   UNL     1       6.131  -5.325 -24.748  1.00  0.00     0.211 HD
ENDBRANCH  13  17
BRANCH  14  19
ATOM     19  O   UNL     1       4.012  -6.779 -27.318  1.00  0.00    -0.385 OA
ATOM     20  H   UNL     1       3.796  -6.323 -28.172  1.00  0.00     0.211 HD
ENDBRANCH  14  19
ENDBRANCH   7   8
ENDBRANCH   1   7
BRANCH   2  21
ATOM     21  O   UNL     1       5.476  -8.972 -22.440  1.00  0.00    -0.387 OA
ATOM     22  H   UNL     1       6.109  -9.597 -21.998  1.00  0.00     0.211 HD
ENDBRANCH   2  21
BRANCH   6  23
ATOM     23  O   UNL     1       3.913  -9.759 -26.387  1.00  0.00    -0.462 OA
BRANCH  23  24
ATOM     24  C   UNL     1       3.622 -10.452 -27.571  1.00  0.00     0.130 A 
ATOM     25  C   UNL     1       2.805 -11.596 -27.600  1.00  0.00     0.093 A 
ATOM     26  C   UNL     1       4.175  -9.977 -28.762  1.00  0.00     0.094 A 
ATOM     27  C   UNL     1       2.577 -12.280 -28.804  1.00  0.00     0.133 A 
ATOM     28  C   UNL     1       3.921 -10.623 -29.972  1.00  0.00     0.138 A 
ATOM     29  C   UNL     1       3.147 -11.796 -30.002  1.00  0.00     0.102 A 
ATOM     30  O   UNL     1       4.446 -10.097 -31.157  1.00  0.00    -0.484 OA
ATOM     31  C   UNL     1       2.998 -12.490 -31.304  1.00  0.00     0.174 C 
ATOM     32  C   UNL     1       3.954 -10.483 -32.443  1.00  0.00     0.211 C 
ATOM     33  O   UNL     1       2.264 -13.508 -31.419  1.00  0.00    -0.294 OA
ATOM     34  C   UNL     1       3.788 -12.014 -32.493  1.00  0.00     0.131 C 
BRANCH  27  35
ATOM     35  O   UNL     1       1.795 -13.434 -28.805  1.00  0.00    -0.507 OA
ATOM     36  H   UNL     1       2.031 -14.241 -29.372  1.00  0.00     0.293 HD
ENDBRANCH  27  35
BRANCH  32  37
ATOM     37  C   UNL     1       4.851  -9.894 -33.520  1.00  0.00    -0.007 A 
ATOM     38  C   UNL     1       5.078 -10.651 -34.683  1.00  0.00     0.011 A 
ATOM     39  C   UNL     1       5.515  -8.655 -33.381  1.00  0.00     0.011 A 
ATOM     40  C   UNL     1       5.921 -10.178 -35.693  1.00  0.00     0.046 A 
ATOM     41  C   UNL     1       6.359  -8.186 -34.393  1.00  0.00     0.046 A 
ATOM     42  C   UNL     1       6.563  -8.946 -35.551  1.00  0.00     0.115 A 
BRANCH  42  43
ATOM     43  O   UNL     1       7.404  -8.488 -36.562  1.00  0.00    -0.508 OA
ATOM     44  H   UNL     1       7.800  -9.121 -37.248  1.00  0.00     0.293 HD
ENDBRANCH  42  43
ENDBRANCH  32  37
ENDBRANCH  23  24
ENDBRANCH   6  23
BRANCH   3  45
ATOM     45  O   UNL     1       5.741 -11.792 -22.855  1.00  0.00    -0.387 OA
ATOM     46  H   UNL     1       6.365 -11.715 -23.624  1.00  0.00     0.211 HD
ENDBRANCH   3  45
BRANCH   4  47
ATOM     47  C   UNL     1       3.406 -13.164 -24.024  1.00  0.00     0.191 C 
BRANCH  47  48
ATOM     48  O   UNL     1       2.879 -13.191 -22.726  1.00  0.00    -0.394 OA
ATOM     49  H   UNL     1       2.103 -12.574 -22.730  1.00  0.00     0.210 HD
ENDBRANCH  47  48
ENDBRANCH   4  47
TORSDOF 14
ENDMDL
MODEL 9
REMARK VINA RESULT:    -6.340      2.311      3.407
REMARK INTER + INTRA:         -12.227
REMARK INTER:                 -10.162
REMARK INTRA:                  -2.065
REMARK UNBOUND:                -2.180
REMARK SMILES C[C@H]1O[C@H](O[C@H]2[C@@H](Oc3cc(O)c4c(c3)O[C@@H](c3ccc(O)cc3)CC4=O)O[C@H](CO)[C@@H](O)[C@@H]2O)[C@H](O)[C@H](O)[C@@H]1O
REMARK SMILES IDX 6 1 34 2 32 3 29 4 28 5 7 6 5 7 4 8 1 9 2 10 40 11 3 12
REMARK SMILES IDX 38 13 36 14 41 15 39 17 37 19 35 21 8 23 9 24 10 25 15 26
REMARK SMILES IDX 11 27 14 28 13 29 16 30 26 31 17 32 27 33 25 34 12 35 18 37
REMARK SMILES IDX 19 38 24 39 20 40 23 41 21 42 22 43 33 45 30 47 31 48
REMARK H PARENT 41 16 39 18 37 20 35 22 12 36 22 44 33 46 31 49
REMARK Flexibility Score: inf
ROOT
ATOM      1  C   UNL     1       5.009  -6.885 -34.171  1.00  0.00     0.221 C 
ATOM      2  C   UNL     1       5.592  -6.781 -35.590  1.00  0.00     0.181 C 
ATOM      3  C   UNL     1       7.119  -6.626 -35.530  1.00  0.00     0.177 C 
ATOM      4  C   UNL     1       7.722  -7.749 -34.655  1.00  0.00     0.179 C 
ATOM      5  O   UNL     1       7.162  -7.713 -33.352  1.00  0.00    -0.332 OA
ATOM      6  C   UNL     1       5.765  -7.964 -33.370  1.00  0.00     0.339 C 
ENDROOT
BRANCH   1   7
ATOM      7  O   UNL     1       3.642  -7.243 -34.274  1.00  0.00    -0.337 OA
BRANCH   7   8
ATOM      8  C   UNL     1       2.778  -6.226 -33.785  1.00  0.00     0.282 C 
ATOM      9  C   UNL     1       1.364  -5.056 -36.978  1.00  0.00     0.041 C 
ATOM     10  C   UNL     1       1.664  -6.045 -35.851  1.00  0.00     0.150 C 
ATOM     11  C   UNL     1       0.351  -6.646 -35.285  1.00  0.00     0.174 C 
ATOM     12  O   UNL     1       2.381  -5.357 -34.836  1.00  0.00    -0.344 OA
ATOM     13  C   UNL     1       0.655  -7.586 -34.102  1.00  0.00     0.179 C 
ATOM     14  C   UNL     1       1.552  -6.858 -33.090  1.00  0.00     0.202 C 
BRANCH  11  15
ATOM     15  O   UNL     1      -0.398  -7.312 -36.272  1.00  0.00    -0.388 OA
ATOM     16  H   UNL     1       0.172  -8.027 -36.660  1.00  0.00     0.211 HD
ENDBRANCH  11  15
BRANCH  13  17
ATOM     17  O   UNL     1       1.294  -8.758 -34.549  1.00  0.00    -0.387 OA
ATOM     18  H   UNL     1       1.416  -8.668 -35.530  1.00  0.00     0.211 HD
ENDBRANCH  13  17
BRANCH  14  19
ATOM     19  O   UNL     1       1.965  -7.756 -32.091  1.00  0.00    -0.385 OA
ATOM     20  H   UNL     1       2.665  -7.296 -31.561  1.00  0.00     0.211 HD
ENDBRANCH  14  19
ENDBRANCH   7   8
ENDBRANCH   1   7
BRANCH   2  21
ATOM     21  O   UNL     1       5.039  -5.671 -36.250  1.00  0.00    -0.387 OA
ATOM     22  H   UNL     1       5.039  -5.883 -37.221  1.00  0.00     0.211 HD
ENDBRANCH   2  21
BRANCH   6  23
ATOM     23  O   UNL     1       5.465  -9.262 -33.892  1.00  0.00    -0.462 OA
BRANCH  23  24
ATOM     24  C   UNL     1       4.537 -10.164 -33.350  1.00  0.00     0.130 A 
ATOM     25  C   UNL     1       3.708 -10.972 -34.149  1.00  0.00     0.093 A 
ATOM     26  C   UNL     1       4.442 -10.251 -31.960  1.00  0.00     0.094 A 
ATOM     27  C   UNL     1       2.765 -11.830 -33.561  1.00  0.00     0.133 A 
ATOM     28  C   UNL     1       3.538 -11.131 -31.363  1.00  0.00     0.138 A 
ATOM     29  C   UNL     1       2.671 -11.904 -32.154  1.00  0.00     0.102 A 
ATOM     30  O   UNL     1       3.499 -11.235 -29.969  1.00  0.00    -0.484 OA
ATOM     31  C   UNL     1       1.667 -12.744 -31.456  1.00  0.00     0.174 C 
ATOM     32  C   UNL     1       2.872 -12.337 -29.307  1.00  0.00     0.211 C 
ATOM     33  O   UNL     1       0.903 -13.513 -32.098  1.00  0.00    -0.294 OA
ATOM     34  C   UNL     1       1.509 -12.626 -29.965  1.00  0.00     0.131 C 
BRANCH  27  35
ATOM     35  O   UNL     1       1.927 -12.594 -34.371  1.00  0.00    -0.507 OA
ATOM     36  H   UNL     1       1.714 -13.562 -34.158  1.00  0.00     0.293 HD
ENDBRANCH  27  35
BRANCH  32  37
ATOM     37  C   UNL     1       2.823 -12.061 -27.812  1.00  0.00    -0.007 A 
ATOM     38  C   UNL     1       3.373 -10.856 -27.339  1.00  0.00     0.011 A 
ATOM     39  C   UNL     1       2.311 -12.983 -26.873  1.00  0.00     0.011 A 
ATOM     40  C   UNL     1       3.388 -10.564 -25.972  1.00  0.00     0.046 A 
ATOM     41  C   UNL     1       2.329 -12.687 -25.506  1.00  0.00     0.046 A 
ATOM     42  C   UNL     1       2.867 -11.477 -25.053  1.00  0.00     0.115 A 
BRANCH  42  43
ATOM     43  O   UNL     1       2.894 -11.175 -23.694  1.00  0.00    -0.508 OA
ATOM     44  H   UNL     1       2.489 -10.318 -23.334  1.00  0.00     0.293 HD
ENDBRANCH  42  43
ENDBRANCH  32  37
ENDBRANCH  23  24
ENDBRANCH   6  23
BRANCH   3  45
ATOM     45  O   UNL     1       7.646  -6.701 -36.830  1.00  0.00    -0.387 OA
ATOM     46  H   UNL     1       8.631  -6.597 -36.749  1.00  0.00     0.211 HD
ENDBRANCH   3  45
BRANCH   4  47
ATOM     47  C   UNL     1       9.242  -7.593 -34.514  1.00  0.00     0.191 C 
BRANCH  47  48
ATOM     48  O   UNL     1       9.591  -7.375 -33.174  1.00  0.00    -0.394 OA
ATOM     49  H   UNL     1       9.920  -6.441 -33.123  1.00  0.00     0.210 HD
ENDBRANCH  47  48
ENDBRANCH   4  47
TORSDOF 14
ENDMDL
