MODEL 1
REMARK VINA RESULT:    -4.686      0.000      0.000
REMARK INTER + INTRA:          -5.649
REMARK INTER:                  -5.370
REMARK INTRA:                  -0.278
REMARK UNBOUND:                -0.278
REMARK SMILES COC(=O)c1ccccc1O
REMARK SMILES IDX 5 1 6 2 7 3 8 4 9 5 10 6 3 7 4 8 2 9 1 10 11 11
REMARK H PARENT 11 12
REMARK Flexibility Score: inf
ROOT
ATOM      1  C   UNL     1     179.343 190.443 199.915  1.00  0.00     0.101 A 
ATOM      2  C   UNL     1     178.924 190.964 201.156  1.00  0.00     0.019 A 
ATOM      3  C   UNL     1     179.680 190.754 202.311  1.00  0.00     0.001 A 
ATOM      4  C   UNL     1     180.866 190.023 202.248  1.00  0.00     0.004 A 
ATOM      5  C   UNL     1     181.299 189.500 201.030  1.00  0.00     0.047 A 
ATOM      6  C   UNL     1     180.548 189.703 199.861  1.00  0.00     0.130 A 
ENDROOT
BRANCH   1   7
ATOM      7  C   UNL     1     178.517 190.683 198.704  1.00  0.00     0.341 C 
ATOM      8  O   UNL     1     178.137 189.708 197.998  1.00  0.00    -0.246 OA
BRANCH   7   9
ATOM      9  O   UNL     1     178.154 191.983 198.337  1.00  0.00    -0.465 OA
ATOM     10  C   UNL     1     178.377 192.507 197.033  1.00  0.00     0.282 C 
ENDBRANCH   7   9
ENDBRANCH   1   7
BRANCH   6  11
ATOM     11  O   UNL     1     181.005 189.167 198.656  1.00  0.00    -0.507 OA
ATOM     12  H   UNL     1     180.426 189.155 197.825  1.00  0.00     0.293 HD
ENDBRANCH   6  11
TORSDOF 3
ENDMDL
MODEL 2
REMARK VINA RESULT:    -4.520      2.133      2.982
REMARK INTER + INTRA:          -5.459
REMARK INTER:                  -5.166
REMARK INTRA:                  -0.293
REMARK UNBOUND:                -0.278
REMARK SMILES COC(=O)c1ccccc1O
REMARK SMILES IDX 5 1 6 2 7 3 8 4 9 5 10 6 3 7 4 8 2 9 1 10 11 11
REMARK H PARENT 11 12
REMARK Flexibility Score: inf
ROOT
ATOM      1  C   UNL     1     180.042 191.199 201.351  1.00  0.00     0.101 A 
ATOM      2  C   UNL     1     178.753 191.649 201.701  1.00  0.00     0.019 A 
ATOM      3  C   UNL     1     178.584 192.723 202.578  1.00  0.00     0.001 A 
ATOM      4  C   UNL     1     179.698 193.366 203.118  1.00  0.00     0.004 A 
ATOM      5  C   UNL     1     180.982 192.936 202.785  1.00  0.00     0.047 A 
ATOM      6  C   UNL     1     181.165 191.857 201.905  1.00  0.00     0.130 A 
ENDROOT
BRANCH   1   7
ATOM      7  C   UNL     1     180.188 190.053 200.416  1.00  0.00     0.341 C 
ATOM      8  O   UNL     1     181.101 189.202 200.601  1.00  0.00    -0.246 OA
BRANCH   7   9
ATOM      9  O   UNL     1     179.318 189.907 199.330  1.00  0.00    -0.465 OA
ATOM     10  C   UNL     1     179.595 190.451 198.044  1.00  0.00     0.282 C 
ENDBRANCH   7   9
ENDBRANCH   1   7
BRANCH   6  11
ATOM     11  O   UNL     1     182.461 191.448 201.589  1.00  0.00    -0.507 OA
ATOM     12  H   UNL     1     183.069 192.009 201.004  1.00  0.00     0.293 HD
ENDBRANCH   6  11
TORSDOF 3
ENDMDL
MODEL 3
REMARK VINA RESULT:    -4.399     10.785     12.672
REMARK INTER + INTRA:          -5.320
REMARK INTER:                  -4.998
REMARK INTRA:                  -0.322
REMARK UNBOUND:                -0.278
REMARK SMILES COC(=O)c1ccccc1O
REMARK SMILES IDX 5 1 6 2 7 3 8 4 9 5 10 6 3 7 4 8 2 9 1 10 11 11
REMARK H PARENT 11 12
REMARK Flexibility Score: inf
ROOT
ATOM      1  C   UNL     1     184.427 189.507 188.342  1.00  0.00     0.101 A 
ATOM      2  C   UNL     1     185.252 189.696 187.215  1.00  0.00     0.019 A 
ATOM      3  C   UNL     1     185.790 190.952 186.926  1.00  0.00     0.001 A 
ATOM      4  C   UNL     1     185.515 192.039 187.756  1.00  0.00     0.004 A 
ATOM      5  C   UNL     1     184.701 191.873 188.876  1.00  0.00     0.047 A 
ATOM      6  C   UNL     1     184.154 190.616 189.178  1.00  0.00     0.130 A 
ENDROOT
BRANCH   1   7
ATOM      7  C   UNL     1     183.869 188.159 188.624  1.00  0.00     0.341 C 
ATOM      8  O   UNL     1     183.286 187.516 187.708  1.00  0.00    -0.246 OA
BRANCH   7   9
ATOM      9  O   UNL     1     183.986 187.593 189.898  1.00  0.00    -0.465 OA
ATOM     10  C   UNL     1     182.882 187.023 190.592  1.00  0.00     0.282 C 
ENDBRANCH   7   9
ENDBRANCH   1   7
BRANCH   6  11
ATOM     11  O   UNL     1     183.343 190.479 190.305  1.00  0.00    -0.507 OA
ATOM     12  H   UNL     1     183.548 189.803 191.031  1.00  0.00     0.293 HD
ENDBRANCH   6  11
TORSDOF 3
ENDMDL
MODEL 4
REMARK VINA RESULT:    -4.326      9.993     11.875
REMARK INTER + INTRA:          -5.237
REMARK INTER:                  -4.970
REMARK INTRA:                  -0.266
REMARK UNBOUND:                -0.278
REMARK SMILES COC(=O)c1ccccc1O
REMARK SMILES IDX 5 1 6 2 7 3 8 4 9 5 10 6 3 7 4 8 2 9 1 10 11 11
REMARK H PARENT 11 12
REMARK Flexibility Score: inf
ROOT
ATOM      1  C   UNL     1     184.618 190.609 189.306  1.00  0.00     0.101 A 
ATOM      2  C   UNL     1     184.783 191.047 187.977  1.00  0.00     0.019 A 
ATOM      3  C   UNL     1     185.381 192.278 187.699  1.00  0.00     0.001 A 
ATOM      4  C   UNL     1     185.825 193.091 188.742  1.00  0.00     0.004 A 
ATOM      5  C   UNL     1     185.671 192.676 190.065  1.00  0.00     0.047 A 
ATOM      6  C   UNL     1     185.071 191.441 190.357  1.00  0.00     0.130 A 
ENDROOT
BRANCH   1   7
ATOM      7  C   UNL     1     183.977 189.295 189.569  1.00  0.00     0.341 C 
ATOM      8  O   UNL     1     184.022 188.386 188.694  1.00  0.00    -0.246 OA
BRANCH   7   9
ATOM      9  O   UNL     1     183.322 189.053 190.782  1.00  0.00    -0.465 OA
ATOM     10  C   UNL     1     182.787 187.781 191.129  1.00  0.00     0.282 C 
ENDBRANCH   7   9
ENDBRANCH   1   7
BRANCH   6  11
ATOM     11  O   UNL     1     184.930 191.051 191.690  1.00  0.00    -0.507 OA
ATOM     12  H   UNL     1     184.414 191.611 192.358  1.00  0.00     0.293 HD
ENDBRANCH   6  11
TORSDOF 3
ENDMDL
MODEL 5
REMARK VINA RESULT:    -4.313     10.757     12.150
REMARK INTER + INTRA:          -5.221
REMARK INTER:                  -4.940
REMARK INTRA:                  -0.281
REMARK UNBOUND:                -0.278
REMARK SMILES COC(=O)c1ccccc1O
REMARK SMILES IDX 5 1 6 2 7 3 8 4 9 5 10 6 3 7 4 8 2 9 1 10 11 11
REMARK H PARENT 11 12
REMARK Flexibility Score: inf
ROOT
ATOM      1  C   UNL     1     184.524 190.608 189.458  1.00  0.00     0.101 A 
ATOM      2  C   UNL     1     185.209 191.427 190.378  1.00  0.00     0.019 A 
ATOM      3  C   UNL     1     185.820 192.612 189.962  1.00  0.00     0.001 A 
ATOM      4  C   UNL     1     185.755 193.001 188.624  1.00  0.00     0.004 A 
ATOM      5  C   UNL     1     185.082 192.204 187.698  1.00  0.00     0.047 A 
ATOM      6  C   UNL     1     184.465 191.010 188.103  1.00  0.00     0.130 A 
ENDROOT
BRANCH   1   7
ATOM      7  C   UNL     1     183.886 189.352 189.931  1.00  0.00     0.341 C 
ATOM      8  O   UNL     1     183.424 189.284 191.104  1.00  0.00    -0.246 OA
BRANCH   7   9
ATOM      9  O   UNL     1     183.790 188.241 189.086  1.00  0.00    -0.465 OA
ATOM     10  C   UNL     1     183.072 187.064 189.438  1.00  0.00     0.282 C 
ENDBRANCH   7   9
ENDBRANCH   1   7
BRANCH   6  11
ATOM     11  O   UNL     1     183.798 190.232 187.155  1.00  0.00    -0.507 OA
ATOM     12  H   UNL     1     183.002 189.656 187.403  1.00  0.00     0.293 HD
ENDBRANCH   6  11
TORSDOF 3
ENDMDL
MODEL 6
REMARK VINA RESULT:    -4.194     10.558     12.221
REMARK INTER + INTRA:          -5.086
REMARK INTER:                  -4.805
REMARK INTRA:                  -0.280
REMARK UNBOUND:                -0.278
REMARK SMILES COC(=O)c1ccccc1O
REMARK SMILES IDX 5 1 6 2 7 3 8 4 9 5 10 6 3 7 4 8 2 9 1 10 11 11
REMARK H PARENT 11 12
REMARK Flexibility Score: inf
ROOT
ATOM      1  C   UNL     1     184.169 189.571 189.330  1.00  0.00     0.101 A 
ATOM      2  C   UNL     1     184.368 190.850 189.888  1.00  0.00     0.019 A 
ATOM      3  C   UNL     1     184.859 191.900 189.110  1.00  0.00     0.001 A 
ATOM      4  C   UNL     1     185.160 191.693 187.764  1.00  0.00     0.004 A 
ATOM      5  C   UNL     1     184.971 190.435 187.192  1.00  0.00     0.047 A 
ATOM      6  C   UNL     1     184.478 189.370 187.963  1.00  0.00     0.130 A 
ENDROOT
BRANCH   1   7
ATOM      7  C   UNL     1     183.645 188.473 190.183  1.00  0.00     0.341 C 
ATOM      8  O   UNL     1     182.983 188.745 191.223  1.00  0.00    -0.246 OA
BRANCH   7   9
ATOM      9  O   UNL     1     183.880 187.136 189.844  1.00  0.00    -0.465 OA
ATOM     10  C   UNL     1     182.863 186.141 189.886  1.00  0.00     0.282 C 
ENDBRANCH   7   9
ENDBRANCH   1   7
BRANCH   6  11
ATOM     11  O   UNL     1     184.298 188.122 187.366  1.00  0.00    -0.507 OA
ATOM     12  H   UNL     1     184.140 187.286 187.915  1.00  0.00     0.293 HD
ENDBRANCH   6  11
TORSDOF 3
ENDMDL
MODEL 7
REMARK VINA RESULT:    -4.182     10.990     12.766
REMARK INTER + INTRA:          -5.072
REMARK INTER:                  -4.778
REMARK INTRA:                  -0.294
REMARK UNBOUND:                -0.278
REMARK SMILES COC(=O)c1ccccc1O
REMARK SMILES IDX 5 1 6 2 7 3 8 4 9 5 10 6 3 7 4 8 2 9 1 10 11 11
REMARK H PARENT 11 12
REMARK Flexibility Score: inf
ROOT
ATOM      1  C   UNL     1     184.611 189.927 188.530  1.00  0.00     0.101 A 
ATOM      2  C   UNL     1     184.446 191.001 189.428  1.00  0.00     0.019 A 
ATOM      3  C   UNL     1     184.978 192.260 189.142  1.00  0.00     0.001 A 
ATOM      4  C   UNL     1     185.683 192.469 187.957  1.00  0.00     0.004 A 
ATOM      5  C   UNL     1     185.857 191.420 187.054  1.00  0.00     0.047 A 
ATOM      6  C   UNL     1     185.327 190.149 187.330  1.00  0.00     0.130 A 
ENDROOT
BRANCH   1   7
ATOM      7  C   UNL     1     184.033 188.600 188.862  1.00  0.00     0.341 C 
ATOM      8  O   UNL     1     183.450 187.925 187.969  1.00  0.00    -0.246 OA
BRANCH   7   9
ATOM      9  O   UNL     1     184.129 188.088 190.161  1.00  0.00    -0.465 OA
ATOM     10  C   UNL     1     183.003 187.950 191.021  1.00  0.00     0.282 C 
ENDBRANCH   7   9
ENDBRANCH   1   7
BRANCH   6  11
ATOM     11  O   UNL     1     185.517 189.118 186.409  1.00  0.00    -0.507 OA
ATOM     12  H   UNL     1     185.177 188.179 186.583  1.00  0.00     0.293 HD
ENDBRANCH   6  11
TORSDOF 3
ENDMDL
MODEL 8
REMARK VINA RESULT:    -4.140     10.368     11.722
REMARK INTER + INTRA:          -5.024
REMARK INTER:                  -4.695
REMARK INTRA:                  -0.329
REMARK UNBOUND:                -0.278
REMARK SMILES COC(=O)c1ccccc1O
REMARK SMILES IDX 5 1 6 2 7 3 8 4 9 5 10 6 3 7 4 8 2 9 1 10 11 11
REMARK H PARENT 11 12
REMARK Flexibility Score: inf
ROOT
ATOM      1  C   UNL     1     183.869 189.116 189.648  1.00  0.00     0.101 A 
ATOM      2  C   UNL     1     183.317 188.733 190.887  1.00  0.00     0.019 A 
ATOM      3  C   UNL     1     182.765 187.462 191.061  1.00  0.00     0.001 A 
ATOM      4  C   UNL     1     182.754 186.552 190.004  1.00  0.00     0.004 A 
ATOM      5  C   UNL     1     183.295 186.911 188.769  1.00  0.00     0.047 A 
ATOM      6  C   UNL     1     183.853 188.186 188.581  1.00  0.00     0.130 A 
ENDROOT
BRANCH   1   7
ATOM      7  C   UNL     1     184.449 190.475 189.493  1.00  0.00     0.341 C 
ATOM      8  O   UNL     1     185.182 190.953 190.403  1.00  0.00    -0.246 OA
BRANCH   7   9
ATOM      9  O   UNL     1     184.191 191.231 188.345  1.00  0.00    -0.465 OA
ATOM     10  C   UNL     1     185.195 191.990 187.680  1.00  0.00     0.282 C 
ENDBRANCH   7   9
ENDBRANCH   1   7
BRANCH   6  11
ATOM     11  O   UNL     1     184.388 188.518 187.335  1.00  0.00    -0.507 OA
ATOM     12  H   UNL     1     183.811 188.564 186.503  1.00  0.00     0.293 HD
ENDBRANCH   6  11
TORSDOF 3
ENDMDL
MODEL 9
REMARK VINA RESULT:    -4.085      9.977     11.882
REMARK INTER + INTRA:          -4.960
REMARK INTER:                  -4.675
REMARK INTRA:                  -0.285
REMARK UNBOUND:                -0.278
REMARK SMILES COC(=O)c1ccccc1O
REMARK SMILES IDX 5 1 6 2 7 3 8 4 9 5 10 6 3 7 4 8 2 9 1 10 11 11
REMARK H PARENT 11 12
REMARK Flexibility Score: inf
ROOT
ATOM      1  C   UNL     1     184.558 190.507 189.842  1.00  0.00     0.101 A 
ATOM      2  C   UNL     1     185.173 191.746 190.114  1.00  0.00     0.019 A 
ATOM      3  C   UNL     1     185.550 192.600 189.075  1.00  0.00     0.001 A 
ATOM      4  C   UNL     1     185.318 192.234 187.749  1.00  0.00     0.004 A 
ATOM      5  C   UNL     1     184.711 191.012 187.459  1.00  0.00     0.047 A 
ATOM      6  C   UNL     1     184.328 190.144 188.493  1.00  0.00     0.130 A 
ENDROOT
BRANCH   1   7
ATOM      7  C   UNL     1     184.169 189.620 190.968  1.00  0.00     0.341 C 
ATOM      8  O   UNL     1     183.140 188.895 190.873  1.00  0.00    -0.246 OA
BRANCH   7   9
ATOM      9  O   UNL     1     184.936 189.578 192.138  1.00  0.00    -0.465 OA
ATOM     10  C   UNL     1     186.064 188.723 192.290  1.00  0.00     0.282 C 
ENDBRANCH   7   9
ENDBRANCH   1   7
BRANCH   6  11
ATOM     11  O   UNL     1     183.722 188.929 188.173  1.00  0.00    -0.507 OA
ATOM     12  H   UNL     1     182.788 188.699 188.491  1.00  0.00     0.293 HD
ENDBRANCH   6  11
TORSDOF 3
ENDMDL
