MODEL 1
REMARK VINA RESULT:    -0.908      0.000      0.000
REMARK INTER + INTRA:          -0.974
REMARK INTER:                  -1.386
REMARK INTRA:                   0.413
REMARK UNBOUND:                 0.413
REMARK SMILES CC1=CCC[C@@H](C)C(=O)C[C@@H](C(C)C)C(=O)C1
REMARK SMILES IDX 8 1 9 2 6 3 7 4 5 5 4 6 3 7 2 8 1 9 10 11 11 12 15 13 16 14
REMARK SMILES IDX 17 15 12 17 13 18 14 19
REMARK H PARENT
REMARK Flexibility Score: 70.00
ROOT
ATOM      1  C   UNL     1      87.357  30.582  64.806  1.00  0.00     0.136 C 
ATOM      2  O   UNL     1      87.747  30.554  63.648  1.00  0.00    -0.299 OA
ENDROOT
BRANCH   1   3
ATOM      3  C   UNL     1      88.123  31.426  65.810  1.00  0.00     0.053 C 
ATOM      4  C   UNL     1      87.538  31.212  67.210  1.00  0.00     0.016 C 
BRANCH   3   5
ATOM      5  C   UNL     1      88.122  32.936  65.450  1.00  0.00     0.015 C 
BRANCH   5   6
ATOM      6  C   UNL     1      86.734  33.619  65.392  1.00  0.00     0.028 C 
BRANCH   6   7
ATOM      7  C   UNL     1      86.235  33.928  64.000  1.00  0.00    -0.028 C 
ATOM      8  C   UNL     1      84.992  33.699  63.509  1.00  0.00    -0.070 CG0
ATOM      9  C   UNL     1      84.683  34.247  62.137  1.00  0.00     0.039 C 
ATOM     10  G   UNL     1      83.937  32.845  64.194  1.00  0.00     0.000 G0
ENDBRANCH   6   7
ENDBRANCH   5   6
ENDBRANCH   3   5
ENDBRANCH   1   3
BRANCH   1  11
ATOM     11  C   UNL     1      86.086  29.825  65.147  1.00  0.00     0.087 C 
BRANCH  11  12
ATOM     12  C   UNL     1      84.757  30.367  64.544  1.00  0.00     0.066 C 
BRANCH  12  13
ATOM     13  C   UNL     1      84.414  31.735  65.117  1.00  0.00     0.140 C 
ATOM     14  O   UNL     1      84.436  31.907  66.327  1.00  0.00    -0.299 OA
BRANCH  13  15
ATOM     15  C   UNL     1      83.902  32.831  64.211  1.00  0.00     0.106 CG0
ATOM     16  G   UNL     1      84.976  33.652  63.515  1.00  0.00     0.000 G0
ENDBRANCH  13  15
ENDBRANCH  12  13
BRANCH  12  17
ATOM     17  C   UNL     1      83.571  29.374  64.775  1.00  0.00    -0.006 C 
ATOM     18  C   UNL     1      83.924  27.935  64.355  1.00  0.00     0.008 C 
ATOM     19  C   UNL     1      82.309  29.818  64.011  1.00  0.00     0.008 C 
ENDBRANCH  12  17
ENDBRANCH  11  12
ENDBRANCH   1  11
TORSDOF 1
ENDMDL
MODEL 2
REMARK VINA RESULT:    -0.478      2.404      3.720
REMARK INTER + INTRA:          -0.317
REMARK INTER:                  -0.907
REMARK INTRA:                   0.590
REMARK UNBOUND:                 0.413
REMARK SMILES CC1=CCC[C@@H](C)C(=O)C[C@@H](C(C)C)C(=O)C1
REMARK SMILES IDX 8 1 9 2 6 3 7 4 5 5 4 6 3 7 2 8 1 9 10 11 11 12 15 13 16 14
REMARK SMILES IDX 17 15 12 17 13 18 14 19
REMARK H PARENT
REMARK Flexibility Score: 70.00
ROOT
ATOM      1  C   UNL     1      88.051  30.739  64.269  1.00  0.00     0.136 C 
ATOM      2  O   UNL     1      88.038  30.811  63.048  1.00  0.00    -0.299 OA
ENDROOT
BRANCH   1   3
ATOM      3  C   UNL     1      87.945  32.024  65.072  1.00  0.00     0.053 C 
ATOM      4  C   UNL     1      88.045  31.702  66.567  1.00  0.00     0.016 C 
BRANCH   3   5
ATOM      5  C   UNL     1      86.641  32.812  64.776  1.00  0.00     0.015 C 
BRANCH   5   6
ATOM      6  C   UNL     1      85.381  32.356  65.552  1.00  0.00     0.028 C 
BRANCH   6   7
ATOM      7  C   UNL     1      84.434  31.477  64.769  1.00  0.00    -0.028 C 
ATOM      8  C   UNL     1      84.322  30.128  64.844  1.00  0.00    -0.070 CG0
ATOM      9  C   UNL     1      83.186  29.490  64.081  1.00  0.00     0.039 C 
ATOM     10  G   UNL     1      85.314  29.216  65.548  1.00  0.00     0.000 G0
ENDBRANCH   6   7
ENDBRANCH   5   6
ENDBRANCH   3   5
ENDBRANCH   1   3
BRANCH   1  11
ATOM     11  C   UNL     1      88.099  29.360  64.899  1.00  0.00     0.087 C 
BRANCH  11  12
ATOM     12  C   UNL     1      87.326  28.222  64.171  1.00  0.00     0.066 C 
BRANCH  12  13
ATOM     13  C   UNL     1      85.907  28.093  64.708  1.00  0.00     0.140 C 
ATOM     14  O   UNL     1      85.208  27.156  64.353  1.00  0.00    -0.299 OA
BRANCH  13  15
ATOM     15  C   UNL     1      85.313  29.196  65.554  1.00  0.00     0.106 CG0
ATOM     16  G   UNL     1      84.332  30.109  64.834  1.00  0.00     0.000 G0
ENDBRANCH  13  15
ENDBRANCH  12  13
BRANCH  12  17
ATOM     17  C   UNL     1      88.071  26.851  64.288  1.00  0.00    -0.006 C 
ATOM     18  C   UNL     1      87.472  25.781  63.357  1.00  0.00     0.008 C 
ATOM     19  C   UNL     1      88.047  26.321  65.734  1.00  0.00     0.008 C 
ENDBRANCH  12  17
ENDBRANCH  11  12
ENDBRANCH   1  11
TORSDOF 1
ENDMDL
MODEL 3
REMARK VINA RESULT:    -0.470      2.085      3.724
REMARK INTER + INTRA:          -0.304
REMARK INTER:                  -2.306
REMARK INTRA:                   2.002
REMARK UNBOUND:                 0.413
REMARK SMILES CC1=CCC[C@@H](C)C(=O)C[C@@H](C(C)C)C(=O)C1
REMARK SMILES IDX 8 1 9 2 6 3 7 4 5 5 4 6 3 7 2 8 1 9 10 11 11 12 15 13 16 14
REMARK SMILES IDX 17 15 12 17 13 18 14 19
REMARK H PARENT
REMARK Flexibility Score: 70.00
ROOT
ATOM      1  C   UNL     1      85.376  33.556  63.731  1.00  0.00     0.136 C 
ATOM      2  O   UNL     1      85.180  34.289  62.772  1.00  0.00    -0.299 OA
ENDROOT
BRANCH   1   3
ATOM      3  C   UNL     1      86.445  33.947  64.736  1.00  0.00     0.053 C 
ATOM      4  C   UNL     1      86.964  35.352  64.410  1.00  0.00     0.016 C 
BRANCH   3   5
ATOM      5  C   UNL     1      87.622  32.935  64.786  1.00  0.00     0.015 C 
BRANCH   5   6
ATOM      6  C   UNL     1      87.799  32.166  66.119  1.00  0.00     0.028 C 
BRANCH   6   7
ATOM      7  C   UNL     1      88.087  30.691  65.968  1.00  0.00    -0.028 C 
ATOM      8  C   UNL     1      87.281  29.755  65.409  1.00  0.00    -0.070 CG0
ATOM      9  C   UNL     1      87.859  28.372  65.224  1.00  0.00     0.039 C 
ATOM     10  G   UNL     1      85.818  29.974  65.057  1.00  0.00     0.000 G0
ENDBRANCH   6   7
ENDBRANCH   5   6
ENDBRANCH   3   5
ENDBRANCH   1   3
BRANCH   1  11
ATOM     11  C   UNL     1      84.485  32.338  63.888  1.00  0.00     0.087 C 
BRANCH  11  12
ATOM     12  C   UNL     1      84.070  31.946  65.336  1.00  0.00     0.066 C 
BRANCH  12  13
ATOM     13  C   UNL     1      85.075  30.981  65.950  1.00  0.00     0.140 C 
ATOM     14  O   UNL     1      85.387  31.100  67.126  1.00  0.00    -0.299 OA
BRANCH  13  15
ATOM     15  C   UNL     1      85.797  29.980  65.078  1.00  0.00     0.106 CG0
ATOM     16  G   UNL     1      87.262  29.759  65.420  1.00  0.00     0.000 G0
ENDBRANCH  13  15
ENDBRANCH  12  13
BRANCH  12  17
ATOM     17  C   UNL     1      82.635  31.327  65.378  1.00  0.00    -0.006 C 
ATOM     18  C   UNL     1      82.132  31.118  66.818  1.00  0.00     0.008 C 
ATOM     19  C   UNL     1      82.583  29.978  64.634  1.00  0.00     0.008 C 
ENDBRANCH  12  17
ENDBRANCH  11  12
ENDBRANCH   1  11
TORSDOF 1
ENDMDL
MODEL 4
REMARK VINA RESULT:    -0.246      2.177      3.903
REMARK INTER + INTRA:           0.036
REMARK INTER:                  -1.058
REMARK INTRA:                   1.094
REMARK UNBOUND:                 0.413
REMARK SMILES CC1=CCC[C@@H](C)C(=O)C[C@@H](C(C)C)C(=O)C1
REMARK SMILES IDX 8 1 9 2 6 3 7 4 5 5 4 6 3 7 2 8 1 9 10 11 11 12 15 13 16 14
REMARK SMILES IDX 17 15 12 17 13 18 14 19
REMARK H PARENT
REMARK Flexibility Score: 70.00
ROOT
ATOM      1  C   UNL     1      85.909  32.613  66.856  1.00  0.00     0.136 C 
ATOM      2  O   UNL     1      86.016  32.383  68.052  1.00  0.00    -0.299 OA
ENDROOT
BRANCH   1   3
ATOM      3  C   UNL     1      87.141  33.064  66.091  1.00  0.00     0.053 C 
ATOM      4  C   UNL     1      86.712  33.743  64.786  1.00  0.00     0.016 C 
BRANCH   3   5
ATOM      5  C   UNL     1      88.125  31.901  65.796  1.00  0.00     0.015 C 
BRANCH   5   6
ATOM      6  C   UNL     1      87.839  30.568  66.529  1.00  0.00     0.028 C 
BRANCH   6   7
ATOM      7  C   UNL     1      88.096  29.323  65.711  1.00  0.00    -0.028 C 
ATOM      8  C   UNL     1      87.203  28.655  64.940  1.00  0.00    -0.070 CG0
ATOM      9  C   UNL     1      87.739  27.532  64.085  1.00  0.00     0.039 C 
ATOM     10  G   UNL     1      85.700  28.887  64.959  1.00  0.00     0.000 G0
ENDBRANCH   6   7
ENDBRANCH   5   6
ENDBRANCH   3   5
ENDBRANCH   1   3
BRANCH   1  11
ATOM     11  C   UNL     1      84.563  32.361  66.202  1.00  0.00     0.087 C 
BRANCH  11  12
ATOM     12  C   UNL     1      84.213  30.887  65.847  1.00  0.00     0.066 C 
BRANCH  12  13
ATOM     13  C   UNL     1      85.213  30.312  64.853  1.00  0.00     0.140 C 
ATOM     14  O   UNL     1      85.538  30.967  63.873  1.00  0.00    -0.299 OA
BRANCH  13  15
ATOM     15  C   UNL     1      85.686  28.883  64.992  1.00  0.00     0.106 CG0
ATOM     16  G   UNL     1      87.192  28.687  64.913  1.00  0.00     0.000 G0
ENDBRANCH  13  15
ENDBRANCH  12  13
BRANCH  12  17
ATOM     17  C   UNL     1      82.760  30.757  65.284  1.00  0.00    -0.006 C 
ATOM     18  C   UNL     1      82.585  29.508  64.401  1.00  0.00     0.008 C 
ATOM     19  C   UNL     1      82.362  32.001  64.466  1.00  0.00     0.008 C 
ENDBRANCH  12  17
ENDBRANCH  11  12
ENDBRANCH   1  11
TORSDOF 1
ENDMDL
MODEL 5
REMARK VINA RESULT:    -0.093      2.174      5.108
REMARK INTER + INTRA:           0.271
REMARK INTER:                  -0.615
REMARK INTRA:                   0.886
REMARK UNBOUND:                 0.413
REMARK SMILES CC1=CCC[C@@H](C)C(=O)C[C@@H](C(C)C)C(=O)C1
REMARK SMILES IDX 8 1 9 2 6 3 7 4 5 5 4 6 3 7 2 8 1 9 10 11 11 12 15 13 16 14
REMARK SMILES IDX 17 15 12 17 13 18 14 19
REMARK H PARENT
REMARK Flexibility Score: 70.00
ROOT
ATOM      1  C   UNL     1      84.394  31.883  67.062  1.00  0.00     0.136 C 
ATOM      2  O   UNL     1      84.051  32.382  68.125  1.00  0.00    -0.299 OA
ENDROOT
BRANCH   1   3
ATOM      3  C   UNL     1      83.317  31.466  66.076  1.00  0.00     0.053 C 
ATOM      4  C   UNL     1      81.937  31.653  66.717  1.00  0.00     0.016 C 
BRANCH   3   5
ATOM      5  C   UNL     1      83.488  30.005  65.581  1.00  0.00     0.015 C 
BRANCH   5   6
ATOM      6  C   UNL     1      84.479  29.797  64.409  1.00  0.00     0.028 C 
BRANCH   6   7
ATOM      7  C   UNL     1      85.752  29.069  64.773  1.00  0.00    -0.028 C 
ATOM      8  C   UNL     1      87.012  29.568  64.751  1.00  0.00    -0.070 CG0
ATOM      9  C   UNL     1      88.107  28.696  65.318  1.00  0.00     0.039 C 
ATOM     10  G   UNL     1      87.408  30.886  64.104  1.00  0.00     0.000 G0
ENDBRANCH   6   7
ENDBRANCH   5   6
ENDBRANCH   3   5
ENDBRANCH   1   3
BRANCH   1  11
ATOM     11  C   UNL     1      85.880  31.783  66.771  1.00  0.00     0.087 C 
BRANCH  11  12
ATOM     12  C   UNL     1      86.458  32.751  65.698  1.00  0.00     0.066 C 
BRANCH  12  13
ATOM     13  C   UNL     1      86.508  32.084  64.330  1.00  0.00     0.140 C 
ATOM     14  O   UNL     1      85.723  32.429  63.459  1.00  0.00    -0.299 OA
BRANCH  13  15
ATOM     15  C   UNL     1      87.418  30.900  64.096  1.00  0.00     0.106 CG0
ATOM     16  G   UNL     1      86.988  29.607  64.772  1.00  0.00     0.000 G0
ENDBRANCH  13  15
ENDBRANCH  12  13
BRANCH  12  17
ATOM     17  C   UNL     1      87.879  33.271  66.095  1.00  0.00    -0.006 C 
ATOM     18  C   UNL     1      88.102  33.252  67.618  1.00  0.00     0.008 C 
ATOM     19  C   UNL     1      88.118  34.702  65.577  1.00  0.00     0.008 C 
ENDBRANCH  12  17
ENDBRANCH  11  12
ENDBRANCH   1  11
TORSDOF 1
ENDMDL
MODEL 6
REMARK VINA RESULT:     0.175      2.012      3.381
REMARK INTER + INTRA:           0.680
REMARK INTER:                  -0.675
REMARK INTRA:                   1.355
REMARK UNBOUND:                 0.413
REMARK SMILES CC1=CCC[C@@H](C)C(=O)C[C@@H](C(C)C)C(=O)C1
REMARK SMILES IDX 8 1 9 2 6 3 7 4 5 5 4 6 3 7 2 8 1 9 10 11 11 12 15 13 16 14
REMARK SMILES IDX 17 15 12 17 13 18 14 19
REMARK H PARENT
REMARK Flexibility Score: 70.00
ROOT
ATOM      1  C   UNL     1      85.797  28.433  64.805  1.00  0.00     0.136 C 
ATOM      2  O   UNL     1      85.437  27.271  64.686  1.00  0.00    -0.299 OA
ENDROOT
BRANCH   1   3
ATOM      3  C   UNL     1      87.248  28.776  64.513  1.00  0.00     0.053 C 
ATOM      4  C   UNL     1      87.840  27.726  63.567  1.00  0.00     0.016 C 
BRANCH   3   5
ATOM      5  C   UNL     1      88.109  28.890  65.799  1.00  0.00     0.015 C 
BRANCH   5   6
ATOM      6  C   UNL     1      87.889  30.163  66.653  1.00  0.00     0.028 C 
BRANCH   6   7
ATOM      7  C   UNL     1      88.101  31.466  65.920  1.00  0.00    -0.028 C 
ATOM      8  C   UNL     1      87.383  32.608  66.060  1.00  0.00    -0.070 CG0
ATOM      9  C   UNL     1      87.892  33.832  65.338  1.00  0.00     0.039 C 
ATOM     10  G   UNL     1      86.059  32.710  66.801  1.00  0.00     0.000 G0
ENDBRANCH   6   7
ENDBRANCH   5   6
ENDBRANCH   3   5
ENDBRANCH   1   3
BRANCH   1  11
ATOM     11  C   UNL     1      84.750  29.469  65.169  1.00  0.00     0.087 C 
BRANCH  11  12
ATOM     12  C   UNL     1      85.149  30.965  65.012  1.00  0.00     0.066 C 
BRANCH  12  13
ATOM     13  C   UNL     1      84.976  31.717  66.325  1.00  0.00     0.140 C 
ATOM     14  O   UNL     1      83.928  31.617  66.946  1.00  0.00    -0.299 OA
BRANCH  13  15
ATOM     15  C   UNL     1      86.029  32.700  66.781  1.00  0.00     0.106 CG0
ATOM     16  G   UNL     1      87.365  32.601  66.062  1.00  0.00     0.000 G0
ENDBRANCH  13  15
ENDBRANCH  12  13
BRANCH  12  17
ATOM     17  C   UNL     1      84.331  31.666  63.879  1.00  0.00    -0.006 C 
ATOM     18  C   UNL     1      84.752  33.133  63.676  1.00  0.00     0.008 C 
ATOM     19  C   UNL     1      82.818  31.621  64.168  1.00  0.00     0.008 C 
ENDBRANCH  12  17
ENDBRANCH  11  12
ENDBRANCH   1  11
TORSDOF 1
ENDMDL
MODEL 7
REMARK VINA RESULT:     0.418      1.978      3.657
REMARK INTER + INTRA:           1.050
REMARK INTER:                  -0.931
REMARK INTRA:                   1.982
REMARK UNBOUND:                 0.413
REMARK SMILES CC1=CCC[C@@H](C)C(=O)C[C@@H](C(C)C)C(=O)C1
REMARK SMILES IDX 8 1 9 2 6 3 7 4 5 5 4 6 3 7 2 8 1 9 10 11 11 12 15 13 16 14
REMARK SMILES IDX 17 15 12 17 13 18 14 19
REMARK H PARENT
REMARK Flexibility Score: 70.00
ROOT
ATOM      1  C   UNL     1      85.077  30.659  65.601  1.00  0.00     0.136 C 
ATOM      2  O   UNL     1      84.712  29.861  64.749  1.00  0.00    -0.299 OA
ENDROOT
BRANCH   1   3
ATOM      3  C   UNL     1      84.385  32.009  65.672  1.00  0.00     0.053 C 
ATOM      4  C   UNL     1      83.140  31.899  66.560  1.00  0.00     0.016 C 
BRANCH   3   5
ATOM      5  C   UNL     1      84.002  32.563  64.274  1.00  0.00     0.015 C 
BRANCH   5   6
ATOM      6  C   UNL     1      85.173  33.096  63.412  1.00  0.00     0.028 C 
BRANCH   6   7
ATOM      7  C   UNL     1      85.993  34.189  64.057  1.00  0.00    -0.028 C 
ATOM      8  C   UNL     1      87.251  34.081  64.552  1.00  0.00    -0.070 CG0
ATOM      9  C   UNL     1      87.925  35.356  64.999  1.00  0.00     0.039 C 
ATOM     10  G   UNL     1      87.978  32.766  64.783  1.00  0.00     0.000 G0
ENDBRANCH   6   7
ENDBRANCH   5   6
ENDBRANCH   3   5
ENDBRANCH   1   3
BRANCH   1  11
ATOM     11  C   UNL     1      86.151  30.216  66.577  1.00  0.00     0.087 C 
BRANCH  11  12
ATOM     12  C   UNL     1      87.619  30.603  66.237  1.00  0.00     0.066 C 
BRANCH  12  13
ATOM     13  C   UNL     1      87.775  32.113  66.128  1.00  0.00     0.140 C 
ATOM     14  O   UNL     1      87.599  32.813  67.114  1.00  0.00    -0.299 OA
BRANCH  13  15
ATOM     15  C   UNL     1      87.996  32.758  64.779  1.00  0.00     0.106 CG0
ATOM     16  G   UNL     1      87.262  34.072  64.559  1.00  0.00     0.000 G0
ENDBRANCH  13  15
ENDBRANCH  12  13
BRANCH  12  17
ATOM     17  C   UNL     1      88.108  29.915  64.920  1.00  0.00    -0.006 C 
ATOM     18  C   UNL     1      87.459  30.529  63.666  1.00  0.00     0.008 C 
ATOM     19  C   UNL     1      87.819  28.401  64.937  1.00  0.00     0.008 C 
ENDBRANCH  12  17
ENDBRANCH  11  12
ENDBRANCH   1  11
TORSDOF 1
ENDMDL
MODEL 8
REMARK VINA RESULT:     0.717      1.517      4.000
REMARK INTER + INTRA:           1.507
REMARK INTER:                  -0.533
REMARK INTRA:                   2.041
REMARK UNBOUND:                 0.413
REMARK SMILES CC1=CCC[C@@H](C)C(=O)C[C@@H](C(C)C)C(=O)C1
REMARK SMILES IDX 8 1 9 2 6 3 7 4 5 5 4 6 3 7 2 8 1 9 10 11 11 12 15 13 16 14
REMARK SMILES IDX 17 15 12 17 13 18 14 19
REMARK H PARENT
REMARK Flexibility Score: 70.00
ROOT
ATOM      1  C   UNL     1      87.635  31.396  64.643  1.00  0.00     0.136 C 
ATOM      2  O   UNL     1      87.253  30.723  63.696  1.00  0.00    -0.299 OA
ENDROOT
BRANCH   1   3
ATOM      3  C   UNL     1      88.076  30.683  65.909  1.00  0.00     0.053 C 
ATOM      4  C   UNL     1      88.119  29.172  65.656  1.00  0.00     0.016 C 
BRANCH   3   5
ATOM      5  C   UNL     1      87.166  31.000  67.126  1.00  0.00     0.015 C 
BRANCH   5   6
ATOM      6  C   UNL     1      85.872  31.792  66.817  1.00  0.00     0.028 C 
BRANCH   6   7
ATOM      7  C   UNL     1      84.763  30.980  66.189  1.00  0.00    -0.028 C 
ATOM      8  C   UNL     1      83.994  31.331  65.130  1.00  0.00    -0.070 CG0
ATOM      9  C   UNL     1      83.060  30.280  64.580  1.00  0.00     0.039 C 
ATOM     10  G   UNL     1      83.932  32.729  64.533  1.00  0.00     0.000 G0
ENDBRANCH   6   7
ENDBRANCH   5   6
ENDBRANCH   3   5
ENDBRANCH   1   3
BRANCH   1  11
ATOM     11  C   UNL     1      87.710  32.901  64.461  1.00  0.00     0.087 C 
BRANCH  11  12
ATOM     12  C   UNL     1      86.408  33.712  64.725  1.00  0.00     0.066 C 
BRANCH  12  13
ATOM     13  C   UNL     1      85.257  33.189  63.875  1.00  0.00     0.140 C 
ATOM     14  O   UNL     1      85.329  33.247  62.656  1.00  0.00    -0.299 OA
BRANCH  13  15
ATOM     15  C   UNL     1      83.971  32.742  64.532  1.00  0.00     0.106 CG0
ATOM     16  G   UNL     1      83.990  31.333  65.103  1.00  0.00     0.000 G0
ENDBRANCH  13  15
ENDBRANCH  12  13
BRANCH  12  17
ATOM     17  C   UNL     1      86.617  35.240  64.465  1.00  0.00    -0.006 C 
ATOM     18  C   UNL     1      85.884  35.723  63.201  1.00  0.00     0.008 C 
ATOM     19  C   UNL     1      88.112  35.588  64.335  1.00  0.00     0.008 C 
ENDBRANCH  12  17
ENDBRANCH  11  12
ENDBRANCH   1  11
TORSDOF 1
ENDMDL
MODEL 9
REMARK VINA RESULT:     0.836      1.593      2.326
REMARK INTER + INTRA:           1.689
REMARK INTER:                  -0.304
REMARK INTRA:                   1.993
REMARK UNBOUND:                 0.413
REMARK SMILES CC1=CCC[C@@H](C)C(=O)C[C@@H](C(C)C)C(=O)C1
REMARK SMILES IDX 8 1 9 2 6 3 7 4 5 5 4 6 3 7 2 8 1 9 10 11 11 12 15 13 16 14
REMARK SMILES IDX 17 15 12 17 13 18 14 19
REMARK H PARENT
REMARK Flexibility Score: 70.00
ROOT
ATOM      1  C   UNL     1      87.145  29.845  65.126  1.00  0.00     0.136 C 
ATOM      2  O   UNL     1      87.622  29.008  64.373  1.00  0.00    -0.299 OA
ENDROOT
BRANCH   1   3
ATOM      3  C   UNL     1      88.039  30.967  65.623  1.00  0.00     0.053 C 
ATOM      4  C   UNL     1      88.123  30.915  67.153  1.00  0.00     0.016 C 
BRANCH   3   5
ATOM      5  C   UNL     1      87.561  32.369  65.157  1.00  0.00     0.015 C 
BRANCH   5   6
ATOM      6  C   UNL     1      87.114  33.340  66.277  1.00  0.00     0.028 C 
BRANCH   6   7
ATOM      7  C   UNL     1      86.103  32.773  67.246  1.00  0.00    -0.028 C 
ATOM      8  C   UNL     1      84.859  32.321  66.956  1.00  0.00    -0.070 CG0
ATOM      9  C   UNL     1      84.095  31.646  68.070  1.00  0.00     0.039 C 
ATOM     10  G   UNL     1      84.148  32.540  65.629  1.00  0.00     0.000 G0
ENDBRANCH   6   7
ENDBRANCH   5   6
ENDBRANCH   3   5
ENDBRANCH   1   3
BRANCH   1  11
ATOM     11  C   UNL     1      85.667  29.744  65.456  1.00  0.00     0.087 C 
BRANCH  11  12
ATOM     12  C   UNL     1      84.667  30.294  64.398  1.00  0.00     0.066 C 
BRANCH  12  13
ATOM     13  C   UNL     1      84.619  31.816  64.431  1.00  0.00     0.140 C 
ATOM     14  O   UNL     1      85.117  32.457  63.517  1.00  0.00    -0.299 OA
BRANCH  13  15
ATOM     15  C   UNL     1      84.095  32.533  65.654  1.00  0.00     0.106 CG0
ATOM     16  G   UNL     1      84.873  32.282  66.936  1.00  0.00     0.000 G0
ENDBRANCH  13  15
ENDBRANCH  12  13
BRANCH  12  17
ATOM     17  C   UNL     1      83.232  29.707  64.600  1.00  0.00    -0.006 C 
ATOM     18  C   UNL     1      83.213  28.170  64.512  1.00  0.00     0.008 C 
ATOM     19  C   UNL     1      82.241  30.274  63.565  1.00  0.00     0.008 C 
ENDBRANCH  12  17
ENDBRANCH  11  12
ENDBRANCH   1  11
TORSDOF 1
ENDMDL
