MODEL 1
REMARK VINA RESULT:    -3.630      0.000      0.000
REMARK INTER + INTRA:          -4.081
REMARK INTER:                  -4.055
REMARK INTRA:                  -0.026
REMARK UNBOUND:                -0.026
REMARK SMILES CCCC(=O)[O-]
REMARK SMILES IDX 3 1 4 2 5 3 6 4 2 5 1 6
REMARK H PARENT
REMARK Flexibility Score: inf
ROOT
ATOM      1  C   UNL     1      17.902   1.472  25.379  1.00  0.00     0.052 C 
ENDROOT
BRANCH   1   2
ATOM      2  C   UNL     1      19.116   1.509  26.251  1.00  0.00     0.041 C 
ATOM      3  O   UNL     1      19.083   2.109  27.358  1.00  0.00    -0.550 OA
ATOM      4  O   UNL     1      20.300   0.924  25.820  1.00  0.00    -0.550 OA
ENDBRANCH   1   2
BRANCH   1   5
ATOM      5  C   UNL     1      17.255   2.858  25.301  1.00  0.00     0.003 C 
ATOM      6  C   UNL     1      15.735   2.762  25.400  1.00  0.00     0.004 C 
ENDBRANCH   1   5
TORSDOF 2
ENDMDL
MODEL 2
REMARK VINA RESULT:    -3.615      0.078      1.323
REMARK INTER + INTRA:          -4.064
REMARK INTER:                  -4.043
REMARK INTRA:                  -0.021
REMARK UNBOUND:                -0.026
REMARK SMILES CCCC(=O)[O-]
REMARK SMILES IDX 3 1 4 2 5 3 6 4 2 5 1 6
REMARK H PARENT
REMARK Flexibility Score: inf
ROOT
ATOM      1  C   UNL     1      17.898   1.470  25.378  1.00  0.00     0.052 C 
ENDROOT
BRANCH   1   2
ATOM      2  C   UNL     1      19.133   1.477  26.222  1.00  0.00     0.041 C 
ATOM      3  O   UNL     1      20.180   0.909  25.816  1.00  0.00    -0.550 OA
ATOM      4  O   UNL     1      19.112   2.068  27.480  1.00  0.00    -0.550 OA
ENDBRANCH   1   2
BRANCH   1   5
ATOM      5  C   UNL     1      17.262   2.863  25.346  1.00  0.00     0.003 C 
ATOM      6  C   UNL     1      15.740   2.775  25.405  1.00  0.00     0.004 C 
ENDBRANCH   1   5
TORSDOF 2
ENDMDL
MODEL 3
REMARK VINA RESULT:    -2.898      2.100      3.181
REMARK INTER + INTRA:          -3.263
REMARK INTER:                  -3.256
REMARK INTRA:                  -0.007
REMARK UNBOUND:                -0.026
REMARK SMILES CCCC(=O)[O-]
REMARK SMILES IDX 3 1 4 2 5 3 6 4 2 5 1 6
REMARK H PARENT
REMARK Flexibility Score: inf
ROOT
ATOM      1  C   UNL     1      18.754   2.453  27.037  1.00  0.00     0.052 C 
ENDROOT
BRANCH   1   2
ATOM      2  C   UNL     1      18.746   1.491  25.891  1.00  0.00     0.041 C 
ATOM      3  O   UNL     1      19.774   0.814  25.626  1.00  0.00    -0.550 OA
ATOM      4  O   UNL     1      17.621   1.378  25.085  1.00  0.00    -0.550 OA
ENDBRANCH   1   2
BRANCH   1   5
ATOM      5  C   UNL     1      19.232   1.759  28.316  1.00  0.00     0.003 C 
ATOM      6  C   UNL     1      19.174   2.707  29.510  1.00  0.00     0.004 C 
ENDBRANCH   1   5
TORSDOF 2
ENDMDL
MODEL 4
REMARK VINA RESULT:    -2.806      3.539      4.303
REMARK INTER + INTRA:          -3.161
REMARK INTER:                  -3.154
REMARK INTRA:                  -0.006
REMARK UNBOUND:                -0.026
REMARK SMILES CCCC(=O)[O-]
REMARK SMILES IDX 3 1 4 2 5 3 6 4 2 5 1 6
REMARK H PARENT
REMARK Flexibility Score: inf
ROOT
ATOM      1  C   UNL     1      15.989   3.148  25.716  1.00  0.00     0.052 C 
ENDROOT
BRANCH   1   2
ATOM      2  C   UNL     1      14.679   2.779  25.096  1.00  0.00     0.041 C 
ATOM      3  O   UNL     1      13.875   2.030  25.712  1.00  0.00    -0.550 OA
ATOM      4  O   UNL     1      14.366   3.219  23.816  1.00  0.00    -0.550 OA
ENDBRANCH   1   2
BRANCH   1   5
ATOM      5  C   UNL     1      17.138   2.409  25.024  1.00  0.00     0.003 C 
ATOM      6  C   UNL     1      18.300   2.175  25.985  1.00  0.00     0.004 C 
ENDBRANCH   1   5
TORSDOF 2
ENDMDL
MODEL 5
REMARK VINA RESULT:    -2.709      2.253      3.367
REMARK INTER + INTRA:          -3.052
REMARK INTER:                  -3.040
REMARK INTRA:                  -0.012
REMARK UNBOUND:                -0.026
REMARK SMILES CCCC(=O)[O-]
REMARK SMILES IDX 3 1 4 2 5 3 6 4 2 5 1 6
REMARK H PARENT
REMARK Flexibility Score: inf
ROOT
ATOM      1  C   UNL     1      18.419   2.660  26.260  1.00  0.00     0.052 C 
ENDROOT
BRANCH   1   2
ATOM      2  C   UNL     1      17.421   2.064  25.319  1.00  0.00     0.041 C 
ATOM      3  O   UNL     1      17.655   0.958  24.765  1.00  0.00    -0.550 OA
ATOM      4  O   UNL     1      16.254   2.754  25.015  1.00  0.00    -0.550 OA
ENDBRANCH   1   2
BRANCH   1   5
ATOM      5  C   UNL     1      19.131   1.561  27.053  1.00  0.00     0.003 C 
ATOM      6  C   UNL     1      19.240   1.930  28.530  1.00  0.00     0.004 C 
ENDBRANCH   1   5
TORSDOF 2
ENDMDL
MODEL 6
REMARK VINA RESULT:    -2.537     16.080     16.756
REMARK INTER + INTRA:          -2.860
REMARK INTER:                  -2.790
REMARK INTRA:                  -0.070
REMARK UNBOUND:                -0.026
REMARK SMILES CCCC(=O)[O-]
REMARK SMILES IDX 3 1 4 2 5 3 6 4 2 5 1 6
REMARK H PARENT
REMARK Flexibility Score: inf
ROOT
ATOM      1  C   UNL     1      12.149  16.301  26.240  1.00  0.00     0.052 C 
ENDROOT
BRANCH   1   2
ATOM      2  C   UNL     1      12.251  17.190  25.041  1.00  0.00     0.041 C 
ATOM      3  O   UNL     1      13.290  17.874  24.846  1.00  0.00    -0.550 OA
ATOM      4  O   UNL     1      11.178  17.301  24.165  1.00  0.00    -0.550 OA
ENDBRANCH   1   2
BRANCH   1   5
ATOM      5  C   UNL     1      10.881  16.620  27.038  1.00  0.00     0.003 C 
ATOM      6  C   UNL     1      10.948  18.019  27.641  1.00  0.00     0.004 C 
ENDBRANCH   1   5
TORSDOF 2
ENDMDL
MODEL 7
REMARK VINA RESULT:    -2.502     19.805     20.092
REMARK INTER + INTRA:          -2.821
REMARK INTER:                  -2.809
REMARK INTRA:                  -0.013
REMARK UNBOUND:                -0.026
REMARK SMILES CCCC(=O)[O-]
REMARK SMILES IDX 3 1 4 2 5 3 6 4 2 5 1 6
REMARK H PARENT
REMARK Flexibility Score: inf
ROOT
ATOM      1  C   UNL     1      30.118  17.277  20.533  1.00  0.00     0.052 C 
ENDROOT
BRANCH   1   2
ATOM      2  C   UNL     1      30.059  16.723  19.144  1.00  0.00     0.041 C 
ATOM      3  O   UNL     1      31.015  16.038  18.695  1.00  0.00    -0.550 OA
ATOM      4  O   UNL     1      28.972  17.007  18.328  1.00  0.00    -0.550 OA
ENDBRANCH   1   2
BRANCH   1   5
ATOM      5  C   UNL     1      28.851  18.079  20.845  1.00  0.00     0.003 C 
ATOM      6  C   UNL     1      28.585  18.125  22.346  1.00  0.00     0.004 C 
ENDBRANCH   1   5
TORSDOF 2
ENDMDL
MODEL 8
REMARK VINA RESULT:    -2.431     15.894     16.374
REMARK INTER + INTRA:          -2.742
REMARK INTER:                  -2.728
REMARK INTRA:                  -0.014
REMARK UNBOUND:                -0.026
REMARK SMILES CCCC(=O)[O-]
REMARK SMILES IDX 3 1 4 2 5 3 6 4 2 5 1 6
REMARK H PARENT
REMARK Flexibility Score: inf
ROOT
ATOM      1  C   UNL     1      11.196  16.972  24.186  1.00  0.00     0.052 C 
ENDROOT
BRANCH   1   2
ATOM      2  C   UNL     1      12.383  17.102  25.087  1.00  0.00     0.041 C 
ATOM      3  O   UNL     1      13.272  17.961  24.844  1.00  0.00    -0.550 OA
ATOM      4  O   UNL     1      12.534  16.242  26.168  1.00  0.00    -0.550 OA
ENDBRANCH   1   2
BRANCH   1   5
ATOM      5  C   UNL     1      11.623  17.079  22.719  1.00  0.00     0.003 C 
ATOM      6  C   UNL     1      11.147  15.870  21.919  1.00  0.00     0.004 C 
ENDBRANCH   1   5
TORSDOF 2
ENDMDL
MODEL 9
REMARK VINA RESULT:    -2.299     15.767     16.605
REMARK INTER + INTRA:          -2.594
REMARK INTER:                  -2.556
REMARK INTRA:                  -0.037
REMARK UNBOUND:                -0.026
REMARK SMILES CCCC(=O)[O-]
REMARK SMILES IDX 3 1 4 2 5 3 6 4 2 5 1 6
REMARK H PARENT
REMARK Flexibility Score: inf
ROOT
ATOM      1  C   UNL     1      11.038  17.008  24.367  1.00  0.00     0.052 C 
ENDROOT
BRANCH   1   2
ATOM      2  C   UNL     1      12.376  17.624  24.105  1.00  0.00     0.041 C 
ATOM      3  O   UNL     1      13.149  17.890  25.063  1.00  0.00    -0.550 OA
ATOM      4  O   UNL     1      12.750  17.949  22.807  1.00  0.00    -0.550 OA
ENDBRANCH   1   2
BRANCH   1   5
ATOM      5  C   UNL     1      10.883  16.674  25.853  1.00  0.00     0.003 C 
ATOM      6  C   UNL     1      10.875  15.165  26.079  1.00  0.00     0.004 C 
ENDBRANCH   1   5
TORSDOF 2
ENDMDL
