MODEL 1
REMARK VINA RESULT:    -4.824      0.000      0.000
REMARK INTER + INTRA:          -5.580
REMARK INTER:                  -5.529
REMARK INTRA:                  -0.051
REMARK UNBOUND:                -0.051
REMARK SMILES O=C([O-])c1cc(O)c(O)c(O)c1
REMARK SMILES IDX 4 1 5 2 12 3 6 4 10 5 8 6 2 7 1 8 3 9 7 10 11 12 9 14
REMARK H PARENT 7 11 11 13 9 15
REMARK Flexibility Score: inf
ROOT
ATOM      1  C   UNL     1      -7.041 -24.973  34.845  1.00  0.00     0.005 A 
ATOM      2  C   UNL     1      -6.979 -25.998  33.886  1.00  0.00     0.060 A 
ATOM      3  C   UNL     1      -7.936 -25.100  35.922  1.00  0.00     0.060 A 
ATOM      4  C   UNL     1      -7.796 -27.132  33.999  1.00  0.00     0.162 A 
ATOM      5  C   UNL     1      -8.754 -26.227  36.041  1.00  0.00     0.162 A 
ATOM      6  C   UNL     1      -8.687 -27.249  35.079  1.00  0.00     0.200 A 
ENDROOT
BRANCH   1   7
ATOM      7  C   UNL     1      -6.175 -23.780  34.719  1.00  0.00     0.072 C 
ATOM      8  O   UNL     1      -6.525 -22.680  35.222  1.00  0.00    -0.545 OA
ATOM      9  O   UNL     1      -4.963 -23.856  34.043  1.00  0.00    -0.545 OA
ENDBRANCH   1   7
BRANCH   4  10
ATOM     10  O   UNL     1      -7.725 -28.142  33.041  1.00  0.00    -0.504 OA
ATOM     11  H   UNL     1      -8.559 -28.549  32.633  1.00  0.00     0.293 HD
ENDBRANCH   4  10
BRANCH   5  12
ATOM     12  O   UNL     1      -9.628 -26.314  37.125  1.00  0.00    -0.504 OA
ATOM     13  H   UNL     1      -9.647 -27.119  37.740  1.00  0.00     0.293 HD
ENDBRANCH   5  12
BRANCH   6  14
ATOM     14  O   UNL     1      -9.507 -28.371  35.206  1.00  0.00    -0.502 OA
ATOM     15  H   UNL     1     -10.454 -28.311  35.564  1.00  0.00     0.293 HD
ENDBRANCH   6  14
TORSDOF 4
ENDMDL
MODEL 2
REMARK VINA RESULT:    -4.403      2.137      4.242
REMARK INTER + INTRA:          -5.097
REMARK INTER:                  -5.047
REMARK INTRA:                  -0.050
REMARK UNBOUND:                -0.051
REMARK SMILES O=C([O-])c1cc(O)c(O)c(O)c1
REMARK SMILES IDX 4 1 5 2 12 3 6 4 10 5 8 6 2 7 1 8 3 9 7 10 11 12 9 14
REMARK H PARENT 7 11 11 13 9 15
REMARK Flexibility Score: inf
ROOT
ATOM      1  C   UNL     1      -6.674 -25.397  35.535  1.00  0.00     0.005 A 
ATOM      2  C   UNL     1      -5.592 -25.148  34.675  1.00  0.00     0.060 A 
ATOM      3  C   UNL     1      -7.760 -24.505  35.541  1.00  0.00     0.060 A 
ATOM      4  C   UNL     1      -5.592 -24.027  33.832  1.00  0.00     0.162 A 
ATOM      5  C   UNL     1      -7.768 -23.384  34.704  1.00  0.00     0.162 A 
ATOM      6  C   UNL     1      -6.682 -23.141  33.846  1.00  0.00     0.200 A 
ENDROOT
BRANCH   1   7
ATOM      7  C   UNL     1      -6.667 -26.582  36.421  1.00  0.00     0.072 C 
ATOM      8  O   UNL     1      -5.583 -27.035  36.875  1.00  0.00    -0.545 OA
ATOM      9  O   UNL     1      -7.857 -27.213  36.764  1.00  0.00    -0.545 OA
ENDBRANCH   1   7
BRANCH   4  10
ATOM     10  O   UNL     1      -4.511 -23.792  32.983  1.00  0.00    -0.504 OA
ATOM     11  H   UNL     1      -4.603 -23.854  31.976  1.00  0.00     0.293 HD
ENDBRANCH   4  10
BRANCH   5  12
ATOM     12  O   UNL     1      -8.864 -22.523  34.740  1.00  0.00    -0.504 OA
ATOM     13  H   UNL     1      -9.814 -22.863  34.831  1.00  0.00     0.293 HD
ENDBRANCH   5  12
BRANCH   6  14
ATOM     14  O   UNL     1      -6.698 -22.021  33.014  1.00  0.00    -0.502 OA
ATOM     15  H   UNL     1      -6.876 -22.089  32.018  1.00  0.00     0.293 HD
ENDBRANCH   6  14
TORSDOF 4
ENDMDL
MODEL 3
REMARK VINA RESULT:    -4.384      2.069      4.739
REMARK INTER + INTRA:          -5.076
REMARK INTER:                  -5.027
REMARK INTRA:                  -0.049
REMARK UNBOUND:                -0.051
REMARK SMILES O=C([O-])c1cc(O)c(O)c(O)c1
REMARK SMILES IDX 4 1 5 2 12 3 6 4 10 5 8 6 2 7 1 8 3 9 7 10 11 12 9 14
REMARK H PARENT 7 11 11 13 9 15
REMARK Flexibility Score: inf
ROOT
ATOM      1  C   UNL     1      -6.647 -25.382  35.389  1.00  0.00     0.005 A 
ATOM      2  C   UNL     1      -7.768 -24.536  35.414  1.00  0.00     0.060 A 
ATOM      3  C   UNL     1      -5.565 -25.056  34.554  1.00  0.00     0.060 A 
ATOM      4  C   UNL     1      -7.809 -23.381  34.620  1.00  0.00     0.162 A 
ATOM      5  C   UNL     1      -5.598 -23.906  33.759  1.00  0.00     0.162 A 
ATOM      6  C   UNL     1      -6.723 -23.064  33.789  1.00  0.00     0.200 A 
ENDROOT
BRANCH   1   7
ATOM      7  C   UNL     1      -6.611 -26.599  36.231  1.00  0.00     0.072 C 
ATOM      8  O   UNL     1      -5.549 -26.943  36.813  1.00  0.00    -0.545 OA
ATOM      9  O   UNL     1      -7.750 -27.380  36.389  1.00  0.00    -0.545 OA
ENDBRANCH   1   7
BRANCH   4  10
ATOM     10  O   UNL     1      -8.928 -22.550  34.654  1.00  0.00    -0.504 OA
ATOM     11  H   UNL     1      -9.839 -22.871  34.348  1.00  0.00     0.293 HD
ENDBRANCH   4  10
BRANCH   5  12
ATOM     12  O   UNL     1      -4.503 -23.618  32.944  1.00  0.00    -0.504 OA
ATOM     13  H   UNL     1      -3.551 -23.806  33.233  1.00  0.00     0.293 HD
ENDBRANCH   5  12
BRANCH   6  14
ATOM     14  O   UNL     1      -6.747 -21.919  32.991  1.00  0.00    -0.502 OA
ATOM     15  H   UNL     1      -6.525 -21.000  33.358  1.00  0.00     0.293 HD
ENDBRANCH   6  14
TORSDOF 4
ENDMDL
MODEL 4
REMARK VINA RESULT:    -4.365      2.216      4.873
REMARK INTER + INTRA:          -5.054
REMARK INTER:                  -5.004
REMARK INTRA:                  -0.050
REMARK UNBOUND:                -0.051
REMARK SMILES O=C([O-])c1cc(O)c(O)c(O)c1
REMARK SMILES IDX 4 1 5 2 12 3 6 4 10 5 8 6 2 7 1 8 3 9 7 10 11 12 9 14
REMARK H PARENT 7 11 11 13 9 15
REMARK Flexibility Score: inf
ROOT
ATOM      1  C   UNL     1      -6.343 -25.423  34.867  1.00  0.00     0.005 A 
ATOM      2  C   UNL     1      -6.164 -24.258  35.631  1.00  0.00     0.060 A 
ATOM      3  C   UNL     1      -6.605 -25.303  33.491  1.00  0.00     0.060 A 
ATOM      4  C   UNL     1      -6.244 -22.992  35.033  1.00  0.00     0.162 A 
ATOM      5  C   UNL     1      -6.686 -24.044  32.887  1.00  0.00     0.162 A 
ATOM      6  C   UNL     1      -6.506 -22.882  33.657  1.00  0.00     0.200 A 
ENDROOT
BRANCH   1   7
ATOM      7  C   UNL     1      -6.257 -26.755  35.505  1.00  0.00     0.072 C 
ATOM      8  O   UNL     1      -6.931 -27.722  35.062  1.00  0.00    -0.545 OA
ATOM      9  O   UNL     1      -5.431 -26.958  36.605  1.00  0.00    -0.545 OA
ENDBRANCH   1   7
BRANCH   4  10
ATOM     10  O   UNL     1      -6.064 -21.843  35.803  1.00  0.00    -0.504 OA
ATOM     11  H   UNL     1      -5.182 -21.641  36.259  1.00  0.00     0.293 HD
ENDBRANCH   4  10
BRANCH   5  12
ATOM     12  O   UNL     1      -6.948 -23.968  31.519  1.00  0.00    -0.504 OA
ATOM     13  H   UNL     1      -7.856 -23.702  31.157  1.00  0.00     0.293 HD
ENDBRANCH   5  12
BRANCH   6  14
ATOM     14  O   UNL     1      -6.589 -21.630  33.046  1.00  0.00    -0.502 OA
ATOM     15  H   UNL     1      -7.269 -21.426  32.323  1.00  0.00     0.293 HD
ENDBRANCH   6  14
TORSDOF 4
ENDMDL
MODEL 5
REMARK VINA RESULT:    -4.350      0.100      2.432
REMARK INTER + INTRA:          -5.037
REMARK INTER:                  -4.987
REMARK INTRA:                  -0.050
REMARK UNBOUND:                -0.051
REMARK SMILES O=C([O-])c1cc(O)c(O)c(O)c1
REMARK SMILES IDX 4 1 5 2 12 3 6 4 10 5 8 6 2 7 1 8 3 9 7 10 11 12 9 14
REMARK H PARENT 7 11 11 13 9 15
REMARK Flexibility Score: inf
ROOT
ATOM      1  C   UNL     1      -6.978 -25.031  34.878  1.00  0.00     0.005 A 
ATOM      2  C   UNL     1      -7.881 -25.134  35.949  1.00  0.00     0.060 A 
ATOM      3  C   UNL     1      -6.947 -26.053  33.913  1.00  0.00     0.060 A 
ATOM      4  C   UNL     1      -8.741 -26.237  36.057  1.00  0.00     0.162 A 
ATOM      5  C   UNL     1      -7.801 -27.156  34.013  1.00  0.00     0.162 A 
ATOM      6  C   UNL     1      -8.702 -27.252  35.087  1.00  0.00     0.200 A 
ENDROOT
BRANCH   1   7
ATOM      7  C   UNL     1      -6.075 -23.864  34.772  1.00  0.00     0.072 C 
ATOM      8  O   UNL     1      -6.434 -22.736  35.199  1.00  0.00    -0.545 OA
ATOM      9  O   UNL     1      -4.816 -23.998  34.197  1.00  0.00    -0.545 OA
ENDBRANCH   1   7
BRANCH   4  10
ATOM     10  O   UNL     1      -9.632 -26.326  37.125  1.00  0.00    -0.504 OA
ATOM     11  H   UNL     1      -9.644 -27.129  37.743  1.00  0.00     0.293 HD
ENDBRANCH   4  10
BRANCH   5  12
ATOM     12  O   UNL     1      -7.738 -28.148  33.034  1.00  0.00    -0.504 OA
ATOM     13  H   UNL     1      -6.881 -28.645  32.824  1.00  0.00     0.293 HD
ENDBRANCH   5  12
BRANCH   6  14
ATOM     14  O   UNL     1      -9.550 -28.357  35.178  1.00  0.00    -0.502 OA
ATOM     15  H   UNL     1     -10.484 -28.355  34.784  1.00  0.00     0.293 HD
ENDBRANCH   6  14
TORSDOF 4
ENDMDL
MODEL 6
REMARK VINA RESULT:    -4.318      4.707      6.285
REMARK INTER + INTRA:          -5.001
REMARK INTER:                  -4.950
REMARK INTRA:                  -0.051
REMARK UNBOUND:                -0.051
REMARK SMILES O=C([O-])c1cc(O)c(O)c(O)c1
REMARK SMILES IDX 4 1 5 2 12 3 6 4 10 5 8 6 2 7 1 8 3 9 7 10 11 12 9 14
REMARK H PARENT 7 11 11 13 9 15
REMARK Flexibility Score: inf
ROOT
ATOM      1  C   UNL     1      -5.776 -19.528  34.375  1.00  0.00     0.005 A 
ATOM      2  C   UNL     1      -6.800 -19.328  35.316  1.00  0.00     0.060 A 
ATOM      3  C   UNL     1      -5.869 -20.614  33.488  1.00  0.00     0.060 A 
ATOM      4  C   UNL     1      -7.900 -20.196  35.371  1.00  0.00     0.162 A 
ATOM      5  C   UNL     1      -6.963 -21.484  33.535  1.00  0.00     0.162 A 
ATOM      6  C   UNL     1      -7.984 -21.277  34.479  1.00  0.00     0.200 A 
ENDROOT
BRANCH   1   7
ATOM      7  C   UNL     1      -4.618 -18.608  34.324  1.00  0.00     0.072 C 
ATOM      8  O   UNL     1      -4.247 -17.988  35.355  1.00  0.00    -0.545 OA
ATOM      9  O   UNL     1      -3.925 -18.414  33.135  1.00  0.00    -0.545 OA
ENDBRANCH   1   7
BRANCH   4  10
ATOM     10  O   UNL     1      -8.909 -19.985  36.309  1.00  0.00    -0.504 OA
ATOM     11  H   UNL     1      -8.718 -19.565  37.211  1.00  0.00     0.293 HD
ENDBRANCH   4  10
BRANCH   5  12
ATOM     12  O   UNL     1      -7.017 -22.549  32.636  1.00  0.00    -0.504 OA
ATOM     13  H   UNL     1      -6.409 -23.355  32.718  1.00  0.00     0.293 HD
ENDBRANCH   5  12
BRANCH   6  14
ATOM     14  O   UNL     1      -9.071 -22.151  34.519  1.00  0.00    -0.502 OA
ATOM     15  H   UNL     1      -9.210 -22.808  35.278  1.00  0.00     0.293 HD
ENDBRANCH   6  14
TORSDOF 4
ENDMDL
MODEL 7
REMARK VINA RESULT:    -4.265      2.026      3.160
REMARK INTER + INTRA:          -4.939
REMARK INTER:                  -4.887
REMARK INTRA:                  -0.052
REMARK UNBOUND:                -0.051
REMARK SMILES O=C([O-])c1cc(O)c(O)c(O)c1
REMARK SMILES IDX 4 1 5 2 12 3 6 4 10 5 8 6 2 7 1 8 3 9 7 10 11 12 9 14
REMARK H PARENT 7 11 11 13 9 15
REMARK Flexibility Score: inf
ROOT
ATOM      1  C   UNL     1      -5.488 -24.144  34.730  1.00  0.00     0.005 A 
ATOM      2  C   UNL     1      -5.850 -25.285  35.465  1.00  0.00     0.060 A 
ATOM      3  C   UNL     1      -5.864 -24.056  33.378  1.00  0.00     0.060 A 
ATOM      4  C   UNL     1      -6.577 -26.322  34.863  1.00  0.00     0.162 A 
ATOM      5  C   UNL     1      -6.589 -25.086  32.770  1.00  0.00     0.162 A 
ATOM      6  C   UNL     1      -6.949 -26.225  33.512  1.00  0.00     0.200 A 
ENDROOT
BRANCH   1   7
ATOM      7  C   UNL     1      -4.721 -23.054  35.372  1.00  0.00     0.072 C 
ATOM      8  O   UNL     1      -4.172 -23.231  36.492  1.00  0.00    -0.545 OA
ATOM      9  O   UNL     1      -4.596 -21.818  34.748  1.00  0.00    -0.545 OA
ENDBRANCH   1   7
BRANCH   4  10
ATOM     10  O   UNL     1      -6.930 -27.449  35.604  1.00  0.00    -0.504 OA
ATOM     11  H   UNL     1      -6.389 -27.749  36.407  1.00  0.00     0.293 HD
ENDBRANCH   4  10
BRANCH   5  12
ATOM     12  O   UNL     1      -6.944 -24.960  31.427  1.00  0.00    -0.504 OA
ATOM     13  H   UNL     1      -6.564 -24.230  30.835  1.00  0.00     0.293 HD
ENDBRANCH   5  12
BRANCH   6  14
ATOM     14  O   UNL     1      -7.672 -27.247  32.897  1.00  0.00    -0.502 OA
ATOM     15  H   UNL     1      -7.243 -27.901  32.252  1.00  0.00     0.293 HD
ENDBRANCH   6  14
TORSDOF 4
ENDMDL
MODEL 8
REMARK VINA RESULT:    -4.229      2.022      2.630
REMARK INTER + INTRA:          -4.898
REMARK INTER:                  -4.846
REMARK INTRA:                  -0.052
REMARK UNBOUND:                -0.051
REMARK SMILES O=C([O-])c1cc(O)c(O)c(O)c1
REMARK SMILES IDX 4 1 5 2 12 3 6 4 10 5 8 6 2 7 1 8 3 9 7 10 11 12 9 14
REMARK H PARENT 7 11 11 13 9 15
REMARK Flexibility Score: inf
ROOT
ATOM      1  C   UNL     1      -5.490 -24.125  34.743  1.00  0.00     0.005 A 
ATOM      2  C   UNL     1      -5.857 -24.033  33.390  1.00  0.00     0.060 A 
ATOM      3  C   UNL     1      -5.859 -25.267  35.474  1.00  0.00     0.060 A 
ATOM      4  C   UNL     1      -6.580 -25.065  32.774  1.00  0.00     0.162 A 
ATOM      5  C   UNL     1      -6.580 -26.301  34.867  1.00  0.00     0.162 A 
ATOM      6  C   UNL     1      -6.944 -26.202  33.513  1.00  0.00     0.200 A 
ENDROOT
BRANCH   1   7
ATOM      7  C   UNL     1      -4.727 -23.032  35.386  1.00  0.00     0.072 C 
ATOM      8  O   UNL     1      -4.076 -23.242  36.443  1.00  0.00    -0.545 OA
ATOM      9  O   UNL     1      -4.718 -21.757  34.831  1.00  0.00    -0.545 OA
ENDBRANCH   1   7
BRANCH   4  10
ATOM     10  O   UNL     1      -6.937 -24.961  31.430  1.00  0.00    -0.504 OA
ATOM     11  H   UNL     1      -6.275 -25.153  30.687  1.00  0.00     0.293 HD
ENDBRANCH   4  10
BRANCH   5  12
ATOM     12  O   UNL     1      -6.927 -27.418  35.627  1.00  0.00    -0.504 OA
ATOM     13  H   UNL     1      -7.593 -28.108  35.299  1.00  0.00     0.293 HD
ENDBRANCH   5  12
BRANCH   6  14
ATOM     14  O   UNL     1      -7.663 -27.239  32.916  1.00  0.00    -0.502 OA
ATOM     15  H   UNL     1      -8.635 -27.420  33.138  1.00  0.00     0.293 HD
ENDBRANCH   6  14
TORSDOF 4
ENDMDL
