MODEL 1
REMARK VINA RESULT:    -2.674      0.000      0.000
REMARK INTER + INTRA:          -3.365
REMARK INTER:                  -3.143
REMARK INTRA:                  -0.221
REMARK UNBOUND:                -0.221
REMARK SMILES [NH3+][C@@H](CO)C(=O)[O-]
REMARK SMILES IDX 3 1 2 2 1 3 5 7 6 8 7 9 4 10
REMARK H PARENT 1 4 1 5 1 6 4 11
REMARK Flexibility Score: inf
ROOT
ATOM      1  C   UNL     1       5.044   1.029  -0.434  1.00  0.00     0.227 C 
ENDROOT
BRANCH   1   2
ATOM      2  C   UNL     1       6.570   0.899  -0.561  1.00  0.00     0.253 C 
BRANCH   2   3
ATOM      3  N   UNL     1       6.981   0.834  -1.970  1.00  0.00    -0.348 N 
ATOM      4  H   UNL     1       6.804  -0.126  -2.345  1.00  0.00     0.345 HD
ATOM      5  H   UNL     1       8.006   1.030  -2.052  1.00  0.00     0.345 HD
ATOM      6  H   UNL     1       6.453   1.531  -2.543  1.00  0.00     0.345 HD
ENDBRANCH   2   3
BRANCH   2   7
ATOM      7  C   UNL     1       7.050  -0.317   0.184  1.00  0.00     0.102 C 
ATOM      8  O   UNL     1       7.907  -1.084  -0.330  1.00  0.00    -0.544 OA
ATOM      9  O   UNL     1       6.536  -0.608   1.442  1.00  0.00    -0.544 OA
ENDBRANCH   2   7
ENDBRANCH   1   2
BRANCH   1  10
ATOM     10  O   UNL     1       4.717   1.693   0.756  1.00  0.00    -0.390 OA
ATOM     11  H   UNL     1       3.733   1.814   0.742  1.00  0.00     0.210 HD
ENDBRANCH   1  10
TORSDOF 4
ENDMDL
MODEL 2
REMARK VINA RESULT:    -2.626      1.352      1.616
REMARK INTER + INTRA:          -3.308
REMARK INTER:                  -2.901
REMARK INTRA:                  -0.407
REMARK UNBOUND:                -0.221
REMARK SMILES [NH3+][C@@H](CO)C(=O)[O-]
REMARK SMILES IDX 3 1 2 2 1 3 5 7 6 8 7 9 4 10
REMARK H PARENT 1 4 1 5 1 6 4 11
REMARK Flexibility Score: inf
ROOT
ATOM      1  C   UNL     1       4.973  -0.455  -1.122  1.00  0.00     0.227 C 
ENDROOT
BRANCH   1   2
ATOM      2  C   UNL     1       6.208   0.329  -0.651  1.00  0.00     0.253 C 
BRANCH   2   3
ATOM      3  N   UNL     1       7.005   0.799  -1.791  1.00  0.00    -0.348 N 
ATOM      4  H   UNL     1       7.996   0.949  -1.492  1.00  0.00     0.345 HD
ATOM      5  H   UNL     1       6.629   1.712  -2.137  1.00  0.00     0.345 HD
ATOM      6  H   UNL     1       6.982   0.103  -2.572  1.00  0.00     0.345 HD
ENDBRANCH   2   3
BRANCH   2   7
ATOM      7  C   UNL     1       7.048  -0.526   0.261  1.00  0.00     0.102 C 
ATOM      8  O   UNL     1       8.086  -1.092  -0.172  1.00  0.00    -0.544 OA
ATOM      9  O   UNL     1       6.670  -0.705   1.586  1.00  0.00    -0.544 OA
ENDBRANCH   2   7
ENDBRANCH   1   2
BRANCH   1  10
ATOM     10  O   UNL     1       5.123  -1.814  -0.816  1.00  0.00    -0.390 OA
ATOM     11  H   UNL     1       4.212  -2.153  -0.615  1.00  0.00     0.210 HD
ENDBRANCH   1  10
TORSDOF 4
ENDMDL
MODEL 3
REMARK VINA RESULT:    -2.606      2.392      3.069
REMARK INTER + INTRA:          -3.285
REMARK INTER:                  -2.896
REMARK INTRA:                  -0.389
REMARK UNBOUND:                -0.221
REMARK SMILES [NH3+][C@@H](CO)C(=O)[O-]
REMARK SMILES IDX 3 1 2 2 1 3 5 7 6 8 7 9 4 10
REMARK H PARENT 1 4 1 5 1 6 4 11
REMARK Flexibility Score: inf
ROOT
ATOM      1  C   UNL     1       7.522  -1.156   0.016  1.00  0.00     0.227 C 
ENDROOT
BRANCH   1   2
ATOM      2  C   UNL     1       6.256  -1.868   0.517  1.00  0.00     0.253 C 
BRANCH   2   3
ATOM      3  N   UNL     1       5.128  -1.653  -0.398  1.00  0.00    -0.348 N 
ATOM      4  H   UNL     1       4.288  -1.344   0.143  1.00  0.00     0.345 HD
ATOM      5  H   UNL     1       4.889  -2.547  -0.886  1.00  0.00     0.345 HD
ATOM      6  H   UNL     1       5.364  -0.925  -1.112  1.00  0.00     0.345 HD
ENDBRANCH   2   3
BRANCH   2   7
ATOM      7  C   UNL     1       5.908  -1.392   1.902  1.00  0.00     0.102 C 
ATOM      8  O   UNL     1       6.445  -1.919   2.913  1.00  0.00    -0.544 OA
ATOM      9  O   UNL     1       4.979  -0.373   2.072  1.00  0.00    -0.544 OA
ENDBRANCH   2   7
ENDBRANCH   1   2
BRANCH   1  10
ATOM     10  O   UNL     1       7.760  -0.006   0.780  1.00  0.00    -0.390 OA
ATOM     11  H   UNL     1       7.363   0.748   0.274  1.00  0.00     0.210 HD
ENDBRANCH   1  10
TORSDOF 4
ENDMDL
MODEL 4
REMARK VINA RESULT:    -2.603      2.532      2.781
REMARK INTER + INTRA:          -3.281
REMARK INTER:                  -3.053
REMARK INTRA:                  -0.228
REMARK UNBOUND:                -0.221
REMARK SMILES [NH3+][C@@H](CO)C(=O)[O-]
REMARK SMILES IDX 3 1 2 2 1 3 5 7 6 8 7 9 4 10
REMARK H PARENT 1 4 1 5 1 6 4 11
REMARK Flexibility Score: inf
ROOT
ATOM      1  C   UNL     1       4.842  -1.104   1.392  1.00  0.00     0.227 C 
ENDROOT
BRANCH   1   2
ATOM      2  C   UNL     1       6.122  -1.737   0.824  1.00  0.00     0.253 C 
BRANCH   2   3
ATOM      3  N   UNL     1       6.825  -2.521   1.848  1.00  0.00    -0.348 N 
ATOM      4  H   UNL     1       7.858  -2.452   1.698  1.00  0.00     0.345 HD
ATOM      5  H   UNL     1       6.554  -3.529   1.775  1.00  0.00     0.345 HD
ATOM      6  H   UNL     1       6.593  -2.173   2.807  1.00  0.00     0.345 HD
ENDBRANCH   2   3
BRANCH   2   7
ATOM      7  C   UNL     1       7.025  -0.670   0.267  1.00  0.00     0.102 C 
ATOM      8  O   UNL     1       8.197  -0.951  -0.098  1.00  0.00    -0.544 OA
ATOM      9  O   UNL     1       6.571   0.640   0.166  1.00  0.00    -0.544 OA
ENDBRANCH   2   7
ENDBRANCH   1   2
BRANCH   1  10
ATOM     10  O   UNL     1       5.137  -0.395   2.564  1.00  0.00    -0.390 OA
ATOM     11  H   UNL     1       4.439  -0.648   3.221  1.00  0.00     0.210 HD
ENDBRANCH   1  10
TORSDOF 4
ENDMDL
MODEL 5
REMARK VINA RESULT:    -2.599      1.855      2.820
REMARK INTER + INTRA:          -3.276
REMARK INTER:                  -3.051
REMARK INTRA:                  -0.225
REMARK UNBOUND:                -0.221
REMARK SMILES [NH3+][C@@H](CO)C(=O)[O-]
REMARK SMILES IDX 3 1 2 2 1 3 5 7 6 8 7 9 4 10
REMARK H PARENT 1 4 1 5 1 6 4 11
REMARK Flexibility Score: inf
ROOT
ATOM      1  C   UNL     1       5.713  -1.210   0.706  1.00  0.00     0.227 C 
ENDROOT
BRANCH   1   2
ATOM      2  C   UNL     1       6.759  -0.797  -0.342  1.00  0.00     0.253 C 
BRANCH   2   3
ATOM      3  N   UNL     1       8.123  -0.959   0.178  1.00  0.00    -0.348 N 
ATOM      4  H   UNL     1       8.456  -0.054   0.584  1.00  0.00     0.345 HD
ATOM      5  H   UNL     1       8.772  -1.225  -0.599  1.00  0.00     0.345 HD
ATOM      6  H   UNL     1       8.153  -1.700   0.917  1.00  0.00     0.345 HD
ENDBRANCH   2   3
BRANCH   2   7
ATOM      7  C   UNL     1       6.527   0.625  -0.774  1.00  0.00     0.102 C 
ATOM      8  O   UNL     1       6.034   1.464   0.027  1.00  0.00    -0.544 OA
ATOM      9  O   UNL     1       6.843   1.017  -2.069  1.00  0.00    -0.544 OA
ENDBRANCH   2   7
ENDBRANCH   1   2
BRANCH   1  10
ATOM     10  O   UNL     1       6.111  -0.775   1.977  1.00  0.00    -0.390 OA
ATOM     11  H   UNL     1       7.021  -1.144   2.122  1.00  0.00     0.210 HD
ENDBRANCH   1  10
TORSDOF 4
ENDMDL
MODEL 6
REMARK VINA RESULT:    -2.575      1.853      1.911
REMARK INTER + INTRA:          -3.248
REMARK INTER:                  -2.840
REMARK INTRA:                  -0.409
REMARK UNBOUND:                -0.221
REMARK SMILES [NH3+][C@@H](CO)C(=O)[O-]
REMARK SMILES IDX 3 1 2 2 1 3 5 7 6 8 7 9 4 10
REMARK H PARENT 1 4 1 5 1 6 4 11
REMARK Flexibility Score: inf
ROOT
ATOM      1  C   UNL     1       5.347   0.505  -0.772  1.00  0.00     0.227 C 
ENDROOT
BRANCH   1   2
ATOM      2  C   UNL     1       5.675  -0.970  -0.493  1.00  0.00     0.253 C 
BRANCH   2   3
ATOM      3  N   UNL     1       4.528  -1.664   0.106  1.00  0.00    -0.348 N 
ATOM      4  H   UNL     1       3.640  -1.193  -0.181  1.00  0.00     0.345 HD
ATOM      5  H   UNL     1       4.593  -1.625   1.150  1.00  0.00     0.345 HD
ATOM      6  H   UNL     1       4.500  -2.665  -0.197  1.00  0.00     0.345 HD
ENDBRANCH   2   3
BRANCH   2   7
ATOM      7  C   UNL     1       6.879  -1.073   0.404  1.00  0.00     0.102 C 
ATOM      8  O   UNL     1       8.027  -1.247  -0.085  1.00  0.00    -0.544 OA
ATOM      9  O   UNL     1       6.726  -0.988   1.783  1.00  0.00    -0.544 OA
ENDBRANCH   2   7
ENDBRANCH   1   2
BRANCH   1  10
ATOM     10  O   UNL     1       6.245   1.334  -0.086  1.00  0.00    -0.390 OA
ATOM     11  H   UNL     1       6.402   2.117  -0.674  1.00  0.00     0.210 HD
ENDBRANCH   1  10
TORSDOF 4
ENDMDL
MODEL 7
REMARK VINA RESULT:    -2.561      1.988      2.943
REMARK INTER + INTRA:          -3.232
REMARK INTER:                  -2.832
REMARK INTRA:                  -0.399
REMARK UNBOUND:                -0.221
REMARK SMILES [NH3+][C@@H](CO)C(=O)[O-]
REMARK SMILES IDX 3 1 2 2 1 3 5 7 6 8 7 9 4 10
REMARK H PARENT 1 4 1 5 1 6 4 11
REMARK Flexibility Score: inf
ROOT
ATOM      1  C   UNL     1       6.516  -1.800   1.902  1.00  0.00     0.227 C 
ENDROOT
BRANCH   1   2
ATOM      2  C   UNL     1       6.584  -1.387   0.424  1.00  0.00     0.253 C 
BRANCH   2   3
ATOM      3  N   UNL     1       7.948  -0.998   0.044  1.00  0.00    -0.348 N 
ATOM      4  H   UNL     1       8.576  -1.051   0.879  1.00  0.00     0.345 HD
ATOM      5  H   UNL     1       7.954  -0.010  -0.304  1.00  0.00     0.345 HD
ATOM      6  H   UNL     1       8.319  -1.626  -0.706  1.00  0.00     0.345 HD
ENDBRANCH   2   3
BRANCH   2   7
ATOM      7  C   UNL     1       5.622  -0.262   0.155  1.00  0.00     0.102 C 
ATOM      8  O   UNL     1       4.408  -0.502  -0.083  1.00  0.00    -0.544 OA
ATOM      9  O   UNL     1       6.074   1.052   0.154  1.00  0.00    -0.544 OA
ENDBRANCH   2   7
ENDBRANCH   1   2
BRANCH   1  10
ATOM     10  O   UNL     1       5.797  -0.844   2.634  1.00  0.00    -0.390 OA
ATOM     11  H   UNL     1       6.462  -0.376   3.202  1.00  0.00     0.210 HD
ENDBRANCH   1  10
TORSDOF 4
ENDMDL
MODEL 8
REMARK VINA RESULT:    -2.526      2.012      2.632
REMARK INTER + INTRA:          -3.190
REMARK INTER:                  -2.782
REMARK INTRA:                  -0.409
REMARK UNBOUND:                -0.221
REMARK SMILES [NH3+][C@@H](CO)C(=O)[O-]
REMARK SMILES IDX 3 1 2 2 1 3 5 7 6 8 7 9 4 10
REMARK H PARENT 1 4 1 5 1 6 4 11
REMARK Flexibility Score: inf
ROOT
ATOM      1  C   UNL     1       5.077  -1.152   1.591  1.00  0.00     0.227 C 
ENDROOT
BRANCH   1   2
ATOM      2  C   UNL     1       5.313  -0.758   0.124  1.00  0.00     0.253 C 
BRANCH   2   3
ATOM      3  N   UNL     1       5.065  -1.892  -0.776  1.00  0.00    -0.348 N 
ATOM      4  H   UNL     1       4.988  -2.774  -0.219  1.00  0.00     0.345 HD
ATOM      5  H   UNL     1       5.864  -1.998  -1.444  1.00  0.00     0.345 HD
ATOM      6  H   UNL     1       4.182  -1.750  -1.319  1.00  0.00     0.345 HD
ENDBRANCH   2   3
BRANCH   2   7
ATOM      7  C   UNL     1       6.715  -0.241  -0.055  1.00  0.00     0.102 C 
ATOM      8  O   UNL     1       6.952   0.995   0.003  1.00  0.00    -0.544 OA
ATOM      9  O   UNL     1       7.755  -1.129  -0.301  1.00  0.00    -0.544 OA
ENDBRANCH   2   7
ENDBRANCH   1   2
BRANCH   1  10
ATOM     10  O   UNL     1       6.257  -0.983   2.327  1.00  0.00    -0.390 OA
ATOM     11  H   UNL     1       6.724  -0.206   1.925  1.00  0.00     0.210 HD
ENDBRANCH   1  10
TORSDOF 4
ENDMDL
MODEL 9
REMARK VINA RESULT:    -2.490      3.210      3.616
REMARK INTER + INTRA:          -3.148
REMARK INTER:                  -2.730
REMARK INTRA:                  -0.417
REMARK UNBOUND:                -0.221
REMARK SMILES [NH3+][C@@H](CO)C(=O)[O-]
REMARK SMILES IDX 3 1 2 2 1 3 5 7 6 8 7 9 4 10
REMARK H PARENT 1 4 1 5 1 6 4 11
REMARK Flexibility Score: inf
ROOT
ATOM      1  C   UNL     1       4.731  -1.156   3.115  1.00  0.00     0.227 C 
ENDROOT
BRANCH   1   2
ATOM      2  C   UNL     1       5.100  -1.657   1.710  1.00  0.00     0.253 C 
BRANCH   2   3
ATOM      3  N   UNL     1       4.632  -3.033   1.498  1.00  0.00    -0.348 N 
ATOM      4  H   UNL     1       3.647  -3.127   1.839  1.00  0.00     0.345 HD
ATOM      5  H   UNL     1       5.228  -3.701   2.039  1.00  0.00     0.345 HD
ATOM      6  H   UNL     1       4.670  -3.286   0.483  1.00  0.00     0.345 HD
ENDBRANCH   2   3
BRANCH   2   7
ATOM      7  C   UNL     1       6.588  -1.571   1.504  1.00  0.00     0.102 C 
ATOM      8  O   UNL     1       7.326  -2.562   1.750  1.00  0.00    -0.544 OA
ATOM      9  O   UNL     1       7.159  -0.386   1.053  1.00  0.00    -0.544 OA
ENDBRANCH   2   7
ENDBRANCH   1   2
BRANCH   1  10
ATOM     10  O   UNL     1       5.887  -0.766   3.805  1.00  0.00    -0.390 OA
ATOM     11  H   UNL     1       6.621  -1.335   3.454  1.00  0.00     0.210 HD
ENDBRANCH   1  10
TORSDOF 4
ENDMDL
