MODEL 1
REMARK VINA RESULT:    -3.378      0.000      0.000
REMARK INTER + INTRA:          -4.934
REMARK INTER:                  -4.563
REMARK INTRA:                  -0.371
REMARK UNBOUND:                -0.371
REMARK SMILES CCCCCCCC(=O)[O-]
REMARK SMILES IDX 5 1 6 2 7 3 8 4 9 5 10 6 4 7 3 8 2 9 1 10
REMARK H PARENT
REMARK Flexibility Score: inf
ROOT
ATOM      1  C   UNL     1     133.385 124.000 134.318  1.00  0.00     0.000 C 
ENDROOT
BRANCH   1   2
ATOM      2  C   UNL     1     132.457 123.102 133.479  1.00  0.00     0.006 C 
BRANCH   2   3
ATOM      3  C   UNL     1     131.333 122.464 134.304  1.00  0.00     0.053 C 
BRANCH   3   4
ATOM      4  C   UNL     1     131.528 120.983 134.397  1.00  0.00     0.041 C 
ATOM      5  O   UNL     1     132.421 120.508 135.146  1.00  0.00    -0.550 OA
ATOM      6  O   UNL     1     130.756 120.131 133.617  1.00  0.00    -0.550 OA
ENDBRANCH   3   4
ENDBRANCH   2   3
ENDBRANCH   1   2
BRANCH   1   7
ATOM      7  C   UNL     1     132.673 124.889 135.354  1.00  0.00     0.000 C 
BRANCH   7   8
ATOM      8  C   UNL     1     132.218 126.239 134.773  1.00  0.00    -0.000 C 
BRANCH   8   9
ATOM      9  C   UNL     1     130.708 126.278 134.489  1.00  0.00    -0.003 C 
ATOM     10  C   UNL     1     129.901 126.857 135.650  1.00  0.00     0.004 C 
ENDBRANCH   8   9
ENDBRANCH   7   8
ENDBRANCH   1   7
TORSDOF 6
ENDMDL
MODEL 2
REMARK VINA RESULT:    -3.263      3.016      4.553
REMARK INTER + INTRA:          -4.779
REMARK INTER:                  -4.344
REMARK INTRA:                  -0.435
REMARK UNBOUND:                -0.371
REMARK SMILES CCCCCCCC(=O)[O-]
REMARK SMILES IDX 5 1 6 2 7 3 8 4 9 5 10 6 4 7 3 8 2 9 1 10
REMARK H PARENT
REMARK Flexibility Score: inf
ROOT
ATOM      1  C   UNL     1     133.349 123.514 133.768  1.00  0.00     0.000 C 
ENDROOT
BRANCH   1   2
ATOM      2  C   UNL     1     133.403 124.600 134.858  1.00  0.00     0.006 C 
BRANCH   2   3
ATOM      3  C   UNL     1     132.023 124.943 135.432  1.00  0.00     0.053 C 
BRANCH   3   4
ATOM      4  C   UNL     1     131.514 126.221 134.843  1.00  0.00     0.041 C 
ATOM      5  O   UNL     1     132.152 127.293 135.010  1.00  0.00    -0.550 OA
ATOM      6  O   UNL     1     130.310 126.236 134.151  1.00  0.00    -0.550 OA
ENDBRANCH   3   4
ENDBRANCH   2   3
ENDBRANCH   1   2
BRANCH   1   7
ATOM      7  C   UNL     1     131.993 122.798 133.627  1.00  0.00     0.000 C 
BRANCH   7   8
ATOM      8  C   UNL     1     131.997 121.384 134.233  1.00  0.00    -0.000 C 
BRANCH   8   9
ATOM      9  C   UNL     1     130.652 121.017 134.880  1.00  0.00    -0.003 C 
ATOM     10  C   UNL     1     129.641 122.162 134.834  1.00  0.00     0.004 C 
ENDBRANCH   8   9
ENDBRANCH   7   8
ENDBRANCH   1   7
TORSDOF 6
ENDMDL
MODEL 3
REMARK VINA RESULT:    -3.255     16.029     17.185
REMARK INTER + INTRA:          -4.768
REMARK INTER:                  -4.577
REMARK INTRA:                  -0.191
REMARK UNBOUND:                -0.371
REMARK SMILES CCCCCCCC(=O)[O-]
REMARK SMILES IDX 5 1 6 2 7 3 8 4 9 5 10 6 4 7 3 8 2 9 1 10
REMARK H PARENT
REMARK Flexibility Score: inf
ROOT
ATOM      1  C   UNL     1     128.311 120.620 118.703  1.00  0.00     0.000 C 
ENDROOT
BRANCH   1   2
ATOM      2  C   UNL     1     127.152 120.912 117.732  1.00  0.00     0.006 C 
BRANCH   2   3
ATOM      3  C   UNL     1     125.772 120.728 118.375  1.00  0.00     0.053 C 
BRANCH   3   4
ATOM      4  C   UNL     1     124.690 121.053 117.393  1.00  0.00     0.041 C 
ATOM      5  O   UNL     1     123.747 120.241 117.199  1.00  0.00    -0.550 OA
ATOM      6  O   UNL     1     124.750 122.228 116.656  1.00  0.00    -0.550 OA
ENDBRANCH   3   4
ENDBRANCH   2   3
ENDBRANCH   1   2
BRANCH   1   7
ATOM      7  C   UNL     1     129.719 120.877 118.134  1.00  0.00     0.000 C 
BRANCH   7   8
ATOM      8  C   UNL     1     130.742 121.260 119.217  1.00  0.00    -0.000 C 
BRANCH   8   9
ATOM      9  C   UNL     1     130.125 122.123 120.329  1.00  0.00    -0.003 C 
ATOM     10  C   UNL     1     131.089 123.183 120.861  1.00  0.00     0.004 C 
ENDBRANCH   8   9
ENDBRANCH   7   8
ENDBRANCH   1   7
TORSDOF 6
ENDMDL
MODEL 4
REMARK VINA RESULT:    -3.241      1.311      2.649
REMARK INTER + INTRA:          -4.750
REMARK INTER:                  -4.191
REMARK INTRA:                  -0.558
REMARK UNBOUND:                -0.371
REMARK SMILES CCCCCCCC(=O)[O-]
REMARK SMILES IDX 5 1 6 2 7 3 8 4 9 5 10 6 4 7 3 8 2 9 1 10
REMARK H PARENT
REMARK Flexibility Score: inf
ROOT
ATOM      1  C   UNL     1     130.182 125.031 135.186  1.00  0.00     0.000 C 
ENDROOT
BRANCH   1   2
ATOM      2  C   UNL     1     129.906 123.549 134.872  1.00  0.00     0.006 C 
BRANCH   2   3
ATOM      3  C   UNL     1     130.266 122.613 136.031  1.00  0.00     0.053 C 
BRANCH   3   4
ATOM      4  C   UNL     1     130.820 121.324 135.511  1.00  0.00     0.041 C 
ATOM      5  O   UNL     1     132.045 121.063 135.642  1.00  0.00    -0.550 OA
ATOM      6  O   UNL     1     129.994 120.434 134.837  1.00  0.00    -0.550 OA
ENDBRANCH   3   4
ENDBRANCH   2   3
ENDBRANCH   1   2
BRANCH   1   7
ATOM      7  C   UNL     1     131.363 125.653 134.417  1.00  0.00     0.000 C 
BRANCH   7   8
ATOM      8  C   UNL     1     132.634 125.782 135.274  1.00  0.00    -0.000 C 
BRANCH   8   9
ATOM      9  C   UNL     1     133.475 124.495 135.275  1.00  0.00    -0.003 C 
ATOM     10  C   UNL     1     133.509 123.808 133.910  1.00  0.00     0.004 C 
ENDBRANCH   8   9
ENDBRANCH   7   8
ENDBRANCH   1   7
TORSDOF 6
ENDMDL
MODEL 5
REMARK VINA RESULT:    -3.214      1.742      2.897
REMARK INTER + INTRA:          -4.713
REMARK INTER:                  -4.180
REMARK INTRA:                  -0.533
REMARK UNBOUND:                -0.371
REMARK SMILES CCCCCCCC(=O)[O-]
REMARK SMILES IDX 5 1 6 2 7 3 8 4 9 5 10 6 4 7 3 8 2 9 1 10
REMARK H PARENT
REMARK Flexibility Score: inf
ROOT
ATOM      1  C   UNL     1     131.823 126.490 134.627  1.00  0.00     0.000 C 
ENDROOT
BRANCH   1   2
ATOM      2  C   UNL     1     132.855 125.609 135.356  1.00  0.00     0.006 C 
BRANCH   2   3
ATOM      3  C   UNL     1     133.453 124.519 134.458  1.00  0.00     0.053 C 
BRANCH   3   4
ATOM      4  C   UNL     1     132.536 123.339 134.385  1.00  0.00     0.041 C 
ATOM      5  O   UNL     1     132.162 122.897 133.267  1.00  0.00    -0.550 OA
ATOM      6  O   UNL     1     132.056 122.759 135.552  1.00  0.00    -0.550 OA
ENDBRANCH   3   4
ENDBRANCH   2   3
ENDBRANCH   1   2
BRANCH   1   7
ATOM      7  C   UNL     1     130.513 126.733 135.398  1.00  0.00     0.000 C 
BRANCH   7   8
ATOM      8  C   UNL     1     129.654 125.464 135.537  1.00  0.00    -0.000 C 
BRANCH   8   9
ATOM      9  C   UNL     1     129.122 124.964 134.185  1.00  0.00    -0.003 C 
ATOM     10  C   UNL     1     128.311 126.023 133.438  1.00  0.00     0.004 C 
ENDBRANCH   8   9
ENDBRANCH   7   8
ENDBRANCH   1   7
TORSDOF 6
ENDMDL
MODEL 6
REMARK VINA RESULT:    -3.210     15.237     16.373
REMARK INTER + INTRA:          -4.707
REMARK INTER:                  -4.586
REMARK INTRA:                  -0.121
REMARK UNBOUND:                -0.371
REMARK SMILES CCCCCCCC(=O)[O-]
REMARK SMILES IDX 5 1 6 2 7 3 8 4 9 5 10 6 4 7 3 8 2 9 1 10
REMARK H PARENT
REMARK Flexibility Score: inf
ROOT
ATOM      1  C   UNL     1     129.176 120.924 118.100  1.00  0.00     0.000 C 
ENDROOT
BRANCH   1   2
ATOM      2  C   UNL     1     130.390 120.864 119.046  1.00  0.00     0.006 C 
BRANCH   2   3
ATOM      3  C   UNL     1     130.441 122.038 120.031  1.00  0.00     0.053 C 
BRANCH   3   4
ATOM      4  C   UNL     1     131.824 122.202 120.579  1.00  0.00     0.041 C 
ATOM      5  O   UNL     1     132.470 121.198 120.977  1.00  0.00    -0.550 OA
ATOM      6  O   UNL     1     132.380 123.469 120.694  1.00  0.00    -0.550 OA
ENDBRANCH   3   4
ENDBRANCH   2   3
ENDBRANCH   1   2
BRANCH   1   7
ATOM      7  C   UNL     1     127.812 120.687 118.774  1.00  0.00     0.000 C 
BRANCH   7   8
ATOM      8  C   UNL     1     126.698 120.348 117.768  1.00  0.00    -0.000 C 
BRANCH   8   9
ATOM      9  C   UNL     1     125.349 120.974 118.152  1.00  0.00    -0.003 C 
ATOM     10  C   UNL     1     124.730 121.791 117.019  1.00  0.00     0.004 C 
ENDBRANCH   8   9
ENDBRANCH   7   8
ENDBRANCH   1   7
TORSDOF 6
ENDMDL
MODEL 7
REMARK VINA RESULT:    -3.165      2.253      4.073
REMARK INTER + INTRA:          -4.646
REMARK INTER:                  -4.126
REMARK INTRA:                  -0.520
REMARK UNBOUND:                -0.371
REMARK SMILES CCCCCCCC(=O)[O-]
REMARK SMILES IDX 5 1 6 2 7 3 8 4 9 5 10 6 4 7 3 8 2 9 1 10
REMARK H PARENT
REMARK Flexibility Score: inf
ROOT
ATOM      1  C   UNL     1     130.342 125.981 134.710  1.00  0.00     0.000 C 
ENDROOT
BRANCH   1   2
ATOM      2  C   UNL     1     131.475 125.835 135.742  1.00  0.00     0.006 C 
BRANCH   2   3
ATOM      3  C   UNL     1     132.868 125.810 135.103  1.00  0.00     0.053 C 
BRANCH   3   4
ATOM      4  C   UNL     1     133.409 124.415 135.082  1.00  0.00     0.041 C 
ATOM      5  O   UNL     1     133.383 123.710 136.125  1.00  0.00    -0.550 OA
ATOM      6  O   UNL     1     133.987 123.910 133.924  1.00  0.00    -0.550 OA
ENDBRANCH   3   4
ENDBRANCH   2   3
ENDBRANCH   1   2
BRANCH   1   7
ATOM      7  C   UNL     1     129.619 124.672 134.344  1.00  0.00     0.000 C 
BRANCH   7   8
ATOM      8  C   UNL     1     129.781 123.579 135.414  1.00  0.00    -0.000 C 
BRANCH   8   9
ATOM      9  C   UNL     1     130.275 122.248 134.824  1.00  0.00    -0.003 C 
ATOM     10  C   UNL     1     130.871 121.316 135.879  1.00  0.00     0.004 C 
ENDBRANCH   8   9
ENDBRANCH   7   8
ENDBRANCH   1   7
TORSDOF 6
ENDMDL
MODEL 8
REMARK VINA RESULT:    -3.137     16.818     18.017
REMARK INTER + INTRA:          -4.609
REMARK INTER:                  -4.483
REMARK INTRA:                  -0.126
REMARK UNBOUND:                -0.371
REMARK SMILES CCCCCCCC(=O)[O-]
REMARK SMILES IDX 5 1 6 2 7 3 8 4 9 5 10 6 4 7 3 8 2 9 1 10
REMARK H PARENT
REMARK Flexibility Score: inf
ROOT
ATOM      1  C   UNL     1     126.076 120.819 118.472  1.00  0.00     0.000 C 
ENDROOT
BRANCH   1   2
ATOM      2  C   UNL     1     125.007 120.701 117.371  1.00  0.00     0.006 C 
BRANCH   2   3
ATOM      3  C   UNL     1     124.429 122.058 116.948  1.00  0.00     0.053 C 
BRANCH   3   4
ATOM      4  C   UNL     1     123.132 122.315 117.649  1.00  0.00     0.041 C 
ATOM      5  O   UNL     1     122.867 123.465 118.088  1.00  0.00    -0.550 OA
ATOM      6  O   UNL     1     122.237 121.274 117.860  1.00  0.00    -0.550 OA
ENDBRANCH   3   4
ENDBRANCH   2   3
ENDBRANCH   1   2
BRANCH   1   7
ATOM      7  C   UNL     1     127.533 120.781 117.975  1.00  0.00     0.000 C 
BRANCH   7   8
ATOM      8  C   UNL     1     128.557 120.773 119.123  1.00  0.00    -0.000 C 
BRANCH   8   9
ATOM      9  C   UNL     1     129.992 121.019 118.631  1.00  0.00    -0.003 C 
ATOM     10  C   UNL     1     130.860 121.734 119.666  1.00  0.00     0.004 C 
ENDBRANCH   8   9
ENDBRANCH   7   8
ENDBRANCH   1   7
TORSDOF 6
ENDMDL
MODEL 9
REMARK VINA RESULT:    -3.135     16.553     17.516
REMARK INTER + INTRA:          -4.606
REMARK INTER:                  -4.291
REMARK INTRA:                  -0.315
REMARK UNBOUND:                -0.371
REMARK SMILES CCCCCCCC(=O)[O-]
REMARK SMILES IDX 5 1 6 2 7 3 8 4 9 5 10 6 4 7 3 8 2 9 1 10
REMARK H PARENT
REMARK Flexibility Score: inf
ROOT
ATOM      1  C   UNL     1     125.826 119.969 117.964  1.00  0.00     0.000 C 
ENDROOT
BRANCH   1   2
ATOM      2  C   UNL     1     127.009 120.940 117.797  1.00  0.00     0.006 C 
BRANCH   2   3
ATOM      3  C   UNL     1     128.355 120.317 118.187  1.00  0.00     0.053 C 
BRANCH   3   4
ATOM      4  C   UNL     1     129.039 121.154 119.222  1.00  0.00     0.041 C 
ATOM      5  O   UNL     1     130.255 121.454 119.090  1.00  0.00    -0.550 OA
ATOM      6  O   UNL     1     128.348 121.560 120.356  1.00  0.00    -0.550 OA
ENDBRANCH   3   4
ENDBRANCH   2   3
ENDBRANCH   1   2
BRANCH   1   7
ATOM      7  C   UNL     1     124.497 120.448 117.350  1.00  0.00     0.000 C 
BRANCH   7   8
ATOM      8  C   UNL     1     124.510 121.942 116.984  1.00  0.00    -0.000 C 
BRANCH   8   9
ATOM      9  C   UNL     1     123.331 122.709 117.603  1.00  0.00    -0.003 C 
ATOM     10  C   UNL     1     123.358 122.706 119.131  1.00  0.00     0.004 C 
ENDBRANCH   8   9
ENDBRANCH   7   8
ENDBRANCH   1   7
TORSDOF 6
ENDMDL
