MODEL 1
REMARK VINA RESULT:    -5.618      0.000      0.000
REMARK INTER + INTRA:          -7.949
REMARK INTER:                  -7.589
REMARK INTRA:                  -0.360
REMARK UNBOUND:                -0.360
REMARK SMILES CCCCCCC=CC(=O)[O-]
REMARK SMILES IDX 5 1 6 2 7 3 8 4 9 5 10 6 11 7 4 8 3 9 2 10 1 11
REMARK H PARENT
REMARK Flexibility Score: inf
ROOT
ATOM      1  C   UNL     1     129.029 124.664 128.338  1.00  0.00     0.004 C 
ENDROOT
BRANCH   1   2
ATOM      2  C   UNL     1     129.326 125.129 126.905  1.00  0.00     0.027 C 
BRANCH   2   3
ATOM      3  C   UNL     1     130.776 124.934 126.557  1.00  0.00    -0.025 C 
ATOM      4  C   UNL     1     131.666 125.909 126.305  1.00  0.00     0.020 C 
BRANCH   4   5
ATOM      5  C   UNL     1     131.417 127.364 126.359  1.00  0.00     0.064 C 
ATOM      6  O   UNL     1     131.147 127.974 125.292  1.00  0.00    -0.545 OA
ATOM      7  O   UNL     1     131.495 128.088 127.541  1.00  0.00    -0.545 OA
ENDBRANCH   4   5
ENDBRANCH   2   3
ENDBRANCH   1   2
BRANCH   1   8
ATOM      8  C   UNL     1     128.527 123.215 128.351  1.00  0.00     0.000 C 
BRANCH   8   9
ATOM      9  C   UNL     1     128.367 122.701 129.786  1.00  0.00    -0.000 C 
BRANCH   9  10
ATOM     10  C   UNL     1     128.620 123.820 130.803  1.00  0.00    -0.003 C 
ATOM     11  C   UNL     1     128.563 123.291 132.233  1.00  0.00     0.004 C 
ENDBRANCH   9  10
ENDBRANCH   8   9
ENDBRANCH   1   8
TORSDOF 6
ENDMDL
MODEL 2
REMARK VINA RESULT:    -5.410      1.004      1.239
REMARK INTER + INTRA:          -7.668
REMARK INTER:                  -7.207
REMARK INTRA:                  -0.461
REMARK UNBOUND:                -0.360
REMARK SMILES CCCCCCC=CC(=O)[O-]
REMARK SMILES IDX 5 1 6 2 7 3 8 4 9 5 10 6 11 7 4 8 3 9 2 10 1 11
REMARK H PARENT
REMARK Flexibility Score: inf
ROOT
ATOM      1  C   UNL     1     127.962 124.947 128.153  1.00  0.00     0.004 C 
ENDROOT
BRANCH   1   2
ATOM      2  C   UNL     1     128.858 125.764 127.212  1.00  0.00     0.027 C 
BRANCH   2   3
ATOM      3  C   UNL     1     130.283 125.283 127.260  1.00  0.00    -0.025 C 
ATOM      4  C   UNL     1     131.244 125.567 126.365  1.00  0.00     0.020 C 
BRANCH   4   5
ATOM      5  C   UNL     1     131.113 126.440 125.180  1.00  0.00     0.064 C 
ATOM      6  O   UNL     1     130.983 125.909 124.047  1.00  0.00    -0.545 OA
ATOM      7  O   UNL     1     131.154 127.825 125.269  1.00  0.00    -0.545 OA
ENDBRANCH   4   5
ENDBRANCH   2   3
ENDBRANCH   1   2
BRANCH   1   8
ATOM      8  C   UNL     1     128.444 123.494 128.243  1.00  0.00     0.000 C 
BRANCH   8   9
ATOM      9  C   UNL     1     128.250 122.937 129.659  1.00  0.00    -0.000 C 
BRANCH   9  10
ATOM     10  C   UNL     1     128.653 123.971 130.716  1.00  0.00    -0.003 C 
ATOM     11  C   UNL     1     128.583 123.380 132.121  1.00  0.00     0.004 C 
ENDBRANCH   9  10
ENDBRANCH   8   9
ENDBRANCH   1   8
TORSDOF 6
ENDMDL
MODEL 3
REMARK VINA RESULT:    -5.317      3.981      6.255
REMARK INTER + INTRA:          -7.543
REMARK INTER:                  -7.106
REMARK INTRA:                  -0.437
REMARK UNBOUND:                -0.360
REMARK SMILES CCCCCCC=CC(=O)[O-]
REMARK SMILES IDX 5 1 6 2 7 3 8 4 9 5 10 6 11 7 4 8 3 9 2 10 1 11
REMARK H PARENT
REMARK Flexibility Score: inf
ROOT
ATOM      1  C   UNL     1     128.419 126.604 124.191  1.00  0.00     0.004 C 
ENDROOT
BRANCH   1   2
ATOM      2  C   UNL     1     129.671 127.493 124.190  1.00  0.00     0.027 C 
BRANCH   2   3
ATOM      3  C   UNL     1     130.921 126.675 124.362  1.00  0.00    -0.025 C 
ATOM      4  C   UNL     1     131.520 126.382 125.529  1.00  0.00     0.020 C 
BRANCH   4   5
ATOM      5  C   UNL     1     131.053 126.763 126.878  1.00  0.00     0.064 C 
ATOM      6  O   UNL     1     131.442 127.855 127.369  1.00  0.00    -0.545 OA
ATOM      7  O   UNL     1     130.221 125.948 127.634  1.00  0.00    -0.545 OA
ENDBRANCH   4   5
ENDBRANCH   2   3
ENDBRANCH   1   2
BRANCH   1   8
ATOM      8  C   UNL     1     127.378 127.122 123.192  1.00  0.00     0.000 C 
BRANCH   8   9
ATOM      9  C   UNL     1     127.909 128.338 122.424  1.00  0.00    -0.000 C 
BRANCH   9  10
ATOM     10  C   UNL     1     126.759 129.156 121.825  1.00  0.00    -0.003 C 
ATOM     11  C   UNL     1     125.480 128.990 122.641  1.00  0.00     0.004 C 
ENDBRANCH   9  10
ENDBRANCH   8   9
ENDBRANCH   1   8
TORSDOF 6
ENDMDL
MODEL 4
REMARK VINA RESULT:    -5.152      3.400      5.504
REMARK INTER + INTRA:          -7.319
REMARK INTER:                  -6.768
REMARK INTRA:                  -0.551
REMARK UNBOUND:                -0.360
REMARK SMILES CCCCCCC=CC(=O)[O-]
REMARK SMILES IDX 5 1 6 2 7 3 8 4 9 5 10 6 11 7 4 8 3 9 2 10 1 11
REMARK H PARENT
REMARK Flexibility Score: inf
ROOT
ATOM      1  C   UNL     1     130.186 124.849 125.945  1.00  0.00     0.004 C 
ENDROOT
BRANCH   1   2
ATOM      2  C   UNL     1     129.511 123.955 126.995  1.00  0.00     0.027 C 
BRANCH   2   3
ATOM      3  C   UNL     1     129.304 124.692 128.289  1.00  0.00    -0.025 C 
ATOM      4  C   UNL     1     128.514 124.303 129.303  1.00  0.00     0.020 C 
BRANCH   4   5
ATOM      5  C   UNL     1     127.723 123.057 129.375  1.00  0.00     0.064 C 
ATOM      6  O   UNL     1     126.538 123.065 128.951  1.00  0.00    -0.545 OA
ATOM      7  O   UNL     1     128.232 121.884 129.916  1.00  0.00    -0.545 OA
ENDBRANCH   4   5
ENDBRANCH   2   3
ENDBRANCH   1   2
BRANCH   1   8
ATOM      8  C   UNL     1     131.482 125.457 126.494  1.00  0.00     0.000 C 
BRANCH   8   9
ATOM      9  C   UNL     1     131.622 126.925 126.077  1.00  0.00    -0.000 C 
BRANCH   9  10
ATOM     10  C   UNL     1     130.728 127.828 126.935  1.00  0.00    -0.003 C 
ATOM     11  C   UNL     1     131.420 128.212 128.240  1.00  0.00     0.004 C 
ENDBRANCH   9  10
ENDBRANCH   8   9
ENDBRANCH   1   8
TORSDOF 6
ENDMDL
MODEL 5
REMARK VINA RESULT:    -5.126      4.811      7.201
REMARK INTER + INTRA:          -7.284
REMARK INTER:                  -7.135
REMARK INTRA:                  -0.149
REMARK UNBOUND:                -0.360
REMARK SMILES CCCCCCC=CC(=O)[O-]
REMARK SMILES IDX 5 1 6 2 7 3 8 4 9 5 10 6 11 7 4 8 3 9 2 10 1 11
REMARK H PARENT
REMARK Flexibility Score: inf
ROOT
ATOM      1  C   UNL     1     127.167 127.087 123.159  1.00  0.00     0.004 C 
ENDROOT
BRANCH   1   2
ATOM      2  C   UNL     1     128.626 127.048 123.637  1.00  0.00     0.027 C 
BRANCH   2   3
ATOM      3  C   UNL     1     128.746 126.352 124.965  1.00  0.00    -0.025 C 
ATOM      4  C   UNL     1     129.889 125.955 125.549  1.00  0.00     0.020 C 
BRANCH   4   5
ATOM      5  C   UNL     1     131.258 126.156 125.031  1.00  0.00     0.064 C 
ATOM      6  O   UNL     1     132.106 126.730 125.763  1.00  0.00    -0.545 OA
ATOM      7  O   UNL     1     131.637 125.757 123.756  1.00  0.00    -0.545 OA
ENDBRANCH   4   5
ENDBRANCH   2   3
ENDBRANCH   1   2
BRANCH   1   8
ATOM      8  C   UNL     1     127.064 127.716 121.764  1.00  0.00     0.000 C 
BRANCH   8   9
ATOM      9  C   UNL     1     127.428 129.205 121.805  1.00  0.00    -0.000 C 
BRANCH   9  10
ATOM     10  C   UNL     1     126.169 130.078 121.864  1.00  0.00    -0.003 C 
ATOM     11  C   UNL     1     126.514 131.555 121.699  1.00  0.00     0.004 C 
ENDBRANCH   9  10
ENDBRANCH   8   9
ENDBRANCH   1   8
TORSDOF 6
ENDMDL
MODEL 6
REMARK VINA RESULT:    -5.122      3.296      5.974
REMARK INTER + INTRA:          -7.280
REMARK INTER:                  -6.837
REMARK INTRA:                  -0.443
REMARK UNBOUND:                -0.360
REMARK SMILES CCCCCCC=CC(=O)[O-]
REMARK SMILES IDX 5 1 6 2 7 3 8 4 9 5 10 6 11 7 4 8 3 9 2 10 1 11
REMARK H PARENT
REMARK Flexibility Score: inf
ROOT
ATOM      1  C   UNL     1     131.091 125.133 126.621  1.00  0.00     0.004 C 
ENDROOT
BRANCH   1   2
ATOM      2  C   UNL     1     129.674 124.777 127.095  1.00  0.00     0.027 C 
BRANCH   2   3
ATOM      3  C   UNL     1     129.454 125.199 128.522  1.00  0.00    -0.025 C 
ATOM      4  C   UNL     1     128.672 124.576 129.419  1.00  0.00     0.020 C 
BRANCH   4   5
ATOM      5  C   UNL     1     127.905 123.331 129.204  1.00  0.00     0.064 C 
ATOM      6  O   UNL     1     128.410 122.237 129.567  1.00  0.00    -0.545 OA
ATOM      7  O   UNL     1     126.658 123.323 128.593  1.00  0.00    -0.545 OA
ENDBRANCH   4   5
ENDBRANCH   2   3
ENDBRANCH   1   2
BRANCH   1   8
ATOM      8  C   UNL     1     131.201 126.627 126.297  1.00  0.00     0.000 C 
BRANCH   8   9
ATOM      9  C   UNL     1     131.265 126.859 124.783  1.00  0.00    -0.000 C 
BRANCH   9  10
ATOM     10  C   UNL     1     130.171 127.831 124.328  1.00  0.00    -0.003 C 
ATOM     11  C   UNL     1     128.871 127.093 124.019  1.00  0.00     0.004 C 
ENDBRANCH   9  10
ENDBRANCH   8   9
ENDBRANCH   1   8
TORSDOF 6
ENDMDL
MODEL 7
REMARK VINA RESULT:    -5.120      1.423      1.844
REMARK INTER + INTRA:          -7.276
REMARK INTER:                  -6.940
REMARK INTRA:                  -0.336
REMARK UNBOUND:                -0.360
REMARK SMILES CCCCCCC=CC(=O)[O-]
REMARK SMILES IDX 5 1 6 2 7 3 8 4 9 5 10 6 11 7 4 8 3 9 2 10 1 11
REMARK H PARENT
REMARK Flexibility Score: inf
ROOT
ATOM      1  C   UNL     1     128.289 125.623 127.654  1.00  0.00     0.004 C 
ENDROOT
BRANCH   1   2
ATOM      2  C   UNL     1     128.842 125.219 126.279  1.00  0.00     0.027 C 
BRANCH   2   3
ATOM      3  C   UNL     1     128.581 126.286 125.251  1.00  0.00    -0.025 C 
ATOM      4  C   UNL     1     129.509 127.055 124.657  1.00  0.00     0.020 C 
BRANCH   4   5
ATOM      5  C   UNL     1     130.971 126.983 124.857  1.00  0.00     0.064 C 
ATOM      6  O   UNL     1     131.661 126.305 124.052  1.00  0.00    -0.545 OA
ATOM      7  O   UNL     1     131.609 127.616 125.915  1.00  0.00    -0.545 OA
ENDBRANCH   4   5
ENDBRANCH   2   3
ENDBRANCH   1   2
BRANCH   1   8
ATOM      8  C   UNL     1     128.964 124.822 128.773  1.00  0.00     0.000 C 
BRANCH   8   9
ATOM      9  C   UNL     1     128.596 123.336 128.686  1.00  0.00    -0.000 C 
BRANCH   9  10
ATOM     10  C   UNL     1     128.397 122.735 130.082  1.00  0.00    -0.003 C 
ATOM     11  C   UNL     1     128.597 123.787 131.169  1.00  0.00     0.004 C 
ENDBRANCH   9  10
ENDBRANCH   8   9
ENDBRANCH   1   8
TORSDOF 6
ENDMDL
MODEL 8
REMARK VINA RESULT:    -4.897      2.394      3.227
REMARK INTER + INTRA:          -6.975
REMARK INTER:                  -6.233
REMARK INTRA:                  -0.742
REMARK UNBOUND:                -0.360
REMARK SMILES CCCCCCC=CC(=O)[O-]
REMARK SMILES IDX 5 1 6 2 7 3 8 4 9 5 10 6 11 7 4 8 3 9 2 10 1 11
REMARK H PARENT
REMARK Flexibility Score: inf
ROOT
ATOM      1  C   UNL     1     129.805 126.685 127.632  1.00  0.00     0.004 C 
ENDROOT
BRANCH   1   2
ATOM      2  C   UNL     1     131.225 127.024 127.155  1.00  0.00     0.027 C 
BRANCH   2   3
ATOM      3  C   UNL     1     131.671 126.091 126.063  1.00  0.00    -0.025 C 
ATOM      4  C   UNL     1     131.285 126.138 124.777  1.00  0.00     0.020 C 
BRANCH   4   5
ATOM      5  C   UNL     1     130.384 127.136 124.164  1.00  0.00     0.064 C 
ATOM      6  O   UNL     1     129.219 126.785 123.843  1.00  0.00    -0.545 OA
ATOM      7  O   UNL     1     130.784 128.440 123.906  1.00  0.00    -0.545 OA
ENDBRANCH   4   5
ENDBRANCH   2   3
ENDBRANCH   1   2
BRANCH   1   8
ATOM      8  C   UNL     1     129.741 125.261 128.197  1.00  0.00     0.000 C 
BRANCH   8   9
ATOM      9  C   UNL     1     128.460 124.548 127.748  1.00  0.00    -0.000 C 
BRANCH   9  10
ATOM     10  C   UNL     1     128.628 123.943 126.350  1.00  0.00    -0.003 C 
ATOM     11  C   UNL     1     129.849 123.030 126.286  1.00  0.00     0.004 C 
ENDBRANCH   9  10
ENDBRANCH   8   9
ENDBRANCH   1   8
TORSDOF 6
ENDMDL
MODEL 9
REMARK VINA RESULT:    -4.892      3.476      6.005
REMARK INTER + INTRA:          -6.968
REMARK INTER:                  -6.631
REMARK INTRA:                  -0.337
REMARK UNBOUND:                -0.360
REMARK SMILES CCCCCCC=CC(=O)[O-]
REMARK SMILES IDX 5 1 6 2 7 3 8 4 9 5 10 6 11 7 4 8 3 9 2 10 1 11
REMARK H PARENT
REMARK Flexibility Score: inf
ROOT
ATOM      1  C   UNL     1     129.143 125.976 125.651  1.00  0.00     0.004 C 
ENDROOT
BRANCH   1   2
ATOM      2  C   UNL     1     130.093 125.173 126.552  1.00  0.00     0.027 C 
BRANCH   2   3
ATOM      3  C   UNL     1     129.555 123.794 126.821  1.00  0.00    -0.025 C 
ATOM      4  C   UNL     1     128.796 123.432 127.868  1.00  0.00     0.020 C 
BRANCH   4   5
ATOM      5  C   UNL     1     128.300 124.316 128.944  1.00  0.00     0.064 C 
ATOM      6  O   UNL     1     129.025 124.506 129.955  1.00  0.00    -0.545 OA
ATOM      7  O   UNL     1     127.054 124.924 128.890  1.00  0.00    -0.545 OA
ENDBRANCH   4   5
ENDBRANCH   2   3
ENDBRANCH   1   2
BRANCH   1   8
ATOM      8  C   UNL     1     129.899 126.593 124.469  1.00  0.00     0.000 C 
BRANCH   8   9
ATOM      9  C   UNL     1     128.998 127.547 123.677  1.00  0.00    -0.000 C 
BRANCH   9  10
ATOM     10  C   UNL     1     127.633 126.908 123.395  1.00  0.00    -0.003 C 
ATOM     11  C   UNL     1     126.730 127.858 122.612  1.00  0.00     0.004 C 
ENDBRANCH   9  10
ENDBRANCH   8   9
ENDBRANCH   1   8
TORSDOF 6
ENDMDL
