MODEL 1
REMARK VINA RESULT:    -4.390      0.000      0.000
REMARK INTER + INTRA:         -17.174
REMARK INTER:                 -11.576
REMARK INTRA:                  -5.599
REMARK UNBOUND:                -5.599
REMARK SMILES CCCCCCCCCCCCCCCCCCCCCCCCCCCCCC(=O)[O-]
REMARK SMILES IDX 16 1 17 2 18 3 19 4 20 5 21 6 22 7 23 8 24 9 25 10 26 11
REMARK SMILES IDX 27 12 28 13 29 14 30 15 31 16 32 17 15 18 14 19 13 20 12 21
REMARK SMILES IDX 11 22 10 23 9 24 8 25 7 26 6 27 5 28 4 29 3 30 2 31 1 32
REMARK H PARENT
REMARK Flexibility Score: inf
ROOT
ATOM      1  C   UNL     1      14.631 -17.570  37.345  1.00  0.00     0.000 C 
ENDROOT
BRANCH   1   2
ATOM      2  C   UNL     1      15.834 -17.604  38.299  1.00  0.00     0.000 C 
BRANCH   2   3
ATOM      3  C   UNL     1      15.495 -18.374  39.581  1.00  0.00     0.000 C 
BRANCH   3   4
ATOM      4  C   UNL     1      14.669 -19.632  39.271  1.00  0.00     0.000 C 
BRANCH   4   5
ATOM      5  C   UNL     1      14.388 -20.483  40.521  1.00  0.00     0.000 C 
BRANCH   5   6
ATOM      6  C   UNL     1      12.898 -20.638  40.880  1.00  0.00     0.000 C 
BRANCH   6   7
ATOM      7  C   UNL     1      12.289 -22.020  40.565  1.00  0.00     0.000 C 
BRANCH   7   8
ATOM      8  C   UNL     1      11.546 -22.109  39.220  1.00  0.00     0.000 C 
BRANCH   8   9
ATOM      9  C   UNL     1      12.140 -23.167  38.279  1.00  0.00     0.000 C 
BRANCH   9  10
ATOM     10  C   UNL     1      13.314 -22.594  37.476  1.00  0.00     0.000 C 
BRANCH  10  11
ATOM     11  C   UNL     1      14.462 -23.609  37.377  1.00  0.00     0.000 C 
BRANCH  11  12
ATOM     12  C   UNL     1      15.212 -23.778  38.717  1.00  0.00     0.000 C 
BRANCH  12  13
ATOM     13  C   UNL     1      15.915 -25.141  38.862  1.00  0.00     0.006 C 
BRANCH  13  14
ATOM     14  C   UNL     1      17.222 -25.089  39.666  1.00  0.00     0.053 C 
BRANCH  14  15
ATOM     15  C   UNL     1      18.404 -25.499  38.842  1.00  0.00     0.041 C 
ATOM     16  O   UNL     1      18.485 -25.153  37.633  1.00  0.00    -0.550 OA
ATOM     17  O   UNL     1      19.424 -26.253  39.409  1.00  0.00    -0.550 OA
ENDBRANCH  14  15
ENDBRANCH  13  14
ENDBRANCH  12  13
ENDBRANCH  11  12
ENDBRANCH  10  11
ENDBRANCH   9  10
ENDBRANCH   8   9
ENDBRANCH   7   8
ENDBRANCH   6   7
ENDBRANCH   5   6
ENDBRANCH   4   5
ENDBRANCH   3   4
ENDBRANCH   2   3
ENDBRANCH   1   2
BRANCH   1  18
ATOM     18  C   UNL     1      14.925 -16.811  36.042  1.00  0.00     0.000 C 
BRANCH  18  19
ATOM     19  C   UNL     1      16.429 -16.560  35.833  1.00  0.00     0.000 C 
BRANCH  19  20
ATOM     20  C   UNL     1      16.763 -15.076  35.600  1.00  0.00     0.000 C 
BRANCH  20  21
ATOM     21  C   UNL     1      17.738 -14.451  36.619  1.00  0.00     0.000 C 
BRANCH  21  22
ATOM     22  C   UNL     1      17.149 -14.209  38.021  1.00  0.00     0.000 C 
BRANCH  22  23
ATOM     23  C   UNL     1      15.840 -13.402  37.986  1.00  0.00     0.000 C 
BRANCH  23  24
ATOM     24  C   UNL     1      14.714 -14.070  38.788  1.00  0.00    -0.000 C 
BRANCH  24  25
ATOM     25  C   UNL     1      13.342 -13.933  38.104  1.00  0.00    -0.000 C 
BRANCH  25  26
ATOM     26  C   UNL     1      12.336 -14.991  38.582  1.00  0.00    -0.000 C 
BRANCH  26  27
ATOM     27  C   UNL     1      12.771 -15.669  39.894  1.00  0.00    -0.000 C 
BRANCH  27  28
ATOM     28  C   UNL     1      12.134 -17.054  40.085  1.00  0.00    -0.000 C 
BRANCH  28  29
ATOM     29  C   UNL     1      10.852 -17.236  39.256  1.00  0.00    -0.000 C 
BRANCH  29  30
ATOM     30  C   UNL     1      10.866 -18.580  38.512  1.00  0.00    -0.000 C 
BRANCH  30  31
ATOM     31  C   UNL     1      11.062 -18.415  36.998  1.00  0.00    -0.003 C 
ATOM     32  C   UNL     1      11.872 -19.555  36.379  1.00  0.00     0.004 C 
ENDBRANCH  30  31
ENDBRANCH  29  30
ENDBRANCH  28  29
ENDBRANCH  27  28
ENDBRANCH  26  27
ENDBRANCH  25  26
ENDBRANCH  24  25
ENDBRANCH  23  24
ENDBRANCH  22  23
ENDBRANCH  21  22
ENDBRANCH  20  21
ENDBRANCH  19  20
ENDBRANCH  18  19
ENDBRANCH   1  18
TORSDOF 28
ENDMDL
MODEL 2
REMARK VINA RESULT:    -4.162      3.144      8.534
REMARK INTER + INTRA:         -16.574
REMARK INTER:                 -11.401
REMARK INTRA:                  -5.173
REMARK UNBOUND:                -5.599
REMARK SMILES CCCCCCCCCCCCCCCCCCCCCCCCCCCCCC(=O)[O-]
REMARK SMILES IDX 16 1 17 2 18 3 19 4 20 5 21 6 22 7 23 8 24 9 25 10 26 11
REMARK SMILES IDX 27 12 28 13 29 14 30 15 31 16 32 17 15 18 14 19 13 20 12 21
REMARK SMILES IDX 11 22 10 23 9 24 8 25 7 26 6 27 5 28 4 29 3 30 2 31 1 32
REMARK H PARENT
REMARK Flexibility Score: inf
ROOT
ATOM      1  C   UNL     1      15.355 -18.215  39.598  1.00  0.00     0.000 C 
ENDROOT
BRANCH   1   2
ATOM      2  C   UNL     1      14.260 -17.187  39.922  1.00  0.00     0.000 C 
BRANCH   2   3
ATOM      3  C   UNL     1      14.753 -15.759  39.657  1.00  0.00     0.000 C 
BRANCH   3   4
ATOM      4  C   UNL     1      13.592 -14.839  39.251  1.00  0.00     0.000 C 
BRANCH   4   5
ATOM      5  C   UNL     1      14.018 -13.748  38.253  1.00  0.00     0.000 C 
BRANCH   5   6
ATOM      6  C   UNL     1      15.484 -13.288  38.379  1.00  0.00     0.000 C 
BRANCH   6   7
ATOM      7  C   UNL     1      16.349 -13.508  37.122  1.00  0.00     0.000 C 
BRANCH   7   8
ATOM      8  C   UNL     1      17.475 -14.546  37.283  1.00  0.00     0.000 C 
BRANCH   8   9
ATOM      9  C   UNL     1      17.035 -15.967  36.906  1.00  0.00     0.000 C 
BRANCH   9  10
ATOM     10  C   UNL     1      15.889 -15.938  35.887  1.00  0.00     0.000 C 
BRANCH  10  11
ATOM     11  C   UNL     1      15.070 -17.235  35.941  1.00  0.00     0.000 C 
BRANCH  11  12
ATOM     12  C   UNL     1      13.590 -16.979  36.304  1.00  0.00     0.000 C 
BRANCH  12  13
ATOM     13  C   UNL     1      12.826 -18.255  36.708  1.00  0.00     0.006 C 
BRANCH  13  14
ATOM     14  C   UNL     1      11.299 -18.122  36.623  1.00  0.00     0.053 C 
BRANCH  14  15
ATOM     15  C   UNL     1      10.783 -17.019  37.498  1.00  0.00     0.041 C 
ATOM     16  O   UNL     1      10.915 -17.087  38.748  1.00  0.00    -0.550 OA
ATOM     17  O   UNL     1      10.167 -15.909  36.933  1.00  0.00    -0.550 OA
ENDBRANCH  14  15
ENDBRANCH  13  14
ENDBRANCH  12  13
ENDBRANCH  11  12
ENDBRANCH  10  11
ENDBRANCH   9  10
ENDBRANCH   8   9
ENDBRANCH   7   8
ENDBRANCH   6   7
ENDBRANCH   5   6
ENDBRANCH   4   5
ENDBRANCH   3   4
ENDBRANCH   2   3
ENDBRANCH   1   2
BRANCH   1  18
ATOM     18  C   UNL     1      14.787 -19.600  39.253  1.00  0.00     0.000 C 
BRANCH  18  19
ATOM     19  C   UNL     1      14.697 -20.523  40.481  1.00  0.00     0.000 C 
BRANCH  19  20
ATOM     20  C   UNL     1      13.253 -20.731  40.970  1.00  0.00     0.000 C 
BRANCH  20  21
ATOM     21  C   UNL     1      12.168 -19.995  40.156  1.00  0.00     0.000 C 
BRANCH  21  22
ATOM     22  C   UNL     1      10.883 -20.803  39.903  1.00  0.00     0.000 C 
BRANCH  22  23
ATOM     23  C   UNL     1      10.728 -21.231  38.434  1.00  0.00     0.000 C 
BRANCH  23  24
ATOM     24  C   UNL     1      11.597 -22.447  38.080  1.00  0.00    -0.000 C 
BRANCH  24  25
ATOM     25  C   UNL     1      12.823 -22.068  37.229  1.00  0.00    -0.000 C 
BRANCH  25  26
ATOM     26  C   UNL     1      13.898 -23.166  37.223  1.00  0.00    -0.000 C 
BRANCH  26  27
ATOM     27  C   UNL     1      13.950 -23.949  38.547  1.00  0.00    -0.000 C 
BRANCH  27  28
ATOM     28  C   UNL     1      15.323 -23.865  39.231  1.00  0.00    -0.000 C 
BRANCH  28  29
ATOM     29  C   UNL     1      15.976 -25.243  39.421  1.00  0.00    -0.000 C 
BRANCH  29  30
ATOM     30  C   UNL     1      17.505 -25.119  39.507  1.00  0.00    -0.000 C 
BRANCH  30  31
ATOM     31  C   UNL     1      18.226 -26.414  39.105  1.00  0.00    -0.003 C 
ATOM     32  C   UNL     1      19.675 -26.176  38.679  1.00  0.00     0.004 C 
ENDBRANCH  30  31
ENDBRANCH  29  30
ENDBRANCH  28  29
ENDBRANCH  27  28
ENDBRANCH  26  27
ENDBRANCH  25  26
ENDBRANCH  24  25
ENDBRANCH  23  24
ENDBRANCH  22  23
ENDBRANCH  21  22
ENDBRANCH  20  21
ENDBRANCH  19  20
ENDBRANCH  18  19
ENDBRANCH   1  18
TORSDOF 28
ENDMDL
MODEL 3
REMARK VINA RESULT:    -4.153      1.474      4.208
REMARK INTER + INTRA:         -16.549
REMARK INTER:                 -10.663
REMARK INTRA:                  -5.887
REMARK UNBOUND:                -5.599
REMARK SMILES CCCCCCCCCCCCCCCCCCCCCCCCCCCCCC(=O)[O-]
REMARK SMILES IDX 16 1 17 2 18 3 19 4 20 5 21 6 22 7 23 8 24 9 25 10 26 11
REMARK SMILES IDX 27 12 28 13 29 14 30 15 31 16 32 17 15 18 14 19 13 20 12 21
REMARK SMILES IDX 11 22 10 23 9 24 8 25 7 26 6 27 5 28 4 29 3 30 2 31 1 32
REMARK H PARENT
REMARK Flexibility Score: inf
ROOT
ATOM      1  C   UNL     1      12.792 -18.463  40.270  1.00  0.00     0.000 C 
ENDROOT
BRANCH   1   2
ATOM      2  C   UNL     1      14.233 -18.931  40.019  1.00  0.00     0.000 C 
BRANCH   2   3
ATOM      3  C   UNL     1      14.341 -20.457  40.129  1.00  0.00     0.000 C 
BRANCH   3   4
ATOM      4  C   UNL     1      13.149 -21.147  39.449  1.00  0.00     0.000 C 
BRANCH   4   5
ATOM      5  C   UNL     1      13.360 -21.350  37.938  1.00  0.00     0.000 C 
BRANCH   5   6
ATOM      6  C   UNL     1      12.065 -21.417  37.104  1.00  0.00     0.000 C 
BRANCH   6   7
ATOM      7  C   UNL     1      10.764 -21.520  37.925  1.00  0.00     0.000 C 
BRANCH   7   8
ATOM      8  C   UNL     1      10.163 -22.935  38.015  1.00  0.00     0.000 C 
BRANCH   8   9
ATOM      9  C   UNL     1      10.187 -23.502  39.441  1.00  0.00     0.000 C 
BRANCH   9  10
ATOM     10  C   UNL     1      11.402 -24.414  39.653  1.00  0.00     0.000 C 
BRANCH  10  11
ATOM     11  C   UNL     1      11.863 -25.034  38.326  1.00  0.00     0.000 C 
BRANCH  11  12
ATOM     12  C   UNL     1      13.402 -25.096  38.211  1.00  0.00     0.000 C 
BRANCH  12  13
ATOM     13  C   UNL     1      14.133 -24.698  39.507  1.00  0.00     0.006 C 
BRANCH  13  14
ATOM     14  C   UNL     1      15.538 -24.121  39.280  1.00  0.00     0.053 C 
BRANCH  14  15
ATOM     15  C   UNL     1      16.585 -25.193  39.244  1.00  0.00     0.041 C 
ATOM     16  O   UNL     1      16.482 -26.205  39.986  1.00  0.00    -0.550 OA
ATOM     17  O   UNL     1      17.669 -25.081  38.382  1.00  0.00    -0.550 OA
ENDBRANCH  14  15
ENDBRANCH  13  14
ENDBRANCH  12  13
ENDBRANCH  11  12
ENDBRANCH  10  11
ENDBRANCH   9  10
ENDBRANCH   8   9
ENDBRANCH   7   8
ENDBRANCH   6   7
ENDBRANCH   5   6
ENDBRANCH   4   5
ENDBRANCH   3   4
ENDBRANCH   2   3
ENDBRANCH   1   2
BRANCH   1  18
ATOM     18  C   UNL     1      12.366 -17.321  39.335  1.00  0.00     0.000 C 
BRANCH  18  19
ATOM     19  C   UNL     1      11.412 -17.794  38.223  1.00  0.00     0.000 C 
BRANCH  19  20
ATOM     20  C   UNL     1      11.932 -17.474  36.811  1.00  0.00     0.000 C 
BRANCH  20  21
ATOM     21  C   UNL     1      13.355 -17.983  36.500  1.00  0.00     0.000 C 
BRANCH  21  22
ATOM     22  C   UNL     1      14.431 -16.887  36.397  1.00  0.00     0.000 C 
BRANCH  22  23
ATOM     23  C   UNL     1      15.650 -17.163  37.294  1.00  0.00     0.000 C 
BRANCH  23  24
ATOM     24  C   UNL     1      16.978 -16.819  36.605  1.00  0.00    -0.000 C 
BRANCH  24  25
ATOM     25  C   UNL     1      17.328 -15.324  36.711  1.00  0.00    -0.000 C 
BRANCH  25  26
ATOM     26  C   UNL     1      16.978 -14.545  35.434  1.00  0.00    -0.000 C 
BRANCH  26  27
ATOM     27  C   UNL     1      16.334 -13.179  35.733  1.00  0.00    -0.000 C 
BRANCH  27  28
ATOM     28  C   UNL     1      15.881 -13.047  37.196  1.00  0.00    -0.000 C 
BRANCH  28  29
ATOM     29  C   UNL     1      14.360 -13.202  37.361  1.00  0.00    -0.000 C 
BRANCH  29  30
ATOM     30  C   UNL     1      14.026 -14.013  38.621  1.00  0.00    -0.000 C 
BRANCH  30  31
ATOM     31  C   UNL     1      15.181 -14.035  39.634  1.00  0.00    -0.003 C 
ATOM     32  C   UNL     1      15.301 -15.372  40.365  1.00  0.00     0.004 C 
ENDBRANCH  30  31
ENDBRANCH  29  30
ENDBRANCH  28  29
ENDBRANCH  27  28
ENDBRANCH  26  27
ENDBRANCH  25  26
ENDBRANCH  24  25
ENDBRANCH  23  24
ENDBRANCH  22  23
ENDBRANCH  21  22
ENDBRANCH  20  21
ENDBRANCH  19  20
ENDBRANCH  18  19
ENDBRANCH   1  18
TORSDOF 28
ENDMDL
MODEL 4
REMARK VINA RESULT:    -4.141      1.249      4.505
REMARK INTER + INTRA:         -16.517
REMARK INTER:                 -11.189
REMARK INTRA:                  -5.328
REMARK UNBOUND:                -5.599
REMARK SMILES CCCCCCCCCCCCCCCCCCCCCCCCCCCCCC(=O)[O-]
REMARK SMILES IDX 16 1 17 2 18 3 19 4 20 5 21 6 22 7 23 8 24 9 25 10 26 11
REMARK SMILES IDX 27 12 28 13 29 14 30 15 31 16 32 17 15 18 14 19 13 20 12 21
REMARK SMILES IDX 11 22 10 23 9 24 8 25 7 26 6 27 5 28 4 29 3 30 2 31 1 32
REMARK H PARENT
REMARK Flexibility Score: inf
ROOT
ATOM      1  C   UNL     1      10.883 -18.248  39.995  1.00  0.00     0.000 C 
ENDROOT
BRANCH   1   2
ATOM      2  C   UNL     1      11.439 -18.083  38.572  1.00  0.00     0.000 C 
BRANCH   2   3
ATOM      3  C   UNL     1      10.333 -18.263  37.526  1.00  0.00     0.000 C 
BRANCH   3   4
ATOM      4  C   UNL     1      10.828 -19.094  36.333  1.00  0.00     0.000 C 
BRANCH   4   5
ATOM      5  C   UNL     1      12.275 -19.585  36.508  1.00  0.00     0.000 C 
BRANCH   5   6
ATOM      6  C   UNL     1      12.420 -21.090  36.807  1.00  0.00     0.000 C 
BRANCH   6   7
ATOM      7  C   UNL     1      11.092 -21.867  36.906  1.00  0.00     0.000 C 
BRANCH   7   8
ATOM      8  C   UNL     1      10.728 -22.353  38.320  1.00  0.00     0.000 C 
BRANCH   8   9
ATOM      9  C   UNL     1      11.328 -23.727  38.651  1.00  0.00     0.000 C 
BRANCH   9  10
ATOM     10  C   UNL     1      12.253 -23.646  39.872  1.00  0.00     0.000 C 
BRANCH  10  11
ATOM     11  C   UNL     1      13.554 -24.424  39.631  1.00  0.00     0.000 C 
BRANCH  11  12
ATOM     12  C   UNL     1      14.732 -23.497  39.259  1.00  0.00     0.000 C 
BRANCH  12  13
ATOM     13  C   UNL     1      15.138 -23.582  37.775  1.00  0.00     0.006 C 
BRANCH  13  14
ATOM     14  C   UNL     1      15.631 -24.970  37.341  1.00  0.00     0.053 C 
BRANCH  14  15
ATOM     15  C   UNL     1      16.662 -25.518  38.281  1.00  0.00     0.041 C 
ATOM     16  O   UNL     1      16.391 -26.509  39.010  1.00  0.00    -0.550 OA
ATOM     17  O   UNL     1      17.925 -24.944  38.345  1.00  0.00    -0.550 OA
ENDBRANCH  14  15
ENDBRANCH  13  14
ENDBRANCH  12  13
ENDBRANCH  11  12
ENDBRANCH  10  11
ENDBRANCH   9  10
ENDBRANCH   8   9
ENDBRANCH   7   8
ENDBRANCH   6   7
ENDBRANCH   5   6
ENDBRANCH   4   5
ENDBRANCH   3   4
ENDBRANCH   2   3
ENDBRANCH   1   2
BRANCH   1  18
ATOM     18  C   UNL     1      11.887 -18.905  40.954  1.00  0.00     0.000 C 
BRANCH  18  19
ATOM     19  C   UNL     1      12.633 -20.086  40.309  1.00  0.00     0.000 C 
BRANCH  19  20
ATOM     20  C   UNL     1      14.157 -20.013  40.508  1.00  0.00     0.000 C 
BRANCH  20  21
ATOM     21  C   UNL     1      14.945 -19.384  39.340  1.00  0.00     0.000 C 
BRANCH  21  22
ATOM     22  C   UNL     1      15.477 -17.964  39.602  1.00  0.00     0.000 C 
BRANCH  22  23
ATOM     23  C   UNL     1      14.593 -16.872  38.977  1.00  0.00     0.000 C 
BRANCH  23  24
ATOM     24  C   UNL     1      14.107 -15.844  40.009  1.00  0.00    -0.000 C 
BRANCH  24  25
ATOM     25  C   UNL     1      13.011 -14.919  39.449  1.00  0.00    -0.000 C 
BRANCH  25  26
ATOM     26  C   UNL     1      13.405 -14.283  38.107  1.00  0.00    -0.000 C 
BRANCH  26  27
ATOM     27  C   UNL     1      14.385 -13.107  38.277  1.00  0.00    -0.000 C 
BRANCH  27  28
ATOM     28  C   UNL     1      15.655 -13.268  37.428  1.00  0.00    -0.000 C 
BRANCH  28  29
ATOM     29  C   UNL     1      16.753 -14.066  38.149  1.00  0.00    -0.000 C 
BRANCH  29  30
ATOM     30  C   UNL     1      17.704 -14.727  37.139  1.00  0.00    -0.000 C 
BRANCH  30  31
ATOM     31  C   UNL     1      17.425 -16.227  36.960  1.00  0.00    -0.003 C 
ATOM     32  C   UNL     1      16.425 -16.513  35.839  1.00  0.00     0.004 C 
ENDBRANCH  30  31
ENDBRANCH  29  30
ENDBRANCH  28  29
ENDBRANCH  27  28
ENDBRANCH  26  27
ENDBRANCH  25  26
ENDBRANCH  24  25
ENDBRANCH  23  24
ENDBRANCH  22  23
ENDBRANCH  21  22
ENDBRANCH  20  21
ENDBRANCH  19  20
ENDBRANCH  18  19
ENDBRANCH   1  18
TORSDOF 28
ENDMDL
MODEL 5
REMARK VINA RESULT:    -4.135      1.195      4.253
REMARK INTER + INTRA:         -16.503
REMARK INTER:                 -11.339
REMARK INTRA:                  -5.164
REMARK UNBOUND:                -5.599
REMARK SMILES CCCCCCCCCCCCCCCCCCCCCCCCCCCCCC(=O)[O-]
REMARK SMILES IDX 16 1 17 2 18 3 19 4 20 5 21 6 22 7 23 8 24 9 25 10 26 11
REMARK SMILES IDX 27 12 28 13 29 14 30 15 31 16 32 17 15 18 14 19 13 20 12 21
REMARK SMILES IDX 11 22 10 23 9 24 8 25 7 26 6 27 5 28 4 29 3 30 2 31 1 32
REMARK H PARENT
REMARK Flexibility Score: inf
ROOT
ATOM      1  C   UNL     1      12.498 -19.533  36.628  1.00  0.00     0.000 C 
ENDROOT
BRANCH   1   2
ATOM      2  C   UNL     1      12.096 -21.012  36.730  1.00  0.00     0.000 C 
BRANCH   2   3
ATOM      3  C   UNL     1      10.745 -21.165  37.441  1.00  0.00     0.000 C 
BRANCH   3   4
ATOM      4  C   UNL     1      10.896 -21.943  38.756  1.00  0.00     0.000 C 
BRANCH   4   5
ATOM      5  C   UNL     1      11.027 -21.022  39.982  1.00  0.00     0.000 C 
BRANCH   5   6
ATOM      6  C   UNL     1      12.367 -21.129  40.736  1.00  0.00     0.000 C 
BRANCH   6   7
ATOM      7  C   UNL     1      13.440 -20.107  40.309  1.00  0.00     0.000 C 
BRANCH   7   8
ATOM      8  C   UNL     1      14.663 -20.710  39.594  1.00  0.00     0.000 C 
BRANCH   8   9
ATOM      9  C   UNL     1      14.656 -22.246  39.594  1.00  0.00     0.000 C 
BRANCH   9  10
ATOM     10  C   UNL     1      14.662 -22.798  38.164  1.00  0.00     0.000 C 
BRANCH  10  11
ATOM     11  C   UNL     1      13.904 -24.130  38.084  1.00  0.00     0.000 C 
BRANCH  11  12
ATOM     12  C   UNL     1      14.228 -24.913  36.792  1.00  0.00     0.000 C 
BRANCH  12  13
ATOM     13  C   UNL     1      15.304 -25.999  36.984  1.00  0.00     0.006 C 
BRANCH  13  14
ATOM     14  C   UNL     1      16.030 -25.928  38.336  1.00  0.00     0.053 C 
BRANCH  14  15
ATOM     15  C   UNL     1      17.444 -25.453  38.188  1.00  0.00     0.041 C 
ATOM     16  O   UNL     1      18.290 -25.690  39.091  1.00  0.00    -0.550 OA
ATOM     17  O   UNL     1      17.832 -24.758  37.050  1.00  0.00    -0.550 OA
ENDBRANCH  14  15
ENDBRANCH  13  14
ENDBRANCH  12  13
ENDBRANCH  11  12
ENDBRANCH  10  11
ENDBRANCH   9  10
ENDBRANCH   8   9
ENDBRANCH   7   8
ENDBRANCH   6   7
ENDBRANCH   5   6
ENDBRANCH   4   5
ENDBRANCH   3   4
ENDBRANCH   2   3
ENDBRANCH   1   2
BRANCH   1  18
ATOM     18  C   UNL     1      11.292 -18.582  36.691  1.00  0.00     0.000 C 
BRANCH  18  19
ATOM     19  C   UNL     1      11.607 -17.282  37.451  1.00  0.00     0.000 C 
BRANCH  19  20
ATOM     20  C   UNL     1      11.227 -17.351  38.941  1.00  0.00     0.000 C 
BRANCH  20  21
ATOM     21  C   UNL     1      12.255 -16.736  39.913  1.00  0.00     0.000 C 
BRANCH  21  22
ATOM     22  C   UNL     1      13.695 -16.661  39.376  1.00  0.00     0.000 C 
BRANCH  22  23
ATOM     23  C   UNL     1      14.248 -15.226  39.351  1.00  0.00     0.000 C 
BRANCH  23  24
ATOM     24  C   UNL     1      13.622 -14.373  38.238  1.00  0.00    -0.000 C 
BRANCH  24  25
ATOM     25  C   UNL     1      14.134 -12.921  38.250  1.00  0.00    -0.000 C 
BRANCH  25  26
ATOM     26  C   UNL     1      15.618 -12.816  37.864  1.00  0.00    -0.000 C 
BRANCH  26  27
ATOM     27  C   UNL     1      15.847 -12.982  36.350  1.00  0.00    -0.000 C 
BRANCH  27  28
ATOM     28  C   UNL     1      17.056 -13.875  36.029  1.00  0.00    -0.000 C 
BRANCH  28  29
ATOM     29  C   UNL     1      17.549 -14.667  37.251  1.00  0.00    -0.000 C 
BRANCH  29  30
ATOM     30  C   UNL     1      17.064 -16.123  37.193  1.00  0.00    -0.000 C 
BRANCH  30  31
ATOM     31  C   UNL     1      16.510 -16.506  35.812  1.00  0.00    -0.003 C 
ATOM     32  C   UNL     1      15.035 -16.906  35.856  1.00  0.00     0.004 C 
ENDBRANCH  30  31
ENDBRANCH  29  30
ENDBRANCH  28  29
ENDBRANCH  27  28
ENDBRANCH  26  27
ENDBRANCH  25  26
ENDBRANCH  24  25
ENDBRANCH  23  24
ENDBRANCH  22  23
ENDBRANCH  21  22
ENDBRANCH  20  21
ENDBRANCH  19  20
ENDBRANCH  18  19
ENDBRANCH   1  18
TORSDOF 28
ENDMDL
MODEL 6
REMARK VINA RESULT:    -4.124      1.235      4.605
REMARK INTER + INTRA:         -16.472
REMARK INTER:                 -11.038
REMARK INTRA:                  -5.434
REMARK UNBOUND:                -5.599
REMARK SMILES CCCCCCCCCCCCCCCCCCCCCCCCCCCCCC(=O)[O-]
REMARK SMILES IDX 16 1 17 2 18 3 19 4 20 5 21 6 22 7 23 8 24 9 25 10 26 11
REMARK SMILES IDX 27 12 28 13 29 14 30 15 31 16 32 17 15 18 14 19 13 20 12 21
REMARK SMILES IDX 11 22 10 23 9 24 8 25 7 26 6 27 5 28 4 29 3 30 2 31 1 32
REMARK H PARENT
REMARK Flexibility Score: inf
ROOT
ATOM      1  C   UNL     1      11.215 -18.559  36.610  1.00  0.00     0.000 C 
ENDROOT
BRANCH   1   2
ATOM      2  C   UNL     1      12.510 -19.314  36.272  1.00  0.00     0.000 C 
BRANCH   2   3
ATOM      3  C   UNL     1      12.488 -20.730  36.860  1.00  0.00     0.000 C 
BRANCH   3   4
ATOM      4  C   UNL     1      11.104 -21.376  36.699  1.00  0.00     0.000 C 
BRANCH   4   5
ATOM      5  C   UNL     1      10.712 -22.253  37.901  1.00  0.00     0.000 C 
BRANCH   5   6
ATOM      6  C   UNL     1      10.841 -21.568  39.275  1.00  0.00     0.000 C 
BRANCH   6   7
ATOM      7  C   UNL     1      11.856 -22.218  40.237  1.00  0.00     0.000 C 
BRANCH   7   8
ATOM      8  C   UNL     1      13.062 -21.334  40.601  1.00  0.00     0.000 C 
BRANCH   8   9
ATOM      9  C   UNL     1      14.357 -21.775  39.903  1.00  0.00     0.000 C 
BRANCH   9  10
ATOM     10  C   UNL     1      14.193 -23.158  39.260  1.00  0.00     0.000 C 
BRANCH  10  11
ATOM     11  C   UNL     1      14.931 -23.232  37.915  1.00  0.00     0.000 C 
BRANCH  11  12
ATOM     12  C   UNL     1      14.389 -24.360  37.010  1.00  0.00     0.000 C 
BRANCH  12  13
ATOM     13  C   UNL     1      15.255 -25.634  37.028  1.00  0.00     0.006 C 
BRANCH  13  14
ATOM     14  C   UNL     1      16.756 -25.366  37.214  1.00  0.00     0.053 C 
BRANCH  14  15
ATOM     15  C   UNL     1      17.253 -25.863  38.538  1.00  0.00     0.041 C 
ATOM     16  O   UNL     1      17.886 -25.092  39.307  1.00  0.00    -0.550 OA
ATOM     17  O   UNL     1      17.008 -27.173  38.930  1.00  0.00    -0.550 OA
ENDBRANCH  14  15
ENDBRANCH  13  14
ENDBRANCH  12  13
ENDBRANCH  11  12
ENDBRANCH  10  11
ENDBRANCH   9  10
ENDBRANCH   8   9
ENDBRANCH   7   8
ENDBRANCH   6   7
ENDBRANCH   5   6
ENDBRANCH   4   5
ENDBRANCH   3   4
ENDBRANCH   2   3
ENDBRANCH   1   2
BRANCH   1  18
ATOM     18  C   UNL     1      11.407 -17.035  36.645  1.00  0.00     0.000 C 
BRANCH  18  19
ATOM     19  C   UNL     1      11.547 -16.492  38.078  1.00  0.00     0.000 C 
BRANCH  19  20
ATOM     20  C   UNL     1      11.181 -17.532  39.152  1.00  0.00     0.000 C 
BRANCH  20  21
ATOM     21  C   UNL     1      12.343 -17.974  40.065  1.00  0.00     0.000 C 
BRANCH  21  22
ATOM     22  C   UNL     1      13.704 -17.330  39.746  1.00  0.00     0.000 C 
BRANCH  22  23
ATOM     23  C   UNL     1      14.690 -18.312  39.091  1.00  0.00     0.000 C 
BRANCH  23  24
ATOM     24  C   UNL     1      15.818 -17.598  38.334  1.00  0.00    -0.000 C 
BRANCH  24  25
ATOM     25  C   UNL     1      15.367 -17.078  36.957  1.00  0.00    -0.000 C 
BRANCH  25  26
ATOM     26  C   UNL     1      16.545 -16.850  35.997  1.00  0.00    -0.000 C 
BRANCH  26  27
ATOM     27  C   UNL     1      16.569 -15.423  35.420  1.00  0.00    -0.000 C 
BRANCH  27  28
ATOM     28  C   UNL     1      17.434 -14.462  36.252  1.00  0.00    -0.000 C 
BRANCH  28  29
ATOM     29  C   UNL     1      16.595 -13.487  37.094  1.00  0.00    -0.000 C 
BRANCH  29  30
ATOM     30  C   UNL     1      16.601 -13.897  38.574  1.00  0.00    -0.000 C 
BRANCH  30  31
ATOM     31  C   UNL     1      15.185 -14.021  39.157  1.00  0.00    -0.003 C 
ATOM     32  C   UNL     1      14.093 -13.743  38.124  1.00  0.00     0.004 C 
ENDBRANCH  30  31
ENDBRANCH  29  30
ENDBRANCH  28  29
ENDBRANCH  27  28
ENDBRANCH  26  27
ENDBRANCH  25  26
ENDBRANCH  24  25
ENDBRANCH  23  24
ENDBRANCH  22  23
ENDBRANCH  21  22
ENDBRANCH  20  21
ENDBRANCH  19  20
ENDBRANCH  18  19
ENDBRANCH   1  18
TORSDOF 28
ENDMDL
MODEL 7
REMARK VINA RESULT:    -4.108      3.201      7.745
REMARK INTER + INTRA:         -16.432
REMARK INTER:                 -10.990
REMARK INTRA:                  -5.441
REMARK UNBOUND:                -5.599
REMARK SMILES CCCCCCCCCCCCCCCCCCCCCCCCCCCCCC(=O)[O-]
REMARK SMILES IDX 16 1 17 2 18 3 19 4 20 5 21 6 22 7 23 8 24 9 25 10 26 11
REMARK SMILES IDX 27 12 28 13 29 14 30 15 31 16 32 17 15 18 14 19 13 20 12 21
REMARK SMILES IDX 11 22 10 23 9 24 8 25 7 26 6 27 5 28 4 29 3 30 2 31 1 32
REMARK H PARENT
REMARK Flexibility Score: inf
ROOT
ATOM      1  C   UNL     1      15.656 -17.248  36.282  1.00  0.00     0.000 C 
ENDROOT
BRANCH   1   2
ATOM      2  C   UNL     1      16.457 -17.158  37.590  1.00  0.00     0.000 C 
BRANCH   2   3
ATOM      3  C   UNL     1      15.891 -18.115  38.646  1.00  0.00     0.000 C 
BRANCH   3   4
ATOM      4  C   UNL     1      14.992 -17.369  39.644  1.00  0.00     0.000 C 
BRANCH   4   5
ATOM      5  C   UNL     1      13.726 -18.162  40.013  1.00  0.00     0.000 C 
BRANCH   5   6
ATOM      6  C   UNL     1      12.416 -17.350  39.972  1.00  0.00     0.000 C 
BRANCH   6   7
ATOM      7  C   UNL     1      12.596 -15.819  39.957  1.00  0.00     0.000 C 
BRANCH   7   8
ATOM      8  C   UNL     1      11.398 -15.030  39.400  1.00  0.00     0.000 C 
BRANCH   8   9
ATOM      9  C   UNL     1      11.731 -14.276  38.104  1.00  0.00     0.000 C 
BRANCH   9  10
ATOM     10  C   UNL     1      12.446 -12.953  38.403  1.00  0.00     0.000 C 
BRANCH  10  11
ATOM     11  C   UNL     1      13.856 -12.939  37.798  1.00  0.00     0.000 C 
BRANCH  11  12
ATOM     12  C   UNL     1      14.938 -13.349  38.821  1.00  0.00     0.000 C 
BRANCH  12  13
ATOM     13  C   UNL     1      16.296 -13.690  38.178  1.00  0.00     0.006 C 
BRANCH  13  14
ATOM     14  C   UNL     1      16.405 -13.293  36.699  1.00  0.00     0.053 C 
BRANCH  14  15
ATOM     15  C   UNL     1      17.538 -13.994  36.012  1.00  0.00     0.041 C 
ATOM     16  O   UNL     1      17.406 -14.401  34.827  1.00  0.00    -0.550 OA
ATOM     17  O   UNL     1      18.743 -14.189  36.675  1.00  0.00    -0.550 OA
ENDBRANCH  14  15
ENDBRANCH  13  14
ENDBRANCH  12  13
ENDBRANCH  11  12
ENDBRANCH  10  11
ENDBRANCH   9  10
ENDBRANCH   8   9
ENDBRANCH   7   8
ENDBRANCH   6   7
ENDBRANCH   5   6
ENDBRANCH   4   5
ENDBRANCH   3   4
ENDBRANCH   2   3
ENDBRANCH   1   2
BRANCH   1  18
ATOM     18  C   UNL     1      14.416 -16.341  36.280  1.00  0.00     0.000 C 
BRANCH  18  19
ATOM     19  C   UNL     1      13.111 -17.127  36.499  1.00  0.00     0.000 C 
BRANCH  19  20
ATOM     20  C   UNL     1      13.172 -18.559  35.938  1.00  0.00     0.000 C 
BRANCH  20  21
ATOM     21  C   UNL     1      12.634 -19.658  36.877  1.00  0.00     0.000 C 
BRANCH  21  22
ATOM     22  C   UNL     1      11.185 -20.098  36.603  1.00  0.00     0.000 C 
BRANCH  22  23
ATOM     23  C   UNL     1      10.718 -21.228  37.535  1.00  0.00     0.000 C 
BRANCH  23  24
ATOM     24  C   UNL     1      10.158 -20.703  38.865  1.00  0.00    -0.000 C 
BRANCH  24  25
ATOM     25  C   UNL     1      11.099 -20.979  40.051  1.00  0.00    -0.000 C 
BRANCH  25  26
ATOM     26  C   UNL     1      12.151 -22.053  39.731  1.00  0.00    -0.000 C 
BRANCH  26  27
ATOM     27  C   UNL     1      13.545 -21.695  40.279  1.00  0.00    -0.000 C 
BRANCH  27  28
ATOM     28  C   UNL     1      14.617 -21.642  39.179  1.00  0.00    -0.000 C 
BRANCH  28  29
ATOM     29  C   UNL     1      14.538 -22.839  38.217  1.00  0.00    -0.000 C 
BRANCH  29  30
ATOM     30  C   UNL     1      15.282 -24.053  38.791  1.00  0.00    -0.000 C 
BRANCH  30  31
ATOM     31  C   UNL     1      16.237 -24.697  37.773  1.00  0.00    -0.003 C 
ATOM     32  C   UNL     1      15.579 -25.823  36.975  1.00  0.00     0.004 C 
ENDBRANCH  30  31
ENDBRANCH  29  30
ENDBRANCH  28  29
ENDBRANCH  27  28
ENDBRANCH  26  27
ENDBRANCH  25  26
ENDBRANCH  24  25
ENDBRANCH  23  24
ENDBRANCH  22  23
ENDBRANCH  21  22
ENDBRANCH  20  21
ENDBRANCH  19  20
ENDBRANCH  18  19
ENDBRANCH   1  18
TORSDOF 28
ENDMDL
MODEL 8
REMARK VINA RESULT:    -4.105      1.121      4.102
REMARK INTER + INTRA:         -16.424
REMARK INTER:                 -11.633
REMARK INTRA:                  -4.791
REMARK UNBOUND:                -5.599
REMARK SMILES CCCCCCCCCCCCCCCCCCCCCCCCCCCCCC(=O)[O-]
REMARK SMILES IDX 16 1 17 2 18 3 19 4 20 5 21 6 22 7 23 8 24 9 25 10 26 11
REMARK SMILES IDX 27 12 28 13 29 14 30 15 31 16 32 17 15 18 14 19 13 20 12 21
REMARK SMILES IDX 11 22 10 23 9 24 8 25 7 26 6 27 5 28 4 29 3 30 2 31 1 32
REMARK H PARENT
REMARK Flexibility Score: inf
ROOT
ATOM      1  C   UNL     1      14.508 -16.890  37.096  1.00  0.00     0.000 C 
ENDROOT
BRANCH   1   2
ATOM      2  C   UNL     1      15.649 -17.633  37.805  1.00  0.00     0.000 C 
BRANCH   2   3
ATOM      3  C   UNL     1      15.262 -17.984  39.247  1.00  0.00     0.000 C 
BRANCH   3   4
ATOM      4  C   UNL     1      15.134 -19.503  39.432  1.00  0.00     0.000 C 
BRANCH   4   5
ATOM      5  C   UNL     1      13.980 -19.894  40.372  1.00  0.00     0.000 C 
BRANCH   5   6
ATOM      6  C   UNL     1      12.719 -20.430  39.665  1.00  0.00     0.000 C 
BRANCH   6   7
ATOM      7  C   UNL     1      12.933 -20.892  38.209  1.00  0.00     0.000 C 
BRANCH   7   8
ATOM      8  C   UNL     1      12.280 -22.240  37.854  1.00  0.00     0.000 C 
BRANCH   8   9
ATOM      9  C   UNL     1      13.104 -23.445  38.329  1.00  0.00     0.000 C 
BRANCH   9  10
ATOM     10  C   UNL     1      14.605 -23.202  38.126  1.00  0.00     0.000 C 
BRANCH  10  11
ATOM     11  C   UNL     1      15.430 -23.906  39.213  1.00  0.00     0.000 C 
BRANCH  11  12
ATOM     12  C   UNL     1      15.132 -25.420  39.287  1.00  0.00     0.000 C 
BRANCH  12  13
ATOM     13  C   UNL     1      16.374 -26.277  39.597  1.00  0.00     0.006 C 
BRANCH  13  14
ATOM     14  C   UNL     1      17.047 -26.875  38.353  1.00  0.00     0.053 C 
BRANCH  14  15
ATOM     15  C   UNL     1      17.961 -25.893  37.684  1.00  0.00     0.041 C 
ATOM     16  O   UNL     1      17.917 -25.735  36.435  1.00  0.00    -0.550 OA
ATOM     17  O   UNL     1      18.854 -25.143  38.439  1.00  0.00    -0.550 OA
ENDBRANCH  14  15
ENDBRANCH  13  14
ENDBRANCH  12  13
ENDBRANCH  11  12
ENDBRANCH  10  11
ENDBRANCH   9  10
ENDBRANCH   8   9
ENDBRANCH   7   8
ENDBRANCH   6   7
ENDBRANCH   5   6
ENDBRANCH   4   5
ENDBRANCH   3   4
ENDBRANCH   2   3
ENDBRANCH   1   2
BRANCH   1  18
ATOM     18  C   UNL     1      13.404 -17.834  36.594  1.00  0.00     0.000 C 
BRANCH  18  19
ATOM     19  C   UNL     1      12.011 -17.182  36.626  1.00  0.00     0.000 C 
BRANCH  19  20
ATOM     20  C   UNL     1      11.089 -17.790  37.698  1.00  0.00     0.000 C 
BRANCH  20  21
ATOM     21  C   UNL     1      10.814 -16.889  38.920  1.00  0.00     0.000 C 
BRANCH  21  22
ATOM     22  C   UNL     1      11.974 -16.787  39.928  1.00  0.00     0.000 C 
BRANCH  22  23
ATOM     23  C   UNL     1      12.588 -15.378  39.988  1.00  0.00     0.000 C 
BRANCH  23  24
ATOM     24  C   UNL     1      11.882 -14.387  39.050  1.00  0.00    -0.000 C 
BRANCH  24  25
ATOM     25  C   UNL     1      12.830 -13.807  37.984  1.00  0.00    -0.000 C 
BRANCH  25  26
ATOM     26  C   UNL     1      13.517 -12.513  38.447  1.00  0.00    -0.000 C 
BRANCH  26  27
ATOM     27  C   UNL     1      15.026 -12.700  38.688  1.00  0.00    -0.000 C 
BRANCH  27  28
ATOM     28  C   UNL     1      15.681 -13.622  37.648  1.00  0.00    -0.000 C 
BRANCH  28  29
ATOM     29  C   UNL     1      17.015 -14.212  38.135  1.00  0.00    -0.000 C 
BRANCH  29  30
ATOM     30  C   UNL     1      17.854 -14.721  36.954  1.00  0.00    -0.000 C 
BRANCH  30  31
ATOM     31  C   UNL     1      17.355 -14.187  35.602  1.00  0.00    -0.003 C 
ATOM     32  C   UNL     1      18.458 -13.503  34.793  1.00  0.00     0.004 C 
ENDBRANCH  30  31
ENDBRANCH  29  30
ENDBRANCH  28  29
ENDBRANCH  27  28
ENDBRANCH  26  27
ENDBRANCH  25  26
ENDBRANCH  24  25
ENDBRANCH  23  24
ENDBRANCH  22  23
ENDBRANCH  21  22
ENDBRANCH  20  21
ENDBRANCH  19  20
ENDBRANCH  18  19
ENDBRANCH   1  18
TORSDOF 28
ENDMDL
MODEL 9
REMARK VINA RESULT:    -4.095      2.475      7.474
REMARK INTER + INTRA:         -16.398
REMARK INTER:                 -11.007
REMARK INTRA:                  -5.391
REMARK UNBOUND:                -5.599
REMARK SMILES CCCCCCCCCCCCCCCCCCCCCCCCCCCCCC(=O)[O-]
REMARK SMILES IDX 16 1 17 2 18 3 19 4 20 5 21 6 22 7 23 8 24 9 25 10 26 11
REMARK SMILES IDX 27 12 28 13 29 14 30 15 31 16 32 17 15 18 14 19 13 20 12 21
REMARK SMILES IDX 11 22 10 23 9 24 8 25 7 26 6 27 5 28 4 29 3 30 2 31 1 32
REMARK H PARENT
REMARK Flexibility Score: inf
ROOT
ATOM      1  C   UNL     1      16.920 -16.164  35.832  1.00  0.00     0.000 C 
ENDROOT
BRANCH   1   2
ATOM      2  C   UNL     1      17.383 -14.732  35.525  1.00  0.00     0.000 C 
BRANCH   2   3
ATOM      3  C   UNL     1      16.187 -13.775  35.442  1.00  0.00     0.000 C 
BRANCH   3   4
ATOM      4  C   UNL     1      16.254 -12.707  36.543  1.00  0.00     0.000 C 
BRANCH   4   5
ATOM      5  C   UNL     1      15.364 -13.042  37.753  1.00  0.00     0.000 C 
BRANCH   5   6
ATOM      6  C   UNL     1      16.056 -13.859  38.862  1.00  0.00     0.000 C 
BRANCH   6   7
ATOM      7  C   UNL     1      15.106 -14.673  39.763  1.00  0.00     0.000 C 
BRANCH   7   8
ATOM      8  C   UNL     1      13.663 -14.797  39.240  1.00  0.00     0.000 C 
BRANCH   8   9
ATOM      9  C   UNL     1      12.809 -15.765  40.072  1.00  0.00     0.000 C 
BRANCH   9  10
ATOM     10  C   UNL     1      11.612 -16.280  39.262  1.00  0.00     0.000 C 
BRANCH  10  11
ATOM     11  C   UNL     1      11.610 -15.688  37.845  1.00  0.00     0.000 C 
BRANCH  11  12
ATOM     12  C   UNL     1      11.333 -16.757  36.764  1.00  0.00     0.000 C 
BRANCH  12  13
ATOM     13  C   UNL     1      11.035 -18.154  37.341  1.00  0.00     0.006 C 
BRANCH  13  14
ATOM     14  C   UNL     1      11.713 -19.302  36.579  1.00  0.00     0.053 C 
BRANCH  14  15
ATOM     15  C   UNL     1      11.283 -20.644  37.091  1.00  0.00     0.041 C 
ATOM     16  O   UNL     1      10.832 -20.762  38.260  1.00  0.00    -0.550 OA
ATOM     17  O   UNL     1      11.369 -21.764  36.272  1.00  0.00    -0.550 OA
ENDBRANCH  14  15
ENDBRANCH  13  14
ENDBRANCH  12  13
ENDBRANCH  11  12
ENDBRANCH  10  11
ENDBRANCH   9  10
ENDBRANCH   8   9
ENDBRANCH   7   8
ENDBRANCH   6   7
ENDBRANCH   5   6
ENDBRANCH   4   5
ENDBRANCH   3   4
ENDBRANCH   2   3
ENDBRANCH   1   2
BRANCH   1  18
ATOM     18  C   UNL     1      15.391 -16.294  35.898  1.00  0.00     0.000 C 
BRANCH  18  19
ATOM     19  C   UNL     1      14.931 -17.303  36.965  1.00  0.00     0.000 C 
BRANCH  19  20
ATOM     20  C   UNL     1      16.015 -17.602  38.015  1.00  0.00     0.000 C 
BRANCH  20  21
ATOM     21  C   UNL     1      15.521 -18.318  39.289  1.00  0.00     0.000 C 
BRANCH  21  22
ATOM     22  C   UNL     1      14.189 -19.074  39.136  1.00  0.00     0.000 C 
BRANCH  22  23
ATOM     23  C   UNL     1      13.702 -19.696  40.455  1.00  0.00     0.000 C 
BRANCH  23  24
ATOM     24  C   UNL     1      13.593 -21.226  40.381  1.00  0.00    -0.000 C 
BRANCH  24  25
ATOM     25  C   UNL     1      14.526 -21.832  39.316  1.00  0.00    -0.000 C 
BRANCH  25  26
ATOM     26  C   UNL     1      13.850 -22.949  38.507  1.00  0.00    -0.000 C 
BRANCH  26  27
ATOM     27  C   UNL     1      12.748 -23.671  39.304  1.00  0.00    -0.000 C 
BRANCH  27  28
ATOM     28  C   UNL     1      13.252 -24.959  39.976  1.00  0.00    -0.000 C 
BRANCH  28  29
ATOM     29  C   UNL     1      14.052 -25.854  39.015  1.00  0.00    -0.000 C 
BRANCH  29  30
ATOM     30  C   UNL     1      15.128 -26.646  39.773  1.00  0.00    -0.000 C 
BRANCH  30  31
ATOM     31  C   UNL     1      16.544 -26.374  39.242  1.00  0.00    -0.003 C 
ATOM     32  C   UNL     1      17.026 -24.955  39.543  1.00  0.00     0.004 C 
ENDBRANCH  30  31
ENDBRANCH  29  30
ENDBRANCH  28  29
ENDBRANCH  27  28
ENDBRANCH  26  27
ENDBRANCH  25  26
ENDBRANCH  24  25
ENDBRANCH  23  24
ENDBRANCH  22  23
ENDBRANCH  21  22
ENDBRANCH  20  21
ENDBRANCH  19  20
ENDBRANCH  18  19
ENDBRANCH   1  18
TORSDOF 28
ENDMDL
