MODEL 1
REMARK VINA RESULT:    -4.330      0.000      0.000
REMARK INTER + INTRA:          -9.086
REMARK INTER:                  -8.126
REMARK INTRA:                  -0.960
REMARK UNBOUND:                -0.960
REMARK SMILES CCCCCCCCC=CCCCCCCCC(=O)[O-]
REMARK SMILES IDX 10 1 9 2 11 3 12 4 13 5 14 6 15 7 16 8 17 9 18 10 19 11
REMARK SMILES IDX 20 12 8 13 7 14 6 15 5 16 4 17 3 18 2 19 1 20
REMARK H PARENT
REMARK Flexibility Score: inf
ROOT
ATOM      1  C   UNL     1      60.554  25.237  51.023  1.00  0.00    -0.031 C 
ATOM      2  C   UNL     1      60.433  26.506  50.590  1.00  0.00    -0.031 C 
ENDROOT
BRANCH   1   3
ATOM      3  C   UNL     1      59.903  24.042  50.369  1.00  0.00     0.027 C 
BRANCH   3   4
ATOM      4  C   UNL     1      60.933  23.134  49.680  1.00  0.00     0.004 C 
BRANCH   4   5
ATOM      5  C   UNL     1      60.325  21.794  49.240  1.00  0.00     0.000 C 
BRANCH   5   6
ATOM      6  C   UNL     1      59.872  20.974  50.455  1.00  0.00     0.000 C 
BRANCH   6   7
ATOM      7  C   UNL     1      59.796  19.479  50.115  1.00  0.00     0.000 C 
BRANCH   7   8
ATOM      8  C   UNL     1      58.524  19.112  49.335  1.00  0.00     0.006 C 
BRANCH   8   9
ATOM      9  C   UNL     1      57.594  18.182  50.125  1.00  0.00     0.053 C 
BRANCH   9  10
ATOM     10  C   UNL     1      56.489  18.965  50.762  1.00  0.00     0.041 C 
ATOM     11  O   UNL     1      56.716  19.661  51.787  1.00  0.00    -0.550 OA
ATOM     12  O   UNL     1      55.216  18.953  50.207  1.00  0.00    -0.550 OA
ENDBRANCH   9  10
ENDBRANCH   8   9
ENDBRANCH   7   8
ENDBRANCH   6   7
ENDBRANCH   5   6
ENDBRANCH   4   5
ENDBRANCH   3   4
ENDBRANCH   1   3
BRANCH   2  13
ATOM     13  C   UNL     1      59.554  26.938  49.444  1.00  0.00     0.027 C 
BRANCH  13  14
ATOM     14  C   UNL     1      59.770  28.425  49.127  1.00  0.00     0.004 C 
BRANCH  14  15
ATOM     15  C   UNL     1      58.488  29.256  49.285  1.00  0.00     0.000 C 
BRANCH  15  16
ATOM     16  C   UNL     1      57.742  28.952  50.594  1.00  0.00     0.000 C 
BRANCH  16  17
ATOM     17  C   UNL     1      56.229  28.871  50.360  1.00  0.00    -0.000 C 
BRANCH  17  18
ATOM     18  C   UNL     1      55.773  27.411  50.213  1.00  0.00    -0.000 C 
BRANCH  18  19
ATOM     19  C   UNL     1      54.279  27.290  49.877  1.00  0.00    -0.003 C 
ATOM     20  C   UNL     1      53.942  25.994  49.140  1.00  0.00     0.004 C 
ENDBRANCH  18  19
ENDBRANCH  17  18
ENDBRANCH  16  17
ENDBRANCH  15  16
ENDBRANCH  14  15
ENDBRANCH  13  14
ENDBRANCH   2  13
TORSDOF 15
ENDMDL
MODEL 2
REMARK VINA RESULT:    -4.180      5.132      7.042
REMARK INTER + INTRA:          -8.805
REMARK INTER:                  -6.155
REMARK INTRA:                  -2.651
REMARK UNBOUND:                -0.960
REMARK SMILES CCCCCCCCC=CCCCCCCCC(=O)[O-]
REMARK SMILES IDX 10 1 9 2 11 3 12 4 13 5 14 6 15 7 16 8 17 9 18 10 19 11
REMARK SMILES IDX 20 12 8 13 7 14 6 15 5 16 4 17 3 18 2 19 1 20
REMARK H PARENT
REMARK Flexibility Score: inf
ROOT
ATOM      1  C   UNL     1      56.744  29.241  51.360  1.00  0.00    -0.031 C 
ATOM      2  C   UNL     1      55.449  29.540  51.575  1.00  0.00    -0.031 C 
ENDROOT
BRANCH   1   3
ATOM      3  C   UNL     1      57.344  28.952  50.006  1.00  0.00     0.027 C 
BRANCH   3   4
ATOM      4  C   UNL     1      58.855  29.231  49.979  1.00  0.00     0.004 C 
BRANCH   4   5
ATOM      5  C   UNL     1      59.620  28.202  49.132  1.00  0.00     0.000 C 
BRANCH   5   6
ATOM      6  C   UNL     1      59.093  26.784  49.385  1.00  0.00     0.000 C 
BRANCH   6   7
ATOM      7  C   UNL     1      60.242  25.814  49.691  1.00  0.00     0.000 C 
BRANCH   7   8
ATOM      8  C   UNL     1      61.288  26.416  50.642  1.00  0.00     0.006 C 
BRANCH   8   9
ATOM      9  C   UNL     1      62.721  26.280  50.107  1.00  0.00     0.053 C 
BRANCH   9  10
ATOM     10  C   UNL     1      63.214  27.596  49.591  1.00  0.00     0.041 C 
ATOM     11  O   UNL     1      63.535  28.510  50.396  1.00  0.00    -0.550 OA
ATOM     12  O   UNL     1      63.351  27.802  48.225  1.00  0.00    -0.550 OA
ENDBRANCH   9  10
ENDBRANCH   8   9
ENDBRANCH   7   8
ENDBRANCH   6   7
ENDBRANCH   5   6
ENDBRANCH   4   5
ENDBRANCH   3   4
ENDBRANCH   1   3
BRANCH   2  13
ATOM     13  C   UNL     1      54.383  29.540  50.508  1.00  0.00     0.027 C 
BRANCH  13  14
ATOM     14  C   UNL     1      53.527  28.268  50.598  1.00  0.00     0.004 C 
BRANCH  14  15
ATOM     15  C   UNL     1      53.953  27.195  49.584  1.00  0.00     0.000 C 
BRANCH  15  16
ATOM     16  C   UNL     1      54.883  26.136  50.197  1.00  0.00     0.000 C 
BRANCH  16  17
ATOM     17  C   UNL     1      54.420  25.746  51.606  1.00  0.00    -0.000 C 
BRANCH  17  18
ATOM     18  C   UNL     1      55.569  25.872  52.617  1.00  0.00    -0.000 C 
BRANCH  18  19
ATOM     19  C   UNL     1      56.945  25.617  51.982  1.00  0.00    -0.003 C 
ATOM     20  C   UNL     1      58.101  26.070  52.872  1.00  0.00     0.004 C 
ENDBRANCH  18  19
ENDBRANCH  17  18
ENDBRANCH  16  17
ENDBRANCH  15  16
ENDBRANCH  14  15
ENDBRANCH  13  14
ENDBRANCH   2  13
TORSDOF 15
ENDMDL
MODEL 3
REMARK VINA RESULT:    -4.178      5.392      8.204
REMARK INTER + INTRA:          -8.801
REMARK INTER:                  -6.207
REMARK INTRA:                  -2.594
REMARK UNBOUND:                -0.960
REMARK SMILES CCCCCCCCC=CCCCCCCCC(=O)[O-]
REMARK SMILES IDX 10 1 9 2 11 3 12 4 13 5 14 6 15 7 16 8 17 9 18 10 19 11
REMARK SMILES IDX 20 12 8 13 7 14 6 15 5 16 4 17 3 18 2 19 1 20
REMARK H PARENT
REMARK Flexibility Score: inf
ROOT
ATOM      1  C   UNL     1      57.617  26.424  52.208  1.00  0.00    -0.031 C 
ATOM      2  C   UNL     1      58.904  26.061  52.056  1.00  0.00    -0.031 C 
ENDROOT
BRANCH   1   3
ATOM      3  C   UNL     1      56.458  25.811  51.458  1.00  0.00     0.027 C 
BRANCH   3   4
ATOM      4  C   UNL     1      56.237  26.487  50.096  1.00  0.00     0.004 C 
BRANCH   4   5
ATOM      5  C   UNL     1      54.825  27.076  49.963  1.00  0.00     0.000 C 
BRANCH   5   6
ATOM      6  C   UNL     1      54.830  28.581  50.257  1.00  0.00     0.000 C 
BRANCH   6   7
ATOM      7  C   UNL     1      53.422  29.177  50.111  1.00  0.00     0.000 C 
BRANCH   7   8
ATOM      8  C   UNL     1      53.219  30.434  50.971  1.00  0.00     0.006 C 
BRANCH   8   9
ATOM      9  C   UNL     1      54.198  30.508  52.151  1.00  0.00     0.053 C 
BRANCH   9  10
ATOM     10  C   UNL     1      54.203  31.883  52.743  1.00  0.00     0.041 C 
ATOM     11  O   UNL     1      53.116  32.475  52.977  1.00  0.00    -0.550 OA
ATOM     12  O   UNL     1      55.405  32.498  53.066  1.00  0.00    -0.550 OA
ENDBRANCH   9  10
ENDBRANCH   8   9
ENDBRANCH   7   8
ENDBRANCH   6   7
ENDBRANCH   5   6
ENDBRANCH   4   5
ENDBRANCH   3   4
ENDBRANCH   1   3
BRANCH   2  13
ATOM     13  C   UNL     1      59.395  25.052  51.049  1.00  0.00     0.027 C 
BRANCH  13  14
ATOM     14  C   UNL     1      59.827  25.749  49.750  1.00  0.00     0.004 C 
BRANCH  14  15
ATOM     15  C   UNL     1      61.018  26.697  49.956  1.00  0.00     0.000 C 
BRANCH  15  16
ATOM     16  C   UNL     1      60.717  28.134  49.499  1.00  0.00     0.000 C 
BRANCH  16  17
ATOM     17  C   UNL     1      59.290  28.250  48.951  1.00  0.00    -0.000 C 
BRANCH  17  18
ATOM     18  C   UNL     1      58.546  29.426  49.601  1.00  0.00    -0.000 C 
BRANCH  18  19
ATOM     19  C   UNL     1      59.001  29.687  51.045  1.00  0.00    -0.003 C 
ATOM     20  C   UNL     1      57.845  30.061  51.972  1.00  0.00     0.004 C 
ENDBRANCH  18  19
ENDBRANCH  17  18
ENDBRANCH  16  17
ENDBRANCH  15  16
ENDBRANCH  14  15
ENDBRANCH  13  14
ENDBRANCH   2  13
TORSDOF 15
ENDMDL
MODEL 4
REMARK VINA RESULT:    -4.175     13.563     14.806
REMARK INTER + INTRA:          -8.797
REMARK INTER:                  -6.407
REMARK INTRA:                  -2.390
REMARK UNBOUND:                -0.960
REMARK SMILES CCCCCCCCC=CCCCCCCCC(=O)[O-]
REMARK SMILES IDX 10 1 9 2 11 3 12 4 13 5 14 6 15 7 16 8 17 9 18 10 19 11
REMARK SMILES IDX 20 12 8 13 7 14 6 15 5 16 4 17 3 18 2 19 1 20
REMARK H PARENT
REMARK Flexibility Score: inf
ROOT
ATOM      1  C   UNL     1      61.858  32.632  59.677  1.00  0.00    -0.031 C 
ATOM      2  C   UNL     1      63.142  32.998  59.510  1.00  0.00    -0.031 C 
ENDROOT
BRANCH   1   3
ATOM      3  C   UNL     1      61.121  32.666  60.994  1.00  0.00     0.027 C 
BRANCH   3   4
ATOM      4  C   UNL     1      60.706  31.259  61.454  1.00  0.00     0.004 C 
BRANCH   4   5
ATOM      5  C   UNL     1      61.906  30.430  61.938  1.00  0.00     0.000 C 
BRANCH   5   6
ATOM      6  C   UNL     1      62.016  29.117  61.153  1.00  0.00     0.000 C 
BRANCH   6   7
ATOM      7  C   UNL     1      63.469  28.627  61.097  1.00  0.00     0.000 C 
BRANCH   7   8
ATOM      8  C   UNL     1      64.486  29.771  61.234  1.00  0.00     0.006 C 
BRANCH   8   9
ATOM      9  C   UNL     1      65.403  29.896  60.009  1.00  0.00     0.053 C 
BRANCH   9  10
ATOM     10  C   UNL     1      66.816  29.565  60.377  1.00  0.00     0.041 C 
ATOM     11  O   UNL     1      67.762  29.904  59.618  1.00  0.00    -0.550 OA
ATOM     12  O   UNL     1      67.091  28.912  61.571  1.00  0.00    -0.550 OA
ENDBRANCH   9  10
ENDBRANCH   8   9
ENDBRANCH   7   8
ENDBRANCH   6   7
ENDBRANCH   5   6
ENDBRANCH   4   5
ENDBRANCH   3   4
ENDBRANCH   1   3
BRANCH   2  13
ATOM     13  C   UNL     1      64.066  33.411  60.627  1.00  0.00     0.027 C 
BRANCH  13  14
ATOM     14  C   UNL     1      64.319  34.926  60.590  1.00  0.00     0.004 C 
BRANCH  14  15
ATOM     15  C   UNL     1      63.418  35.700  61.563  1.00  0.00     0.000 C 
BRANCH  15  16
ATOM     16  C   UNL     1      62.573  36.775  60.862  1.00  0.00     0.000 C 
BRANCH  16  17
ATOM     17  C   UNL     1      61.144  36.278  60.616  1.00  0.00    -0.000 C 
BRANCH  17  18
ATOM     18  C   UNL     1      60.699  36.576  59.176  1.00  0.00    -0.000 C 
BRANCH  18  19
ATOM     19  C   UNL     1      59.840  35.452  58.578  1.00  0.00    -0.003 C 
ATOM     20  C   UNL     1      58.503  35.955  58.033  1.00  0.00     0.004 C 
ENDBRANCH  18  19
ENDBRANCH  17  18
ENDBRANCH  16  17
ENDBRANCH  15  16
ENDBRANCH  14  15
ENDBRANCH  13  14
ENDBRANCH   2  13
TORSDOF 15
ENDMDL
MODEL 5
REMARK VINA RESULT:    -4.145      4.762      6.638
REMARK INTER + INTRA:          -8.739
REMARK INTER:                  -6.064
REMARK INTRA:                  -2.675
REMARK UNBOUND:                -0.960
REMARK SMILES CCCCCCCCC=CCCCCCCCC(=O)[O-]
REMARK SMILES IDX 10 1 9 2 11 3 12 4 13 5 14 6 15 7 16 8 17 9 18 10 19 11
REMARK SMILES IDX 20 12 8 13 7 14 6 15 5 16 4 17 3 18 2 19 1 20
REMARK H PARENT
REMARK Flexibility Score: inf
ROOT
ATOM      1  C   UNL     1      59.000  28.139  53.055  1.00  0.00    -0.031 C 
ATOM      2  C   UNL     1      58.980  26.801  52.912  1.00  0.00    -0.031 C 
ENDROOT
BRANCH   1   3
ATOM      3  C   UNL     1      57.788  29.032  52.947  1.00  0.00     0.027 C 
BRANCH   3   4
ATOM      4  C   UNL     1      57.698  29.710  51.571  1.00  0.00     0.004 C 
BRANCH   4   5
ATOM      5  C   UNL     1      59.047  29.712  50.836  1.00  0.00     0.000 C 
BRANCH   5   6
ATOM      6  C   UNL     1      58.862  29.377  49.350  1.00  0.00     0.000 C 
BRANCH   6   7
ATOM      7  C   UNL     1      59.595  28.079  48.981  1.00  0.00     0.000 C 
BRANCH   7   8
ATOM      8  C   UNL     1      60.893  27.884  49.779  1.00  0.00     0.006 C 
BRANCH   8   9
ATOM      9  C   UNL     1      61.274  26.406  49.937  1.00  0.00     0.053 C 
BRANCH   9  10
ATOM     10  C   UNL     1      62.662  26.277  50.479  1.00  0.00     0.041 C 
ATOM     11  O   UNL     1      63.646  26.222  49.694  1.00  0.00    -0.550 OA
ATOM     12  O   UNL     1      62.875  26.251  51.851  1.00  0.00    -0.550 OA
ENDBRANCH   9  10
ENDBRANCH   8   9
ENDBRANCH   7   8
ENDBRANCH   6   7
ENDBRANCH   5   6
ENDBRANCH   4   5
ENDBRANCH   3   4
ENDBRANCH   1   3
BRANCH   2  13
ATOM     13  C   UNL     1      57.760  26.000  52.531  1.00  0.00     0.027 C 
BRANCH  13  14
ATOM     14  C   UNL     1      57.925  25.396  51.129  1.00  0.00     0.004 C 
BRANCH  14  15
ATOM     15  C   UNL     1      57.132  26.160  50.058  1.00  0.00     0.000 C 
BRANCH  15  16
ATOM     16  C   UNL     1      55.642  26.297  50.409  1.00  0.00     0.000 C 
BRANCH  16  17
ATOM     17  C   UNL     1      55.087  27.645  49.935  1.00  0.00    -0.000 C 
BRANCH  17  18
ATOM     18  C   UNL     1      53.559  27.587  49.783  1.00  0.00    -0.000 C 
BRANCH  18  19
ATOM     19  C   UNL     1      52.876  28.902  50.188  1.00  0.00    -0.003 C 
ATOM     20  C   UNL     1      53.875  30.006  50.534  1.00  0.00     0.004 C 
ENDBRANCH  18  19
ENDBRANCH  17  18
ENDBRANCH  16  17
ENDBRANCH  15  16
ENDBRANCH  14  15
ENDBRANCH  13  14
ENDBRANCH   2  13
TORSDOF 15
ENDMDL
MODEL 6
REMARK VINA RESULT:    -4.127     11.675     13.712
REMARK INTER + INTRA:          -8.707
REMARK INTER:                  -6.356
REMARK INTRA:                  -2.351
REMARK UNBOUND:                -0.960
REMARK SMILES CCCCCCCCC=CCCCCCCCC(=O)[O-]
REMARK SMILES IDX 10 1 9 2 11 3 12 4 13 5 14 6 15 7 16 8 17 9 18 10 19 11
REMARK SMILES IDX 20 12 8 13 7 14 6 15 5 16 4 17 3 18 2 19 1 20
REMARK H PARENT
REMARK Flexibility Score: inf
ROOT
ATOM      1  C   UNL     1      61.873  30.689  61.942  1.00  0.00    -0.031 C 
ATOM      2  C   UNL     1      60.912  31.460  61.400  1.00  0.00    -0.031 C 
ENDROOT
BRANCH   1   3
ATOM      3  C   UNL     1      63.136  30.267  61.232  1.00  0.00     0.027 C 
BRANCH   3   4
ATOM      4  C   UNL     1      63.166  28.753  60.969  1.00  0.00     0.004 C 
BRANCH   4   5
ATOM      5  C   UNL     1      62.322  28.359  59.748  1.00  0.00     0.000 C 
BRANCH   5   6
ATOM      6  C   UNL     1      61.085  27.557  60.172  1.00  0.00     0.000 C 
BRANCH   6   7
ATOM      7  C   UNL     1      59.873  27.907  59.297  1.00  0.00     0.000 C 
BRANCH   7   8
ATOM      8  C   UNL     1      58.855  28.799  60.024  1.00  0.00     0.006 C 
BRANCH   8   9
ATOM      9  C   UNL     1      58.363  28.181  61.341  1.00  0.00     0.053 C 
BRANCH   9  10
ATOM     10  C   UNL     1      56.868  28.122  61.365  1.00  0.00     0.041 C 
ATOM     11  O   UNL     1      56.243  27.549  60.434  1.00  0.00    -0.550 OA
ATOM     12  O   UNL     1      56.165  28.669  62.430  1.00  0.00    -0.550 OA
ENDBRANCH   9  10
ENDBRANCH   8   9
ENDBRANCH   7   8
ENDBRANCH   6   7
ENDBRANCH   5   6
ENDBRANCH   4   5
ENDBRANCH   3   4
ENDBRANCH   1   3
BRANCH   2  13
ATOM     13  C   UNL     1      60.908  31.943  59.971  1.00  0.00     0.027 C 
BRANCH  13  14
ATOM     14  C   UNL     1      61.464  33.372  59.881  1.00  0.00     0.004 C 
BRANCH  14  15
ATOM     15  C   UNL     1      62.745  33.455  59.038  1.00  0.00     0.000 C 
BRANCH  15  16
ATOM     16  C   UNL     1      64.002  33.690  59.891  1.00  0.00     0.000 C 
BRANCH  16  17
ATOM     17  C   UNL     1      63.633  34.241  61.273  1.00  0.00    -0.000 C 
BRANCH  17  18
ATOM     18  C   UNL     1      64.462  35.492  61.604  1.00  0.00    -0.000 C 
BRANCH  18  19
ATOM     19  C   UNL     1      63.746  36.794  61.215  1.00  0.00    -0.003 C 
ATOM     20  C   UNL     1      62.224  36.677  61.288  1.00  0.00     0.004 C 
ENDBRANCH  18  19
ENDBRANCH  17  18
ENDBRANCH  16  17
ENDBRANCH  15  16
ENDBRANCH  14  15
ENDBRANCH  13  14
ENDBRANCH   2  13
TORSDOF 15
ENDMDL
MODEL 7
REMARK VINA RESULT:    -4.097      5.677      9.011
REMARK INTER + INTRA:          -8.650
REMARK INTER:                  -6.288
REMARK INTRA:                  -2.362
REMARK UNBOUND:                -0.960
REMARK SMILES CCCCCCCCC=CCCCCCCCC(=O)[O-]
REMARK SMILES IDX 10 1 9 2 11 3 12 4 13 5 14 6 15 7 16 8 17 9 18 10 19 11
REMARK SMILES IDX 20 12 8 13 7 14 6 15 5 16 4 17 3 18 2 19 1 20
REMARK H PARENT
REMARK Flexibility Score: inf
ROOT
ATOM      1  C   UNL     1      58.574  29.597  50.587  1.00  0.00    -0.031 C 
ATOM      2  C   UNL     1      57.360  29.444  51.149  1.00  0.00    -0.031 C 
ENDROOT
BRANCH   1   3
ATOM      3  C   UNL     1      58.904  29.262  49.153  1.00  0.00     0.027 C 
BRANCH   3   4
ATOM      4  C   UNL     1      60.012  28.200  49.054  1.00  0.00     0.004 C 
BRANCH   4   5
ATOM      5  C   UNL     1      60.842  28.106  50.343  1.00  0.00     0.000 C 
BRANCH   5   6
ATOM      6  C   UNL     1      62.334  28.309  50.049  1.00  0.00     0.000 C 
BRANCH   6   7
ATOM      7  C   UNL     1      62.816  29.675  50.557  1.00  0.00     0.000 C 
BRANCH   7   8
ATOM      8  C   UNL     1      63.008  30.695  49.424  1.00  0.00     0.006 C 
BRANCH   8   9
ATOM      9  C   UNL     1      62.053  31.891  49.537  1.00  0.00     0.053 C 
BRANCH   9  10
ATOM     10  C   UNL     1      62.642  33.097  48.876  1.00  0.00     0.041 C 
ATOM     11  O   UNL     1      63.892  33.240  48.819  1.00  0.00    -0.550 OA
ATOM     12  O   UNL     1      61.814  34.048  48.294  1.00  0.00    -0.550 OA
ENDBRANCH   9  10
ENDBRANCH   8   9
ENDBRANCH   7   8
ENDBRANCH   6   7
ENDBRANCH   5   6
ENDBRANCH   4   5
ENDBRANCH   3   4
ENDBRANCH   1   3
BRANCH   2  13
ATOM     13  C   UNL     1      56.170  28.828  50.457  1.00  0.00     0.027 C 
BRANCH  13  14
ATOM     14  C   UNL     1      55.841  27.456  51.064  1.00  0.00     0.004 C 
BRANCH  14  15
ATOM     15  C   UNL     1      56.116  26.298  50.094  1.00  0.00     0.000 C 
BRANCH  15  16
ATOM     16  C   UNL     1      57.598  25.891  50.062  1.00  0.00     0.000 C 
BRANCH  16  17
ATOM     17  C   UNL     1      58.163  25.759  51.482  1.00  0.00    -0.000 C 
BRANCH  17  18
ATOM     18  C   UNL     1      59.216  24.644  51.553  1.00  0.00    -0.000 C 
BRANCH  18  19
ATOM     19  C   UNL     1      60.096  24.582  50.295  1.00  0.00    -0.003 C 
ATOM     20  C   UNL     1      60.340  23.152  49.814  1.00  0.00     0.004 C 
ENDBRANCH  18  19
ENDBRANCH  17  18
ENDBRANCH  16  17
ENDBRANCH  15  16
ENDBRANCH  14  15
ENDBRANCH  13  14
ENDBRANCH   2  13
TORSDOF 15
ENDMDL
MODEL 8
REMARK VINA RESULT:    -4.072     11.734     13.687
REMARK INTER + INTRA:          -8.603
REMARK INTER:                  -6.357
REMARK INTRA:                  -2.246
REMARK UNBOUND:                -0.960
REMARK SMILES CCCCCCCCC=CCCCCCCCC(=O)[O-]
REMARK SMILES IDX 10 1 9 2 11 3 12 4 13 5 14 6 15 7 16 8 17 9 18 10 19 11
REMARK SMILES IDX 20 12 8 13 7 14 6 15 5 16 4 17 3 18 2 19 1 20
REMARK H PARENT
REMARK Flexibility Score: inf
ROOT
ATOM      1  C   UNL     1      64.035  28.854  60.206  1.00  0.00    -0.031 C 
ATOM      2  C   UNL     1      63.994  29.547  61.359  1.00  0.00    -0.031 C 
ENDROOT
BRANCH   1   3
ATOM      3  C   UNL     1      63.541  29.372  58.876  1.00  0.00     0.027 C 
BRANCH   3   4
ATOM      4  C   UNL     1      62.420  28.492  58.301  1.00  0.00     0.004 C 
BRANCH   4   5
ATOM      5  C   UNL     1      61.106  28.641  59.082  1.00  0.00     0.000 C 
BRANCH   5   6
ATOM      6  C   UNL     1      60.698  27.310  59.726  1.00  0.00     0.000 C 
BRANCH   6   7
ATOM      7  C   UNL     1      60.362  27.496  61.213  1.00  0.00     0.000 C 
BRANCH   7   8
ATOM      8  C   UNL     1      61.525  27.101  62.137  1.00  0.00     0.006 C 
BRANCH   8   9
ATOM      9  C   UNL     1      61.864  25.606  62.054  1.00  0.00     0.053 C 
BRANCH   9  10
ATOM     10  C   UNL     1      61.551  24.925  63.349  1.00  0.00     0.041 C 
ATOM     11  O   UNL     1      60.511  25.231  63.990  1.00  0.00    -0.550 OA
ATOM     12  O   UNL     1      62.390  23.930  63.834  1.00  0.00    -0.550 OA
ENDBRANCH   9  10
ENDBRANCH   8   9
ENDBRANCH   7   8
ENDBRANCH   6   7
ENDBRANCH   5   6
ENDBRANCH   4   5
ENDBRANCH   3   4
ENDBRANCH   1   3
BRANCH   2  13
ATOM     13  C   UNL     1      63.365  30.908  61.517  1.00  0.00     0.027 C 
BRANCH  13  14
ATOM     14  C   UNL     1      61.878  30.779  61.881  1.00  0.00     0.004 C 
BRANCH  14  15
ATOM     15  C   UNL     1      61.005  31.832  61.182  1.00  0.00     0.000 C 
BRANCH  15  16
ATOM     16  C   UNL     1      61.782  32.651  60.140  1.00  0.00     0.000 C 
BRANCH  16  17
ATOM     17  C   UNL     1      61.876  34.124  60.556  1.00  0.00    -0.000 C 
BRANCH  17  18
ATOM     18  C   UNL     1      63.306  34.483  60.987  1.00  0.00    -0.000 C 
BRANCH  18  19
ATOM     19  C   UNL     1      63.440  35.949  61.425  1.00  0.00    -0.003 C 
ATOM     20  C   UNL     1      64.803  36.260  62.042  1.00  0.00     0.004 C 
ENDBRANCH  18  19
ENDBRANCH  17  18
ENDBRANCH  16  17
ENDBRANCH  15  16
ENDBRANCH  14  15
ENDBRANCH  13  14
ENDBRANCH   2  13
TORSDOF 15
ENDMDL
MODEL 9
REMARK VINA RESULT:    -4.052     11.974     14.168
REMARK INTER + INTRA:          -8.565
REMARK INTER:                  -5.923
REMARK INTRA:                  -2.643
REMARK UNBOUND:                -0.960
REMARK SMILES CCCCCCCCC=CCCCCCCCC(=O)[O-]
REMARK SMILES IDX 10 1 9 2 11 3 12 4 13 5 14 6 15 7 16 8 17 9 18 10 19 11
REMARK SMILES IDX 20 12 8 13 7 14 6 15 5 16 4 17 3 18 2 19 1 20
REMARK H PARENT
REMARK Flexibility Score: inf
ROOT
ATOM      1  C   UNL     1      64.149  30.703  58.223  1.00  0.00    -0.031 C 
ATOM      2  C   UNL     1      63.204  31.548  57.770  1.00  0.00    -0.031 C 
ENDROOT
BRANCH   1   3
ATOM      3  C   UNL     1      65.282  31.095  59.140  1.00  0.00     0.027 C 
BRANCH   3   4
ATOM      4  C   UNL     1      64.869  31.034  60.619  1.00  0.00     0.004 C 
BRANCH   4   5
ATOM      5  C   UNL     1      64.321  29.654  61.011  1.00  0.00     0.000 C 
BRANCH   5   6
ATOM      6  C   UNL     1      62.925  29.776  61.634  1.00  0.00     0.000 C 
BRANCH   6   7
ATOM      7  C   UNL     1      62.372  31.199  61.475  1.00  0.00     0.000 C 
BRANCH   7   8
ATOM      8  C   UNL     1      60.842  31.228  61.335  1.00  0.00     0.006 C 
BRANCH   8   9
ATOM      9  C   UNL     1      60.371  30.877  59.917  1.00  0.00     0.053 C 
BRANCH   9  10
ATOM     10  C   UNL     1      59.634  29.575  59.917  1.00  0.00     0.041 C 
ATOM     11  O   UNL     1      59.430  28.964  60.999  1.00  0.00    -0.550 OA
ATOM     12  O   UNL     1      59.144  29.051  58.727  1.00  0.00    -0.550 OA
ENDBRANCH   9  10
ENDBRANCH   8   9
ENDBRANCH   7   8
ENDBRANCH   6   7
ENDBRANCH   5   6
ENDBRANCH   4   5
ENDBRANCH   3   4
ENDBRANCH   1   3
BRANCH   2  13
ATOM     13  C   UNL     1      63.187  33.033  58.034  1.00  0.00     0.027 C 
BRANCH  13  14
ATOM     14  C   UNL     1      61.774  33.602  57.835  1.00  0.00     0.004 C 
BRANCH  14  15
ATOM     15  C   UNL     1      61.532  34.882  58.649  1.00  0.00     0.000 C 
BRANCH  15  16
ATOM     16  C   UNL     1      61.362  34.606  60.151  1.00  0.00     0.000 C 
BRANCH  16  17
ATOM     17  C   UNL     1      62.296  35.493  60.983  1.00  0.00    -0.000 C 
BRANCH  17  18
ATOM     18  C   UNL     1      63.639  34.792  61.236  1.00  0.00    -0.000 C 
BRANCH  18  19
ATOM     19  C   UNL     1      64.741  35.767  61.676  1.00  0.00    -0.003 C 
ATOM     20  C   UNL     1      64.190  37.125  62.111  1.00  0.00     0.004 C 
ENDBRANCH  18  19
ENDBRANCH  17  18
ENDBRANCH  16  17
ENDBRANCH  15  16
ENDBRANCH  14  15
ENDBRANCH  13  14
ENDBRANCH   2  13
TORSDOF 15
ENDMDL
