MODEL 1
REMARK VINA RESULT:    -5.593      0.000      0.000
REMARK INTER + INTRA:         -15.725
REMARK INTER:                 -12.786
REMARK INTRA:                  -2.938
REMARK UNBOUND:                -2.938
REMARK SMILES CCCCCCCCCCCCCCCCCCCCCCCC(=O)[O-]
REMARK SMILES IDX 13 1 14 2 15 3 16 4 17 5 18 6 19 7 20 8 21 9 22 10 23 11
REMARK SMILES IDX 24 12 25 13 26 14 12 15 11 16 10 17 9 18 8 19 7 20 6 21 5 22
REMARK SMILES IDX 4 23 3 24 2 25 1 26
REMARK H PARENT
REMARK Flexibility Score: inf
ROOT
ATOM      1  C   UNL     1      12.153   4.788  53.340  1.00  0.00     0.000 C 
ENDROOT
BRANCH   1   2
ATOM      2  C   UNL     1      11.531   6.005  52.623  1.00  0.00     0.000 C 
BRANCH   2   3
ATOM      3  C   UNL     1      11.896   7.365  53.252  1.00  0.00     0.000 C 
BRANCH   3   4
ATOM      4  C   UNL     1      11.658   7.471  54.768  1.00  0.00     0.000 C 
BRANCH   4   5
ATOM      5  C   UNL     1      11.511   8.922  55.253  1.00  0.00     0.000 C 
BRANCH   5   6
ATOM      6  C   UNL     1      10.105   9.172  55.825  1.00  0.00     0.000 C 
BRANCH   6   7
ATOM      7  C   UNL     1       9.094   8.075  55.432  1.00  0.00     0.000 C 
BRANCH   7   8
ATOM      8  C   UNL     1       7.926   8.572  54.557  1.00  0.00     0.000 C 
BRANCH   8   9
ATOM      9  C   UNL     1       8.150   9.925  53.864  1.00  0.00     0.000 C 
BRANCH   9  10
ATOM     10  C   UNL     1       7.973   9.855  52.338  1.00  0.00     0.006 C 
BRANCH  10  11
ATOM     11  C   UNL     1       8.343   8.467  51.805  1.00  0.00     0.053 C 
BRANCH  11  12
ATOM     12  C   UNL     1       9.291   8.586  50.654  1.00  0.00     0.041 C 
ATOM     13  O   UNL     1       9.770   7.551  50.119  1.00  0.00    -0.550 OA
ATOM     14  O   UNL     1       9.598   9.836  50.132  1.00  0.00    -0.550 OA
ENDBRANCH  11  12
ENDBRANCH  10  11
ENDBRANCH   9  10
ENDBRANCH   8   9
ENDBRANCH   7   8
ENDBRANCH   6   7
ENDBRANCH   5   6
ENDBRANCH   4   5
ENDBRANCH   3   4
ENDBRANCH   2   3
ENDBRANCH   1   2
BRANCH   1  15
ATOM     15  C   UNL     1      11.095   3.804  53.873  1.00  0.00     0.000 C 
BRANCH  15  16
ATOM     16  C   UNL     1       9.873   4.532  54.473  1.00  0.00     0.000 C 
BRANCH  16  17
ATOM     17  C   UNL     1       9.666   4.245  55.970  1.00  0.00     0.000 C 
BRANCH  17  18
ATOM     18  C   UNL     1      10.912   4.541  56.814  1.00  0.00    -0.000 C 
BRANCH  18  19
ATOM     19  C   UNL     1      11.673   3.250  57.134  1.00  0.00    -0.000 C 
BRANCH  19  20
ATOM     20  C   UNL     1      13.137   3.543  57.496  1.00  0.00    -0.000 C 
BRANCH  20  21
ATOM     21  C   UNL     1      13.883   4.336  56.406  1.00  0.00    -0.000 C 
BRANCH  21  22
ATOM     22  C   UNL     1      14.610   3.481  55.347  1.00  0.00    -0.000 C 
BRANCH  22  23
ATOM     23  C   UNL     1      16.072   3.131  55.690  1.00  0.00    -0.000 C 
BRANCH  23  24
ATOM     24  C   UNL     1      16.420   1.644  55.456  1.00  0.00    -0.000 C 
BRANCH  24  25
ATOM     25  C   UNL     1      16.054   0.739  56.644  1.00  0.00    -0.003 C 
ATOM     26  C   UNL     1      17.281   0.145  57.334  1.00  0.00     0.004 C 
ENDBRANCH  24  25
ENDBRANCH  23  24
ENDBRANCH  22  23
ENDBRANCH  21  22
ENDBRANCH  20  21
ENDBRANCH  19  20
ENDBRANCH  18  19
ENDBRANCH  17  18
ENDBRANCH  16  17
ENDBRANCH  15  16
ENDBRANCH   1  15
TORSDOF 22
ENDMDL
MODEL 2
REMARK VINA RESULT:    -5.250      1.183      2.447
REMARK INTER + INTRA:         -14.940
REMARK INTER:                 -12.019
REMARK INTRA:                  -2.921
REMARK UNBOUND:                -2.938
REMARK SMILES CCCCCCCCCCCCCCCCCCCCCCCC(=O)[O-]
REMARK SMILES IDX 13 1 14 2 15 3 16 4 17 5 18 6 19 7 20 8 21 9 22 10 23 11
REMARK SMILES IDX 24 12 25 13 26 14 12 15 11 16 10 17 9 18 8 19 7 20 6 21 5 22
REMARK SMILES IDX 4 23 3 24 2 25 1 26
REMARK H PARENT
REMARK Flexibility Score: inf
ROOT
ATOM      1  C   UNL     1      10.983   2.960  54.118  1.00  0.00     0.000 C 
ENDROOT
BRANCH   1   2
ATOM      2  C   UNL     1       9.521   3.213  54.544  1.00  0.00     0.000 C 
BRANCH   2   3
ATOM      3  C   UNL     1       9.340   4.402  55.508  1.00  0.00     0.000 C 
BRANCH   3   4
ATOM      4  C   UNL     1       9.327   5.789  54.843  1.00  0.00     0.000 C 
BRANCH   4   5
ATOM      5  C   UNL     1       9.869   6.899  55.758  1.00  0.00     0.000 C 
BRANCH   5   6
ATOM      6  C   UNL     1      10.802   7.844  54.983  1.00  0.00     0.000 C 
BRANCH   6   7
ATOM      7  C   UNL     1      10.121   9.172  54.591  1.00  0.00     0.000 C 
BRANCH   7   8
ATOM      8  C   UNL     1       8.724   9.376  55.211  1.00  0.00     0.000 C 
BRANCH   8   9
ATOM      9  C   UNL     1       7.561   9.443  54.209  1.00  0.00     0.000 C 
BRANCH   9  10
ATOM     10  C   UNL     1       7.691   8.422  53.067  1.00  0.00     0.006 C 
BRANCH  10  11
ATOM     11  C   UNL     1       7.799   9.124  51.711  1.00  0.00     0.053 C 
BRANCH  11  12
ATOM     12  C   UNL     1       9.032   8.680  50.989  1.00  0.00     0.041 C 
ATOM     13  O   UNL     1       9.601   7.604  51.313  1.00  0.00    -0.550 OA
ATOM     14  O   UNL     1       9.516   9.420  49.918  1.00  0.00    -0.550 OA
ENDBRANCH  11  12
ENDBRANCH  10  11
ENDBRANCH   9  10
ENDBRANCH   8   9
ENDBRANCH   7   8
ENDBRANCH   6   7
ENDBRANCH   5   6
ENDBRANCH   4   5
ENDBRANCH   3   4
ENDBRANCH   2   3
ENDBRANCH   1   2
BRANCH   1  15
ATOM     15  C   UNL     1      11.558   4.095  53.248  1.00  0.00     0.000 C 
BRANCH  15  16
ATOM     16  C   UNL     1      12.743   4.809  53.933  1.00  0.00     0.000 C 
BRANCH  16  17
ATOM     17  C   UNL     1      13.442   3.948  54.998  1.00  0.00     0.000 C 
BRANCH  17  18
ATOM     18  C   UNL     1      13.489   4.621  56.376  1.00  0.00    -0.000 C 
BRANCH  18  19
ATOM     19  C   UNL     1      12.143   4.482  57.097  1.00  0.00    -0.000 C 
BRANCH  19  20
ATOM     20  C   UNL     1      11.998   3.093  57.737  1.00  0.00    -0.000 C 
BRANCH  20  21
ATOM     21  C   UNL     1      13.123   2.767  58.738  1.00  0.00    -0.000 C 
BRANCH  21  22
ATOM     22  C   UNL     1      13.646   1.315  58.696  1.00  0.00    -0.000 C 
BRANCH  22  23
ATOM     23  C   UNL     1      14.219   0.872  57.336  1.00  0.00    -0.000 C 
BRANCH  23  24
ATOM     24  C   UNL     1      15.762   0.802  57.311  1.00  0.00    -0.000 C 
BRANCH  24  25
ATOM     25  C   UNL     1      16.352   0.883  55.894  1.00  0.00    -0.003 C 
ATOM     26  C   UNL     1      16.554   2.320  55.419  1.00  0.00     0.004 C 
ENDBRANCH  24  25
ENDBRANCH  23  24
ENDBRANCH  22  23
ENDBRANCH  21  22
ENDBRANCH  20  21
ENDBRANCH  19  20
ENDBRANCH  18  19
ENDBRANCH  17  18
ENDBRANCH  16  17
ENDBRANCH  15  16
ENDBRANCH   1  15
TORSDOF 22
ENDMDL
MODEL 3
REMARK VINA RESULT:    -4.887      1.084      2.010
REMARK INTER + INTRA:         -14.110
REMARK INTER:                 -11.297
REMARK INTRA:                  -2.813
REMARK UNBOUND:                -2.938
REMARK SMILES CCCCCCCCCCCCCCCCCCCCCCCC(=O)[O-]
REMARK SMILES IDX 13 1 14 2 15 3 16 4 17 5 18 6 19 7 20 8 21 9 22 10 23 11
REMARK SMILES IDX 24 12 25 13 26 14 12 15 11 16 10 17 9 18 8 19 7 20 6 21 5 22
REMARK SMILES IDX 4 23 3 24 2 25 1 26
REMARK H PARENT
REMARK Flexibility Score: inf
ROOT
ATOM      1  C   UNL     1      11.359   4.880  53.004  1.00  0.00     0.000 C 
ENDROOT
BRANCH   1   2
ATOM      2  C   UNL     1      12.377   6.030  52.842  1.00  0.00     0.000 C 
BRANCH   2   3
ATOM      3  C   UNL     1      11.847   7.410  53.279  1.00  0.00     0.000 C 
BRANCH   3   4
ATOM      4  C   UNL     1      11.472   7.528  54.766  1.00  0.00     0.000 C 
BRANCH   4   5
ATOM      5  C   UNL     1      11.337   8.985  55.238  1.00  0.00     0.000 C 
BRANCH   5   6
ATOM      6  C   UNL     1       9.983   9.217  55.929  1.00  0.00     0.000 C 
BRANCH   6   7
ATOM      7  C   UNL     1       8.858   8.328  55.359  1.00  0.00     0.000 C 
BRANCH   7   8
ATOM      8  C   UNL     1       7.641   9.110  54.826  1.00  0.00     0.000 C 
BRANCH   8   9
ATOM      9  C   UNL     1       7.213   8.767  53.390  1.00  0.00     0.000 C 
BRANCH   9  10
ATOM     10  C   UNL     1       8.394   8.366  52.492  1.00  0.00     0.006 C 
BRANCH  10  11
ATOM     11  C   UNL     1       8.682   9.447  51.446  1.00  0.00     0.053 C 
BRANCH  11  12
ATOM     12  C   UNL     1       9.417   8.865  50.281  1.00  0.00     0.041 C 
ATOM     13  O   UNL     1       9.797   9.608  49.338  1.00  0.00    -0.550 OA
ATOM     14  O   UNL     1       9.738   7.514  50.266  1.00  0.00    -0.550 OA
ENDBRANCH  11  12
ENDBRANCH  10  11
ENDBRANCH   9  10
ENDBRANCH   8   9
ENDBRANCH   7   8
ENDBRANCH   6   7
ENDBRANCH   5   6
ENDBRANCH   4   5
ENDBRANCH   3   4
ENDBRANCH   2   3
ENDBRANCH   1   2
BRANCH   1  15
ATOM     15  C   UNL     1      11.737   3.901  54.131  1.00  0.00     0.000 C 
BRANCH  15  16
ATOM     16  C   UNL     1      13.188   4.108  54.619  1.00  0.00     0.000 C 
BRANCH  16  17
ATOM     17  C   UNL     1      13.294   4.344  56.136  1.00  0.00     0.000 C 
BRANCH  17  18
ATOM     18  C   UNL     1      11.936   4.274  56.848  1.00  0.00    -0.000 C 
BRANCH  18  19
ATOM     19  C   UNL     1      11.917   3.137  57.875  1.00  0.00    -0.000 C 
BRANCH  19  20
ATOM     20  C   UNL     1      13.250   3.051  58.634  1.00  0.00    -0.000 C 
BRANCH  20  21
ATOM     21  C   UNL     1      13.506   1.663  59.252  1.00  0.00    -0.000 C 
BRANCH  21  22
ATOM     22  C   UNL     1      14.703   0.887  58.663  1.00  0.00    -0.000 C 
BRANCH  22  23
ATOM     23  C   UNL     1      14.684   0.735  57.130  1.00  0.00    -0.000 C 
BRANCH  23  24
ATOM     24  C   UNL     1      16.052   0.331  56.534  1.00  0.00    -0.000 C 
BRANCH  24  25
ATOM     25  C   UNL     1      16.985   1.527  56.286  1.00  0.00    -0.003 C 
ATOM     26  C   UNL     1      16.418   2.520  55.274  1.00  0.00     0.004 C 
ENDBRANCH  24  25
ENDBRANCH  23  24
ENDBRANCH  22  23
ENDBRANCH  21  22
ENDBRANCH  20  21
ENDBRANCH  19  20
ENDBRANCH  18  19
ENDBRANCH  17  18
ENDBRANCH  16  17
ENDBRANCH  15  16
ENDBRANCH   1  15
TORSDOF 22
ENDMDL
MODEL 4
REMARK VINA RESULT:    -4.856      1.621      3.512
REMARK INTER + INTRA:         -14.039
REMARK INTER:                 -11.756
REMARK INTRA:                  -2.283
REMARK UNBOUND:                -2.938
REMARK SMILES CCCCCCCCCCCCCCCCCCCCCCCC(=O)[O-]
REMARK SMILES IDX 13 1 14 2 15 3 16 4 17 5 18 6 19 7 20 8 21 9 22 10 23 11
REMARK SMILES IDX 24 12 25 13 26 14 12 15 11 16 10 17 9 18 8 19 7 20 6 21 5 22
REMARK SMILES IDX 4 23 3 24 2 25 1 26
REMARK H PARENT
REMARK Flexibility Score: inf
ROOT
ATOM      1  C   UNL     1      11.556   4.204  56.961  1.00  0.00     0.000 C 
ENDROOT
BRANCH   1   2
ATOM      2  C   UNL     1      12.372   4.413  55.668  1.00  0.00     0.000 C 
BRANCH   2   3
ATOM      3  C   UNL     1      11.627   5.195  54.568  1.00  0.00     0.000 C 
BRANCH   3   4
ATOM      4  C   UNL     1      10.094   5.207  54.696  1.00  0.00     0.000 C 
BRANCH   4   5
ATOM      5  C   UNL     1       9.567   6.410  55.494  1.00  0.00     0.000 C 
BRANCH   5   6
ATOM      6  C   UNL     1      10.468   7.640  55.295  1.00  0.00     0.000 C 
BRANCH   6   7
ATOM      7  C   UNL     1       9.670   8.956  55.176  1.00  0.00     0.000 C 
BRANCH   7   8
ATOM      8  C   UNL     1       8.141   8.781  55.262  1.00  0.00     0.000 C 
BRANCH   8   9
ATOM      9  C   UNL     1       7.360   9.174  53.998  1.00  0.00     0.000 C 
BRANCH   9  10
ATOM     10  C   UNL     1       7.634   8.240  52.808  1.00  0.00     0.006 C 
BRANCH  10  11
ATOM     11  C   UNL     1       7.911   9.042  51.533  1.00  0.00     0.053 C 
BRANCH  11  12
ATOM     12  C   UNL     1       9.282   8.742  51.015  1.00  0.00     0.041 C 
ATOM     13  O   UNL     1       9.577   9.000  49.818  1.00  0.00    -0.550 OA
ATOM     14  O   UNL     1      10.254   8.238  51.870  1.00  0.00    -0.550 OA
ENDBRANCH  11  12
ENDBRANCH  10  11
ENDBRANCH   9  10
ENDBRANCH   8   9
ENDBRANCH   7   8
ENDBRANCH   6   7
ENDBRANCH   5   6
ENDBRANCH   4   5
ENDBRANCH   3   4
ENDBRANCH   2   3
ENDBRANCH   1   2
BRANCH   1  15
ATOM     15  C   UNL     1      12.220   3.208  57.932  1.00  0.00     0.000 C 
BRANCH  15  16
ATOM     16  C   UNL     1      13.278   2.330  57.231  1.00  0.00     0.000 C 
BRANCH  16  17
ATOM     17  C   UNL     1      13.654   1.071  58.032  1.00  0.00     0.000 C 
BRANCH  17  18
ATOM     18  C   UNL     1      13.899   1.359  59.519  1.00  0.00    -0.000 C 
BRANCH  18  19
ATOM     19  C   UNL     1      14.875   0.341  60.118  1.00  0.00    -0.000 C 
BRANCH  19  20
ATOM     20  C   UNL     1      16.328   0.819  59.982  1.00  0.00    -0.000 C 
BRANCH  20  21
ATOM     21  C   UNL     1      17.267  -0.257  59.403  1.00  0.00    -0.000 C 
BRANCH  21  22
ATOM     22  C   UNL     1      17.703  -0.037  57.939  1.00  0.00    -0.000 C 
BRANCH  22  23
ATOM     23  C   UNL     1      16.660  -0.454  56.884  1.00  0.00    -0.000 C 
BRANCH  23  24
ATOM     24  C   UNL     1      16.570   0.521  55.688  1.00  0.00    -0.000 C 
BRANCH  24  25
ATOM     25  C   UNL     1      16.861   1.981  56.070  1.00  0.00    -0.003 C 
ATOM     26  C   UNL     1      15.946   2.972  55.353  1.00  0.00     0.004 C 
ENDBRANCH  24  25
ENDBRANCH  23  24
ENDBRANCH  22  23
ENDBRANCH  21  22
ENDBRANCH  20  21
ENDBRANCH  19  20
ENDBRANCH  18  19
ENDBRANCH  17  18
ENDBRANCH  16  17
ENDBRANCH  15  16
ENDBRANCH   1  15
TORSDOF 22
ENDMDL
MODEL 5
REMARK VINA RESULT:    -4.841      1.092      4.706
REMARK INTER + INTRA:         -14.005
REMARK INTER:                 -11.291
REMARK INTRA:                  -2.714
REMARK UNBOUND:                -2.938
REMARK SMILES CCCCCCCCCCCCCCCCCCCCCCCC(=O)[O-]
REMARK SMILES IDX 13 1 14 2 15 3 16 4 17 5 18 6 19 7 20 8 21 9 22 10 23 11
REMARK SMILES IDX 24 12 25 13 26 14 12 15 11 16 10 17 9 18 8 19 7 20 6 21 5 22
REMARK SMILES IDX 4 23 3 24 2 25 1 26
REMARK H PARENT
REMARK Flexibility Score: inf
ROOT
ATOM      1  C   UNL     1      12.488   2.309  57.531  1.00  0.00     0.000 C 
ENDROOT
BRANCH   1   2
ATOM      2  C   UNL     1      12.147   3.694  58.122  1.00  0.00     0.000 C 
BRANCH   2   3
ATOM      3  C   UNL     1      11.118   4.497  57.302  1.00  0.00     0.000 C 
BRANCH   3   4
ATOM      4  C   UNL     1      10.482   3.739  56.125  1.00  0.00     0.000 C 
BRANCH   4   5
ATOM      5  C   UNL     1       9.185   4.391  55.620  1.00  0.00     0.000 C 
BRANCH   5   6
ATOM      6  C   UNL     1       9.474   5.747  54.954  1.00  0.00     0.000 C 
BRANCH   6   7
ATOM      7  C   UNL     1       9.229   6.944  55.897  1.00  0.00     0.000 C 
BRANCH   7   8
ATOM      8  C   UNL     1       9.207   8.314  55.192  1.00  0.00     0.000 C 
BRANCH   8   9
ATOM      9  C   UNL     1       7.893   8.670  54.481  1.00  0.00     0.000 C 
BRANCH   9  10
ATOM     10  C   UNL     1       8.022   9.891  53.555  1.00  0.00     0.006 C 
BRANCH  10  11
ATOM     11  C   UNL     1       9.303   9.813  52.719  1.00  0.00     0.053 C 
BRANCH  11  12
ATOM     12  C   UNL     1       9.052   9.072  51.445  1.00  0.00     0.041 C 
ATOM     13  O   UNL     1       9.266   7.833  51.381  1.00  0.00    -0.550 OA
ATOM     14  O   UNL     1       8.522   9.737  50.347  1.00  0.00    -0.550 OA
ENDBRANCH  11  12
ENDBRANCH  10  11
ENDBRANCH   9  10
ENDBRANCH   8   9
ENDBRANCH   7   8
ENDBRANCH   6   7
ENDBRANCH   5   6
ENDBRANCH   4   5
ENDBRANCH   3   4
ENDBRANCH   2   3
ENDBRANCH   1   2
BRANCH   1  15
ATOM     15  C   UNL     1      13.597   1.582  58.314  1.00  0.00     0.000 C 
BRANCH  15  16
ATOM     16  C   UNL     1      14.494   0.725  57.394  1.00  0.00     0.000 C 
BRANCH  16  17
ATOM     17  C   UNL     1      15.969   0.704  57.828  1.00  0.00     0.000 C 
BRANCH  17  18
ATOM     18  C   UNL     1      16.939   0.928  56.660  1.00  0.00    -0.000 C 
BRANCH  18  19
ATOM     19  C   UNL     1      16.199   1.471  55.432  1.00  0.00    -0.000 C 
BRANCH  19  20
ATOM     20  C   UNL     1      16.508   2.959  55.211  1.00  0.00    -0.000 C 
BRANCH  20  21
ATOM     21  C   UNL     1      15.375   3.889  55.685  1.00  0.00    -0.000 C 
BRANCH  21  22
ATOM     22  C   UNL     1      13.995   3.632  55.042  1.00  0.00    -0.000 C 
BRANCH  22  23
ATOM     23  C   UNL     1      13.300   4.886  54.477  1.00  0.00    -0.000 C 
BRANCH  23  24
ATOM     24  C   UNL     1      12.478   4.611  53.199  1.00  0.00    -0.000 C 
BRANCH  24  25
ATOM     25  C   UNL     1      11.970   5.891  52.515  1.00  0.00    -0.003 C 
ATOM     26  C   UNL     1      12.210   7.144  53.353  1.00  0.00     0.004 C 
ENDBRANCH  24  25
ENDBRANCH  23  24
ENDBRANCH  22  23
ENDBRANCH  21  22
ENDBRANCH  20  21
ENDBRANCH  19  20
ENDBRANCH  18  19
ENDBRANCH  17  18
ENDBRANCH  16  17
ENDBRANCH  15  16
ENDBRANCH   1  15
TORSDOF 22
ENDMDL
MODEL 6
REMARK VINA RESULT:    -4.748      1.243      6.013
REMARK INTER + INTRA:         -13.793
REMARK INTER:                 -10.469
REMARK INTRA:                  -3.324
REMARK UNBOUND:                -2.938
REMARK SMILES CCCCCCCCCCCCCCCCCCCCCCCC(=O)[O-]
REMARK SMILES IDX 13 1 14 2 15 3 16 4 17 5 18 6 19 7 20 8 21 9 22 10 23 11
REMARK SMILES IDX 24 12 25 13 26 14 12 15 11 16 10 17 9 18 8 19 7 20 6 21 5 22
REMARK SMILES IDX 4 23 3 24 2 25 1 26
REMARK H PARENT
REMARK Flexibility Score: inf
ROOT
ATOM      1  C   UNL     1      16.437   0.760  57.030  1.00  0.00     0.000 C 
ENDROOT
BRANCH   1   2
ATOM      2  C   UNL     1      16.136   1.347  55.634  1.00  0.00     0.000 C 
BRANCH   2   3
ATOM      3  C   UNL     1      16.556   2.821  55.463  1.00  0.00     0.000 C 
BRANCH   3   4
ATOM      4  C   UNL     1      15.437   3.852  55.689  1.00  0.00     0.000 C 
BRANCH   4   5
ATOM      5  C   UNL     1      14.091   3.421  55.085  1.00  0.00     0.000 C 
BRANCH   5   6
ATOM      6  C   UNL     1      13.269   4.643  54.645  1.00  0.00     0.000 C 
BRANCH   6   7
ATOM      7  C   UNL     1      12.342   4.345  53.448  1.00  0.00     0.000 C 
BRANCH   7   8
ATOM      8  C   UNL     1      12.064   5.561  52.542  1.00  0.00     0.000 C 
BRANCH   8   9
ATOM      9  C   UNL     1      12.125   6.930  53.238  1.00  0.00     0.000 C 
BRANCH   9  10
ATOM     10  C   UNL     1      11.120   7.941  52.663  1.00  0.00     0.006 C 
BRANCH  10  11
ATOM     11  C   UNL     1      10.172   7.268  51.666  1.00  0.00     0.053 C 
BRANCH  11  12
ATOM     12  C   UNL     1       9.191   8.260  51.127  1.00  0.00     0.041 C 
ATOM     13  O   UNL     1       8.087   8.437  51.706  1.00  0.00    -0.550 OA
ATOM     14  O   UNL     1       9.520   9.034  50.022  1.00  0.00    -0.550 OA
ENDBRANCH  11  12
ENDBRANCH  10  11
ENDBRANCH   9  10
ENDBRANCH   8   9
ENDBRANCH   7   8
ENDBRANCH   6   7
ENDBRANCH   5   6
ENDBRANCH   4   5
ENDBRANCH   3   4
ENDBRANCH   2   3
ENDBRANCH   1   2
BRANCH   1  15
ATOM     15  C   UNL     1      15.340   1.084  58.063  1.00  0.00     0.000 C 
BRANCH  15  16
ATOM     16  C   UNL     1      13.947   0.604  57.602  1.00  0.00     0.000 C 
BRANCH  16  17
ATOM     17  C   UNL     1      12.904   1.732  57.534  1.00  0.00     0.000 C 
BRANCH  17  18
ATOM     18  C   UNL     1      13.181   2.863  58.534  1.00  0.00    -0.000 C 
BRANCH  18  19
ATOM     19  C   UNL     1      12.130   3.971  58.408  1.00  0.00    -0.000 C 
BRANCH  19  20
ATOM     20  C   UNL     1      11.181   3.706  57.230  1.00  0.00    -0.000 C 
BRANCH  20  21
ATOM     21  C   UNL     1      10.391   4.956  56.796  1.00  0.00    -0.000 C 
BRANCH  21  22
ATOM     22  C   UNL     1       9.502   4.776  55.547  1.00  0.00    -0.000 C 
BRANCH  22  23
ATOM     23  C   UNL     1       9.065   6.089  54.869  1.00  0.00    -0.000 C 
BRANCH  23  24
ATOM     24  C   UNL     1       9.258   7.336  55.761  1.00  0.00    -0.000 C 
BRANCH  24  25
ATOM     25  C   UNL     1       8.514   8.577  55.242  1.00  0.00    -0.003 C 
ATOM     26  C   UNL     1       9.303   9.868  55.449  1.00  0.00     0.004 C 
ENDBRANCH  24  25
ENDBRANCH  23  24
ENDBRANCH  22  23
ENDBRANCH  21  22
ENDBRANCH  20  21
ENDBRANCH  19  20
ENDBRANCH  18  19
ENDBRANCH  17  18
ENDBRANCH  16  17
ENDBRANCH  15  16
ENDBRANCH   1  15
TORSDOF 22
ENDMDL
MODEL 7
REMARK VINA RESULT:    -4.551      2.067      3.553
REMARK INTER + INTRA:         -13.342
REMARK INTER:                 -10.681
REMARK INTRA:                  -2.661
REMARK UNBOUND:                -2.938
REMARK SMILES CCCCCCCCCCCCCCCCCCCCCCCC(=O)[O-]
REMARK SMILES IDX 13 1 14 2 15 3 16 4 17 5 18 6 19 7 20 8 21 9 22 10 23 11
REMARK SMILES IDX 24 12 25 13 26 14 12 15 11 16 10 17 9 18 8 19 7 20 6 21 5 22
REMARK SMILES IDX 4 23 3 24 2 25 1 26
REMARK H PARENT
REMARK Flexibility Score: inf
ROOT
ATOM      1  C   UNL     1      11.953   4.585  52.625  1.00  0.00     0.000 C 
ENDROOT
BRANCH   1   2
ATOM      2  C   UNL     1      12.482   6.036  52.635  1.00  0.00     0.000 C 
BRANCH   2   3
ATOM      3  C   UNL     1      11.382   7.110  52.750  1.00  0.00     0.000 C 
BRANCH   3   4
ATOM      4  C   UNL     1      10.378   7.148  51.586  1.00  0.00     0.000 C 
BRANCH   4   5
ATOM      5  C   UNL     1       9.712   8.522  51.410  1.00  0.00     0.000 C 
BRANCH   5   6
ATOM      6  C   UNL     1       8.190   8.426  51.606  1.00  0.00     0.000 C 
BRANCH   6   7
ATOM      7  C   UNL     1       7.706   9.114  52.900  1.00  0.00     0.000 C 
BRANCH   7   8
ATOM      8  C   UNL     1       8.756  10.026  53.565  1.00  0.00     0.000 C 
BRANCH   8   9
ATOM      9  C   UNL     1       9.192   9.609  54.978  1.00  0.00     0.000 C 
BRANCH   9  10
ATOM     10  C   UNL     1       8.751   8.183  55.346  1.00  0.00     0.006 C 
BRANCH  10  11
ATOM     11  C   UNL     1       9.956   7.316  55.725  1.00  0.00     0.053 C 
BRANCH  11  12
ATOM     12  C   UNL     1       9.592   5.866  55.675  1.00  0.00     0.041 C 
ATOM     13  O   UNL     1       9.672   5.157  56.713  1.00  0.00    -0.550 OA
ATOM     14  O   UNL     1       9.105   5.311  54.498  1.00  0.00    -0.550 OA
ENDBRANCH  11  12
ENDBRANCH  10  11
ENDBRANCH   9  10
ENDBRANCH   8   9
ENDBRANCH   7   8
ENDBRANCH   6   7
ENDBRANCH   5   6
ENDBRANCH   4   5
ENDBRANCH   3   4
ENDBRANCH   2   3
ENDBRANCH   1   2
BRANCH   1  15
ATOM     15  C   UNL     1      12.179   3.858  53.964  1.00  0.00     0.000 C 
BRANCH  15  16
ATOM     16  C   UNL     1      13.208   4.586  54.856  1.00  0.00     0.000 C 
BRANCH  16  17
ATOM     17  C   UNL     1      13.013   4.317  56.357  1.00  0.00     0.000 C 
BRANCH  17  18
ATOM     18  C   UNL     1      13.402   2.890  56.765  1.00  0.00    -0.000 C 
BRANCH  18  19
ATOM     19  C   UNL     1      12.763   2.512  58.106  1.00  0.00    -0.000 C 
BRANCH  19  20
ATOM     20  C   UNL     1      13.682   1.588  58.918  1.00  0.00    -0.000 C 
BRANCH  20  21
ATOM     21  C   UNL     1      14.548   0.668  58.036  1.00  0.00    -0.000 C 
BRANCH  21  22
ATOM     22  C   UNL     1      16.005   0.478  58.508  1.00  0.00    -0.000 C 
BRANCH  22  23
ATOM     23  C   UNL     1      17.055   0.468  57.380  1.00  0.00    -0.000 C 
BRANCH  23  24
ATOM     24  C   UNL     1      16.480   0.051  56.008  1.00  0.00    -0.000 C 
BRANCH  24  25
ATOM     25  C   UNL     1      16.389   1.214  55.006  1.00  0.00    -0.003 C 
ATOM     26  C   UNL     1      16.671   2.571  55.649  1.00  0.00     0.004 C 
ENDBRANCH  24  25
ENDBRANCH  23  24
ENDBRANCH  22  23
ENDBRANCH  21  22
ENDBRANCH  20  21
ENDBRANCH  19  20
ENDBRANCH  18  19
ENDBRANCH  17  18
ENDBRANCH  16  17
ENDBRANCH  15  16
ENDBRANCH   1  15
TORSDOF 22
ENDMDL
