MODEL 1
REMARK VINA RESULT:    -2.741      0.000      0.000
REMARK INTER + INTRA:          -8.139
REMARK INTER:                  -6.907
REMARK INTRA:                  -1.232
REMARK UNBOUND:                -1.232
REMARK SMILES CCCCCCCCCCCCCCCCCCCCCCCCCCCC(=O)[O-]
REMARK SMILES IDX 15 1 16 2 17 3 18 4 19 5 20 6 21 7 22 8 23 9 24 10 25 11
REMARK SMILES IDX 26 12 27 13 28 14 29 15 30 16 14 17 13 18 12 19 11 20 10 21
REMARK SMILES IDX 9 22 8 23 7 24 6 25 5 26 4 27 3 28 2 29 1 30
REMARK H PARENT
REMARK Flexibility Score: inf
ROOT
ATOM      1  C   UNL     1      33.434  45.797  25.505  1.00  0.00     0.000 C 
ENDROOT
BRANCH   1   2
ATOM      2  C   UNL     1      33.068  46.527  26.810  1.00  0.00     0.000 C 
BRANCH   2   3
ATOM      3  C   UNL     1      32.731  48.022  26.656  1.00  0.00     0.000 C 
BRANCH   3   4
ATOM      4  C   UNL     1      33.886  48.949  27.079  1.00  0.00     0.000 C 
BRANCH   4   5
ATOM      5  C   UNL     1      33.988  50.218  26.208  1.00  0.00     0.000 C 
BRANCH   5   6
ATOM      6  C   UNL     1      34.118  51.538  26.993  1.00  0.00     0.000 C 
BRANCH   6   7
ATOM      7  C   UNL     1      33.373  52.709  26.325  1.00  0.00     0.000 C 
BRANCH   7   8
ATOM      8  C   UNL     1      32.069  53.074  27.057  1.00  0.00     0.000 C 
BRANCH   8   9
ATOM      9  C   UNL     1      31.017  53.794  26.186  1.00  0.00     0.000 C 
BRANCH   9  10
ATOM     10  C   UNL     1      29.585  53.767  26.751  1.00  0.00     0.000 C 
BRANCH  10  11
ATOM     11  C   UNL     1      28.978  52.349  26.766  1.00  0.00     0.000 C 
BRANCH  11  12
ATOM     12  C   UNL     1      29.051  51.642  25.395  1.00  0.00     0.006 C 
BRANCH  12  13
ATOM     13  C   UNL     1      30.096  50.510  25.350  1.00  0.00     0.053 C 
BRANCH  13  14
ATOM     14  C   UNL     1      30.976  50.596  24.142  1.00  0.00     0.041 C 
ATOM     15  O   UNL     1      30.915  51.601  23.386  1.00  0.00    -0.550 OA
ATOM     16  O   UNL     1      31.810  49.537  23.811  1.00  0.00    -0.550 OA
ENDBRANCH  13  14
ENDBRANCH  12  13
ENDBRANCH  11  12
ENDBRANCH  10  11
ENDBRANCH   9  10
ENDBRANCH   8   9
ENDBRANCH   7   8
ENDBRANCH   6   7
ENDBRANCH   5   6
ENDBRANCH   4   5
ENDBRANCH   3   4
ENDBRANCH   2   3
ENDBRANCH   1   2
BRANCH   1  17
ATOM     17  C   UNL     1      33.848  44.333  25.731  1.00  0.00     0.000 C 
BRANCH  17  18
ATOM     18  C   UNL     1      35.186  44.255  26.482  1.00  0.00     0.000 C 
BRANCH  18  19
ATOM     19  C   UNL     1      36.393  44.562  25.567  1.00  0.00     0.000 C 
BRANCH  19  20
ATOM     20  C   UNL     1      37.733  44.052  26.122  1.00  0.00     0.000 C 
BRANCH  20  21
ATOM     21  C   UNL     1      37.565  42.880  27.104  1.00  0.00     0.000 C 
BRANCH  21  22
ATOM     22  C   UNL     1      36.824  41.687  26.479  1.00  0.00    -0.000 C 
BRANCH  22  23
ATOM     23  C   UNL     1      37.277  41.401  25.039  1.00  0.00    -0.000 C 
BRANCH  23  24
ATOM     24  C   UNL     1      38.670  40.753  25.016  1.00  0.00    -0.000 C 
BRANCH  24  25
ATOM     25  C   UNL     1      39.118  40.258  26.400  1.00  0.00    -0.000 C 
BRANCH  25  26
ATOM     26  C   UNL     1      39.435  38.752  26.417  1.00  0.00    -0.000 C 
BRANCH  26  27
ATOM     27  C   UNL     1      38.330  37.938  27.124  1.00  0.00    -0.000 C 
BRANCH  27  28
ATOM     28  C   UNL     1      37.516  37.043  26.170  1.00  0.00    -0.000 C 
BRANCH  28  29
ATOM     29  C   UNL     1      36.988  35.772  26.849  1.00  0.00    -0.003 C 
ATOM     30  C   UNL     1      36.034  35.008  25.929  1.00  0.00     0.004 C 
ENDBRANCH  28  29
ENDBRANCH  27  28
ENDBRANCH  26  27
ENDBRANCH  25  26
ENDBRANCH  24  25
ENDBRANCH  23  24
ENDBRANCH  22  23
ENDBRANCH  21  22
ENDBRANCH  20  21
ENDBRANCH  19  20
ENDBRANCH  18  19
ENDBRANCH  17  18
ENDBRANCH   1  17
TORSDOF 26
ENDMDL
MODEL 2
REMARK VINA RESULT:    -2.643      1.494      2.915
REMARK INTER + INTRA:          -7.892
REMARK INTER:                  -6.710
REMARK INTRA:                  -1.182
REMARK UNBOUND:                -1.232
REMARK SMILES CCCCCCCCCCCCCCCCCCCCCCCCCCCC(=O)[O-]
REMARK SMILES IDX 15 1 16 2 17 3 18 4 19 5 20 6 21 7 22 8 23 9 24 10 25 11
REMARK SMILES IDX 26 12 27 13 28 14 29 15 30 16 14 17 13 18 12 19 11 20 10 21
REMARK SMILES IDX 9 22 8 23 7 24 6 25 5 26 4 27 3 28 2 29 1 30
REMARK H PARENT
REMARK Flexibility Score: inf
ROOT
ATOM      1  C   UNL     1      34.660  48.398  26.702  1.00  0.00     0.000 C 
ENDROOT
BRANCH   1   2
ATOM      2  C   UNL     1      33.206  48.877  26.541  1.00  0.00     0.000 C 
BRANCH   2   3
ATOM      3  C   UNL     1      32.904  50.272  27.121  1.00  0.00     0.000 C 
BRANCH   3   4
ATOM      4  C   UNL     1      33.494  51.418  26.278  1.00  0.00     0.000 C 
BRANCH   4   5
ATOM      5  C   UNL     1      33.119  52.815  26.816  1.00  0.00     0.000 C 
BRANCH   5   6
ATOM      6  C   UNL     1      31.635  53.199  26.653  1.00  0.00     0.000 C 
BRANCH   6   7
ATOM      7  C   UNL     1      31.424  54.714  26.473  1.00  0.00     0.000 C 
BRANCH   7   8
ATOM      8  C   UNL     1      30.863  55.072  25.085  1.00  0.00     0.000 C 
BRANCH   8   9
ATOM      9  C   UNL     1      31.445  54.246  23.918  1.00  0.00     0.000 C 
BRANCH   9  10
ATOM     10  C   UNL     1      30.508  53.150  23.375  1.00  0.00     0.000 C 
BRANCH  10  11
ATOM     11  C   UNL     1      31.237  51.812  23.132  1.00  0.00     0.000 C 
BRANCH  11  12
ATOM     12  C   UNL     1      30.703  50.661  24.011  1.00  0.00     0.006 C 
BRANCH  12  13
ATOM     13  C   UNL     1      30.170  51.136  25.377  1.00  0.00     0.053 C 
BRANCH  13  14
ATOM     14  C   UNL     1      28.722  51.516  25.322  1.00  0.00     0.041 C 
ATOM     15  O   UNL     1      27.938  50.905  24.551  1.00  0.00    -0.550 OA
ATOM     16  O   UNL     1      28.256  52.589  26.068  1.00  0.00    -0.550 OA
ENDBRANCH  13  14
ENDBRANCH  12  13
ENDBRANCH  11  12
ENDBRANCH  10  11
ENDBRANCH   9  10
ENDBRANCH   8   9
ENDBRANCH   7   8
ENDBRANCH   6   7
ENDBRANCH   5   6
ENDBRANCH   4   5
ENDBRANCH   3   4
ENDBRANCH   2   3
ENDBRANCH   1   2
BRANCH   1  17
ATOM     17  C   UNL     1      34.967  47.126  25.893  1.00  0.00     0.000 C 
BRANCH  17  18
ATOM     18  C   UNL     1      33.743  46.695  25.070  1.00  0.00     0.000 C 
BRANCH  18  19
ATOM     19  C   UNL     1      33.122  45.377  25.588  1.00  0.00     0.000 C 
BRANCH  19  20
ATOM     20  C   UNL     1      33.520  45.034  27.032  1.00  0.00     0.000 C 
BRANCH  20  21
ATOM     21  C   UNL     1      34.398  43.774  27.125  1.00  0.00     0.000 C 
BRANCH  21  22
ATOM     22  C   UNL     1      35.475  43.722  26.029  1.00  0.00    -0.000 C 
BRANCH  22  23
ATOM     23  C   UNL     1      36.840  44.227  26.520  1.00  0.00    -0.000 C 
BRANCH  23  24
ATOM     24  C   UNL     1      37.880  43.095  26.522  1.00  0.00    -0.000 C 
BRANCH  24  25
ATOM     25  C   UNL     1      37.249  41.710  26.735  1.00  0.00    -0.000 C 
BRANCH  25  26
ATOM     26  C   UNL     1      38.297  40.583  26.780  1.00  0.00    -0.000 C 
BRANCH  26  27
ATOM     27  C   UNL     1      37.788  39.295  26.097  1.00  0.00    -0.000 C 
BRANCH  27  28
ATOM     28  C   UNL     1      37.860  38.048  27.000  1.00  0.00    -0.000 C 
BRANCH  28  29
ATOM     29  C   UNL     1      37.615  36.741  26.234  1.00  0.00    -0.003 C 
ATOM     30  C   UNL     1      36.794  35.756  27.068  1.00  0.00     0.004 C 
ENDBRANCH  28  29
ENDBRANCH  27  28
ENDBRANCH  26  27
ENDBRANCH  25  26
ENDBRANCH  24  25
ENDBRANCH  23  24
ENDBRANCH  22  23
ENDBRANCH  21  22
ENDBRANCH  20  21
ENDBRANCH  19  20
ENDBRANCH  18  19
ENDBRANCH  17  18
ENDBRANCH   1  17
TORSDOF 26
ENDMDL
MODEL 3
REMARK VINA RESULT:    -1.741      3.613     11.774
REMARK INTER + INTRA:          -5.618
REMARK INTER:                  -5.430
REMARK INTRA:                  -0.188
REMARK UNBOUND:                -1.232
REMARK SMILES CCCCCCCCCCCCCCCCCCCCCCCCCCCC(=O)[O-]
REMARK SMILES IDX 15 1 16 2 17 3 18 4 19 5 20 6 21 7 22 8 23 9 24 10 25 11
REMARK SMILES IDX 26 12 27 13 28 14 29 15 30 16 14 17 13 18 12 19 11 20 10 21
REMARK SMILES IDX 9 22 8 23 7 24 6 25 5 26 4 27 3 28 2 29 1 30
REMARK H PARENT
REMARK Flexibility Score: inf
ROOT
ATOM      1  C   UNL     1      33.511  47.610  25.274  1.00  0.00     0.000 C 
ENDROOT
BRANCH   1   2
ATOM      2  C   UNL     1      32.241  46.856  24.838  1.00  0.00     0.000 C 
BRANCH   2   3
ATOM      3  C   UNL     1      32.235  45.346  25.142  1.00  0.00     0.000 C 
BRANCH   3   4
ATOM      4  C   UNL     1      33.649  44.750  25.273  1.00  0.00     0.000 C 
BRANCH   4   5
ATOM      5  C   UNL     1      34.127  44.654  26.738  1.00  0.00     0.000 C 
BRANCH   5   6
ATOM      6  C   UNL     1      35.266  45.621  27.115  1.00  0.00     0.000 C 
BRANCH   6   7
ATOM      7  C   UNL     1      35.875  46.336  25.894  1.00  0.00     0.000 C 
BRANCH   7   8
ATOM      8  C   UNL     1      37.401  46.499  26.004  1.00  0.00     0.000 C 
BRANCH   8   9
ATOM      9  C   UNL     1      38.079  45.576  27.039  1.00  0.00     0.000 C 
BRANCH   9  10
ATOM     10  C   UNL     1      37.481  44.158  27.125  1.00  0.00     0.000 C 
BRANCH  10  11
ATOM     11  C   UNL     1      38.180  43.160  26.179  1.00  0.00     0.000 C 
BRANCH  11  12
ATOM     12  C   UNL     1      38.401  41.771  26.815  1.00  0.00     0.006 C 
BRANCH  12  13
ATOM     13  C   UNL     1      38.778  40.684  25.789  1.00  0.00     0.053 C 
BRANCH  13  14
ATOM     14  C   UNL     1      37.611  40.266  24.949  1.00  0.00     0.041 C 
ATOM     15  O   UNL     1      36.702  39.551  25.442  1.00  0.00    -0.550 OA
ATOM     16  O   UNL     1      37.565  40.606  23.604  1.00  0.00    -0.550 OA
ENDBRANCH  13  14
ENDBRANCH  12  13
ENDBRANCH  11  12
ENDBRANCH  10  11
ENDBRANCH   9  10
ENDBRANCH   8   9
ENDBRANCH   7   8
ENDBRANCH   6   7
ENDBRANCH   5   6
ENDBRANCH   4   5
ENDBRANCH   3   4
ENDBRANCH   2   3
ENDBRANCH   1   2
BRANCH   1  17
ATOM     17  C   UNL     1      33.258  48.598  26.424  1.00  0.00     0.000 C 
BRANCH  17  18
ATOM     18  C   UNL     1      31.784  49.032  26.457  1.00  0.00     0.000 C 
BRANCH  18  19
ATOM     19  C   UNL     1      31.592  50.412  27.125  1.00  0.00     0.000 C 
BRANCH  19  20
ATOM     20  C   UNL     1      32.849  51.296  27.086  1.00  0.00     0.000 C 
BRANCH  20  21
ATOM     21  C   UNL     1      32.973  52.100  25.781  1.00  0.00     0.000 C 
BRANCH  21  22
ATOM     22  C   UNL     1      32.624  53.586  25.967  1.00  0.00    -0.000 C 
BRANCH  22  23
ATOM     23  C   UNL     1      31.473  54.039  25.055  1.00  0.00    -0.000 C 
BRANCH  23  24
ATOM     24  C   UNL     1      30.436  54.858  25.839  1.00  0.00    -0.000 C 
BRANCH  24  25
ATOM     25  C   UNL     1      29.908  54.117  27.078  1.00  0.00    -0.000 C 
BRANCH  25  26
ATOM     26  C   UNL     1      28.735  53.176  26.749  1.00  0.00    -0.000 C 
BRANCH  26  27
ATOM     27  C   UNL     1      28.795  52.667  25.293  1.00  0.00    -0.000 C 
BRANCH  27  28
ATOM     28  C   UNL     1      28.898  51.133  25.180  1.00  0.00    -0.000 C 
BRANCH  28  29
ATOM     29  C   UNL     1      29.462  50.671  23.829  1.00  0.00    -0.003 C 
ATOM     30  C   UNL     1      30.897  51.163  23.631  1.00  0.00     0.004 C 
ENDBRANCH  28  29
ENDBRANCH  27  28
ENDBRANCH  26  27
ENDBRANCH  25  26
ENDBRANCH  24  25
ENDBRANCH  23  24
ENDBRANCH  22  23
ENDBRANCH  21  22
ENDBRANCH  20  21
ENDBRANCH  19  20
ENDBRANCH  18  19
ENDBRANCH  17  18
ENDBRANCH   1  17
TORSDOF 26
ENDMDL
MODEL 4
REMARK VINA RESULT:    -1.719      1.660      2.294
REMARK INTER + INTRA:          -5.563
REMARK INTER:                  -6.934
REMARK INTRA:                   1.371
REMARK UNBOUND:                -1.232
REMARK SMILES CCCCCCCCCCCCCCCCCCCCCCCCCCCC(=O)[O-]
REMARK SMILES IDX 15 1 16 2 17 3 18 4 19 5 20 6 21 7 22 8 23 9 24 10 25 11
REMARK SMILES IDX 26 12 27 13 28 14 29 15 30 16 14 17 13 18 12 19 11 20 10 21
REMARK SMILES IDX 9 22 8 23 7 24 6 25 5 26 4 27 3 28 2 29 1 30
REMARK H PARENT
REMARK Flexibility Score: inf
ROOT
ATOM      1  C   UNL     1      34.280  47.101  25.009  1.00  0.00     0.000 C 
ENDROOT
BRANCH   1   2
ATOM      2  C   UNL     1      32.765  47.360  24.911  1.00  0.00     0.000 C 
BRANCH   2   3
ATOM      3  C   UNL     1      32.086  47.798  26.223  1.00  0.00     0.000 C 
BRANCH   3   4
ATOM      4  C   UNL     1      33.003  48.647  27.124  1.00  0.00     0.000 C 
BRANCH   4   5
ATOM      5  C   UNL     1      33.315  50.035  26.525  1.00  0.00     0.000 C 
BRANCH   5   6
ATOM      6  C   UNL     1      32.174  51.064  26.640  1.00  0.00     0.000 C 
BRANCH   6   7
ATOM      7  C   UNL     1      32.608  52.486  26.239  1.00  0.00     0.000 C 
BRANCH   7   8
ATOM      8  C   UNL     1      31.604  53.561  26.693  1.00  0.00     0.000 C 
BRANCH   8   9
ATOM      9  C   UNL     1      30.536  53.936  25.643  1.00  0.00     0.000 C 
BRANCH   9  10
ATOM     10  C   UNL     1      31.102  54.397  24.286  1.00  0.00     0.000 C 
BRANCH  10  11
ATOM     11  C   UNL     1      30.912  53.344  23.175  1.00  0.00     0.000 C 
BRANCH  11  12
ATOM     12  C   UNL     1      31.150  51.898  23.660  1.00  0.00     0.006 C 
BRANCH  12  13
ATOM     13  C   UNL     1      29.899  51.004  23.542  1.00  0.00     0.053 C 
BRANCH  13  14
ATOM     14  C   UNL     1      29.128  50.933  24.823  1.00  0.00     0.041 C 
ATOM     15  O   UNL     1      29.458  50.109  25.715  1.00  0.00    -0.550 OA
ATOM     16  O   UNL     1      28.003  51.726  25.003  1.00  0.00    -0.550 OA
ENDBRANCH  13  14
ENDBRANCH  12  13
ENDBRANCH  11  12
ENDBRANCH  10  11
ENDBRANCH   9  10
ENDBRANCH   8   9
ENDBRANCH   7   8
ENDBRANCH   6   7
ENDBRANCH   5   6
ENDBRANCH   4   5
ENDBRANCH   3   4
ENDBRANCH   2   3
ENDBRANCH   1   2
BRANCH   1  17
ATOM     17  C   UNL     1      35.062  48.308  25.552  1.00  0.00     0.000 C 
BRANCH  17  18
ATOM     18  C   UNL     1      36.049  47.871  26.647  1.00  0.00     0.000 C 
BRANCH  18  19
ATOM     19  C   UNL     1      35.793  46.424  27.124  1.00  0.00     0.000 C 
BRANCH  19  20
ATOM     20  C   UNL     1      37.005  45.494  26.951  1.00  0.00     0.000 C 
BRANCH  20  21
ATOM     21  C   UNL     1      36.641  44.007  27.097  1.00  0.00     0.000 C 
BRANCH  21  22
ATOM     22  C   UNL     1      35.930  43.447  25.854  1.00  0.00    -0.000 C 
BRANCH  22  23
ATOM     23  C   UNL     1      36.914  42.898  24.810  1.00  0.00    -0.000 C 
BRANCH  23  24
ATOM     24  C   UNL     1      36.634  41.417  24.510  1.00  0.00    -0.000 C 
BRANCH  24  25
ATOM     25  C   UNL     1      37.835  40.510  24.819  1.00  0.00    -0.000 C 
BRANCH  25  26
ATOM     26  C   UNL     1      37.879  40.068  26.293  1.00  0.00    -0.000 C 
BRANCH  26  27
ATOM     27  C   UNL     1      37.438  38.598  26.467  1.00  0.00    -0.000 C 
BRANCH  27  28
ATOM     28  C   UNL     1      38.559  37.673  26.979  1.00  0.00    -0.000 C 
BRANCH  28  29
ATOM     29  C   UNL     1      38.307  36.194  26.657  1.00  0.00    -0.003 C 
ATOM     30  C   UNL     1      36.852  35.809  26.932  1.00  0.00     0.004 C 
ENDBRANCH  28  29
ENDBRANCH  27  28
ENDBRANCH  26  27
ENDBRANCH  25  26
ENDBRANCH  24  25
ENDBRANCH  23  24
ENDBRANCH  22  23
ENDBRANCH  21  22
ENDBRANCH  20  21
ENDBRANCH  19  20
ENDBRANCH  18  19
ENDBRANCH  17  18
ENDBRANCH   1  17
TORSDOF 26
ENDMDL
MODEL 5
REMARK VINA RESULT:    -1.672      1.261      1.862
REMARK INTER + INTRA:          -5.445
REMARK INTER:                  -3.249
REMARK INTRA:                  -2.196
REMARK UNBOUND:                -1.232
REMARK SMILES CCCCCCCCCCCCCCCCCCCCCCCCCCCC(=O)[O-]
REMARK SMILES IDX 15 1 16 2 17 3 18 4 19 5 20 6 21 7 22 8 23 9 24 10 25 11
REMARK SMILES IDX 26 12 27 13 28 14 29 15 30 16 14 17 13 18 12 19 11 20 10 21
REMARK SMILES IDX 9 22 8 23 7 24 6 25 5 26 4 27 3 28 2 29 1 30
REMARK H PARENT
REMARK Flexibility Score: inf
ROOT
ATOM      1  C   UNL     1      33.771  47.640  27.080  1.00  0.00     0.000 C 
ENDROOT
BRANCH   1   2
ATOM      2  C   UNL     1      33.124  47.854  25.700  1.00  0.00     0.000 C 
BRANCH   2   3
ATOM      3  C   UNL     1      32.058  48.965  25.638  1.00  0.00     0.000 C 
BRANCH   3   4
ATOM      4  C   UNL     1      31.990  49.809  26.924  1.00  0.00     0.000 C 
BRANCH   4   5
ATOM      5  C   UNL     1      32.892  51.060  26.870  1.00  0.00     0.000 C 
BRANCH   5   6
ATOM      6  C   UNL     1      32.570  52.046  25.730  1.00  0.00     0.000 C 
BRANCH   6   7
ATOM      7  C   UNL     1      32.707  53.520  26.156  1.00  0.00     0.000 C 
BRANCH   7   8
ATOM      8  C   UNL     1      31.594  53.961  27.124  1.00  0.00     0.000 C 
BRANCH   8   9
ATOM      9  C   UNL     1      30.189  54.063  26.493  1.00  0.00     0.000 C 
BRANCH   9  10
ATOM     10  C   UNL     1      29.132  53.135  27.122  1.00  0.00     0.000 C 
BRANCH  10  11
ATOM     11  C   UNL     1      28.806  51.917  26.235  1.00  0.00     0.000 C 
BRANCH  11  12
ATOM     12  C   UNL     1      29.030  52.183  24.731  1.00  0.00     0.006 C 
BRANCH  12  13
ATOM     13  C   UNL     1      29.668  50.990  23.991  1.00  0.00     0.053 C 
BRANCH  13  14
ATOM     14  C   UNL     1      30.786  51.412  23.088  1.00  0.00     0.041 C 
ATOM     15  O   UNL     1      31.602  50.559  22.653  1.00  0.00    -0.550 OA
ATOM     16  O   UNL     1      30.968  52.754  22.787  1.00  0.00    -0.550 OA
ENDBRANCH  13  14
ENDBRANCH  12  13
ENDBRANCH  11  12
ENDBRANCH  10  11
ENDBRANCH   9  10
ENDBRANCH   8   9
ENDBRANCH   7   8
ENDBRANCH   6   7
ENDBRANCH   5   6
ENDBRANCH   4   5
ENDBRANCH   3   4
ENDBRANCH   2   3
ENDBRANCH   1   2
BRANCH   1  17
ATOM     17  C   UNL     1      35.264  48.008  27.109  1.00  0.00     0.000 C 
BRANCH  17  18
ATOM     18  C   UNL     1      36.138  46.753  26.951  1.00  0.00     0.000 C 
BRANCH  18  19
ATOM     19  C   UNL     1      35.447  45.658  26.108  1.00  0.00     0.000 C 
BRANCH  19  20
ATOM     20  C   UNL     1      35.343  44.302  26.825  1.00  0.00     0.000 C 
BRANCH  20  21
ATOM     21  C   UNL     1      35.137  43.128  25.853  1.00  0.00     0.000 C 
BRANCH  21  22
ATOM     22  C   UNL     1      36.464  42.553  25.331  1.00  0.00    -0.000 C 
BRANCH  22  23
ATOM     23  C   UNL     1      37.648  42.868  26.258  1.00  0.00    -0.000 C 
BRANCH  23  24
ATOM     24  C   UNL     1      38.224  41.583  26.875  1.00  0.00    -0.000 C 
BRANCH  24  25
ATOM     25  C   UNL     1      39.178  40.844  25.924  1.00  0.00    -0.000 C 
BRANCH  25  26
ATOM     26  C   UNL     1      38.962  39.320  25.934  1.00  0.00    -0.000 C 
BRANCH  26  27
ATOM     27  C   UNL     1      37.883  38.898  26.956  1.00  0.00    -0.000 C 
BRANCH  27  28
ATOM     28  C   UNL     1      37.220  37.545  26.629  1.00  0.00    -0.000 C 
BRANCH  28  29
ATOM     29  C   UNL     1      38.037  36.345  27.124  1.00  0.00    -0.003 C 
ATOM     30  C   UNL     1      37.253  35.041  26.974  1.00  0.00     0.004 C 
ENDBRANCH  28  29
ENDBRANCH  27  28
ENDBRANCH  26  27
ENDBRANCH  25  26
ENDBRANCH  24  25
ENDBRANCH  23  24
ENDBRANCH  22  23
ENDBRANCH  21  22
ENDBRANCH  20  21
ENDBRANCH  19  20
ENDBRANCH  18  19
ENDBRANCH  17  18
ENDBRANCH   1  17
TORSDOF 26
ENDMDL
MODEL 6
REMARK VINA RESULT:    -1.537      4.484     13.471
REMARK INTER + INTRA:          -5.105
REMARK INTER:                  -3.032
REMARK INTRA:                  -2.073
REMARK UNBOUND:                -1.232
REMARK SMILES CCCCCCCCCCCCCCCCCCCCCCCCCCCC(=O)[O-]
REMARK SMILES IDX 15 1 16 2 17 3 18 4 19 5 20 6 21 7 22 8 23 9 24 10 25 11
REMARK SMILES IDX 26 12 27 13 28 14 29 15 30 16 14 17 13 18 12 19 11 20 10 21
REMARK SMILES IDX 9 22 8 23 7 24 6 25 5 26 4 27 3 28 2 29 1 30
REMARK H PARENT
REMARK Flexibility Score: inf
ROOT
ATOM      1  C   UNL     1      34.440  47.295  25.240  1.00  0.00     0.000 C 
ENDROOT
BRANCH   1   2
ATOM      2  C   UNL     1      34.712  46.353  26.426  1.00  0.00     0.000 C 
BRANCH   2   3
ATOM      3  C   UNL     1      35.624  45.150  26.114  1.00  0.00     0.000 C 
BRANCH   3   4
ATOM      4  C   UNL     1      37.072  45.347  26.601  1.00  0.00     0.000 C 
BRANCH   4   5
ATOM      5  C   UNL     1      37.728  44.034  27.079  1.00  0.00     0.000 C 
BRANCH   5   6
ATOM      6  C   UNL     1      38.313  43.154  25.957  1.00  0.00     0.000 C 
BRANCH   6   7
ATOM      7  C   UNL     1      38.231  41.649  26.273  1.00  0.00     0.000 C 
BRANCH   7   8
ATOM      8  C   UNL     1      36.780  41.143  26.367  1.00  0.00     0.000 C 
BRANCH   8   9
ATOM      9  C   UNL     1      36.597  39.640  26.064  1.00  0.00     0.000 C 
BRANCH   9  10
ATOM     10  C   UNL     1      37.218  38.692  27.107  1.00  0.00     0.000 C 
BRANCH  10  11
ATOM     11  C   UNL     1      36.576  37.290  27.094  1.00  0.00     0.000 C 
BRANCH  11  12
ATOM     12  C   UNL     1      37.608  36.150  26.951  1.00  0.00     0.006 C 
BRANCH  12  13
ATOM     13  C   UNL     1      38.784  36.509  26.021  1.00  0.00     0.053 C 
BRANCH  13  14
ATOM     14  C   UNL     1      40.113  36.302  26.680  1.00  0.00     0.041 C 
ATOM     15  O   UNL     1      40.761  37.288  27.118  1.00  0.00    -0.550 OA
ATOM     16  O   UNL     1      40.667  35.031  26.745  1.00  0.00    -0.550 OA
ENDBRANCH  13  14
ENDBRANCH  12  13
ENDBRANCH  11  12
ENDBRANCH  10  11
ENDBRANCH   9  10
ENDBRANCH   8   9
ENDBRANCH   7   8
ENDBRANCH   6   7
ENDBRANCH   5   6
ENDBRANCH   4   5
ENDBRANCH   3   4
ENDBRANCH   2   3
ENDBRANCH   1   2
BRANCH   1  17
ATOM     17  C   UNL     1      34.619  48.780  25.598  1.00  0.00     0.000 C 
BRANCH  17  18
ATOM     18  C   UNL     1      33.647  49.194  26.714  1.00  0.00     0.000 C 
BRANCH  18  19
ATOM     19  C   UNL     1      32.828  50.451  26.344  1.00  0.00     0.000 C 
BRANCH  19  20
ATOM     20  C   UNL     1      33.663  51.742  26.307  1.00  0.00     0.000 C 
BRANCH  20  21
ATOM     21  C   UNL     1      32.837  52.995  26.644  1.00  0.00     0.000 C 
BRANCH  21  22
ATOM     22  C   UNL     1      32.239  53.662  25.394  1.00  0.00    -0.000 C 
BRANCH  22  23
ATOM     23  C   UNL     1      30.986  54.492  25.712  1.00  0.00    -0.000 C 
BRANCH  23  24
ATOM     24  C   UNL     1      30.042  53.730  26.655  1.00  0.00    -0.000 C 
BRANCH  24  25
ATOM     25  C   UNL     1      28.614  53.615  26.101  1.00  0.00    -0.000 C 
BRANCH  25  26
ATOM     26  C   UNL     1      28.150  52.154  25.957  1.00  0.00    -0.000 C 
BRANCH  26  27
ATOM     27  C   UNL     1      29.338  51.190  25.749  1.00  0.00    -0.000 C 
BRANCH  27  28
ATOM     28  C   UNL     1      29.565  50.799  24.276  1.00  0.00    -0.000 C 
BRANCH  28  29
ATOM     29  C   UNL     1      30.941  51.228  23.750  1.00  0.00    -0.003 C 
ATOM     30  C   UNL     1      30.806  52.184  22.563  1.00  0.00     0.004 C 
ENDBRANCH  28  29
ENDBRANCH  27  28
ENDBRANCH  26  27
ENDBRANCH  25  26
ENDBRANCH  24  25
ENDBRANCH  23  24
ENDBRANCH  22  23
ENDBRANCH  21  22
ENDBRANCH  20  21
ENDBRANCH  19  20
ENDBRANCH  18  19
ENDBRANCH  17  18
ENDBRANCH   1  17
TORSDOF 26
ENDMDL
MODEL 7
REMARK VINA RESULT:    -1.281      4.518     13.078
REMARK INTER + INTRA:          -4.460
REMARK INTER:                  -6.859
REMARK INTRA:                   2.399
REMARK UNBOUND:                -1.232
REMARK SMILES CCCCCCCCCCCCCCCCCCCCCCCCCCCC(=O)[O-]
REMARK SMILES IDX 15 1 16 2 17 3 18 4 19 5 20 6 21 7 22 8 23 9 24 10 25 11
REMARK SMILES IDX 26 12 27 13 28 14 29 15 30 16 14 17 13 18 12 19 11 20 10 21
REMARK SMILES IDX 9 22 8 23 7 24 6 25 5 26 4 27 3 28 2 29 1 30
REMARK H PARENT
REMARK Flexibility Score: inf
ROOT
ATOM      1  C   UNL     1      34.608  46.967  26.639  1.00  0.00     0.000 C 
ENDROOT
BRANCH   1   2
ATOM      2  C   UNL     1      35.062  45.496  26.600  1.00  0.00     0.000 C 
BRANCH   2   3
ATOM      3  C   UNL     1      35.675  45.031  25.265  1.00  0.00     0.000 C 
BRANCH   3   4
ATOM      4  C   UNL     1      36.420  43.688  25.378  1.00  0.00     0.000 C 
BRANCH   4   5
ATOM      5  C   UNL     1      35.544  42.481  24.981  1.00  0.00     0.000 C 
BRANCH   5   6
ATOM      6  C   UNL     1      36.273  41.383  24.181  1.00  0.00     0.000 C 
BRANCH   6   7
ATOM      7  C   UNL     1      37.805  41.451  24.329  1.00  0.00     0.000 C 
BRANCH   7   8
ATOM      8  C   UNL     1      38.244  42.272  25.555  1.00  0.00     0.000 C 
BRANCH   8   9
ATOM      9  C   UNL     1      37.843  41.666  26.918  1.00  0.00     0.000 C 
BRANCH   9  10
ATOM     10  C   UNL     1      37.767  40.128  26.941  1.00  0.00     0.000 C 
BRANCH  10  11
ATOM     11  C   UNL     1      39.152  39.461  26.809  1.00  0.00     0.000 C 
BRANCH  11  12
ATOM     12  C   UNL     1      39.132  37.950  27.125  1.00  0.00     0.006 C 
BRANCH  12  13
ATOM     13  C   UNL     1      37.932  37.214  26.495  1.00  0.00     0.053 C 
BRANCH  13  14
ATOM     14  C   UNL     1      38.166  35.739  26.384  1.00  0.00     0.041 C 
ATOM     15  O   UNL     1      39.339  35.284  26.373  1.00  0.00    -0.550 OA
ATOM     16  O   UNL     1      37.092  34.875  26.218  1.00  0.00    -0.550 OA
ENDBRANCH  13  14
ENDBRANCH  12  13
ENDBRANCH  11  12
ENDBRANCH  10  11
ENDBRANCH   9  10
ENDBRANCH   8   9
ENDBRANCH   7   8
ENDBRANCH   6   7
ENDBRANCH   5   6
ENDBRANCH   4   5
ENDBRANCH   3   4
ENDBRANCH   2   3
ENDBRANCH   1   2
BRANCH   1  17
ATOM     17  C   UNL     1      33.391  47.244  25.742  1.00  0.00     0.000 C 
BRANCH  17  18
ATOM     18  C   UNL     1      32.180  47.677  26.584  1.00  0.00     0.000 C 
BRANCH  18  19
ATOM     19  C   UNL     1      32.223  49.179  26.945  1.00  0.00     0.000 C 
BRANCH  19  20
ATOM     20  C   UNL     1      33.398  49.935  26.304  1.00  0.00     0.000 C 
BRANCH  20  21
ATOM     21  C   UNL     1      33.679  51.286  26.983  1.00  0.00     0.000 C 
BRANCH  21  22
ATOM     22  C   UNL     1      32.667  52.371  26.580  1.00  0.00    -0.000 C 
BRANCH  22  23
ATOM     23  C   UNL     1      31.253  52.084  27.108  1.00  0.00    -0.000 C 
BRANCH  23  24
ATOM     24  C   UNL     1      30.287  53.223  26.747  1.00  0.00    -0.000 C 
BRANCH  24  25
ATOM     25  C   UNL     1      31.000  54.430  26.117  1.00  0.00    -0.000 C 
BRANCH  25  26
ATOM     26  C   UNL     1      31.426  54.171  24.661  1.00  0.00    -0.000 C 
BRANCH  26  27
ATOM     27  C   UNL     1      30.406  53.287  23.910  1.00  0.00    -0.000 C 
BRANCH  27  28
ATOM     28  C   UNL     1      31.036  52.047  23.246  1.00  0.00    -0.000 C 
BRANCH  28  29
ATOM     29  C   UNL     1      30.386  50.733  23.701  1.00  0.00    -0.003 C 
ATOM     30  C   UNL     1      29.380  50.974  24.828  1.00  0.00     0.004 C 
ENDBRANCH  28  29
ENDBRANCH  27  28
ENDBRANCH  26  27
ENDBRANCH  25  26
ENDBRANCH  24  25
ENDBRANCH  23  24
ENDBRANCH  22  23
ENDBRANCH  21  22
ENDBRANCH  20  21
ENDBRANCH  19  20
ENDBRANCH  18  19
ENDBRANCH  17  18
ENDBRANCH   1  17
TORSDOF 26
ENDMDL
