MODEL 1
REMARK VINA RESULT:    -7.078      0.000      0.000
REMARK INTER + INTRA:          -8.600
REMARK INTER:                  -8.319
REMARK INTRA:                  -0.281
REMARK UNBOUND:                -0.281
REMARK SMILES O=c1cc(-c2ccc(O)c(O)c2)oc2cc(O)cc(O)c12
REMARK SMILES IDX 4 1 3 2 2 3 1 4 21 5 19 6 18 7 16 8 15 9 14 10 13 11 5 12
REMARK SMILES IDX 6 13 7 14 8 15 12 16 10 17 9 18 11 20 20 22 17 24
REMARK H PARENT 9 19 11 21 20 23 17 25
REMARK Flexibility Score: inf
ROOT
ATOM      1  C   UNL     1      20.931 -36.924  -7.518  1.00  0.00     0.138 A 
ATOM      2  C   UNL     1      21.588 -35.764  -7.077  1.00  0.00     0.100 A 
ATOM      3  C   UNL     1      22.699 -35.293  -7.778  1.00  0.00     0.197 A 
ATOM      4  O   UNL     1      23.281 -34.251  -7.374  1.00  0.00    -0.289 OA
ATOM      5  C   UNL     1      23.143 -35.985  -8.923  1.00  0.00     0.107 A 
ATOM      6  C   UNL     1      24.260 -35.577  -9.690  1.00  0.00     0.134 A 
ATOM      7  C   UNL     1      24.635 -36.319 -10.819  1.00  0.00     0.093 A 
ATOM      8  C   UNL     1      23.917 -37.458 -11.195  1.00  0.00     0.123 A 
ATOM      9  C   UNL     1      22.813 -37.866 -10.440  1.00  0.00     0.094 A 
ATOM     10  C   UNL     1      22.423 -37.141  -9.310  1.00  0.00     0.146 A 
ATOM     11  O   UNL     1      21.371 -37.550  -8.609  1.00  0.00    -0.456 OA
ENDROOT
BRANCH   1  12
ATOM     12  C   UNL     1      19.745 -37.470  -6.813  1.00  0.00     0.021 A 
ATOM     13  C   UNL     1      19.522 -38.856  -6.703  1.00  0.00     0.016 A 
ATOM     14  C   UNL     1      18.390 -39.341  -6.042  1.00  0.00     0.051 A 
ATOM     15  C   UNL     1      17.461 -38.458  -5.487  1.00  0.00     0.157 A 
ATOM     16  C   UNL     1      18.799 -36.586  -6.264  1.00  0.00     0.062 A 
ATOM     17  C   UNL     1      17.664 -37.073  -5.599  1.00  0.00     0.158 A 
BRANCH  15  18
ATOM     18  O   UNL     1      16.342 -38.973  -4.832  1.00  0.00    -0.504 OA
ATOM     19  H   UNL     1      16.397 -39.788  -4.234  1.00  0.00     0.293 HD
ENDBRANCH  15  18
BRANCH  17  20
ATOM     20  O   UNL     1      16.738 -36.185  -5.052  1.00  0.00    -0.504 OA
ATOM     21  H   UNL     1      15.969 -35.816  -5.599  1.00  0.00     0.293 HD
ENDBRANCH  17  20
ENDBRANCH   1  12
BRANCH   6  22
ATOM     22  O   UNL     1      24.996 -34.445  -9.339  1.00  0.00    -0.507 OA
ATOM     23  H   UNL     1      25.374 -34.323  -8.407  1.00  0.00     0.293 HD
ENDBRANCH   6  22
BRANCH   8  24
ATOM     24  O   UNL     1      24.311 -38.177 -12.322  1.00  0.00    -0.508 OA
ATOM     25  H   UNL     1      24.292 -39.189 -12.338  1.00  0.00     0.293 HD
ENDBRANCH   8  24
TORSDOF 5
ENDMDL
MODEL 2
REMARK VINA RESULT:    -6.778      3.849      6.800
REMARK INTER + INTRA:          -8.247
REMARK INTER:                  -7.982
REMARK INTRA:                  -0.265
REMARK UNBOUND:                -0.281
REMARK SMILES O=c1cc(-c2ccc(O)c(O)c2)oc2cc(O)cc(O)c12
REMARK SMILES IDX 4 1 3 2 2 3 1 4 21 5 19 6 18 7 16 8 15 9 14 10 13 11 5 12
REMARK SMILES IDX 6 13 7 14 8 15 12 16 10 17 9 18 11 20 20 22 17 24
REMARK H PARENT 9 19 11 21 20 23 17 25
REMARK Flexibility Score: inf
ROOT
ATOM      1  C   UNL     1      22.054 -34.084  -9.401  1.00  0.00     0.138 A 
ATOM      2  C   UNL     1      21.878 -33.950  -8.014  1.00  0.00     0.100 A 
ATOM      3  C   UNL     1      21.285 -32.794  -7.503  1.00  0.00     0.197 A 
ATOM      4  O   UNL     1      21.132 -32.685  -6.257  1.00  0.00    -0.289 OA
ATOM      5  C   UNL     1      20.866 -31.779  -8.387  1.00  0.00     0.107 A 
ATOM      6  C   UNL     1      20.258 -30.578  -7.954  1.00  0.00     0.134 A 
ATOM      7  C   UNL     1      19.865 -29.618  -8.898  1.00  0.00     0.093 A 
ATOM      8  C   UNL     1      20.068 -29.838 -10.263  1.00  0.00     0.123 A 
ATOM      9  C   UNL     1      20.668 -31.024 -10.697  1.00  0.00     0.094 A 
ATOM     10  C   UNL     1      21.068 -31.992  -9.772  1.00  0.00     0.146 A 
ATOM     11  O   UNL     1      21.638 -33.110 -10.209  1.00  0.00    -0.456 OA
ENDROOT
BRANCH   1  12
ATOM     12  C   UNL     1      22.677 -35.290  -9.999  1.00  0.00     0.021 A 
ATOM     13  C   UNL     1      23.901 -35.225 -10.691  1.00  0.00     0.016 A 
ATOM     14  C   UNL     1      24.460 -36.376 -11.254  1.00  0.00     0.051 A 
ATOM     15  C   UNL     1      23.806 -37.606 -11.144  1.00  0.00     0.157 A 
ATOM     16  C   UNL     1      22.018 -36.529  -9.904  1.00  0.00     0.062 A 
ATOM     17  C   UNL     1      22.579 -37.685 -10.467  1.00  0.00     0.158 A 
BRANCH  15  18
ATOM     18  O   UNL     1      24.390 -38.737 -11.715  1.00  0.00    -0.504 OA
ATOM     19  H   UNL     1      23.936 -39.643 -11.701  1.00  0.00     0.293 HD
ENDBRANCH  15  18
BRANCH  17  20
ATOM     20  O   UNL     1      21.919 -38.908 -10.358  1.00  0.00    -0.504 OA
ATOM     21  H   UNL     1      22.381 -39.729  -9.983  1.00  0.00     0.293 HD
ENDBRANCH  17  20
ENDBRANCH   1  12
BRANCH   6  22
ATOM     22  O   UNL     1      20.043 -30.330  -6.597  1.00  0.00    -0.507 OA
ATOM     23  H   UNL     1      20.586 -29.642  -6.089  1.00  0.00     0.293 HD
ENDBRANCH   6  22
BRANCH   8  24
ATOM     24  O   UNL     1      19.666 -28.868 -11.181  1.00  0.00    -0.508 OA
ATOM     25  H   UNL     1      20.301 -28.147 -11.501  1.00  0.00     0.293 HD
ENDBRANCH   8  24
TORSDOF 5
ENDMDL
MODEL 3
REMARK VINA RESULT:    -6.754      3.808      8.040
REMARK INTER + INTRA:          -8.219
REMARK INTER:                  -7.955
REMARK INTRA:                  -0.264
REMARK UNBOUND:                -0.281
REMARK SMILES O=c1cc(-c2ccc(O)c(O)c2)oc2cc(O)cc(O)c12
REMARK SMILES IDX 4 1 3 2 2 3 1 4 21 5 19 6 18 7 16 8 15 9 14 10 13 11 5 12
REMARK SMILES IDX 6 13 7 14 8 15 12 16 10 17 9 18 11 20 20 22 17 24
REMARK H PARENT 9 19 11 21 20 23 17 25
REMARK Flexibility Score: inf
ROOT
ATOM      1  C   UNL     1      23.201 -32.398  -8.978  1.00  0.00     0.138 A 
ATOM      2  C   UNL     1      22.178 -31.892  -8.159  1.00  0.00     0.100 A 
ATOM      3  C   UNL     1      21.277 -32.773  -7.559  1.00  0.00     0.197 A 
ATOM      4  O   UNL     1      20.363 -32.309  -6.826  1.00  0.00    -0.289 OA
ATOM      5  C   UNL     1      21.410 -34.159  -7.780  1.00  0.00     0.107 A 
ATOM      6  C   UNL     1      20.541 -35.120  -7.212  1.00  0.00     0.134 A 
ATOM      7  C   UNL     1      20.743 -36.482  -7.476  1.00  0.00     0.093 A 
ATOM      8  C   UNL     1      21.795 -36.900  -8.295  1.00  0.00     0.123 A 
ATOM      9  C   UNL     1      22.658 -35.955  -8.859  1.00  0.00     0.094 A 
ATOM     10  C   UNL     1      22.472 -34.592  -8.609  1.00  0.00     0.146 A 
ATOM     11  O   UNL     1      23.305 -33.713  -9.157  1.00  0.00    -0.456 OA
ENDROOT
BRANCH   1  12
ATOM     12  C   UNL     1      24.188 -31.508  -9.639  1.00  0.00     0.021 A 
ATOM     13  C   UNL     1      25.378 -31.116  -8.998  1.00  0.00     0.016 A 
ATOM     14  C   UNL     1      26.284 -30.268  -9.641  1.00  0.00     0.051 A 
ATOM     15  C   UNL     1      26.017 -29.792 -10.927  1.00  0.00     0.157 A 
ATOM     16  C   UNL     1      23.919 -31.014 -10.928  1.00  0.00     0.062 A 
ATOM     17  C   UNL     1      24.829 -30.165 -11.575  1.00  0.00     0.158 A 
BRANCH  15  18
ATOM     18  O   UNL     1      26.942 -28.949 -11.543  1.00  0.00    -0.504 OA
ATOM     19  H   UNL     1      26.749 -27.968 -11.709  1.00  0.00     0.293 HD
ENDBRANCH  15  18
BRANCH  17  20
ATOM     20  O   UNL     1      24.554 -29.690 -12.857  1.00  0.00    -0.504 OA
ATOM     21  H   UNL     1      25.272 -29.638 -13.570  1.00  0.00     0.293 HD
ENDBRANCH  17  20
ENDBRANCH   1  12
BRANCH   6  22
ATOM     22  O   UNL     1      19.481 -34.733  -6.390  1.00  0.00    -0.507 OA
ATOM     23  H   UNL     1      18.525 -34.998  -6.595  1.00  0.00     0.293 HD
ENDBRANCH   6  22
BRANCH   8  24
ATOM     24  O   UNL     1      21.975 -38.261  -8.541  1.00  0.00    -0.508 OA
ATOM     25  H   UNL     1      22.221 -38.905  -7.799  1.00  0.00     0.293 HD
ENDBRANCH   8  24
TORSDOF 5
ENDMDL
MODEL 4
REMARK VINA RESULT:    -6.617      3.072      4.362
REMARK INTER + INTRA:          -8.059
REMARK INTER:                  -7.764
REMARK INTRA:                  -0.295
REMARK UNBOUND:                -0.281
REMARK SMILES O=c1cc(-c2ccc(O)c(O)c2)oc2cc(O)cc(O)c12
REMARK SMILES IDX 4 1 3 2 2 3 1 4 21 5 19 6 18 7 16 8 15 9 14 10 13 11 5 12
REMARK SMILES IDX 6 13 7 14 8 15 12 16 10 17 9 18 11 20 20 22 17 24
REMARK H PARENT 9 19 11 21 20 23 17 25
REMARK Flexibility Score: inf
ROOT
ATOM      1  C   UNL     1      20.817 -34.607  -7.581  1.00  0.00     0.138 A 
ATOM      2  C   UNL     1      22.167 -34.924  -7.808  1.00  0.00     0.100 A 
ATOM      3  C   UNL     1      23.002 -33.982  -8.411  1.00  0.00     0.197 A 
ATOM      4  O   UNL     1      24.211 -34.276  -8.611  1.00  0.00    -0.289 OA
ATOM      5  C   UNL     1      22.481 -32.725  -8.779  1.00  0.00     0.107 A 
ATOM      6  C   UNL     1      23.257 -31.715  -9.395  1.00  0.00     0.134 A 
ATOM      7  C   UNL     1      22.665 -30.488  -9.726  1.00  0.00     0.093 A 
ATOM      8  C   UNL     1      21.315 -30.253  -9.453  1.00  0.00     0.123 A 
ATOM      9  C   UNL     1      20.543 -31.247  -8.844  1.00  0.00     0.094 A 
ATOM     10  C   UNL     1      21.114 -32.478  -8.508  1.00  0.00     0.146 A 
ATOM     11  O   UNL     1      20.359 -33.407  -7.931  1.00  0.00    -0.456 OA
ENDROOT
BRANCH   1  12
ATOM     12  C   UNL     1      19.884 -35.568  -6.942  1.00  0.00     0.021 A 
ATOM     13  C   UNL     1      18.532 -35.246  -6.713  1.00  0.00     0.016 A 
ATOM     14  C   UNL     1      17.679 -36.167  -6.100  1.00  0.00     0.051 A 
ATOM     15  C   UNL     1      18.156 -37.418  -5.700  1.00  0.00     0.157 A 
ATOM     16  C   UNL     1      20.361 -36.824  -6.525  1.00  0.00     0.062 A 
ATOM     17  C   UNL     1      19.504 -37.749  -5.911  1.00  0.00     0.158 A 
BRANCH  15  18
ATOM     18  O   UNL     1      17.279 -38.316  -5.092  1.00  0.00    -0.504 OA
ATOM     19  H   UNL     1      17.105 -39.239  -5.471  1.00  0.00     0.293 HD
ENDBRANCH  15  18
BRANCH  17  20
ATOM     20  O   UNL     1      19.988 -38.993  -5.511  1.00  0.00    -0.504 OA
ATOM     21  H   UNL     1      20.257 -39.175  -4.550  1.00  0.00     0.293 HD
ENDBRANCH  17  20
ENDBRANCH   1  12
BRANCH   6  22
ATOM     22  O   UNL     1      24.608 -31.922  -9.680  1.00  0.00    -0.507 OA
ATOM     23  H   UNL     1      25.009 -32.852  -9.710  1.00  0.00     0.293 HD
ENDBRANCH   6  22
BRANCH   8  24
ATOM     24  O   UNL     1      20.751 -29.024  -9.792  1.00  0.00    -0.508 OA
ATOM     25  H   UNL     1      20.872 -28.621 -10.713  1.00  0.00     0.293 HD
ENDBRANCH   8  24
TORSDOF 5
ENDMDL
MODEL 5
REMARK VINA RESULT:    -6.585      2.820      4.284
REMARK INTER + INTRA:          -8.021
REMARK INTER:                  -7.725
REMARK INTRA:                  -0.295
REMARK UNBOUND:                -0.281
REMARK SMILES O=c1cc(-c2ccc(O)c(O)c2)oc2cc(O)cc(O)c12
REMARK SMILES IDX 4 1 3 2 2 3 1 4 21 5 19 6 18 7 16 8 15 9 14 10 13 11 5 12
REMARK SMILES IDX 6 13 7 14 8 15 12 16 10 17 9 18 11 20 20 22 17 24
REMARK H PARENT 9 19 11 21 20 23 17 25
REMARK Flexibility Score: inf
ROOT
ATOM      1  C   UNL     1      21.949 -34.040  -7.841  1.00  0.00     0.138 A 
ATOM      2  C   UNL     1      21.610 -32.895  -8.582  1.00  0.00     0.100 A 
ATOM      3  C   UNL     1      22.614 -32.013  -8.983  1.00  0.00     0.197 A 
ATOM      4  O   UNL     1      22.300 -30.989  -9.648  1.00  0.00    -0.289 OA
ATOM      5  C   UNL     1      23.955 -32.284  -8.642  1.00  0.00     0.107 A 
ATOM      6  C   UNL     1      25.032 -31.443  -9.007  1.00  0.00     0.134 A 
ATOM      7  C   UNL     1      26.339 -31.786  -8.634  1.00  0.00     0.093 A 
ATOM      8  C   UNL     1      26.589 -32.951  -7.905  1.00  0.00     0.123 A 
ATOM      9  C   UNL     1      25.528 -33.787  -7.541  1.00  0.00     0.094 A 
ATOM     10  C   UNL     1      24.218 -33.462  -7.903  1.00  0.00     0.146 A 
ATOM     11  O   UNL     1      23.226 -34.271  -7.544  1.00  0.00    -0.456 OA
ENDROOT
BRANCH   1  12
ATOM     12  C   UNL     1      20.924 -35.013  -7.389  1.00  0.00     0.021 A 
ATOM     13  C   UNL     1      19.701 -34.594  -6.831  1.00  0.00     0.016 A 
ATOM     14  C   UNL     1      18.758 -35.533  -6.405  1.00  0.00     0.051 A 
ATOM     15  C   UNL     1      19.019 -36.901  -6.520  1.00  0.00     0.157 A 
ATOM     16  C   UNL     1      21.186 -36.391  -7.490  1.00  0.00     0.062 A 
ATOM     17  C   UNL     1      20.239 -37.334  -7.064  1.00  0.00     0.158 A 
BRANCH  15  18
ATOM     18  O   UNL     1      18.057 -37.814  -6.086  1.00  0.00    -0.504 OA
ATOM     19  H   UNL     1      17.891 -37.995  -5.104  1.00  0.00     0.293 HD
ENDBRANCH  15  18
BRANCH  17  20
ATOM     20  O   UNL     1      20.508 -38.697  -7.177  1.00  0.00    -0.504 OA
ATOM     21  H   UNL     1      20.446 -39.319  -6.379  1.00  0.00     0.293 HD
ENDBRANCH  17  20
ENDBRANCH   1  12
BRANCH   6  22
ATOM     22  O   UNL     1      24.814 -30.272  -9.735  1.00  0.00    -0.507 OA
ATOM     23  H   UNL     1      24.226 -29.527  -9.381  1.00  0.00     0.293 HD
ENDBRANCH   6  22
BRANCH   8  24
ATOM     24  O   UNL     1      27.898 -33.270  -7.547  1.00  0.00    -0.508 OA
ATOM     25  H   UNL     1      28.619 -33.407  -8.245  1.00  0.00     0.293 HD
ENDBRANCH   8  24
TORSDOF 5
ENDMDL
MODEL 6
REMARK VINA RESULT:    -6.409      5.871      7.287
REMARK INTER + INTRA:          -7.814
REMARK INTER:                  -7.551
REMARK INTRA:                  -0.264
REMARK UNBOUND:                -0.281
REMARK SMILES O=c1cc(-c2ccc(O)c(O)c2)oc2cc(O)cc(O)c12
REMARK SMILES IDX 4 1 3 2 2 3 1 4 21 5 19 6 18 7 16 8 15 9 14 10 13 11 5 12
REMARK SMILES IDX 6 13 7 14 8 15 12 16 10 17 9 18 11 20 20 22 17 24
REMARK H PARENT 9 19 11 21 20 23 17 25
REMARK Flexibility Score: inf
ROOT
ATOM      1  C   UNL     1      21.816 -31.434  -9.866  1.00  0.00     0.138 A 
ATOM      2  C   UNL     1      22.084 -32.401  -8.882  1.00  0.00     0.100 A 
ATOM      3  C   UNL     1      23.385 -32.547  -8.398  1.00  0.00     0.197 A 
ATOM      4  O   UNL     1      23.616 -33.417  -7.516  1.00  0.00    -0.289 OA
ATOM      5  C   UNL     1      24.410 -31.720  -8.900  1.00  0.00     0.107 A 
ATOM      6  C   UNL     1      25.754 -31.802  -8.465  1.00  0.00     0.134 A 
ATOM      7  C   UNL     1      26.715 -30.939  -9.011  1.00  0.00     0.093 A 
ATOM      8  C   UNL     1      26.358 -29.997  -9.979  1.00  0.00     0.123 A 
ATOM      9  C   UNL     1      25.031 -29.910 -10.412  1.00  0.00     0.094 A 
ATOM     10  C   UNL     1      24.059 -30.763  -9.882  1.00  0.00     0.146 A 
ATOM     11  O   UNL     1      22.805 -30.662 -10.311  1.00  0.00    -0.456 OA
ENDROOT
BRANCH   1  12
ATOM     12  C   UNL     1      20.452 -31.234 -10.415  1.00  0.00     0.021 A 
ATOM     13  C   UNL     1      19.559 -30.299  -9.857  1.00  0.00     0.016 A 
ATOM     14  C   UNL     1      18.276 -30.139 -10.389  1.00  0.00     0.051 A 
ATOM     15  C   UNL     1      17.860 -30.910 -11.477  1.00  0.00     0.157 A 
ATOM     16  C   UNL     1      20.021 -32.016 -11.502  1.00  0.00     0.062 A 
ATOM     17  C   UNL     1      18.735 -31.855 -12.037  1.00  0.00     0.158 A 
BRANCH  15  18
ATOM     18  O   UNL     1      16.574 -30.726 -11.986  1.00  0.00    -0.504 OA
ATOM     19  H   UNL     1      16.201 -31.306 -12.728  1.00  0.00     0.293 HD
ENDBRANCH  15  18
BRANCH  17  20
ATOM     20  O   UNL     1      18.324 -32.630 -13.120  1.00  0.00    -0.504 OA
ATOM     21  H   UNL     1      17.975 -32.209 -13.973  1.00  0.00     0.293 HD
ENDBRANCH  17  20
ENDBRANCH   1  12
BRANCH   6  22
ATOM     22  O   UNL     1      26.140 -32.734  -7.500  1.00  0.00    -0.507 OA
ATOM     23  H   UNL     1      25.680 -32.789  -6.599  1.00  0.00     0.293 HD
ENDBRANCH   6  22
BRANCH   8  24
ATOM     24  O   UNL     1      27.333 -29.149 -10.504  1.00  0.00    -0.508 OA
ATOM     25  H   UNL     1      27.746 -29.317 -11.413  1.00  0.00     0.293 HD
ENDBRANCH   8  24
TORSDOF 5
ENDMDL
MODEL 7
REMARK VINA RESULT:    -6.397      3.516      4.894
REMARK INTER + INTRA:          -7.800
REMARK INTER:                  -7.498
REMARK INTRA:                  -0.303
REMARK UNBOUND:                -0.281
REMARK SMILES O=c1cc(-c2ccc(O)c(O)c2)oc2cc(O)cc(O)c12
REMARK SMILES IDX 4 1 3 2 2 3 1 4 21 5 19 6 18 7 16 8 15 9 14 10 13 11 5 12
REMARK SMILES IDX 6 13 7 14 8 15 12 16 10 17 9 18 11 20 20 22 17 24
REMARK H PARENT 9 19 11 21 20 23 17 25
REMARK Flexibility Score: inf
ROOT
ATOM      1  C   UNL     1      20.832 -34.001  -8.121  1.00  0.00     0.138 A 
ATOM      2  C   UNL     1      19.828 -33.023  -8.216  1.00  0.00     0.100 A 
ATOM      3  C   UNL     1      20.150 -31.748  -8.685  1.00  0.00     0.197 A 
ATOM      4  O   UNL     1      19.242 -30.879  -8.766  1.00  0.00    -0.289 OA
ATOM      5  C   UNL     1      21.478 -31.462  -9.061  1.00  0.00     0.107 A 
ATOM      6  C   UNL     1      21.890 -30.198  -9.546  1.00  0.00     0.134 A 
ATOM      7  C   UNL     1      23.230 -29.995  -9.904  1.00  0.00     0.093 A 
ATOM      8  C   UNL     1      24.163 -31.028  -9.789  1.00  0.00     0.123 A 
ATOM      9  C   UNL     1      23.762 -32.280  -9.311  1.00  0.00     0.094 A 
ATOM     10  C   UNL     1      22.431 -32.503  -8.947  1.00  0.00     0.146 A 
ATOM     11  O   UNL     1      22.074 -33.700  -8.494  1.00  0.00    -0.456 OA
ENDROOT
BRANCH   1  12
ATOM     12  C   UNL     1      20.546 -35.372  -7.630  1.00  0.00     0.021 A 
ATOM     13  C   UNL     1      19.616 -35.611  -6.601  1.00  0.00     0.016 A 
ATOM     14  C   UNL     1      19.375 -36.912  -6.152  1.00  0.00     0.051 A 
ATOM     15  C   UNL     1      20.059 -37.993  -6.713  1.00  0.00     0.157 A 
ATOM     16  C   UNL     1      21.241 -36.463  -8.181  1.00  0.00     0.062 A 
ATOM     17  C   UNL     1      20.999 -37.769  -7.732  1.00  0.00     0.158 A 
BRANCH  15  18
ATOM     18  O   UNL     1      19.795 -39.280  -6.244  1.00  0.00    -0.504 OA
ATOM     19  H   UNL     1      20.392 -39.738  -5.565  1.00  0.00     0.293 HD
ENDBRANCH  15  18
BRANCH  17  20
ATOM     20  O   UNL     1      21.688 -38.843  -8.293  1.00  0.00    -0.504 OA
ATOM     21  H   UNL     1      22.594 -39.134  -7.943  1.00  0.00     0.293 HD
ENDBRANCH  17  20
ENDBRANCH   1  12
BRANCH   6  22
ATOM     22  O   UNL     1      20.981 -29.147  -9.671  1.00  0.00    -0.507 OA
ATOM     23  H   UNL     1      21.093 -28.282  -9.156  1.00  0.00     0.293 HD
ENDBRANCH   6  22
BRANCH   8  24
ATOM     24  O   UNL     1      25.489 -30.800 -10.153  1.00  0.00    -0.508 OA
ATOM     25  H   UNL     1      25.749 -30.608 -11.113  1.00  0.00     0.293 HD
ENDBRANCH   8  24
TORSDOF 5
ENDMDL
MODEL 8
REMARK VINA RESULT:    -6.327      2.907      6.777
REMARK INTER + INTRA:          -7.718
REMARK INTER:                  -7.407
REMARK INTRA:                  -0.311
REMARK UNBOUND:                -0.281
REMARK SMILES O=c1cc(-c2ccc(O)c(O)c2)oc2cc(O)cc(O)c12
REMARK SMILES IDX 4 1 3 2 2 3 1 4 21 5 19 6 18 7 16 8 15 9 14 10 13 11 5 12
REMARK SMILES IDX 6 13 7 14 8 15 12 16 10 17 9 18 11 20 20 22 17 24
REMARK H PARENT 9 19 11 21 20 23 17 25
REMARK Flexibility Score: inf
ROOT
ATOM      1  C   UNL     1      20.722 -34.905  -7.948  1.00  0.00     0.138 A 
ATOM      2  C   UNL     1      21.495 -35.971  -8.437  1.00  0.00     0.100 A 
ATOM      3  C   UNL     1      21.177 -37.279  -8.066  1.00  0.00     0.197 A 
ATOM      4  O   UNL     1      21.877 -38.228  -8.511  1.00  0.00    -0.289 OA
ATOM      5  C   UNL     1      20.083 -37.512  -7.209  1.00  0.00     0.107 A 
ATOM      6  C   UNL     1      19.693 -38.803  -6.784  1.00  0.00     0.134 A 
ATOM      7  C   UNL     1      18.588 -38.951  -5.934  1.00  0.00     0.093 A 
ATOM      8  C   UNL     1      17.866 -37.835  -5.503  1.00  0.00     0.123 A 
ATOM      9  C   UNL     1      18.246 -36.556  -5.920  1.00  0.00     0.094 A 
ATOM     10  C   UNL     1      19.346 -36.387  -6.766  1.00  0.00     0.146 A 
ATOM     11  O   UNL     1      19.689 -35.161  -7.148  1.00  0.00    -0.456 OA
ENDROOT
BRANCH   1  12
ATOM     12  C   UNL     1      21.013 -33.496  -8.310  1.00  0.00     0.021 A 
ATOM     13  C   UNL     1      22.301 -33.083  -8.700  1.00  0.00     0.016 A 
ATOM     14  C   UNL     1      22.549 -31.746  -9.026  1.00  0.00     0.051 A 
ATOM     15  C   UNL     1      21.523 -30.800  -8.960  1.00  0.00     0.157 A 
ATOM     16  C   UNL     1      19.988 -32.536  -8.233  1.00  0.00     0.062 A 
ATOM     17  C   UNL     1      20.236 -31.195  -8.561  1.00  0.00     0.158 A 
BRANCH  15  18
ATOM     18  O   UNL     1      21.801 -29.474  -9.293  1.00  0.00    -0.504 OA
ATOM     19  H   UNL     1      22.268 -29.222 -10.155  1.00  0.00     0.293 HD
ENDBRANCH  15  18
BRANCH  17  20
ATOM     20  O   UNL     1      19.209 -30.255  -8.490  1.00  0.00    -0.504 OA
ATOM     21  H   UNL     1      18.416 -30.284  -9.121  1.00  0.00     0.293 HD
ENDBRANCH  17  20
ENDBRANCH   1  12
BRANCH   6  22
ATOM     22  O   UNL     1      20.395 -39.937  -7.197  1.00  0.00    -0.507 OA
ATOM     23  H   UNL     1      21.379 -39.896  -7.436  1.00  0.00     0.293 HD
ENDBRANCH   6  22
BRANCH   8  24
ATOM     24  O   UNL     1      16.771 -38.010  -4.659  1.00  0.00    -0.508 OA
ATOM     25  H   UNL     1      16.153 -37.241  -4.427  1.00  0.00     0.293 HD
ENDBRANCH   8  24
TORSDOF 5
ENDMDL
MODEL 9
REMARK VINA RESULT:    -6.184      1.449      7.550
REMARK INTER + INTRA:          -7.549
REMARK INTER:                  -7.284
REMARK INTRA:                  -0.265
REMARK UNBOUND:                -0.281
REMARK SMILES O=c1cc(-c2ccc(O)c(O)c2)oc2cc(O)cc(O)c12
REMARK SMILES IDX 4 1 3 2 2 3 1 4 21 5 19 6 18 7 16 8 15 9 14 10 13 11 5 12
REMARK SMILES IDX 6 13 7 14 8 15 12 16 10 17 9 18 11 20 20 22 17 24
REMARK H PARENT 9 19 11 21 20 23 17 25
REMARK Flexibility Score: inf
ROOT
ATOM      1  C   UNL     1      20.157 -37.153  -6.993  1.00  0.00     0.138 A 
ATOM      2  C   UNL     1      19.955 -38.504  -6.663  1.00  0.00     0.100 A 
ATOM      3  C   UNL     1      18.809 -38.876  -5.959  1.00  0.00     0.197 A 
ATOM      4  O   UNL     1      18.637 -40.091  -5.668  1.00  0.00    -0.289 OA
ATOM      5  C   UNL     1      17.868 -37.893  -5.592  1.00  0.00     0.107 A 
ATOM      6  C   UNL     1      16.682 -38.184  -4.878  1.00  0.00     0.134 A 
ATOM      7  C   UNL     1      15.793 -37.148  -4.556  1.00  0.00     0.093 A 
ATOM      8  C   UNL     1      16.067 -35.831  -4.933  1.00  0.00     0.123 A 
ATOM      9  C   UNL     1      17.237 -35.538  -5.640  1.00  0.00     0.094 A 
ATOM     10  C   UNL     1      18.137 -36.555  -5.969  1.00  0.00     0.146 A 
ATOM     11  O   UNL     1      19.243 -36.251  -6.640  1.00  0.00    -0.456 OA
ENDROOT
BRANCH   1  12
ATOM     12  C   UNL     1      21.355 -36.700  -7.741  1.00  0.00     0.021 A 
ATOM     13  C   UNL     1      22.257 -35.765  -7.198  1.00  0.00     0.016 A 
ATOM     14  C   UNL     1      23.372 -35.348  -7.930  1.00  0.00     0.051 A 
ATOM     15  C   UNL     1      23.604 -35.848  -9.214  1.00  0.00     0.157 A 
ATOM     16  C   UNL     1      21.587 -37.190  -9.039  1.00  0.00     0.062 A 
ATOM     17  C   UNL     1      22.707 -36.773  -9.773  1.00  0.00     0.158 A 
BRANCH  15  18
ATOM     18  O   UNL     1      24.727 -35.414  -9.918  1.00  0.00    -0.504 OA
ATOM     19  H   UNL     1      24.653 -34.824 -10.738  1.00  0.00     0.293 HD
ENDBRANCH  15  18
BRANCH  17  20
ATOM     20  O   UNL     1      22.930 -37.273 -11.055  1.00  0.00    -0.504 OA
ATOM     21  H   UNL     1      23.639 -36.880 -11.663  1.00  0.00     0.293 HD
ENDBRANCH  17  20
ENDBRANCH   1  12
BRANCH   6  22
ATOM     22  O   UNL     1      16.382 -39.490  -4.487  1.00  0.00    -0.507 OA
ATOM     23  H   UNL     1      16.620 -39.838  -3.566  1.00  0.00     0.293 HD
ENDBRANCH   6  22
BRANCH   8  24
ATOM     24  O   UNL     1      15.166 -34.821  -4.601  1.00  0.00    -0.508 OA
ATOM     25  H   UNL     1      15.271 -34.275  -3.754  1.00  0.00     0.293 HD
ENDBRANCH   8  24
TORSDOF 5
ENDMDL
