MODEL 1
REMARK VINA RESULT:    -3.670      0.000      0.000
REMARK INTER + INTRA:          -4.398
REMARK INTER:                  -4.314
REMARK INTRA:                  -0.085
REMARK UNBOUND:                -0.085
REMARK SMILES CCCCC(=O)[O-]
REMARK SMILES IDX 4 1 5 2 6 3 7 4 3 5 2 6 1 7
REMARK H PARENT
REMARK Flexibility Score: inf
ROOT
ATOM      1  C   UNL     1      15.809  15.625  38.333  1.00  0.00     0.053 C 
ENDROOT
BRANCH   1   2
ATOM      2  C   UNL     1      14.803  14.626  37.849  1.00  0.00     0.041 C 
ATOM      3  O   UNL     1      14.679  13.518  38.436  1.00  0.00    -0.550 OA
ATOM      4  O   UNL     1      13.980  14.927  36.771  1.00  0.00    -0.550 OA
ENDBRANCH   1   2
BRANCH   1   5
ATOM      5  C   UNL     1      15.236  17.050  38.408  1.00  0.00     0.006 C 
BRANCH   5   6
ATOM      6  C   UNL     1      16.099  18.106  37.692  1.00  0.00    -0.003 C 
ATOM      7  C   UNL     1      17.032  17.510  36.641  1.00  0.00     0.004 C 
ENDBRANCH   5   6
ENDBRANCH   1   5
TORSDOF 3
ENDMDL
MODEL 2
REMARK VINA RESULT:    -3.641      0.767      1.604
REMARK INTER + INTRA:          -4.364
REMARK INTER:                  -4.337
REMARK INTRA:                  -0.027
REMARK UNBOUND:                -0.085
REMARK SMILES CCCCC(=O)[O-]
REMARK SMILES IDX 4 1 5 2 6 3 7 4 3 5 2 6 1 7
REMARK H PARENT
REMARK Flexibility Score: inf
ROOT
ATOM      1  C   UNL     1      15.778  15.733  38.169  1.00  0.00     0.053 C 
ENDROOT
BRANCH   1   2
ATOM      2  C   UNL     1      14.784  14.651  37.873  1.00  0.00     0.041 C 
ATOM      3  O   UNL     1      14.017  14.752  36.879  1.00  0.00    -0.550 OA
ATOM      4  O   UNL     1      14.726  13.517  38.673  1.00  0.00    -0.550 OA
ENDBRANCH   1   2
BRANCH   1   5
ATOM      5  C   UNL     1      16.477  16.254  36.903  1.00  0.00     0.006 C 
BRANCH   5   6
ATOM      6  C   UNL     1      16.811  17.757  36.950  1.00  0.00    -0.003 C 
ATOM      7  C   UNL     1      17.187  18.333  35.586  1.00  0.00     0.004 C 
ENDBRANCH   5   6
ENDBRANCH   1   5
TORSDOF 3
ENDMDL
MODEL 3
REMARK VINA RESULT:    -3.503      1.374      1.619
REMARK INTER + INTRA:          -4.202
REMARK INTER:                  -4.120
REMARK INTRA:                  -0.081
REMARK UNBOUND:                -0.085
REMARK SMILES CCCCC(=O)[O-]
REMARK SMILES IDX 4 1 5 2 6 3 7 4 3 5 2 6 1 7
REMARK H PARENT
REMARK Flexibility Score: inf
ROOT
ATOM      1  C   UNL     1      15.750  15.591  38.020  1.00  0.00     0.053 C 
ENDROOT
BRANCH   1   2
ATOM      2  C   UNL     1      14.275  15.783  37.833  1.00  0.00     0.041 C 
ATOM      3  O   UNL     1      13.599  16.384  38.708  1.00  0.00    -0.550 OA
ATOM      4  O   UNL     1      13.652  15.328  36.677  1.00  0.00    -0.550 OA
ENDBRANCH   1   2
BRANCH   1   5
ATOM      5  C   UNL     1      16.580  16.328  36.956  1.00  0.00     0.006 C 
BRANCH   5   6
ATOM      6  C   UNL     1      16.440  17.860  37.008  1.00  0.00    -0.003 C 
ATOM      7  C   UNL     1      17.074  18.564  35.810  1.00  0.00     0.004 C 
ENDBRANCH   5   6
ENDBRANCH   1   5
TORSDOF 3
ENDMDL
MODEL 4
REMARK VINA RESULT:    -3.463      7.959      8.286
REMARK INTER + INTRA:          -4.154
REMARK INTER:                  -4.134
REMARK INTRA:                  -0.021
REMARK UNBOUND:                -0.085
REMARK SMILES CCCCC(=O)[O-]
REMARK SMILES IDX 4 1 5 2 6 3 7 4 3 5 2 6 1 7
REMARK H PARENT
REMARK Flexibility Score: inf
ROOT
ATOM      1  C   UNL     1       8.239  18.450  34.035  1.00  0.00     0.053 C 
ENDROOT
BRANCH   1   2
ATOM      2  C   UNL     1       8.487  17.769  35.347  1.00  0.00     0.041 C 
ATOM      3  O   UNL     1       9.011  16.624  35.376  1.00  0.00    -0.550 OA
ATOM      4  O   UNL     1       8.169  18.409  36.538  1.00  0.00    -0.550 OA
ENDBRANCH   1   2
BRANCH   1   5
ATOM      5  C   UNL     1       9.346  18.168  33.006  1.00  0.00     0.006 C 
BRANCH   5   6
ATOM      6  C   UNL     1       8.954  18.519  31.558  1.00  0.00    -0.003 C 
ATOM      7  C   UNL     1       9.814  17.810  30.513  1.00  0.00     0.004 C 
ENDBRANCH   5   6
ENDBRANCH   1   5
TORSDOF 3
ENDMDL
MODEL 5
REMARK VINA RESULT:    -3.388      3.067      3.795
REMARK INTER + INTRA:          -4.067
REMARK INTER:                  -4.035
REMARK INTRA:                  -0.032
REMARK UNBOUND:                -0.085
REMARK SMILES CCCCC(=O)[O-]
REMARK SMILES IDX 4 1 5 2 6 3 7 4 3 5 2 6 1 7
REMARK H PARENT
REMARK Flexibility Score: inf
ROOT
ATOM      1  C   UNL     1      17.242  16.341  36.321  1.00  0.00     0.053 C 
ENDROOT
BRANCH   1   2
ATOM      2  C   UNL     1      17.921  16.328  34.985  1.00  0.00     0.041 C 
ATOM      3  O   UNL     1      18.742  15.417  34.701  1.00  0.00    -0.550 OA
ATOM      4  O   UNL     1      17.624  17.303  34.040  1.00  0.00    -0.550 OA
ENDBRANCH   1   2
BRANCH   1   5
ATOM      5  C   UNL     1      16.890  17.762  36.790  1.00  0.00     0.006 C 
BRANCH   5   6
ATOM      6  C   UNL     1      15.906  17.801  37.975  1.00  0.00    -0.003 C 
ATOM      7  C   UNL     1      15.404  16.418  38.385  1.00  0.00     0.004 C 
ENDBRANCH   5   6
ENDBRANCH   1   5
TORSDOF 3
ENDMDL
MODEL 6
REMARK VINA RESULT:    -3.343      4.225      5.317
REMARK INTER + INTRA:          -4.014
REMARK INTER:                  -3.911
REMARK INTRA:                  -0.103
REMARK UNBOUND:                -0.085
REMARK SMILES CCCCC(=O)[O-]
REMARK SMILES IDX 4 1 5 2 6 3 7 4 3 5 2 6 1 7
REMARK H PARENT
REMARK Flexibility Score: inf
ROOT
ATOM      1  C   UNL     1      19.446  17.698  35.071  1.00  0.00     0.053 C 
ENDROOT
BRANCH   1   2
ATOM      2  C   UNL     1      19.943  16.456  34.395  1.00  0.00     0.041 C 
ATOM      3  O   UNL     1      19.241  15.411  34.397  1.00  0.00    -0.550 OA
ATOM      4  O   UNL     1      21.166  16.460  33.736  1.00  0.00    -0.550 OA
ENDBRANCH   1   2
BRANCH   1   5
ATOM      5  C   UNL     1      17.919  17.848  34.979  1.00  0.00     0.006 C 
BRANCH   5   6
ATOM      6  C   UNL     1      17.203  17.781  36.341  1.00  0.00    -0.003 C 
ATOM      7  C   UNL     1      16.826  16.360  36.754  1.00  0.00     0.004 C 
ENDBRANCH   5   6
ENDBRANCH   1   5
TORSDOF 3
ENDMDL
MODEL 7
REMARK VINA RESULT:    -3.316      9.975     10.692
REMARK INTER + INTRA:          -3.982
REMARK INTER:                  -3.936
REMARK INTRA:                  -0.046
REMARK UNBOUND:                -0.085
REMARK SMILES CCCCC(=O)[O-]
REMARK SMILES IDX 4 1 5 2 6 3 7 4 3 5 2 6 1 7
REMARK H PARENT
REMARK Flexibility Score: inf
ROOT
ATOM      1  C   UNL     1       8.265  20.455  31.246  1.00  0.00     0.053 C 
ENDROOT
BRANCH   1   2
ATOM      2  C   UNL     1       8.688  21.882  31.427  1.00  0.00     0.041 C 
ATOM      3  O   UNL     1       7.998  22.812  30.933  1.00  0.00    -0.550 OA
ATOM      4  O   UNL     1       9.823  22.187  32.167  1.00  0.00    -0.550 OA
ENDBRANCH   1   2
BRANCH   1   5
ATOM      5  C   UNL     1       8.785  19.540  32.368  1.00  0.00     0.006 C 
BRANCH   5   6
ATOM      6  C   UNL     1       9.074  18.098  31.910  1.00  0.00    -0.003 C 
ATOM      7  C   UNL     1       9.629  18.017  30.490  1.00  0.00     0.004 C 
ENDBRANCH   5   6
ENDBRANCH   1   5
TORSDOF 3
ENDMDL
MODEL 8
REMARK VINA RESULT:    -3.275      4.174      5.379
REMARK INTER + INTRA:          -3.934
REMARK INTER:                  -3.832
REMARK INTRA:                  -0.102
REMARK UNBOUND:                -0.085
REMARK SMILES CCCCC(=O)[O-]
REMARK SMILES IDX 4 1 5 2 6 3 7 4 3 5 2 6 1 7
REMARK H PARENT
REMARK Flexibility Score: inf
ROOT
ATOM      1  C   UNL     1      17.990  17.662  34.341  1.00  0.00     0.053 C 
ENDROOT
BRANCH   1   2
ATOM      2  C   UNL     1      18.126  16.339  35.031  1.00  0.00     0.041 C 
ATOM      3  O   UNL     1      18.902  15.461  34.569  1.00  0.00    -0.550 OA
ATOM      4  O   UNL     1      17.423  16.085  36.203  1.00  0.00    -0.550 OA
ENDBRANCH   1   2
BRANCH   1   5
ATOM      5  C   UNL     1      19.331  18.404  34.219  1.00  0.00     0.006 C 
BRANCH   5   6
ATOM      6  C   UNL     1      19.682  18.824  32.779  1.00  0.00    -0.003 C 
ATOM      7  C   UNL     1      20.127  17.655  31.903  1.00  0.00     0.004 C 
ENDBRANCH   5   6
ENDBRANCH   1   5
TORSDOF 3
ENDMDL
