MODEL 1
REMARK VINA RESULT:    -4.076      0.000      0.000
REMARK INTER + INTRA:          -4.391
REMARK INTER:                  -5.029
REMARK INTRA:                   0.638
REMARK UNBOUND:                 0.638
REMARK SMILES C=C1[C@H]2CC[C@@H]3[C@H]2C(C)(C)CCC[C@]13C
REMARK SMILES IDX 14 1 6 2 7 3 3 4 2 5 1 6 4 7 5 8 15 9 8 10 9 11 10 12 11 13
REMARK SMILES IDX 13 15 12 16
REMARK H PARENT
REMARK Flexibility Score: 80.00
ROOT
ATOM      1  C   UNL     1      30.179  23.806  13.031  1.00  0.00    -0.008 C 
ATOM      2  C   UNL     1      28.958  24.800  13.164  1.00  0.00     0.003 C 
ATOM      3  C   UNL     1      29.058  25.707  11.919  1.00  0.00     0.006 C 
ATOM      4  C   UNL     1      29.135  24.530  10.946  1.00  0.00     0.019 C 
ATOM      5  C   UNL     1      30.255  23.713  11.528  1.00  0.00    -0.068 C 
ATOM      6  C   UNL     1      31.108  22.962  10.822  1.00  0.00     0.009 C 
ATOM      7  C   UNL     1      27.823  23.783  11.284  1.00  0.00     0.008 C 
ATOM      8  C   UNL     1      27.644  24.057  12.798  1.00  0.00     0.005 C 
ATOM      9  C   UNL     1      29.911  22.408  13.654  1.00  0.00     0.016 C 
ENDROOT
BRANCH   3  10
ATOM     10  C   UNL     1      30.156  26.855  11.861  1.00  0.00    -0.032 C 
ATOM     11  C   UNL     1      29.433  28.215  12.071  1.00  0.00     0.011 C 
ATOM     12  C   UNL     1      30.823  26.933  10.464  1.00  0.00     0.011 C 
BRANCH  10  13
ATOM     13  C   UNL     1      31.235  26.787  12.979  1.00  0.00     0.007 CG0
ATOM     14  G   UNL     1      32.122  25.546  12.973  1.00  0.00     0.000 G0
ENDBRANCH  10  13
ENDBRANCH   3  10
BRANCH   1  15
ATOM     15  C   UNL     1      31.477  24.359  13.678  1.00  0.00     0.011 C 
BRANCH  15  16
ATOM     16  C   UNL     1      32.122  25.548  12.970  1.00  0.00     0.001 CG0
ATOM     17  G   UNL     1      31.229  26.784  12.977  1.00  0.00     0.000 G0
ENDBRANCH  15  16
ENDBRANCH   1  15
TORSDOF 0
ENDMDL
MODEL 2
REMARK VINA RESULT:    -3.017      1.536      3.970
REMARK INTER + INTRA:          -3.084
REMARK INTER:                  -4.362
REMARK INTRA:                   1.278
REMARK UNBOUND:                 0.638
REMARK SMILES C=C1[C@H]2CC[C@@H]3[C@H]2C(C)(C)CCC[C@]13C
REMARK SMILES IDX 14 1 6 2 7 3 3 4 2 5 1 6 4 7 5 8 15 9 8 10 9 11 10 12 11 13
REMARK SMILES IDX 13 15 12 16
REMARK H PARENT
REMARK Flexibility Score: 80.00
ROOT
ATOM      1  C   UNL     1      31.170  26.626  10.765  1.00  0.00    -0.008 C 
ATOM      2  C   UNL     1      29.629  26.673  10.420  1.00  0.00     0.003 C 
ATOM      3  C   UNL     1      28.932  26.088  11.666  1.00  0.00     0.006 C 
ATOM      4  C   UNL     1      29.649  27.033  12.632  1.00  0.00     0.019 C 
ATOM      5  C   UNL     1      31.091  26.831  12.257  1.00  0.00    -0.068 C 
ATOM      6  C   UNL     1      32.125  26.916  13.102  1.00  0.00     0.009 C 
ATOM      7  C   UNL     1      29.234  28.409  12.059  1.00  0.00     0.008 C 
ATOM      8  C   UNL     1      29.117  28.135  10.539  1.00  0.00     0.005 C 
ATOM      9  C   UNL     1      31.991  27.763  10.098  1.00  0.00     0.016 C 
ENDROOT
BRANCH   3  10
ATOM     10  C   UNL     1      28.959  24.521  11.927  1.00  0.00    -0.032 C 
ATOM     11  C   UNL     1      28.007  23.851  10.896  1.00  0.00     0.011 C 
ATOM     12  C   UNL     1      28.396  24.168  13.327  1.00  0.00     0.011 C 
BRANCH  10  13
ATOM     13  C   UNL     1      30.342  23.843  11.708  1.00  0.00     0.007 CG0
ATOM     14  G   UNL     1      30.973  24.048  10.334  1.00  0.00     0.000 G0
ENDBRANCH  10  13
ENDBRANCH   3  10
BRANCH   1  15
ATOM     15  C   UNL     1      31.834  25.280  10.366  1.00  0.00     0.011 C 
BRANCH  15  16
ATOM     16  C   UNL     1      30.920  24.058  10.370  1.00  0.00     0.001 CG0
ATOM     17  G   UNL     1      30.298  23.800  11.739  1.00  0.00     0.000 G0
ENDBRANCH  15  16
ENDBRANCH   1  15
TORSDOF 0
ENDMDL
MODEL 3
REMARK VINA RESULT:    -2.901      1.390      2.637
REMARK INTER + INTRA:          -2.942
REMARK INTER:                  -3.579
REMARK INTRA:                   0.637
REMARK UNBOUND:                 0.638
REMARK SMILES C=C1[C@H]2CC[C@@H]3[C@H]2C(C)(C)CCC[C@]13C
REMARK SMILES IDX 14 1 6 2 7 3 3 4 2 5 1 6 4 7 5 8 15 9 8 10 9 11 10 12 11 13
REMARK SMILES IDX 13 15 12 16
REMARK H PARENT
REMARK Flexibility Score: 80.00
ROOT
ATOM      1  C   UNL     1      31.308  23.399  11.233  1.00  0.00    -0.008 C 
ATOM      2  C   UNL     1      31.818  23.880  12.649  1.00  0.00     0.003 C 
ATOM      3  C   UNL     1      30.907  25.073  13.006  1.00  0.00     0.006 C 
ATOM      4  C   UNL     1      29.618  24.291  12.752  1.00  0.00     0.019 C 
ATOM      5  C   UNL     1      29.847  23.746  11.370  1.00  0.00    -0.068 C 
ATOM      6  C   UNL     1      28.891  23.526  10.461  1.00  0.00     0.009 C 
ATOM      7  C   UNL     1      29.796  23.105  13.729  1.00  0.00     0.008 C 
ATOM      8  C   UNL     1      31.330  22.887  13.739  1.00  0.00     0.005 C 
ATOM      9  C   UNL     1      31.490  21.876  10.993  1.00  0.00     0.016 C 
ENDROOT
BRANCH   3  10
ATOM     10  C   UNL     1      31.131  26.480  12.303  1.00  0.00    -0.032 C 
ATOM     11  C   UNL     1      31.801  27.428  13.337  1.00  0.00     0.011 C 
ATOM     12  C   UNL     1      29.784  27.144  11.919  1.00  0.00     0.011 C 
BRANCH  10  13
ATOM     13  C   UNL     1      32.096  26.457  11.083  1.00  0.00     0.007 CG0
ATOM     14  G   UNL     1      31.636  25.630   9.886  1.00  0.00     0.000 G0
ENDBRANCH  10  13
ENDBRANCH   3  10
BRANCH   1  15
ATOM     15  C   UNL     1      32.007  24.139  10.060  1.00  0.00     0.011 C 
BRANCH  15  16
ATOM     16  C   UNL     1      31.656  25.616   9.899  1.00  0.00     0.001 CG0
ATOM     17  G   UNL     1      32.118  26.457  11.085  1.00  0.00     0.000 G0
ENDBRANCH  15  16
ENDBRANCH   1  15
TORSDOF 0
ENDMDL
MODEL 4
REMARK VINA RESULT:    -2.713      1.706      3.192
REMARK INTER + INTRA:          -2.710
REMARK INTER:                  -3.356
REMARK INTRA:                   0.647
REMARK UNBOUND:                 0.638
REMARK SMILES C=C1[C@H]2CC[C@@H]3[C@H]2C(C)(C)CCC[C@]13C
REMARK SMILES IDX 14 1 6 2 7 3 3 4 2 5 1 6 4 7 5 8 15 9 8 10 9 11 10 12 11 13
REMARK SMILES IDX 13 15 12 16
REMARK H PARENT
REMARK Flexibility Score: 80.00
ROOT
ATOM      1  C   UNL     1      29.537  25.135  11.757  1.00  0.00    -0.008 C 
ATOM      2  C   UNL     1      30.204  25.271  10.331  1.00  0.00     0.003 C 
ATOM      3  C   UNL     1      31.425  26.187  10.557  1.00  0.00     0.006 C 
ATOM      4  C   UNL     1      31.970  25.341  11.708  1.00  0.00     0.019 C 
ATOM      5  C   UNL     1      30.774  25.233  12.613  1.00  0.00    -0.068 C 
ATOM      6  C   UNL     1      30.825  25.147  13.948  1.00  0.00     0.009 C 
ATOM      7  C   UNL     1      32.124  23.967  11.016  1.00  0.00     0.008 C 
ATOM      8  C   UNL     1      30.965  23.960   9.989  1.00  0.00     0.005 C 
ATOM      9  C   UNL     1      28.822  23.775  11.980  1.00  0.00     0.016 C 
ENDROOT
BRANCH   3  10
ATOM     10  C   UNL     1      31.216  27.751  10.753  1.00  0.00    -0.032 C 
ATOM     11  C   UNL     1      31.668  28.458   9.444  1.00  0.00     0.011 C 
ATOM     12  C   UNL     1      32.123  28.308  11.880  1.00  0.00     0.011 C 
BRANCH  10  13
ATOM     13  C   UNL     1      29.741  28.194  10.970  1.00  0.00     0.007 CG0
ATOM     14  G   UNL     1      29.072  27.678  12.240  1.00  0.00     0.000 G0
ENDBRANCH  10  13
ENDBRANCH   3  10
BRANCH   1  15
ATOM     15  C   UNL     1      28.501  26.255  12.044  1.00  0.00     0.011 C 
BRANCH  15  16
ATOM     16  C   UNL     1      29.071  27.658  12.236  1.00  0.00     0.001 CG0
ATOM     17  G   UNL     1      29.746  28.189  10.975  1.00  0.00     0.000 G0
ENDBRANCH  15  16
ENDBRANCH   1  15
TORSDOF 0
ENDMDL
MODEL 5
REMARK VINA RESULT:    -2.375      1.749      4.062
REMARK INTER + INTRA:          -2.293
REMARK INTER:                  -2.935
REMARK INTRA:                   0.643
REMARK UNBOUND:                 0.638
REMARK SMILES C=C1[C@H]2CC[C@@H]3[C@H]2C(C)(C)CCC[C@]13C
REMARK SMILES IDX 14 1 6 2 7 3 3 4 2 5 1 6 4 7 5 8 15 9 8 10 9 11 10 12 11 13
REMARK SMILES IDX 13 15 12 16
REMARK H PARENT
REMARK Flexibility Score: 80.00
ROOT
ATOM      1  C   UNL     1      29.895  26.346  11.143  1.00  0.00    -0.008 C 
ATOM      2  C   UNL     1      29.991  26.474  12.716  1.00  0.00     0.003 C 
ATOM      3  C   UNL     1      31.141  25.525  13.114  1.00  0.00     0.006 C 
ATOM      4  C   UNL     1      32.125  26.140  12.118  1.00  0.00     0.019 C 
ATOM      5  C   UNL     1      31.347  26.085  10.832  1.00  0.00    -0.068 C 
ATOM      6  C   UNL     1      31.882  25.923   9.616  1.00  0.00     0.009 C 
ATOM      7  C   UNL     1      32.118  27.619  12.573  1.00  0.00     0.008 C 
ATOM      8  C   UNL     1      30.670  27.821  13.085  1.00  0.00     0.005 C 
ATOM      9  C   UNL     1      29.410  27.645  10.444  1.00  0.00     0.016 C 
ENDROOT
BRANCH   3  10
ATOM     10  C   UNL     1      30.905  23.953  13.125  1.00  0.00    -0.032 C 
ATOM     11  C   UNL     1      30.801  23.498  14.608  1.00  0.00     0.011 C 
ATOM     12  C   UNL     1      32.115  23.193  12.524  1.00  0.00     0.011 C 
BRANCH  10  13
ATOM     13  C   UNL     1      29.580  23.485  12.458  1.00  0.00     0.007 CG0
ATOM     14  G   UNL     1      29.445  23.778  10.967  1.00  0.00     0.000 G0
ENDBRANCH  10  13
ENDBRANCH   3  10
BRANCH   1  15
ATOM     15  C   UNL     1      28.955  25.198  10.690  1.00  0.00     0.011 C 
BRANCH  15  16
ATOM     16  C   UNL     1      29.443  23.781  10.981  1.00  0.00     0.001 CG0
ATOM     17  G   UNL     1      29.570  23.503  12.475  1.00  0.00     0.000 G0
ENDBRANCH  15  16
ENDBRANCH   1  15
TORSDOF 0
ENDMDL
MODEL 6
REMARK VINA RESULT:    -2.339      1.612      3.372
REMARK INTER + INTRA:          -2.248
REMARK INTER:                  -2.888
REMARK INTRA:                   0.640
REMARK UNBOUND:                 0.638
REMARK SMILES C=C1[C@H]2CC[C@@H]3[C@H]2C(C)(C)CCC[C@]13C
REMARK SMILES IDX 14 1 6 2 7 3 3 4 2 5 1 6 4 7 5 8 15 9 8 10 9 11 10 12 11 13
REMARK SMILES IDX 13 15 12 16
REMARK H PARENT
REMARK Flexibility Score: 80.00
ROOT
ATOM      1  C   UNL     1      30.794  25.482  12.677  1.00  0.00    -0.008 C 
ATOM      2  C   UNL     1      29.940  24.498  13.571  1.00  0.00     0.003 C 
ATOM      3  C   UNL     1      29.189  23.607  12.559  1.00  0.00     0.006 C 
ATOM      4  C   UNL     1      30.461  23.229  11.798  1.00  0.00     0.019 C 
ATOM      5  C   UNL     1      31.063  24.574  11.504  1.00  0.00    -0.068 C 
ATOM      6  C   UNL     1      31.791  24.871  10.421  1.00  0.00     0.009 C 
ATOM      7  C   UNL     1      31.307  22.605  12.933  1.00  0.00     0.008 C 
ATOM      8  C   UNL     1      30.870  23.413  14.180  1.00  0.00     0.005 C 
ATOM      9  C   UNL     1      32.125  25.927  13.343  1.00  0.00     0.016 C 
ENDROOT
BRANCH   3  10
ATOM     10  C   UNL     1      27.937  24.186  11.769  1.00  0.00    -0.032 C 
ATOM     11  C   UNL     1      26.654  23.563  12.389  1.00  0.00     0.011 C 
ATOM     12  C   UNL     1      27.952  23.750  10.282  1.00  0.00     0.011 C 
BRANCH  10  13
ATOM     13  C   UNL     1      27.743  25.725  11.886  1.00  0.00     0.007 CG0
ATOM     14  G   UNL     1      28.860  26.582  11.299  1.00  0.00     0.000 G0
ENDBRANCH  10  13
ENDBRANCH   3  10
BRANCH   1  15
ATOM     15  C   UNL     1      30.017  26.770  12.292  1.00  0.00     0.011 C 
BRANCH  15  16
ATOM     16  C   UNL     1      28.862  26.584  11.311  1.00  0.00     0.001 CG0
ATOM     17  G   UNL     1      27.743  25.721  11.887  1.00  0.00     0.000 G0
ENDBRANCH  15  16
ENDBRANCH   1  15
TORSDOF 0
ENDMDL
MODEL 7
REMARK VINA RESULT:    -2.193      1.786      3.950
REMARK INTER + INTRA:          -2.068
REMARK INTER:                  -2.686
REMARK INTRA:                   0.618
REMARK UNBOUND:                 0.638
REMARK SMILES C=C1[C@H]2CC[C@@H]3[C@H]2C(C)(C)CCC[C@]13C
REMARK SMILES IDX 14 1 6 2 7 3 3 4 2 5 1 6 4 7 5 8 15 9 8 10 9 11 10 12 11 13
REMARK SMILES IDX 13 15 12 16
REMARK H PARENT
REMARK Flexibility Score: 80.00
ROOT
ATOM      1  C   UNL     1      29.008  25.397  12.091  1.00  0.00    -0.008 C 
ATOM      2  C   UNL     1      30.390  25.689  12.797  1.00  0.00     0.003 C 
ATOM      3  C   UNL     1      31.255  24.449  12.487  1.00  0.00     0.006 C 
ATOM      4  C   UNL     1      31.001  24.527  10.981  1.00  0.00     0.019 C 
ATOM      5  C   UNL     1      29.500  24.587  10.918  1.00  0.00    -0.068 C 
ATOM      6  C   UNL     1      28.750  24.082   9.932  1.00  0.00     0.009 C 
ATOM      7  C   UNL     1      31.513  25.953  10.670  1.00  0.00     0.008 C 
ATOM      8  C   UNL     1      31.185  26.733  11.967  1.00  0.00     0.005 C 
ATOM      9  C   UNL     1      28.277  26.678  11.604  1.00  0.00     0.016 C 
ENDROOT
BRANCH   3  10
ATOM     10  C   UNL     1      30.996  23.087  13.264  1.00  0.00    -0.032 C 
ATOM     11  C   UNL     1      32.125  22.920  14.321  1.00  0.00     0.011 C 
ATOM     12  C   UNL     1      31.107  21.863  12.318  1.00  0.00     0.011 C 
BRANCH  10  13
ATOM     13  C   UNL     1      29.668  23.035  14.071  1.00  0.00     0.007 CG0
ATOM     14  G   UNL     1      28.387  23.177  13.255  1.00  0.00     0.000 G0
ENDBRANCH  10  13
ENDBRANCH   3  10
BRANCH   1  15
ATOM     15  C   UNL     1      28.020  24.619  13.002  1.00  0.00     0.011 C 
BRANCH  15  16
ATOM     16  C   UNL     1      28.380  23.164  13.287  1.00  0.00     0.001 CG0
ATOM     17  G   UNL     1      29.677  23.029  14.079  1.00  0.00     0.000 G0
ENDBRANCH  15  16
ENDBRANCH   1  15
TORSDOF 0
ENDMDL
MODEL 8
REMARK VINA RESULT:    -1.333      1.544      3.164
REMARK INTER + INTRA:          -1.007
REMARK INTER:                  -1.643
REMARK INTRA:                   0.636
REMARK UNBOUND:                 0.638
REMARK SMILES C=C1[C@H]2CC[C@@H]3[C@H]2C(C)(C)CCC[C@]13C
REMARK SMILES IDX 14 1 6 2 7 3 3 4 2 5 1 6 4 7 5 8 15 9 8 10 9 11 10 12 11 13
REMARK SMILES IDX 13 15 12 16
REMARK H PARENT
REMARK Flexibility Score: 80.00
ROOT
ATOM      1  C   UNL     1      29.355  23.405  12.519  1.00  0.00    -0.008 C 
ATOM      2  C   UNL     1      30.432  23.272  11.370  1.00  0.00     0.003 C 
ATOM      3  C   UNL     1      31.441  24.407  11.648  1.00  0.00     0.006 C 
ATOM      4  C   UNL     1      31.651  23.995  13.106  1.00  0.00     0.019 C 
ATOM      5  C   UNL     1      30.240  23.929  13.621  1.00  0.00    -0.068 C 
ATOM      6  C   UNL     1      29.865  24.205  14.876  1.00  0.00     0.009 C 
ATOM      7  C   UNL     1      32.125  22.533  12.933  1.00  0.00     0.008 C 
ATOM      8  C   UNL     1      31.361  22.064  11.670  1.00  0.00     0.005 C 
ATOM      9  C   UNL     1      28.714  22.051  12.927  1.00  0.00     0.016 C 
ENDROOT
BRANCH   3  10
ATOM     10  C   UNL     1      31.060  25.909  11.297  1.00  0.00    -0.032 C 
ATOM     11  C   UNL     1      31.844  26.311  10.016  1.00  0.00     0.011 C 
ATOM     12  C   UNL     1      31.521  26.886  12.409  1.00  0.00     0.011 C 
BRANCH  10  13
ATOM     13  C   UNL     1      29.562  26.142  10.951  1.00  0.00     0.007 CG0
ATOM     14  G   UNL     1      28.571  25.893  12.084  1.00  0.00     0.000 G0
ENDBRANCH  10  13
ENDBRANCH   3  10
BRANCH   1  15
ATOM     15  C   UNL     1      28.198  24.372  12.148  1.00  0.00     0.011 C 
BRANCH  15  16
ATOM     16  C   UNL     1      28.561  25.853  12.082  1.00  0.00     0.001 CG0
ATOM     17  G   UNL     1      29.555  26.159  10.966  1.00  0.00     0.000 G0
ENDBRANCH  15  16
ENDBRANCH   1  15
TORSDOF 0
ENDMDL
