MODEL 1
REMARK VINA RESULT:    -6.909      0.000      0.000
REMARK INTER + INTRA:         -10.148
REMARK INTER:                 -10.947
REMARK INTRA:                   0.799
REMARK UNBOUND:                 0.799
REMARK SMILES C[C@H]1O[C@@H](O[C@@H]2CC[C@]3(C)[C@@H](CC[C@@]4(C)[C@@H]3C=C[C@]35OC[C@@]6(CCC(C)(C)C[C@@H]63)[C@@H](O)C[C@@]45C)[C@@]2(C)CO)[C@@H](O)[C@H](O[C@@H]2O[C@@H](CO)[C@H](O)[C@H](O)[C@H]2O)[C@H]1O
REMARK SMILES IDX 1 1 2 2 54 3 41 4 39 5 4 6 3 7 55 8 42 10 43 11 52 12 44 13
REMARK SMILES IDX 50 14 45 15 48 16 53 17 51 19 46 21 47 22 49 24 5 26 6 27
REMARK SMILES IDX 7 28 35 29 8 30 11 31 36 32 9 33 12 34 10 35 16 36 13 37
REMARK SMILES IDX 14 38 17 39 15 40 33 41 18 42 19 43 32 44 34 45 29 46 20 47
REMARK SMILES IDX 30 48 22 49 28 50 21 51 23 52 25 53 24 54 26 55 27 56 37 57
REMARK SMILES IDX 38 58 31 60 40 62
REMARK H PARENT 55 9 53 18 51 20 47 23 49 25 38 59 31 61 40 63
REMARK Flexibility Score: inf
ROOT
ATOM      1  C   UNL     1       5.201  51.771  19.998  1.00  0.00     0.041 C 
ATOM      2  C   UNL     1       6.059  51.457  18.769  1.00  0.00     0.150 C 
ATOM      3  C   UNL     1       5.290  50.642  17.674  1.00  0.00     0.175 C 
ATOM      4  C   UNL     1       5.653  49.140  17.742  1.00  0.00     0.186 C 
ATOM      5  C   UNL     1       7.197  48.959  17.639  1.00  0.00     0.202 C 
ATOM      6  C   UNL     1       7.945  50.220  18.146  1.00  0.00     0.282 C 
ATOM      7  O   UNL     1       7.221  50.781  19.225  1.00  0.00    -0.344 OA
ENDROOT
BRANCH   3   8
ATOM      8  O   UNL     1       3.900  50.855  17.716  1.00  0.00    -0.388 OA
ATOM      9  H   UNL     1       3.452  50.069  17.309  1.00  0.00     0.211 HD
ENDBRANCH   3   8
BRANCH   4  10
ATOM     10  O   UNL     1       4.994  48.476  16.675  1.00  0.00    -0.341 OA
BRANCH  10  11
ATOM     11  C   UNL     1       5.881  47.705  15.880  1.00  0.00     0.282 C 
ATOM     12  C   UNL     1       5.094  46.497  15.317  1.00  0.00     0.202 C 
ATOM     13  O   UNL     1       6.358  48.508  14.815  1.00  0.00    -0.341 OA
ATOM     14  C   UNL     1       5.808  45.843  14.101  1.00  0.00     0.179 C 
ATOM     15  C   UNL     1       7.338  47.852  14.010  1.00  0.00     0.178 C 
ATOM     16  C   UNL     1       7.275  46.297  14.029  1.00  0.00     0.177 C 
BRANCH  12  17
ATOM     17  O   UNL     1       4.857  45.548  16.328  1.00  0.00    -0.385 OA
ATOM     18  H   UNL     1       4.440  46.023  17.095  1.00  0.00     0.211 HD
ENDBRANCH  12  17
BRANCH  14  19
ATOM     19  O   UNL     1       5.142  46.206  12.915  1.00  0.00    -0.387 OA
ATOM     20  H   UNL     1       5.352  45.514  12.237  1.00  0.00     0.211 HD
ENDBRANCH  14  19
BRANCH  15  21
ATOM     21  C   UNL     1       8.743  48.379  14.342  1.00  0.00     0.191 C 
BRANCH  21  22
ATOM     22  O   UNL     1       9.640  47.316  14.525  1.00  0.00    -0.394 OA
ATOM     23  H   UNL     1      10.541  47.729  14.589  1.00  0.00     0.210 HD
ENDBRANCH  21  22
ENDBRANCH  15  21
BRANCH  16  24
ATOM     24  O   UNL     1       7.891  45.782  12.875  1.00  0.00    -0.387 OA
ATOM     25  H   UNL     1       8.718  46.312  12.732  1.00  0.00     0.211 HD
ENDBRANCH  16  24
ENDBRANCH  10  11
ENDBRANCH   4  10
BRANCH   6  26
ATOM     26  O   UNL     1       9.254  49.889  18.586  1.00  0.00    -0.346 OA
BRANCH  26  27
ATOM     27  C   UNL     1       9.198  49.052  19.739  1.00  0.00     0.130 C 
ATOM     28  C   UNL     1       9.504  49.892  20.984  1.00  0.00     0.033 C 
ATOM     29  C   UNL     1      10.176  47.846  19.606  1.00  0.00     0.020 C 
ATOM     30  C   UNL     1       9.301  49.065  22.247  1.00  0.00     0.010 C 
ATOM     31  C   UNL     1      10.155  46.963  20.956  1.00  0.00     0.006 C 
ATOM     32  C   UNL     1      11.626  48.348  19.311  1.00  0.00     0.017 C 
ATOM     33  C   UNL     1      10.157  47.775  22.347  1.00  0.00    -0.022 C 
ATOM     34  C   UNL     1       9.107  45.789  20.964  1.00  0.00     0.005 C 
ATOM     35  C   UNL     1      11.615  48.203  22.714  1.00  0.00     0.012 C 
ATOM     36  C   UNL     1       9.649  46.827  23.537  1.00  0.00     0.024 C 
ATOM     37  C   UNL     1       7.887  46.045  21.859  1.00  0.00     0.008 C 
ATOM     38  C   UNL     1       8.250  46.076  23.381  1.00  0.00    -0.017 C 
ATOM     39  C   UNL     1       9.877  47.282  24.970  1.00  0.00    -0.024 C 
ATOM     40  C   UNL     1       8.559  44.568  23.760  1.00  0.00     0.013 C 
ATOM     41  C   UNL     1       7.028  46.681  24.348  1.00  0.00     0.009 C 
ATOM     42  C   UNL     1       8.881  47.632  25.792  1.00  0.00     0.005 C 
ATOM     43  C   UNL     1       7.510  47.917  25.244  1.00  0.00     0.096 C 
ATOM     44  C   UNL     1       5.771  47.198  23.556  1.00  0.00     0.043 C 
ATOM     45  C   UNL     1       6.461  45.538  25.277  1.00  0.00     0.015 C 
ATOM     46  C   UNL     1       6.441  48.315  26.310  1.00  0.00     0.037 C 
ATOM     47  O   UNL     1       7.637  49.078  24.439  1.00  0.00    -0.369 OA
ATOM     48  C   UNL     1       4.756  48.010  24.429  1.00  0.00     0.124 C 
ATOM     49  C   UNL     1       5.473  49.044  25.380  1.00  0.00     0.026 C 
ATOM     50  C   UNL     1       6.992  49.227  27.451  1.00  0.00     0.014 C 
ATOM     51  C   UNL     1       6.466  49.859  24.558  1.00  0.00     0.171 C 
ATOM     52  C   UNL     1       4.423  49.912  26.127  1.00  0.00     0.013 C 
ATOM     53  C   UNL     1       5.888  49.974  28.239  1.00  0.00    -0.035 C 
ATOM     54  C   UNL     1       5.002  50.776  27.259  1.00  0.00     0.007 C 
ATOM     55  C   UNL     1       5.034  48.987  29.072  1.00  0.00     0.011 C 
ATOM     56  C   UNL     1       6.561  50.962  29.215  1.00  0.00     0.011 C 
BRANCH  29  57
ATOM     57  C   UNL     1       9.805  47.021  18.319  1.00  0.00     0.165 C 
BRANCH  57  58
ATOM     58  O   UNL     1      10.307  47.601  17.143  1.00  0.00    -0.396 OA
ATOM     59  H   UNL     1       9.609  47.475  16.450  1.00  0.00     0.210 HD
ENDBRANCH  57  58
ENDBRANCH  29  57
BRANCH  48  60
ATOM     60  O   UNL     1       3.875  48.680  23.557  1.00  0.00    -0.392 OA
ATOM     61  H   UNL     1       3.831  48.154  22.714  1.00  0.00     0.210 HD
ENDBRANCH  48  60
ENDBRANCH  26  27
ENDBRANCH   6  26
BRANCH   5  62
ATOM     62  O   UNL     1       7.605  47.808  18.333  1.00  0.00    -0.385 OA
ATOM     63  H   UNL     1       8.579  47.695  18.186  1.00  0.00     0.211 HD
ENDBRANCH   5  62
TORSDOF 14
ENDMDL
MODEL 2
REMARK VINA RESULT:    -6.693      1.123      1.943
REMARK INTER + INTRA:          -9.807
REMARK INTER:                  -9.197
REMARK INTRA:                  -0.610
REMARK UNBOUND:                 0.799
REMARK SMILES C[C@H]1O[C@@H](O[C@@H]2CC[C@]3(C)[C@@H](CC[C@@]4(C)[C@@H]3C=C[C@]35OC[C@@]6(CCC(C)(C)C[C@@H]63)[C@@H](O)C[C@@]45C)[C@@]2(C)CO)[C@@H](O)[C@H](O[C@@H]2O[C@@H](CO)[C@H](O)[C@H](O)[C@H]2O)[C@H]1O
REMARK SMILES IDX 1 1 2 2 54 3 41 4 39 5 4 6 3 7 55 8 42 10 43 11 52 12 44 13
REMARK SMILES IDX 50 14 45 15 48 16 53 17 51 19 46 21 47 22 49 24 5 26 6 27
REMARK SMILES IDX 7 28 35 29 8 30 11 31 36 32 9 33 12 34 10 35 16 36 13 37
REMARK SMILES IDX 14 38 17 39 15 40 33 41 18 42 19 43 32 44 34 45 29 46 20 47
REMARK SMILES IDX 30 48 22 49 28 50 21 51 23 52 25 53 24 54 26 55 27 56 37 57
REMARK SMILES IDX 38 58 31 60 40 62
REMARK H PARENT 55 9 53 18 51 20 47 23 49 25 38 59 31 61 40 63
REMARK Flexibility Score: inf
ROOT
ATOM      1  C   UNL     1       5.003  49.095  19.865  1.00  0.00     0.041 C 
ATOM      2  C   UNL     1       6.012  50.054  19.227  1.00  0.00     0.150 C 
ATOM      3  C   UNL     1       5.829  50.198  17.677  1.00  0.00     0.175 C 
ATOM      4  C   UNL     1       6.860  49.334  16.913  1.00  0.00     0.186 C 
ATOM      5  C   UNL     1       8.304  49.694  17.375  1.00  0.00     0.202 C 
ATOM      6  C   UNL     1       8.308  50.259  18.820  1.00  0.00     0.282 C 
ATOM      7  O   UNL     1       7.310  49.596  19.574  1.00  0.00    -0.344 OA
ENDROOT
BRANCH   3   8
ATOM      8  O   UNL     1       4.509  49.943  17.261  1.00  0.00    -0.388 OA
ATOM      9  H   UNL     1       4.434  50.182  16.301  1.00  0.00     0.211 HD
ENDBRANCH   3   8
BRANCH   4  10
ATOM     10  O   UNL     1       6.698  49.576  15.524  1.00  0.00    -0.341 OA
BRANCH  10  11
ATOM     11  C   UNL     1       6.520  48.382  14.778  1.00  0.00     0.282 C 
ATOM     12  C   UNL     1       7.912  47.736  14.570  1.00  0.00     0.202 C 
ATOM     13  O   UNL     1       5.686  47.503  15.512  1.00  0.00    -0.341 OA
ATOM     14  C   UNL     1       7.811  46.236  14.173  1.00  0.00     0.179 C 
ATOM     15  C   UNL     1       5.364  46.307  14.801  1.00  0.00     0.178 C 
ATOM     16  C   UNL     1       6.388  45.897  13.702  1.00  0.00     0.177 C 
BRANCH  12  17
ATOM     17  O   UNL     1       8.653  48.457  13.617  1.00  0.00    -0.385 OA
ATOM     18  H   UNL     1       8.124  48.476  12.776  1.00  0.00     0.211 HD
ENDBRANCH  12  17
BRANCH  14  19
ATOM     19  O   UNL     1       8.146  45.434  15.280  1.00  0.00    -0.387 OA
ATOM     20  H   UNL     1       8.674  45.998  15.902  1.00  0.00     0.211 HD
ENDBRANCH  14  19
BRANCH  15  21
ATOM     21  C   UNL     1       3.928  46.377  14.258  1.00  0.00     0.191 C 
BRANCH  21  22
ATOM     22  O   UNL     1       3.881  45.947  12.924  1.00  0.00    -0.394 OA
ATOM     23  H   UNL     1       4.362  46.639  12.398  1.00  0.00     0.210 HD
ENDBRANCH  21  22
ENDBRANCH  15  21
BRANCH  16  24
ATOM     24  O   UNL     1       6.274  44.522  13.436  1.00  0.00    -0.387 OA
ATOM     25  H   UNL     1       5.701  44.139  14.150  1.00  0.00     0.211 HD
ENDBRANCH  16  24
ENDBRANCH  10  11
ENDBRANCH   4  10
BRANCH   6  26
ATOM     26  O   UNL     1       9.569  50.057  19.439  1.00  0.00    -0.346 OA
BRANCH  26  27
ATOM     27  C   UNL     1       9.438  49.214  20.581  1.00  0.00     0.130 C 
ATOM     28  C   UNL     1       9.864  49.993  21.831  1.00  0.00     0.033 C 
ATOM     29  C   UNL     1      10.266  47.904  20.411  1.00  0.00     0.020 C 
ATOM     30  C   UNL     1       9.590  49.176  23.087  1.00  0.00     0.010 C 
ATOM     31  C   UNL     1      10.167  47.009  21.750  1.00  0.00     0.006 C 
ATOM     32  C   UNL     1      11.758  48.238  20.093  1.00  0.00     0.017 C 
ATOM     33  C   UNL     1      10.292  47.793  23.152  1.00  0.00    -0.022 C 
ATOM     34  C   UNL     1       8.989  45.966  21.765  1.00  0.00     0.005 C 
ATOM     35  C   UNL     1      11.796  48.042  23.493  1.00  0.00     0.012 C 
ATOM     36  C   UNL     1       9.699  46.892  24.339  1.00  0.00     0.024 C 
ATOM     37  C   UNL     1       7.824  46.348  22.689  1.00  0.00     0.008 C 
ATOM     38  C   UNL     1       8.218  46.313  24.203  1.00  0.00    -0.017 C 
ATOM     39  C   UNL     1      10.006  47.296  25.773  1.00  0.00    -0.024 C 
ATOM     40  C   UNL     1       8.356  44.774  24.555  1.00  0.00     0.013 C 
ATOM     41  C   UNL     1       7.095  47.041  25.203  1.00  0.00     0.009 C 
ATOM     42  C   UNL     1       9.075  47.746  26.620  1.00  0.00     0.005 C 
ATOM     43  C   UNL     1       7.736  48.198  26.106  1.00  0.00     0.096 C 
ATOM     44  C   UNL     1       5.892  47.714  24.445  1.00  0.00     0.043 C 
ATOM     45  C   UNL     1       6.416  45.958  26.129  1.00  0.00     0.015 C 
ATOM     46  C   UNL     1       6.742  48.702  27.199  1.00  0.00     0.037 C 
ATOM     47  O   UNL     1       7.982  49.348  25.313  1.00  0.00    -0.369 OA
ATOM     48  C   UNL     1       4.997  48.626  25.350  1.00  0.00     0.124 C 
ATOM     49  C   UNL     1       5.848  49.553  26.299  1.00  0.00     0.026 C 
ATOM     50  C   UNL     1       7.418  49.526  28.340  1.00  0.00     0.014 C 
ATOM     51  C   UNL     1       6.913  50.259  25.467  1.00  0.00     0.171 C 
ATOM     52  C   UNL     1       4.922  50.527  27.080  1.00  0.00     0.013 C 
ATOM     53  C   UNL     1       6.424  50.384  29.161  1.00  0.00    -0.035 C 
ATOM     54  C   UNL     1       5.619  51.299  28.211  1.00  0.00     0.007 C 
ATOM     55  C   UNL     1       5.477  49.490  29.998  1.00  0.00     0.011 C 
ATOM     56  C   UNL     1       7.227  51.271  30.136  1.00  0.00     0.011 C 
BRANCH  29  57
ATOM     57  C   UNL     1       9.775  47.148  19.122  1.00  0.00     0.165 C 
BRANCH  57  58
ATOM     58  O   UNL     1       8.411  46.822  19.175  1.00  0.00    -0.396 OA
ATOM     59  H   UNL     1       8.313  46.144  19.893  1.00  0.00     0.210 HD
ENDBRANCH  57  58
ENDBRANCH  29  57
BRANCH  48  60
ATOM     60  O   UNL     1       4.183  49.407  24.506  1.00  0.00    -0.392 OA
ATOM     61  H   UNL     1       4.220  50.344  24.838  1.00  0.00     0.210 HD
ENDBRANCH  48  60
ENDBRANCH  26  27
ENDBRANCH   6  26
BRANCH   5  62
ATOM     62  O   UNL     1       9.150  48.579  17.259  1.00  0.00    -0.385 OA
ATOM     63  H   UNL     1       9.140  48.289  16.310  1.00  0.00     0.211 HD
ENDBRANCH   5  62
TORSDOF 14
ENDMDL
MODEL 3
REMARK VINA RESULT:    -4.670      2.531     10.359
REMARK INTER + INTRA:          -6.602
REMARK INTER:                  -7.519
REMARK INTRA:                   0.918
REMARK UNBOUND:                 0.799
REMARK SMILES C[C@H]1O[C@@H](O[C@@H]2CC[C@]3(C)[C@@H](CC[C@@]4(C)[C@@H]3C=C[C@]35OC[C@@]6(CCC(C)(C)C[C@@H]63)[C@@H](O)C[C@@]45C)[C@@]2(C)CO)[C@@H](O)[C@H](O[C@@H]2O[C@@H](CO)[C@H](O)[C@H](O)[C@H]2O)[C@H]1O
REMARK SMILES IDX 1 1 2 2 54 3 41 4 39 5 4 6 3 7 55 8 42 10 43 11 52 12 44 13
REMARK SMILES IDX 50 14 45 15 48 16 53 17 51 19 46 21 47 22 49 24 5 26 6 27
REMARK SMILES IDX 7 28 35 29 8 30 11 31 36 32 9 33 12 34 10 35 16 36 13 37
REMARK SMILES IDX 14 38 17 39 15 40 33 41 18 42 19 43 32 44 34 45 29 46 20 47
REMARK SMILES IDX 30 48 22 49 28 50 21 51 23 52 25 53 24 54 26 55 27 56 37 57
REMARK SMILES IDX 38 58 31 60 40 62
REMARK H PARENT 55 9 53 18 51 20 47 23 49 25 38 59 31 61 40 63
REMARK Flexibility Score: inf
ROOT
ATOM      1  C   UNL     1       3.922  45.229  24.755  1.00  0.00     0.041 C 
ATOM      2  C   UNL     1       4.986  46.214  25.249  1.00  0.00     0.150 C 
ATOM      3  C   UNL     1       4.874  46.523  26.781  1.00  0.00     0.175 C 
ATOM      4  C   UNL     1       4.166  47.875  27.025  1.00  0.00     0.186 C 
ATOM      5  C   UNL     1       4.897  49.008  26.244  1.00  0.00     0.202 C 
ATOM      6  C   UNL     1       5.639  48.447  25.003  1.00  0.00     0.282 C 
ATOM      7  O   UNL     1       4.880  47.386  24.455  1.00  0.00    -0.344 OA
ENDROOT
BRANCH   3   8
ATOM      8  O   UNL     1       4.278  45.472  27.503  1.00  0.00    -0.388 OA
ATOM      9  H   UNL     1       3.346  45.364  27.181  1.00  0.00     0.211 HD
ENDBRANCH   3   8
BRANCH   4  10
ATOM     10  O   UNL     1       4.175  48.135  28.420  1.00  0.00    -0.341 OA
BRANCH  10  11
ATOM     11  C   UNL     1       5.243  48.985  28.810  1.00  0.00     0.282 C 
ATOM     12  C   UNL     1       4.845  49.675  30.138  1.00  0.00     0.202 C 
ATOM     13  O   UNL     1       6.406  48.200  29.005  1.00  0.00    -0.341 OA
ATOM     14  C   UNL     1       6.073  50.265  30.886  1.00  0.00     0.179 C 
ATOM     15  C   UNL     1       7.566  48.977  29.306  1.00  0.00     0.178 C 
ATOM     16  C   UNL     1       7.281  50.369  29.942  1.00  0.00     0.177 C 
BRANCH  12  17
ATOM     17  O   UNL     1       3.875  50.667  29.907  1.00  0.00    -0.385 OA
ATOM     18  H   UNL     1       2.982  50.246  30.018  1.00  0.00     0.211 HD
ENDBRANCH  12  17
BRANCH  14  19
ATOM     19  O   UNL     1       6.397  49.440  31.980  1.00  0.00    -0.387 OA
ATOM     20  H   UNL     1       6.225  49.965  32.804  1.00  0.00     0.211 HD
ENDBRANCH  14  19
BRANCH  15  21
ATOM     21  C   UNL     1       8.476  49.078  28.072  1.00  0.00     0.191 C 
BRANCH  21  22
ATOM     22  O   UNL     1       9.431  48.051  28.076  1.00  0.00    -0.394 OA
ATOM     23  H   UNL     1      10.270  48.460  28.417  1.00  0.00     0.210 HD
ENDBRANCH  21  22
ENDBRANCH  15  21
BRANCH  16  24
ATOM     24  O   UNL     1       8.416  50.812  30.644  1.00  0.00    -0.387 OA
ATOM     25  H   UNL     1       9.180  50.764  30.012  1.00  0.00     0.211 HD
ENDBRANCH  16  24
ENDBRANCH  10  11
ENDBRANCH   4  10
BRANCH   6  26
ATOM     26  O   UNL     1       5.809  49.455  24.017  1.00  0.00    -0.346 OA
BRANCH  26  27
ATOM     27  C   UNL     1       6.738  49.030  23.022  1.00  0.00     0.130 C 
ATOM     28  C   UNL     1       6.147  47.839  22.260  1.00  0.00     0.033 C 
ATOM     29  C   UNL     1       8.118  48.679  23.655  1.00  0.00     0.020 C 
ATOM     30  C   UNL     1       7.044  47.457  21.089  1.00  0.00     0.010 C 
ATOM     31  C   UNL     1       9.122  48.123  22.521  1.00  0.00     0.006 C 
ATOM     32  C   UNL     1       7.946  47.621  24.790  1.00  0.00     0.017 C 
ATOM     33  C   UNL     1       8.503  47.082  21.459  1.00  0.00    -0.022 C 
ATOM     34  C   UNL     1      10.005  49.221  21.820  1.00  0.00     0.005 C 
ATOM     35  C   UNL     1       8.481  45.644  22.070  1.00  0.00     0.012 C 
ATOM     36  C   UNL     1       9.436  47.008  20.155  1.00  0.00     0.024 C 
ATOM     37  C   UNL     1       9.572  49.550  20.385  1.00  0.00     0.008 C 
ATOM     38  C   UNL     1       9.807  48.362  19.395  1.00  0.00    -0.017 C 
ATOM     39  C   UNL     1       9.218  45.865  19.177  1.00  0.00    -0.024 C 
ATOM     40  C   UNL     1      11.379  48.293  19.201  1.00  0.00     0.013 C 
ATOM     41  C   UNL     1       9.046  48.559  17.921  1.00  0.00     0.009 C 
ATOM     42  C   UNL     1       8.740  46.042  17.940  1.00  0.00     0.005 C 
ATOM     43  C   UNL     1       8.074  47.337  17.563  1.00  0.00     0.096 C 
ATOM     44  C   UNL     1       8.155  49.851  17.819  1.00  0.00     0.043 C 
ATOM     45  C   UNL     1      10.121  48.735  16.778  1.00  0.00     0.015 C 
ATOM     46  C   UNL     1       7.560  47.413  16.092  1.00  0.00     0.037 C 
ATOM     47  O   UNL     1       6.891  47.417  18.342  1.00  0.00    -0.369 OA
ATOM     48  C   UNL     1       7.232  49.892  16.555  1.00  0.00     0.124 C 
ATOM     49  C   UNL     1       6.518  48.513  16.285  1.00  0.00     0.026 C 
ATOM     50  C   UNL     1       6.946  46.078  15.564  1.00  0.00     0.014 C 
ATOM     51  C   UNL     1       5.873  48.034  17.582  1.00  0.00     0.171 C 
ATOM     52  C   UNL     1       5.518  48.641  15.103  1.00  0.00     0.013 C 
ATOM     53  C   UNL     1       6.055  46.255  14.310  1.00  0.00    -0.035 C 
ATOM     54  C   UNL     1       4.956  47.303  14.597  1.00  0.00     0.007 C 
ATOM     55  C   UNL     1       6.900  46.666  13.081  1.00  0.00     0.011 C 
ATOM     56  C   UNL     1       5.378  44.905  13.992  1.00  0.00     0.011 C 
BRANCH  29  57
ATOM     57  C   UNL     1       8.675  49.941  24.411  1.00  0.00     0.165 C 
BRANCH  57  58
ATOM     58  O   UNL     1       8.031  51.128  24.024  1.00  0.00    -0.396 OA
ATOM     59  H   UNL     1       7.514  50.912  23.206  1.00  0.00     0.210 HD
ENDBRANCH  57  58
ENDBRANCH  29  57
BRANCH  48  60
ATOM     60  O   UNL     1       6.274  50.907  16.751  1.00  0.00    -0.392 OA
ATOM     61  H   UNL     1       5.393  50.465  16.883  1.00  0.00     0.210 HD
ENDBRANCH  48  60
ENDBRANCH  26  27
ENDBRANCH   6  26
BRANCH   5  62
ATOM     62  O   UNL     1       3.993  50.022  25.886  1.00  0.00    -0.385 OA
ATOM     63  H   UNL     1       3.525  49.732  25.062  1.00  0.00     0.211 HD
ENDBRANCH   5  62
TORSDOF 14
ENDMDL
