MODEL 1
REMARK VINA RESULT:    -6.943      0.000      0.000
REMARK INTER + INTRA:         -10.901
REMARK INTER:                 -10.190
REMARK INTRA:                  -0.711
REMARK UNBOUND:                -0.711
REMARK SMILES O=c1c(O[C@@H]2O[C@@H](CO)[C@@H](O)[C@@H](O)[C@H]2O)c(-c2ccc(O)c(O)c2)oc2cc(O)cc(O)c12
REMARK SMILES IDX 4 1 3 2 16 3 25 4 2 5 26 6 1 7 33 8 27 9 31 10 28 11 30 12
REMARK SMILES IDX 17 13 18 14 19 15 20 16 24 17 22 18 21 19 23 21 32 23 29 25
REMARK SMILES IDX 5 27 14 28 6 29 12 30 7 31 10 32 15 33 13 35 8 37 9 38 11 40
REMARK H PARENT 21 20 23 22 32 24 29 26 15 34 13 36 9 39 11 41
REMARK Flexibility Score: inf
ROOT
ATOM      1  O   UNL     1       7.465  10.483 -17.921  1.00  0.00    -0.454 OA
ENDROOT
BRANCH   1   2
ATOM      2  C   UNL     1       7.489  11.887 -18.024  1.00  0.00     0.214 A 
ATOM      3  C   UNL     1       7.299  12.640 -16.850  1.00  0.00     0.180 A 
ATOM      4  O   UNL     1       7.383  13.963 -16.885  1.00  0.00    -0.452 OA
ATOM      5  C   UNL     1       7.714  12.576 -19.236  1.00  0.00     0.239 A 
ATOM      6  C   UNL     1       7.629  14.650 -17.994  1.00  0.00     0.146 A 
ATOM      7  O   UNL     1       7.752  11.934 -20.319  1.00  0.00    -0.285 OA
ATOM      8  C   UNL     1       7.838  13.987 -19.230  1.00  0.00     0.111 A 
ATOM      9  C   UNL     1       7.665  16.045 -17.921  1.00  0.00     0.094 A 
ATOM     10  C   UNL     1       8.125  14.775 -20.386  1.00  0.00     0.134 A 
ATOM     11  C   UNL     1       7.879  16.807 -19.066  1.00  0.00     0.123 A 
ATOM     12  C   UNL     1       8.098  16.172 -20.291  1.00  0.00     0.093 A 
BRANCH   3  13
ATOM     13  C   UNL     1       7.029  11.992 -15.546  1.00  0.00     0.025 A 
ATOM     14  C   UNL     1       6.111  10.931 -15.433  1.00  0.00     0.016 A 
ATOM     15  C   UNL     1       5.876  10.330 -14.193  1.00  0.00     0.051 A 
ATOM     16  C   UNL     1       6.543  10.784 -13.048  1.00  0.00     0.157 A 
ATOM     17  C   UNL     1       7.678  12.462 -14.392  1.00  0.00     0.062 A 
ATOM     18  C   UNL     1       7.447  11.858 -13.146  1.00  0.00     0.158 A 
BRANCH  16  19
ATOM     19  O   UNL     1       6.296  10.158 -11.826  1.00  0.00    -0.504 OA
ATOM     20  H   UNL     1       5.485   9.567 -11.677  1.00  0.00     0.293 HD
ENDBRANCH  16  19
BRANCH  18  21
ATOM     21  O   UNL     1       8.114  12.318 -12.010  1.00  0.00    -0.504 OA
ATOM     22  H   UNL     1       8.666  13.168 -12.025  1.00  0.00     0.293 HD
ENDBRANCH  18  21
ENDBRANCH   3  13
BRANCH  10  23
ATOM     23  O   UNL     1       8.471  14.236 -21.630  1.00  0.00    -0.507 OA
ATOM     24  H   UNL     1       9.115  13.468 -21.760  1.00  0.00     0.293 HD
ENDBRANCH  10  23
BRANCH  11  25
ATOM     25  O   UNL     1       7.884  18.197 -18.977  1.00  0.00    -0.508 OA
ATOM     26  H   UNL     1       7.338  18.771 -19.611  1.00  0.00     0.293 HD
ENDBRANCH  11  25
ENDBRANCH   1   2
BRANCH   1  27
ATOM     27  C   UNL     1       8.535   9.582 -18.215  1.00  0.00     0.339 C 
ATOM     28  C   UNL     1       9.882  10.310 -18.053  1.00  0.00     0.214 C 
ATOM     29  O   UNL     1       8.475   8.412 -17.406  1.00  0.00    -0.332 OA
ATOM     30  C   UNL     1      10.151  10.607 -16.562  1.00  0.00     0.180 C 
ATOM     31  C   UNL     1       8.580   8.726 -16.025  1.00  0.00     0.179 C 
ATOM     32  C   UNL     1       9.963   9.336 -15.711  1.00  0.00     0.177 C 
BRANCH  28  33
ATOM     33  O   UNL     1      10.907   9.514 -18.596  1.00  0.00    -0.384 OA
ATOM     34  H   UNL     1      10.678   8.569 -18.390  1.00  0.00     0.211 HD
ENDBRANCH  28  33
BRANCH  30  35
ATOM     35  O   UNL     1      11.447  11.120 -16.386  1.00  0.00    -0.387 OA
ATOM     36  H   UNL     1      12.037  10.636 -17.027  1.00  0.00     0.211 HD
ENDBRANCH  30  35
BRANCH  31  37
ATOM     37  C   UNL     1       8.326   7.444 -15.211  1.00  0.00     0.191 C 
BRANCH  37  38
ATOM     38  O   UNL     1       8.902   7.538 -13.934  1.00  0.00    -0.394 OA
ATOM     39  H   UNL     1       8.873   8.499 -13.672  1.00  0.00     0.210 HD
ENDBRANCH  37  38
ENDBRANCH  31  37
BRANCH  32  40
ATOM     40  O   UNL     1      10.975   8.398 -15.992  1.00  0.00    -0.387 OA
ATOM     41  H   UNL     1      11.628   8.847 -16.593  1.00  0.00     0.211 HD
ENDBRANCH  32  40
ENDBRANCH   1  27
TORSDOF 12
ENDMDL
MODEL 2
REMARK VINA RESULT:    -6.859      2.011      7.258
REMARK INTER + INTRA:         -10.778
REMARK INTER:                  -9.819
REMARK INTRA:                  -0.959
REMARK UNBOUND:                -0.711
REMARK SMILES O=c1c(O[C@@H]2O[C@@H](CO)[C@@H](O)[C@@H](O)[C@H]2O)c(-c2ccc(O)c(O)c2)oc2cc(O)cc(O)c12
REMARK SMILES IDX 4 1 3 2 16 3 25 4 2 5 26 6 1 7 33 8 27 9 31 10 28 11 30 12
REMARK SMILES IDX 17 13 18 14 19 15 20 16 24 17 22 18 21 19 23 21 32 23 29 25
REMARK SMILES IDX 5 27 14 28 6 29 12 30 7 31 10 32 15 33 13 35 8 37 9 38 11 40
REMARK H PARENT 21 20 23 22 32 24 29 26 15 34 13 36 9 39 11 41
REMARK Flexibility Score: inf
ROOT
ATOM      1  O   UNL     1       6.969  13.476 -15.523  1.00  0.00    -0.454 OA
ENDROOT
BRANCH   1   2
ATOM      2  C   UNL     1       6.840  12.077 -15.434  1.00  0.00     0.214 A 
ATOM      3  C   UNL     1       6.860  11.335 -16.631  1.00  0.00     0.180 A 
ATOM      4  O   UNL     1       6.812  10.009 -16.593  1.00  0.00    -0.452 OA
ATOM      5  C   UNL     1       6.713  11.381 -14.212  1.00  0.00     0.239 A 
ATOM      6  C   UNL     1       6.730   9.313 -15.467  1.00  0.00     0.146 A 
ATOM      7  O   UNL     1       6.556  12.026 -13.142  1.00  0.00    -0.285 OA
ATOM      8  C   UNL     1       6.705   9.965 -14.207  1.00  0.00     0.111 A 
ATOM      9  C   UNL     1       6.653   7.920 -15.547  1.00  0.00     0.094 A 
ATOM     10  C   UNL     1       6.641   9.164 -13.027  1.00  0.00     0.134 A 
ATOM     11  C   UNL     1       6.525   7.152 -14.393  1.00  0.00     0.123 A 
ATOM     12  C   UNL     1       6.509   7.774 -13.143  1.00  0.00     0.093 A 
BRANCH   3  13
ATOM     13  C   UNL     1       6.962  11.993 -17.953  1.00  0.00     0.025 A 
ATOM     14  C   UNL     1       5.992  12.915 -18.387  1.00  0.00     0.016 A 
ATOM     15  C   UNL     1       6.111  13.530 -19.637  1.00  0.00     0.051 A 
ATOM     16  C   UNL     1       7.190  13.226 -20.475  1.00  0.00     0.157 A 
ATOM     17  C   UNL     1       8.030  11.671 -18.806  1.00  0.00     0.062 A 
ATOM     18  C   UNL     1       8.155  12.289 -20.060  1.00  0.00     0.158 A 
BRANCH  16  19
ATOM     19  O   UNL     1       7.289  13.862 -21.713  1.00  0.00    -0.504 OA
ATOM     20  H   UNL     1       8.037  14.513 -21.926  1.00  0.00     0.293 HD
ENDBRANCH  16  19
BRANCH  18  21
ATOM     21  O   UNL     1       9.233  11.979 -20.891  1.00  0.00    -0.504 OA
ATOM     22  H   UNL     1       9.435  11.024 -21.165  1.00  0.00     0.293 HD
ENDBRANCH  18  21
ENDBRANCH   3  13
BRANCH  10  23
ATOM     23  O   UNL     1       6.736   9.680 -11.729  1.00  0.00    -0.507 OA
ATOM     24  H   UNL     1       7.459   9.432 -11.069  1.00  0.00     0.293 HD
ENDBRANCH  10  23
BRANCH  11  25
ATOM     25  O   UNL     1       6.422   5.766 -14.497  1.00  0.00    -0.508 OA
ATOM     26  H   UNL     1       5.558   5.280 -14.279  1.00  0.00     0.293 HD
ENDBRANCH  11  25
ENDBRANCH   1   2
BRANCH   1  27
ATOM     27  C   UNL     1       8.003  14.281 -14.950  1.00  0.00     0.339 C 
ATOM     28  C   UNL     1       9.260  13.422 -14.725  1.00  0.00     0.214 C 
ATOM     29  O   UNL     1       8.288  15.421 -15.753  1.00  0.00    -0.332 OA
ATOM     30  C   UNL     1       9.899  13.046 -16.079  1.00  0.00     0.180 C 
ATOM     31  C   UNL     1       8.737  15.048 -17.048  1.00  0.00     0.179 C 
ATOM     32  C   UNL     1      10.084  14.297 -16.959  1.00  0.00     0.177 C 
BRANCH  28  33
ATOM     33  O   UNL     1      10.171  14.135 -13.925  1.00  0.00    -0.384 OA
ATOM     34  H   UNL     1      10.251  13.640 -13.066  1.00  0.00     0.211 HD
ENDBRANCH  28  33
BRANCH  30  35
ATOM     35  O   UNL     1      11.134  12.405 -15.883  1.00  0.00    -0.387 OA
ATOM     36  H   UNL     1      10.988  11.707 -15.188  1.00  0.00     0.211 HD
ENDBRANCH  30  35
BRANCH  31  37
ATOM     37  C   UNL     1       8.851  16.318 -17.911  1.00  0.00     0.191 C 
BRANCH  37  38
ATOM     38  O   UNL     1       9.992  16.270 -18.727  1.00  0.00    -0.394 OA
ATOM     39  H   UNL     1       9.716  16.588 -19.631  1.00  0.00     0.210 HD
ENDBRANCH  37  38
ENDBRANCH  31  37
BRANCH  32  40
ATOM     40  O   UNL     1      11.069  15.144 -16.416  1.00  0.00    -0.387 OA
ATOM     41  H   UNL     1      10.904  16.054 -16.782  1.00  0.00     0.211 HD
ENDBRANCH  32  40
ENDBRANCH   1  27
TORSDOF 12
ENDMDL
MODEL 3
REMARK VINA RESULT:    -6.449      2.123      7.099
REMARK INTER + INTRA:         -10.176
REMARK INTER:                  -9.441
REMARK INTRA:                  -0.735
REMARK UNBOUND:                -0.711
REMARK SMILES O=c1c(O[C@@H]2O[C@@H](CO)[C@@H](O)[C@@H](O)[C@H]2O)c(-c2ccc(O)c(O)c2)oc2cc(O)cc(O)c12
REMARK SMILES IDX 4 1 3 2 16 3 25 4 2 5 26 6 1 7 33 8 27 9 31 10 28 11 30 12
REMARK SMILES IDX 17 13 18 14 19 15 20 16 24 17 22 18 21 19 23 21 32 23 29 25
REMARK SMILES IDX 5 27 14 28 6 29 12 30 7 31 10 32 15 33 13 35 8 37 9 38 11 40
REMARK H PARENT 21 20 23 22 32 24 29 26 15 34 13 36 9 39 11 41
REMARK Flexibility Score: inf
ROOT
ATOM      1  O   UNL     1       9.700  11.827 -16.596  1.00  0.00    -0.454 OA
ENDROOT
BRANCH   1   2
ATOM      2  C   UNL     1       8.945  10.648 -16.743  1.00  0.00     0.214 A 
ATOM      3  C   UNL     1       8.146  10.514 -17.894  1.00  0.00     0.180 A 
ATOM      4  O   UNL     1       7.472   9.392 -18.111  1.00  0.00    -0.452 OA
ATOM      5  C   UNL     1       8.966   9.588 -15.811  1.00  0.00     0.239 A 
ATOM      6  C   UNL     1       7.491   8.357 -17.282  1.00  0.00     0.146 A 
ATOM      7  O   UNL     1       9.563   9.736 -14.712  1.00  0.00    -0.285 OA
ATOM      8  C   UNL     1       8.266   8.388 -16.094  1.00  0.00     0.111 A 
ATOM      9  C   UNL     1       6.717   7.236 -17.594  1.00  0.00     0.094 A 
ATOM     10  C   UNL     1       8.269   7.236 -15.251  1.00  0.00     0.134 A 
ATOM     11  C   UNL     1       6.675   6.144 -16.733  1.00  0.00     0.123 A 
ATOM     12  C   UNL     1       7.440   6.151 -15.564  1.00  0.00     0.093 A 
BRANCH   3  13
ATOM     13  C   UNL     1       8.050  11.593 -18.904  1.00  0.00     0.025 A 
ATOM     14  C   UNL     1       8.981  11.697 -19.953  1.00  0.00     0.016 A 
ATOM     15  C   UNL     1       8.867  12.721 -20.899  1.00  0.00     0.051 A 
ATOM     16  C   UNL     1       7.832  13.659 -20.805  1.00  0.00     0.157 A 
ATOM     17  C   UNL     1       7.027  12.551 -18.798  1.00  0.00     0.062 A 
ATOM     18  C   UNL     1       6.908  13.577 -19.748  1.00  0.00     0.158 A 
BRANCH  16  19
ATOM     19  O   UNL     1       7.738  14.664 -21.769  1.00  0.00    -0.504 OA
ATOM     20  H   UNL     1       8.508  14.889 -22.391  1.00  0.00     0.293 HD
ENDBRANCH  16  19
BRANCH  18  21
ATOM     21  O   UNL     1       5.875  14.510 -19.646  1.00  0.00    -0.504 OA
ATOM     22  H   UNL     1       5.535  15.016 -20.457  1.00  0.00     0.293 HD
ENDBRANCH  18  21
ENDBRANCH   3  13
BRANCH  10  23
ATOM     23  O   UNL     1       9.087   7.098 -14.124  1.00  0.00    -0.507 OA
ATOM     24  H   UNL     1       9.925   7.637 -13.957  1.00  0.00     0.293 HD
ENDBRANCH  10  23
BRANCH  11  25
ATOM     25  O   UNL     1       5.876   5.047 -17.050  1.00  0.00    -0.508 OA
ATOM     26  H   UNL     1       6.086   4.448 -17.841  1.00  0.00     0.293 HD
ENDBRANCH  11  25
ENDBRANCH   1   2
BRANCH   1  27
ATOM     27  C   UNL     1       9.713  12.704 -15.466  1.00  0.00     0.339 C 
ATOM     28  C   UNL     1      10.176  14.104 -15.906  1.00  0.00     0.214 C 
ATOM     29  O   UNL     1       8.443  12.753 -14.825  1.00  0.00    -0.332 OA
ATOM     30  C   UNL     1       9.096  14.773 -16.783  1.00  0.00     0.180 C 
ATOM     31  C   UNL     1       7.434  13.236 -15.699  1.00  0.00     0.179 C 
ATOM     32  C   UNL     1       7.718  14.701 -16.097  1.00  0.00     0.177 C 
BRANCH  28  33
ATOM     33  O   UNL     1      10.444  14.882 -14.765  1.00  0.00    -0.384 OA
ATOM     34  H   UNL     1      10.637  15.804 -15.083  1.00  0.00     0.211 HD
ENDBRANCH  28  33
BRANCH  30  35
ATOM     35  O   UNL     1       9.434  16.110 -17.051  1.00  0.00    -0.387 OA
ATOM     36  H   UNL     1       8.592  16.574 -17.309  1.00  0.00     0.211 HD
ENDBRANCH  30  35
BRANCH  31  37
ATOM     37  C   UNL     1       6.070  13.091 -15.001  1.00  0.00     0.191 C 
BRANCH  37  38
ATOM     38  O   UNL     1       6.104  13.647 -13.712  1.00  0.00    -0.394 OA
ATOM     39  H   UNL     1       6.981  14.112 -13.619  1.00  0.00     0.210 HD
ENDBRANCH  37  38
ENDBRANCH  31  37
BRANCH  32  40
ATOM     40  O   UNL     1       7.690  15.522 -14.953  1.00  0.00    -0.387 OA
ATOM     41  H   UNL     1       8.281  15.095 -14.277  1.00  0.00     0.211 HD
ENDBRANCH  32  40
ENDBRANCH   1  27
TORSDOF 12
ENDMDL
MODEL 4
REMARK VINA RESULT:    -6.440      1.680      4.651
REMARK INTER + INTRA:         -10.164
REMARK INTER:                  -9.457
REMARK INTRA:                  -0.707
REMARK UNBOUND:                -0.711
REMARK SMILES O=c1c(O[C@@H]2O[C@@H](CO)[C@@H](O)[C@@H](O)[C@H]2O)c(-c2ccc(O)c(O)c2)oc2cc(O)cc(O)c12
REMARK SMILES IDX 4 1 3 2 16 3 25 4 2 5 26 6 1 7 33 8 27 9 31 10 28 11 30 12
REMARK SMILES IDX 17 13 18 14 19 15 20 16 24 17 22 18 21 19 23 21 32 23 29 25
REMARK SMILES IDX 5 27 14 28 6 29 12 30 7 31 10 32 15 33 13 35 8 37 9 38 11 40
REMARK H PARENT 21 20 23 22 32 24 29 26 15 34 13 36 9 39 11 41
REMARK Flexibility Score: inf
ROOT
ATOM      1  O   UNL     1       6.287  13.428 -16.847  1.00  0.00    -0.454 OA
ENDROOT
BRANCH   1   2
ATOM      2  C   UNL     1       6.909  13.790 -18.057  1.00  0.00     0.214 A 
ATOM      3  C   UNL     1       7.320  12.758 -18.922  1.00  0.00     0.180 A 
ATOM      4  O   UNL     1       7.847  13.050 -20.104  1.00  0.00    -0.452 OA
ATOM      5  C   UNL     1       7.122  15.128 -18.455  1.00  0.00     0.239 A 
ATOM      6  C   UNL     1       8.032  14.292 -20.535  1.00  0.00     0.146 A 
ATOM      7  O   UNL     1       6.889  16.063 -17.644  1.00  0.00    -0.285 OA
ATOM      8  C   UNL     1       7.650  15.403 -19.740  1.00  0.00     0.111 A 
ATOM      9  C   UNL     1       8.625  14.484 -21.785  1.00  0.00     0.094 A 
ATOM     10  C   UNL     1       7.849  16.716 -20.265  1.00  0.00     0.134 A 
ATOM     11  C   UNL     1       8.875  15.769 -22.259  1.00  0.00     0.123 A 
ATOM     12  C   UNL     1       8.497  16.876 -21.496  1.00  0.00     0.093 A 
BRANCH   3  13
ATOM     13  C   UNL     1       7.157  11.331 -18.564  1.00  0.00     0.025 A 
ATOM     14  C   UNL     1       6.006  10.611 -18.933  1.00  0.00     0.016 A 
ATOM     15  C   UNL     1       5.876   9.262 -18.590  1.00  0.00     0.051 A 
ATOM     16  C   UNL     1       6.885   8.616 -17.864  1.00  0.00     0.157 A 
ATOM     17  C   UNL     1       8.156  10.687 -17.814  1.00  0.00     0.062 A 
ATOM     18  C   UNL     1       8.031   9.332 -17.471  1.00  0.00     0.158 A 
BRANCH  16  19
ATOM     19  O   UNL     1       6.732   7.267 -17.544  1.00  0.00    -0.504 OA
ATOM     20  H   UNL     1       6.449   6.961 -16.618  1.00  0.00     0.293 HD
ENDBRANCH  16  19
BRANCH  18  21
ATOM     21  O   UNL     1       9.039   8.696 -16.746  1.00  0.00    -0.504 OA
ATOM     22  H   UNL     1       9.903   8.398 -17.187  1.00  0.00     0.293 HD
ENDBRANCH  18  21
ENDBRANCH   3  13
BRANCH  10  23
ATOM     23  O   UNL     1       7.402  17.883 -19.634  1.00  0.00    -0.507 OA
ATOM     24  H   UNL     1       7.787  18.251 -18.776  1.00  0.00     0.293 HD
ENDBRANCH  10  23
BRANCH  11  25
ATOM     25  O   UNL     1       9.493  15.938 -23.497  1.00  0.00    -0.508 OA
ATOM     26  H   UNL     1      10.009  15.185 -23.939  1.00  0.00     0.293 HD
ENDBRANCH  11  25
ENDBRANCH   1   2
BRANCH   1  27
ATOM     27  C   UNL     1       6.501  14.016 -15.561  1.00  0.00     0.339 C 
ATOM     28  C   UNL     1       5.908  13.104 -14.472  1.00  0.00     0.214 C 
ATOM     29  O   UNL     1       7.880  14.279 -15.326  1.00  0.00    -0.332 OA
ATOM     30  C   UNL     1       6.744  11.812 -14.345  1.00  0.00     0.180 C 
ATOM     31  C   UNL     1       8.652  13.088 -15.359  1.00  0.00     0.179 C 
ATOM     32  C   UNL     1       8.242  12.145 -14.207  1.00  0.00     0.177 C 
BRANCH  28  33
ATOM     33  O   UNL     1       5.879  13.801 -13.250  1.00  0.00    -0.384 OA
ATOM     34  H   UNL     1       4.927  13.853 -12.970  1.00  0.00     0.211 HD
ENDBRANCH  28  33
BRANCH  30  35
ATOM     35  O   UNL     1       6.314  11.051 -13.246  1.00  0.00    -0.387 OA
ATOM     36  H   UNL     1       5.975  10.187 -13.609  1.00  0.00     0.211 HD
ENDBRANCH  30  35
BRANCH  31  37
ATOM     37  C   UNL     1      10.142  13.468 -15.280  1.00  0.00     0.191 C 
BRANCH  37  38
ATOM     38  O   UNL     1      10.957  12.379 -15.627  1.00  0.00    -0.394 OA
ATOM     39  H   UNL     1      10.350  11.616 -15.836  1.00  0.00     0.210 HD
ENDBRANCH  37  38
ENDBRANCH  31  37
BRANCH  32  40
ATOM     40  O   UNL     1       8.501  12.762 -12.968  1.00  0.00    -0.387 OA
ATOM     41  H   UNL     1       7.770  13.419 -12.814  1.00  0.00     0.211 HD
ENDBRANCH  32  40
ENDBRANCH   1  27
TORSDOF 12
ENDMDL
MODEL 5
REMARK VINA RESULT:    -6.173      1.505      2.660
REMARK INTER + INTRA:          -9.772
REMARK INTER:                  -8.946
REMARK INTRA:                  -0.826
REMARK UNBOUND:                -0.711
REMARK SMILES O=c1c(O[C@@H]2O[C@@H](CO)[C@@H](O)[C@@H](O)[C@H]2O)c(-c2ccc(O)c(O)c2)oc2cc(O)cc(O)c12
REMARK SMILES IDX 4 1 3 2 16 3 25 4 2 5 26 6 1 7 33 8 27 9 31 10 28 11 30 12
REMARK SMILES IDX 17 13 18 14 19 15 20 16 24 17 22 18 21 19 23 21 32 23 29 25
REMARK SMILES IDX 5 27 14 28 6 29 12 30 7 31 10 32 15 33 13 35 8 37 9 38 11 40
REMARK H PARENT 21 20 23 22 32 24 29 26 15 34 13 36 9 39 11 41
REMARK Flexibility Score: inf
ROOT
ATOM      1  O   UNL     1       9.233  12.401 -17.125  1.00  0.00    -0.454 OA
ENDROOT
BRANCH   1   2
ATOM      2  C   UNL     1       8.555  13.631 -17.213  1.00  0.00     0.214 A 
ATOM      3  C   UNL     1       7.563  13.908 -16.253  1.00  0.00     0.180 A 
ATOM      4  O   UNL     1       6.946  15.083 -16.252  1.00  0.00    -0.452 OA
ATOM      5  C   UNL     1       8.831  14.606 -18.196  1.00  0.00     0.239 A 
ATOM      6  C   UNL     1       7.200  16.042 -17.134  1.00  0.00     0.146 A 
ATOM      7  O   UNL     1       9.614  14.330 -19.144  1.00  0.00    -0.285 OA
ATOM      8  C   UNL     1       8.183  15.864 -18.141  1.00  0.00     0.111 A 
ATOM      9  C   UNL     1       6.467  17.229 -17.059  1.00  0.00     0.094 A 
ATOM     10  C   UNL     1       8.432  16.939 -19.047  1.00  0.00     0.134 A 
ATOM     11  C   UNL     1       6.671  18.246 -17.988  1.00  0.00     0.123 A 
ATOM     12  C   UNL     1       7.642  18.094 -18.980  1.00  0.00     0.093 A 
BRANCH   3  13
ATOM     13  C   UNL     1       7.196  12.926 -15.208  1.00  0.00     0.025 A 
ATOM     14  C   UNL     1       6.202  11.956 -15.433  1.00  0.00     0.016 A 
ATOM     15  C   UNL     1       5.875  11.034 -14.435  1.00  0.00     0.051 A 
ATOM     16  C   UNL     1       6.525  11.073 -13.195  1.00  0.00     0.157 A 
ATOM     17  C   UNL     1       7.829  12.979 -13.955  1.00  0.00     0.062 A 
ATOM     18  C   UNL     1       7.506  12.052 -12.951  1.00  0.00     0.158 A 
BRANCH  16  19
ATOM     19  O   UNL     1       6.186  10.134 -12.220  1.00  0.00    -0.504 OA
ATOM     20  H   UNL     1       5.415   9.486 -12.343  1.00  0.00     0.293 HD
ENDBRANCH  16  19
BRANCH  18  21
ATOM     21  O   UNL     1       8.157  12.099 -11.718  1.00  0.00    -0.504 OA
ATOM     22  H   UNL     1       7.642  12.180 -10.848  1.00  0.00     0.293 HD
ENDBRANCH  18  21
ENDBRANCH   3  13
BRANCH  10  23
ATOM     23  O   UNL     1       9.457  16.933 -19.999  1.00  0.00    -0.507 OA
ATOM     24  H   UNL     1       9.411  17.407 -20.891  1.00  0.00     0.293 HD
ENDBRANCH  10  23
BRANCH  11  25
ATOM     25  O   UNL     1       5.910  19.410 -17.912  1.00  0.00    -0.508 OA
ATOM     26  H   UNL     1       4.944  19.434 -18.222  1.00  0.00     0.293 HD
ENDBRANCH  11  25
ENDBRANCH   1   2
BRANCH   1  27
ATOM     27  C   UNL     1       9.417  11.444 -18.173  1.00  0.00     0.339 C 
ATOM     28  C   UNL     1       9.986  10.140 -17.585  1.00  0.00     0.214 C 
ATOM     29  O   UNL     1       8.209  11.209 -18.888  1.00  0.00    -0.332 OA
ATOM     30  C   UNL     1       8.917   9.431 -16.725  1.00  0.00     0.180 C 
ATOM     31  C   UNL     1       7.192  10.692 -18.042  1.00  0.00     0.179 C 
ATOM     32  C   UNL     1       7.593   9.302 -17.502  1.00  0.00     0.177 C 
BRANCH  28  33
ATOM     33  O   UNL     1      10.413   9.307 -18.635  1.00  0.00    -0.384 OA
ATOM     34  H   UNL     1      10.626   8.423 -18.234  1.00  0.00     0.211 HD
ENDBRANCH  28  33
BRANCH  30  35
ATOM     35  O   UNL     1       9.368   8.163 -16.322  1.00  0.00    -0.387 OA
ATOM     36  H   UNL     1      10.363   8.192 -16.341  1.00  0.00     0.211 HD
ENDBRANCH  30  35
BRANCH  31  37
ATOM     37  C   UNL     1       5.875  10.636 -18.837  1.00  0.00     0.191 C 
BRANCH  37  38
ATOM     38  O   UNL     1       6.120  10.393 -20.197  1.00  0.00    -0.394 OA
ATOM     39  H   UNL     1       7.038  10.728 -20.392  1.00  0.00     0.210 HD
ENDBRANCH  37  38
ENDBRANCH  31  37
BRANCH  32  40
ATOM     40  O   UNL     1       7.731   8.395 -18.571  1.00  0.00    -0.387 OA
ATOM     41  H   UNL     1       7.050   7.683 -18.437  1.00  0.00     0.211 HD
ENDBRANCH  32  40
ENDBRANCH   1  27
TORSDOF 12
ENDMDL
MODEL 6
REMARK VINA RESULT:    -6.119      2.273      7.539
REMARK INTER + INTRA:          -9.692
REMARK INTER:                  -8.426
REMARK INTRA:                  -1.266
REMARK UNBOUND:                -0.711
REMARK SMILES O=c1c(O[C@@H]2O[C@@H](CO)[C@@H](O)[C@@H](O)[C@H]2O)c(-c2ccc(O)c(O)c2)oc2cc(O)cc(O)c12
REMARK SMILES IDX 4 1 3 2 16 3 25 4 2 5 26 6 1 7 33 8 27 9 31 10 28 11 30 12
REMARK SMILES IDX 17 13 18 14 19 15 20 16 24 17 22 18 21 19 23 21 32 23 29 25
REMARK SMILES IDX 5 27 14 28 6 29 12 30 7 31 10 32 15 33 13 35 8 37 9 38 11 40
REMARK H PARENT 21 20 23 22 32 24 29 26 15 34 13 36 9 39 11 41
REMARK Flexibility Score: inf
ROOT
ATOM      1  O   UNL     1       8.053  10.804 -15.799  1.00  0.00    -0.454 OA
ENDROOT
BRANCH   1   2
ATOM      2  C   UNL     1       7.629   9.594 -16.382  1.00  0.00     0.214 A 
ATOM      3  C   UNL     1       7.506   9.544 -17.783  1.00  0.00     0.180 A 
ATOM      4  O   UNL     1       7.178   8.407 -18.382  1.00  0.00    -0.452 OA
ATOM      5  C   UNL     1       7.343   8.429 -15.637  1.00  0.00     0.239 A 
ATOM      6  C   UNL     1       6.937   7.278 -17.727  1.00  0.00     0.146 A 
ATOM      7  O   UNL     1       7.314   8.484 -14.380  1.00  0.00    -0.285 OA
ATOM      8  C   UNL     1       7.036   7.222 -16.313  1.00  0.00     0.111 A 
ATOM      9  C   UNL     1       6.569   6.146 -18.458  1.00  0.00     0.094 A 
ATOM     10  C   UNL     1       6.790   5.975 -15.662  1.00  0.00     0.134 A 
ATOM     11  C   UNL     1       6.267   4.952 -17.809  1.00  0.00     0.123 A 
ATOM     12  C   UNL     1       6.369   4.874 -16.418  1.00  0.00     0.093 A 
BRANCH   3  13
ATOM     13  C   UNL     1       7.760  10.732 -18.630  1.00  0.00     0.025 A 
ATOM     14  C   UNL     1       9.031  11.332 -18.684  1.00  0.00     0.016 A 
ATOM     15  C   UNL     1       9.250  12.450 -19.495  1.00  0.00     0.051 A 
ATOM     16  C   UNL     1       8.204  12.990 -20.253  1.00  0.00     0.157 A 
ATOM     17  C   UNL     1       6.706  11.291 -19.372  1.00  0.00     0.062 A 
ATOM     18  C   UNL     1       6.924  12.410 -20.191  1.00  0.00     0.158 A 
BRANCH  16  19
ATOM     19  O   UNL     1       8.454  14.099 -21.061  1.00  0.00    -0.504 OA
ATOM     20  H   UNL     1       9.324  14.619 -21.009  1.00  0.00     0.293 HD
ENDBRANCH  16  19
BRANCH  18  21
ATOM     21  O   UNL     1       5.875  12.943 -20.942  1.00  0.00    -0.504 OA
ATOM     22  H   UNL     1       5.272  13.669 -20.571  1.00  0.00     0.293 HD
ENDBRANCH  18  21
ENDBRANCH   3  13
BRANCH  10  23
ATOM     23  O   UNL     1       6.978   5.762 -14.291  1.00  0.00    -0.507 OA
ATOM     24  H   UNL     1       6.419   5.134 -13.730  1.00  0.00     0.293 HD
ENDBRANCH  10  23
BRANCH  11  25
ATOM     25  O   UNL     1       5.875   3.843 -18.555  1.00  0.00    -0.508 OA
ATOM     26  H   UNL     1       5.775   2.927 -18.130  1.00  0.00     0.293 HD
ENDBRANCH  11  25
ENDBRANCH   1   2
BRANCH   1  27
ATOM     27  C   UNL     1       7.335  11.599 -14.850  1.00  0.00     0.339 C 
ATOM     28  C   UNL     1       8.329  12.421 -14.010  1.00  0.00     0.214 C 
ATOM     29  O   UNL     1       6.374  12.435 -15.485  1.00  0.00    -0.332 OA
ATOM     30  C   UNL     1       8.981  13.519 -14.878  1.00  0.00     0.180 C 
ATOM     31  C   UNL     1       6.986  13.341 -16.391  1.00  0.00     0.179 C 
ATOM     32  C   UNL     1       7.906  14.324 -15.634  1.00  0.00     0.177 C 
BRANCH  28  33
ATOM     33  O   UNL     1       7.652  12.988 -12.916  1.00  0.00    -0.384 OA
ATOM     34  H   UNL     1       7.447  13.930 -13.158  1.00  0.00     0.211 HD
ENDBRANCH  28  33
BRANCH  30  35
ATOM     35  O   UNL     1       9.761  14.377 -14.086  1.00  0.00    -0.387 OA
ATOM     36  H   UNL     1       9.571  14.145 -13.137  1.00  0.00     0.211 HD
ENDBRANCH  30  35
BRANCH  31  37
ATOM     37  C   UNL     1       5.881  14.081 -17.167  1.00  0.00     0.191 C 
BRANCH  37  38
ATOM     38  O   UNL     1       6.329  15.336 -17.605  1.00  0.00    -0.394 OA
ATOM     39  H   UNL     1       7.103  15.173 -18.213  1.00  0.00     0.210 HD
ENDBRANCH  37  38
ENDBRANCH  31  37
BRANCH  32  40
ATOM     40  O   UNL     1       7.145  15.098 -14.737  1.00  0.00    -0.387 OA
ATOM     41  H   UNL     1       7.582  15.023 -13.847  1.00  0.00     0.211 HD
ENDBRANCH  32  40
ENDBRANCH   1  27
TORSDOF 12
ENDMDL
MODEL 7
REMARK VINA RESULT:    -5.698      1.804      4.512
REMARK INTER + INTRA:          -9.075
REMARK INTER:                  -8.752
REMARK INTRA:                  -0.322
REMARK UNBOUND:                -0.711
REMARK SMILES O=c1c(O[C@@H]2O[C@@H](CO)[C@@H](O)[C@@H](O)[C@H]2O)c(-c2ccc(O)c(O)c2)oc2cc(O)cc(O)c12
REMARK SMILES IDX 4 1 3 2 16 3 25 4 2 5 26 6 1 7 33 8 27 9 31 10 28 11 30 12
REMARK SMILES IDX 17 13 18 14 19 15 20 16 24 17 22 18 21 19 23 21 32 23 29 25
REMARK SMILES IDX 5 27 14 28 6 29 12 30 7 31 10 32 15 33 13 35 8 37 9 38 11 40
REMARK H PARENT 21 20 23 22 32 24 29 26 15 34 13 36 9 39 11 41
REMARK Flexibility Score: inf
ROOT
ATOM      1  O   UNL     1       9.892  13.235 -16.160  1.00  0.00    -0.454 OA
ENDROOT
BRANCH   1   2
ATOM      2  C   UNL     1       9.505  13.520 -17.483  1.00  0.00     0.214 A 
ATOM      3  C   UNL     1       8.910  12.489 -18.234  1.00  0.00     0.180 A 
ATOM      4  O   UNL     1       8.465  12.730 -19.461  1.00  0.00    -0.452 OA
ATOM      5  C   UNL     1       9.663  14.788 -18.086  1.00  0.00     0.239 A 
ATOM      6  C   UNL     1       8.558  13.913 -20.053  1.00  0.00     0.146 A 
ATOM      7  O   UNL     1      10.312  15.685 -17.487  1.00  0.00    -0.285 OA
ATOM      8  C   UNL     1       9.140  15.020 -19.382  1.00  0.00     0.111 A 
ATOM      9  C   UNL     1       8.084  14.046 -21.360  1.00  0.00     0.094 A 
ATOM     10  C   UNL     1       9.191  16.276 -20.058  1.00  0.00     0.134 A 
ATOM     11  C   UNL     1       8.199  15.259 -22.035  1.00  0.00     0.123 A 
ATOM     12  C   UNL     1       8.758  16.362 -21.387  1.00  0.00     0.093 A 
BRANCH   3  13
ATOM     13  C   UNL     1       8.735  11.126 -17.683  1.00  0.00     0.025 A 
ATOM     14  C   UNL     1       7.481  10.488 -17.693  1.00  0.00     0.016 A 
ATOM     15  C   UNL     1       7.341   9.198 -17.173  1.00  0.00     0.051 A 
ATOM     16  C   UNL     1       8.444   8.532 -16.625  1.00  0.00     0.157 A 
ATOM     17  C   UNL     1       9.835  10.465 -17.111  1.00  0.00     0.062 A 
ATOM     18  C   UNL     1       9.699   9.169 -16.591  1.00  0.00     0.158 A 
BRANCH  16  19
ATOM     19  O   UNL     1       8.277   7.241 -16.122  1.00  0.00    -0.504 OA
ATOM     20  H   UNL     1       7.403   6.734 -16.221  1.00  0.00     0.293 HD
ENDBRANCH  16  19
BRANCH  18  21
ATOM     21  O   UNL     1      10.803   8.512 -16.046  1.00  0.00    -0.504 OA
ATOM     22  H   UNL     1      10.930   7.511 -16.150  1.00  0.00     0.293 HD
ENDBRANCH  18  21
ENDBRANCH   3  13
BRANCH  10  23
ATOM     23  O   UNL     1       9.624  17.466 -19.460  1.00  0.00    -0.507 OA
ATOM     24  H   UNL     1      10.593  17.737 -19.366  1.00  0.00     0.293 HD
ENDBRANCH  10  23
BRANCH  11  25
ATOM     25  O   UNL     1       7.744  15.362 -23.348  1.00  0.00    -0.508 OA
ATOM     26  H   UNL     1       7.113  14.675 -23.746  1.00  0.00     0.293 HD
ENDBRANCH  11  25
ENDBRANCH   1   2
BRANCH   1  27
ATOM     27  C   UNL     1       9.418  13.871 -14.970  1.00  0.00     0.339 C 
ATOM     28  C   UNL     1       8.237  14.796 -15.316  1.00  0.00     0.214 C 
ATOM     29  O   UNL     1       9.061  12.921 -13.973  1.00  0.00    -0.332 OA
ATOM     30  C   UNL     1       7.002  13.958 -15.712  1.00  0.00     0.180 C 
ATOM     31  C   UNL     1       8.018  12.064 -14.416  1.00  0.00     0.179 C 
ATOM     32  C   UNL     1       6.723  12.869 -14.658  1.00  0.00     0.177 C 
BRANCH  28  33
ATOM     33  O   UNL     1       7.950  15.613 -14.208  1.00  0.00    -0.384 OA
ATOM     34  H   UNL     1       7.972  15.029 -13.404  1.00  0.00     0.211 HD
ENDBRANCH  28  33
BRANCH  30  35
ATOM     35  O   UNL     1       5.875  14.782 -15.867  1.00  0.00    -0.387 OA
ATOM     36  H   UNL     1       5.341  14.401 -16.616  1.00  0.00     0.211 HD
ENDBRANCH  30  35
BRANCH  31  37
ATOM     37  C   UNL     1       7.813  10.958 -13.365  1.00  0.00     0.191 C 
BRANCH  37  38
ATOM     38  O   UNL     1       7.791  11.495 -12.069  1.00  0.00    -0.394 OA
ATOM     39  H   UNL     1       7.248  10.876 -11.506  1.00  0.00     0.210 HD
ENDBRANCH  37  38
ENDBRANCH  31  37
BRANCH  32  40
ATOM     40  O   UNL     1       6.287  13.448 -13.450  1.00  0.00    -0.387 OA
ATOM     41  H   UNL     1       6.846  14.257 -13.299  1.00  0.00     0.211 HD
ENDBRANCH  32  40
ENDBRANCH   1  27
TORSDOF 12
ENDMDL
MODEL 8
REMARK VINA RESULT:    -5.445      2.025      4.891
REMARK INTER + INTRA:          -8.703
REMARK INTER:                  -9.293
REMARK INTRA:                   0.590
REMARK UNBOUND:                -0.711
REMARK SMILES O=c1c(O[C@@H]2O[C@@H](CO)[C@@H](O)[C@@H](O)[C@H]2O)c(-c2ccc(O)c(O)c2)oc2cc(O)cc(O)c12
REMARK SMILES IDX 4 1 3 2 16 3 25 4 2 5 26 6 1 7 33 8 27 9 31 10 28 11 30 12
REMARK SMILES IDX 17 13 18 14 19 15 20 16 24 17 22 18 21 19 23 21 32 23 29 25
REMARK SMILES IDX 5 27 14 28 6 29 12 30 7 31 10 32 15 33 13 35 8 37 9 38 11 40
REMARK H PARENT 21 20 23 22 32 24 29 26 15 34 13 36 9 39 11 41
REMARK Flexibility Score: inf
ROOT
ATOM      1  O   UNL     1       7.123  14.018 -16.907  1.00  0.00    -0.454 OA
ENDROOT
BRANCH   1   2
ATOM      2  C   UNL     1       7.518  14.289 -18.231  1.00  0.00     0.214 A 
ATOM      3  C   UNL     1       7.846  13.198 -19.058  1.00  0.00     0.180 A 
ATOM      4  O   UNL     1       8.157  13.398 -20.333  1.00  0.00    -0.452 OA
ATOM      5  C   UNL     1       7.582  15.590 -18.774  1.00  0.00     0.239 A 
ATOM      6  C   UNL     1       8.193  14.599 -20.896  1.00  0.00     0.146 A 
ATOM      7  O   UNL     1       7.427  16.588 -18.022  1.00  0.00    -0.285 OA
ATOM      8  C   UNL     1       7.878  15.764 -20.149  1.00  0.00     0.111 A 
ATOM      9  C   UNL     1       8.564  14.697 -22.239  1.00  0.00     0.094 A 
ATOM     10  C   UNL     1       7.909  17.028 -20.813  1.00  0.00     0.134 A 
ATOM     11  C   UNL     1       8.656  15.939 -22.859  1.00  0.00     0.123 A 
ATOM     12  C   UNL     1       8.339  17.096 -22.144  1.00  0.00     0.093 A 
BRANCH   3  13
ATOM     13  C   UNL     1       7.831  11.806 -18.554  1.00  0.00     0.025 A 
ATOM     14  C   UNL     1       6.647  11.215 -18.075  1.00  0.00     0.016 A 
ATOM     15  C   UNL     1       6.654   9.897 -17.609  1.00  0.00     0.051 A 
ATOM     16  C   UNL     1       7.841   9.155 -17.602  1.00  0.00     0.157 A 
ATOM     17  C   UNL     1       9.025  11.068 -18.523  1.00  0.00     0.062 A 
ATOM     18  C   UNL     1       9.035   9.743 -18.059  1.00  0.00     0.158 A 
BRANCH  16  19
ATOM     19  O   UNL     1       7.816   7.839 -17.141  1.00  0.00    -0.504 OA
ATOM     20  H   UNL     1       7.015   7.455 -16.650  1.00  0.00     0.293 HD
ENDBRANCH  16  19
BRANCH  18  21
ATOM     21  O   UNL     1      10.223   9.011 -18.054  1.00  0.00    -0.504 OA
ATOM     22  H   UNL     1      10.299   8.125 -17.565  1.00  0.00     0.293 HD
ENDBRANCH  18  21
ENDBRANCH   3  13
BRANCH  10  23
ATOM     23  O   UNL     1       7.499  18.228 -20.221  1.00  0.00    -0.507 OA
ATOM     24  H   UNL     1       7.282  18.336 -19.240  1.00  0.00     0.293 HD
ENDBRANCH  10  23
BRANCH  11  25
ATOM     25  O   UNL     1       9.054  16.016 -24.192  1.00  0.00    -0.508 OA
ATOM     26  H   UNL     1       8.377  16.073 -24.946  1.00  0.00     0.293 HD
ENDBRANCH  11  25
ENDBRANCH   1   2
BRANCH   1  27
ATOM     27  C   UNL     1       7.794  14.419 -15.710  1.00  0.00     0.339 C 
ATOM     28  C   UNL     1       8.166  13.174 -14.885  1.00  0.00     0.214 C 
ATOM     29  O   UNL     1       8.938  15.217 -15.991  1.00  0.00    -0.332 OA
ATOM     30  C   UNL     1       9.283  12.377 -15.595  1.00  0.00     0.180 C 
ATOM     31  C   UNL     1       9.891  14.509 -16.772  1.00  0.00     0.179 C 
ATOM     32  C   UNL     1      10.450  13.306 -15.981  1.00  0.00     0.177 C 
BRANCH  28  33
ATOM     33  O   UNL     1       8.578  13.574 -13.602  1.00  0.00    -0.384 OA
ATOM     34  H   UNL     1       8.343  14.536 -13.510  1.00  0.00     0.211 HD
ENDBRANCH  28  33
BRANCH  30  35
ATOM     35  O   UNL     1       9.744  11.335 -14.775  1.00  0.00    -0.387 OA
ATOM     36  H   UNL     1      10.247  10.707 -15.362  1.00  0.00     0.211 HD
ENDBRANCH  30  35
BRANCH  31  37
ATOM     37  C   UNL     1      11.007  15.485 -17.186  1.00  0.00     0.191 C 
BRANCH  37  38
ATOM     38  O   UNL     1      10.865  15.869 -18.529  1.00  0.00    -0.394 OA
ATOM     39  H   UNL     1      10.622  16.836 -18.531  1.00  0.00     0.210 HD
ENDBRANCH  37  38
ENDBRANCH  31  37
BRANCH  32  40
ATOM     40  O   UNL     1      11.124  13.760 -14.831  1.00  0.00    -0.387 OA
ATOM     41  H   UNL     1      11.061  14.752 -14.831  1.00  0.00     0.211 HD
ENDBRANCH  32  40
ENDBRANCH   1  27
TORSDOF 12
ENDMDL
MODEL 9
REMARK VINA RESULT:    -5.324      1.699      2.245
REMARK INTER + INTRA:          -8.525
REMARK INTER:                  -8.806
REMARK INTRA:                   0.281
REMARK UNBOUND:                -0.711
REMARK SMILES O=c1c(O[C@@H]2O[C@@H](CO)[C@@H](O)[C@@H](O)[C@H]2O)c(-c2ccc(O)c(O)c2)oc2cc(O)cc(O)c12
REMARK SMILES IDX 4 1 3 2 16 3 25 4 2 5 26 6 1 7 33 8 27 9 31 10 28 11 30 12
REMARK SMILES IDX 17 13 18 14 19 15 20 16 24 17 22 18 21 19 23 21 32 23 29 25
REMARK SMILES IDX 5 27 14 28 6 29 12 30 7 31 10 32 15 33 13 35 8 37 9 38 11 40
REMARK H PARENT 21 20 23 22 32 24 29 26 15 34 13 36 9 39 11 41
REMARK Flexibility Score: inf
ROOT
ATOM      1  O   UNL     1       6.813   9.916 -16.967  1.00  0.00    -0.454 OA
ENDROOT
BRANCH   1   2
ATOM      2  C   UNL     1       6.616  11.296 -16.773  1.00  0.00     0.214 A 
ATOM      3  C   UNL     1       6.588  11.781 -15.452  1.00  0.00     0.180 A 
ATOM      4  O   UNL     1       6.476  13.083 -15.222  1.00  0.00    -0.452 OA
ATOM      5  C   UNL     1       6.469  12.219 -17.833  1.00  0.00     0.239 A 
ATOM      6  C   UNL     1       6.372  13.989 -16.186  1.00  0.00     0.146 A 
ATOM      7  O   UNL     1       6.355  11.797 -19.014  1.00  0.00    -0.285 OA
ATOM      8  C   UNL     1       6.392  13.605 -17.552  1.00  0.00     0.111 A 
ATOM      9  C   UNL     1       6.228  15.332 -15.828  1.00  0.00     0.094 A 
ATOM     10  C   UNL     1       6.302  14.625 -18.547  1.00  0.00     0.134 A 
ATOM     11  C   UNL     1       6.074  16.311 -16.805  1.00  0.00     0.123 A 
ATOM     12  C   UNL     1       6.102  15.955 -18.155  1.00  0.00     0.093 A 
BRANCH   3  13
ATOM     13  C   UNL     1       6.708  10.874 -14.288  1.00  0.00     0.025 A 
ATOM     14  C   UNL     1       7.293  11.304 -13.083  1.00  0.00     0.016 A 
ATOM     15  C   UNL     1       7.390  10.433 -11.994  1.00  0.00     0.051 A 
ATOM     16  C   UNL     1       6.916   9.119 -12.095  1.00  0.00     0.157 A 
ATOM     17  C   UNL     1       6.256   9.548 -14.395  1.00  0.00     0.062 A 
ATOM     18  C   UNL     1       6.348   8.672 -13.302  1.00  0.00     0.158 A 
BRANCH  16  19
ATOM     19  O   UNL     1       7.017   8.274 -10.989  1.00  0.00    -0.504 OA
ATOM     20  H   UNL     1       6.200   7.863 -10.549  1.00  0.00     0.293 HD
ENDBRANCH  16  19
BRANCH  18  21
ATOM     21  O   UNL     1       5.875   7.363 -13.411  1.00  0.00    -0.504 OA
ATOM     22  H   UNL     1       6.478   6.565 -13.242  1.00  0.00     0.293 HD
ENDBRANCH  18  21
ENDBRANCH   3  13
BRANCH  10  23
ATOM     23  O   UNL     1       6.436  14.387 -19.920  1.00  0.00    -0.507 OA
ATOM     24  H   UNL     1       7.270  14.020 -20.356  1.00  0.00     0.293 HD
ENDBRANCH  10  23
BRANCH  11  25
ATOM     25  O   UNL     1       5.904  17.641 -16.427  1.00  0.00    -0.508 OA
ATOM     26  H   UNL     1       5.105  18.183 -16.739  1.00  0.00     0.293 HD
ENDBRANCH  11  25
ENDBRANCH   1   2
BRANCH   1  27
ATOM     27  C   UNL     1       7.904   9.290 -17.647  1.00  0.00     0.339 C 
ATOM     28  C   UNL     1       9.043  10.307 -17.838  1.00  0.00     0.214 C 
ATOM     29  O   UNL     1       8.353   8.127 -16.961  1.00  0.00    -0.332 OA
ATOM     30  C   UNL     1       9.697  10.637 -16.478  1.00  0.00     0.180 C 
ATOM     31  C   UNL     1       8.816   8.436 -15.654  1.00  0.00     0.179 C 
ATOM     32  C   UNL     1      10.063   9.345 -15.723  1.00  0.00     0.177 C 
BRANCH  28  33
ATOM     33  O   UNL     1       9.992   9.777 -18.731  1.00  0.00    -0.384 OA
ATOM     34  H   UNL     1       9.654   8.888 -19.018  1.00  0.00     0.211 HD
ENDBRANCH  28  33
BRANCH  30  35
ATOM     35  O   UNL     1      10.840  11.433 -16.659  1.00  0.00    -0.387 OA
ATOM     36  H   UNL     1      11.229  11.181 -17.541  1.00  0.00     0.211 HD
ENDBRANCH  30  35
BRANCH  31  37
ATOM     37  C   UNL     1       9.113   7.119 -14.915  1.00  0.00     0.191 C 
BRANCH  37  38
ATOM     38  O   UNL     1       8.131   6.155 -15.193  1.00  0.00    -0.394 OA
ATOM     39  H   UNL     1       8.480   5.592 -15.939  1.00  0.00     0.210 HD
ENDBRANCH  37  38
ENDBRANCH  31  37
BRANCH  32  40
ATOM     40  O   UNL     1      11.112   8.670 -16.375  1.00  0.00    -0.387 OA
ATOM     41  H   UNL     1      11.761   8.396 -15.673  1.00  0.00     0.211 HD
ENDBRANCH  32  40
ENDBRANCH   1  27
TORSDOF 12
ENDMDL
