MODEL 1
REMARK VINA RESULT:    -5.996      0.000      0.000
REMARK INTER + INTRA:         -12.704
REMARK INTER:                 -11.254
REMARK INTRA:                  -1.451
REMARK UNBOUND:                -1.451
REMARK SMILES CCCCCC=CCC=CCCCCCCCC(=O)OC
REMARK SMILES IDX 11 1 10 2 9 3 8 4 7 5 6 6 5 7 4 8 3 9 2 10 1 11 12 12 13 13
REMARK SMILES IDX 14 14 15 15 16 16 17 17 18 18 19 19 20 20 21 21
REMARK H PARENT
REMARK Flexibility Score: inf
ROOT
ATOM      1  C   UNL     1      26.642   8.099  32.672  1.00  0.00     0.027 C 
ENDROOT
BRANCH   1   2
ATOM      2  C   UNL     1      27.303   6.763  32.892  1.00  0.00    -0.031 C 
ATOM      3  C   UNL     1      27.320   5.821  31.934  1.00  0.00    -0.027 C 
BRANCH   3   4
ATOM      4  C   UNL     1      28.023   4.507  32.126  1.00  0.00     0.054 C 
BRANCH   4   5
ATOM      5  C   UNL     1      28.162   3.789  30.811  1.00  0.00    -0.027 C 
ATOM      6  C   UNL     1      29.325   3.343  30.300  1.00  0.00    -0.031 C 
BRANCH   6   7
ATOM      7  C   UNL     1      30.683   3.547  30.932  1.00  0.00     0.027 C 
BRANCH   7   8
ATOM      8  C   UNL     1      31.714   4.023  29.898  1.00  0.00     0.004 C 
BRANCH   8   9
ATOM      9  C   UNL     1      32.517   5.236  30.399  1.00  0.00     0.000 C 
BRANCH   9  10
ATOM     10  C   UNL     1      32.105   5.678  31.810  1.00  0.00    -0.003 C 
ATOM     11  C   UNL     1      30.955   6.685  31.802  1.00  0.00     0.004 C 
ENDBRANCH   9  10
ENDBRANCH   8   9
ENDBRANCH   7   8
ENDBRANCH   6   7
ENDBRANCH   4   5
ENDBRANCH   3   4
ENDBRANCH   1   2
BRANCH   1  12
ATOM     12  C   UNL     1      27.639   9.258  32.826  1.00  0.00     0.004 C 
BRANCH  12  13
ATOM     13  C   UNL     1      28.260   9.383  34.232  1.00  0.00     0.000 C 
BRANCH  13  14
ATOM     14  C   UNL     1      29.687   8.812  34.364  1.00  0.00     0.000 C 
BRANCH  14  15
ATOM     15  C   UNL     1      30.509   9.374  35.541  1.00  0.00     0.001 C 
BRANCH  15  16
ATOM     16  C   UNL     1      32.004   9.007  35.523  1.00  0.00     0.012 C 
BRANCH  16  17
ATOM     17  C   UNL     1      32.275   7.630  34.901  1.00  0.00     0.123 C 
BRANCH  17  18
ATOM     18  C   UNL     1      33.057   6.772  35.842  1.00  0.00     0.305 C 
ATOM     19  O   UNL     1      33.909   5.961  35.390  1.00  0.00    -0.252 OA
BRANCH  18  20
ATOM     20  O   UNL     1      32.821   6.867  37.216  1.00  0.00    -0.469 OA
ATOM     21  C   UNL     1      33.157   5.828  38.125  1.00  0.00     0.282 C 
ENDBRANCH  18  20
ENDBRANCH  17  18
ENDBRANCH  16  17
ENDBRANCH  15  16
ENDBRANCH  14  15
ENDBRANCH  13  14
ENDBRANCH  12  13
ENDBRANCH   1  12
TORSDOF 15
ENDMDL
MODEL 2
REMARK VINA RESULT:    -5.956      3.928      5.625
REMARK INTER + INTRA:         -12.630
REMARK INTER:                 -11.488
REMARK INTRA:                  -1.141
REMARK UNBOUND:                -1.451
REMARK SMILES CCCCCC=CCC=CCCCCCCCC(=O)OC
REMARK SMILES IDX 11 1 10 2 9 3 8 4 7 5 6 6 5 7 4 8 3 9 2 10 1 11 12 12 13 13
REMARK SMILES IDX 14 14 15 15 16 16 17 17 18 18 19 19 20 20 21 21
REMARK H PARENT
REMARK Flexibility Score: inf
ROOT
ATOM      1  C   UNL     1      26.638   8.321  32.715  1.00  0.00     0.027 C 
ENDROOT
BRANCH   1   2
ATOM      2  C   UNL     1      27.320   6.988  32.892  1.00  0.00    -0.031 C 
ATOM      3  C   UNL     1      27.313   6.061  31.920  1.00  0.00    -0.027 C 
BRANCH   3   4
ATOM      4  C   UNL     1      28.035   4.752  32.067  1.00  0.00     0.054 C 
BRANCH   4   5
ATOM      5  C   UNL     1      29.494   4.917  31.740  1.00  0.00    -0.027 C 
ATOM      6  C   UNL     1      30.182   4.134  30.887  1.00  0.00    -0.031 C 
BRANCH   6   7
ATOM      7  C   UNL     1      29.618   2.929  30.172  1.00  0.00     0.027 C 
BRANCH   7   8
ATOM      8  C   UNL     1      29.483   3.187  28.664  1.00  0.00     0.004 C 
BRANCH   8   9
ATOM      9  C   UNL     1      28.118   2.734  28.119  1.00  0.00     0.000 C 
BRANCH   9  10
ATOM     10  C   UNL     1      26.954   3.120  29.042  1.00  0.00    -0.003 C 
ATOM     11  C   UNL     1      25.756   2.179  28.910  1.00  0.00     0.004 C 
ENDBRANCH   9  10
ENDBRANCH   8   9
ENDBRANCH   7   8
ENDBRANCH   6   7
ENDBRANCH   4   5
ENDBRANCH   3   4
ENDBRANCH   1   2
BRANCH   1  12
ATOM     12  C   UNL     1      27.516   9.479  33.216  1.00  0.00     0.004 C 
BRANCH  12  13
ATOM     13  C   UNL     1      28.769   9.036  33.999  1.00  0.00     0.000 C 
BRANCH  13  14
ATOM     14  C   UNL     1      28.993   9.772  35.336  1.00  0.00     0.000 C 
BRANCH  14  15
ATOM     15  C   UNL     1      28.280  11.132  35.460  1.00  0.00     0.001 C 
BRANCH  15  16
ATOM     16  C   UNL     1      28.588  11.913  36.751  1.00  0.00     0.012 C 
BRANCH  16  17
ATOM     17  C   UNL     1      28.459  13.433  36.576  1.00  0.00     0.123 C 
BRANCH  17  18
ATOM     18  C   UNL     1      27.246  13.769  35.769  1.00  0.00     0.305 C 
ATOM     19  O   UNL     1      26.099  13.625  36.271  1.00  0.00    -0.252 OA
BRANCH  18  20
ATOM     20  O   UNL     1      27.399  14.222  34.456  1.00  0.00    -0.469 OA
ATOM     21  C   UNL     1      26.296  14.596  33.641  1.00  0.00     0.282 C 
ENDBRANCH  18  20
ENDBRANCH  17  18
ENDBRANCH  16  17
ENDBRANCH  15  16
ENDBRANCH  14  15
ENDBRANCH  13  14
ENDBRANCH  12  13
ENDBRANCH   1  12
TORSDOF 15
ENDMDL
MODEL 3
REMARK VINA RESULT:    -5.781      3.759      5.090
REMARK INTER + INTRA:         -12.302
REMARK INTER:                 -11.212
REMARK INTRA:                  -1.089
REMARK UNBOUND:                -1.451
REMARK SMILES CCCCCC=CCC=CCCCCCCCC(=O)OC
REMARK SMILES IDX 11 1 10 2 9 3 8 4 7 5 6 6 5 7 4 8 3 9 2 10 1 11 12 12 13 13
REMARK SMILES IDX 14 14 15 15 16 16 17 17 18 18 19 19 20 20 21 21
REMARK H PARENT
REMARK Flexibility Score: inf
ROOT
ATOM      1  C   UNL     1      26.891   8.263  32.840  1.00  0.00     0.027 C 
ENDROOT
BRANCH   1   2
ATOM      2  C   UNL     1      27.768   7.045  32.708  1.00  0.00    -0.031 C 
ATOM      3  C   UNL     1      27.336   5.932  32.092  1.00  0.00    -0.027 C 
BRANCH   3   4
ATOM      4  C   UNL     1      28.222   4.733  31.908  1.00  0.00     0.054 C 
BRANCH   4   5
ATOM      5  C   UNL     1      27.600   3.763  30.940  1.00  0.00    -0.027 C 
ATOM      6  C   UNL     1      28.267   2.784  30.299  1.00  0.00    -0.031 C 
BRANCH   6   7
ATOM      7  C   UNL     1      29.755   2.541  30.400  1.00  0.00     0.027 C 
BRANCH   7   8
ATOM      8  C   UNL     1      30.507   3.190  29.229  1.00  0.00     0.004 C 
BRANCH   8   9
ATOM      9  C   UNL     1      31.763   3.946  29.696  1.00  0.00     0.000 C 
BRANCH   9  10
ATOM     10  C   UNL     1      31.560   4.657  31.041  1.00  0.00    -0.003 C 
ATOM     11  C   UNL     1      32.406   5.924  31.174  1.00  0.00     0.004 C 
ENDBRANCH   9  10
ENDBRANCH   8   9
ENDBRANCH   7   8
ENDBRANCH   6   7
ENDBRANCH   4   5
ENDBRANCH   3   4
ENDBRANCH   1   2
BRANCH   1  12
ATOM     12  C   UNL     1      27.677   9.475  33.365  1.00  0.00     0.004 C 
BRANCH  12  13
ATOM     13  C   UNL     1      28.877   9.116  34.265  1.00  0.00     0.000 C 
BRANCH  13  14
ATOM     14  C   UNL     1      29.033   9.996  35.521  1.00  0.00     0.000 C 
BRANCH  14  15
ATOM     15  C   UNL     1      28.157  11.264  35.543  1.00  0.00     0.001 C 
BRANCH  15  16
ATOM     16  C   UNL     1      28.497  12.269  36.659  1.00  0.00     0.012 C 
BRANCH  16  17
ATOM     17  C   UNL     1      27.488  13.424  36.750  1.00  0.00     0.123 C 
BRANCH  17  18
ATOM     18  C   UNL     1      27.783  14.464  35.717  1.00  0.00     0.305 C 
ATOM     19  O   UNL     1      28.896  15.054  35.723  1.00  0.00    -0.252 OA
BRANCH  18  20
ATOM     20  O   UNL     1      26.811  14.783  34.766  1.00  0.00    -0.469 OA
ATOM     21  C   UNL     1      26.783  14.196  33.473  1.00  0.00     0.282 C 
ENDBRANCH  18  20
ENDBRANCH  17  18
ENDBRANCH  16  17
ENDBRANCH  15  16
ENDBRANCH  14  15
ENDBRANCH  13  14
ENDBRANCH  12  13
ENDBRANCH   1  12
TORSDOF 15
ENDMDL
MODEL 4
REMARK VINA RESULT:    -5.758      3.389      5.341
REMARK INTER + INTRA:         -12.258
REMARK INTER:                 -11.037
REMARK INTRA:                  -1.221
REMARK UNBOUND:                -1.451
REMARK SMILES CCCCCC=CCC=CCCCCCCCC(=O)OC
REMARK SMILES IDX 11 1 10 2 9 3 8 4 7 5 6 6 5 7 4 8 3 9 2 10 1 11 12 12 13 13
REMARK SMILES IDX 14 14 15 15 16 16 17 17 18 18 19 19 20 20 21 21
REMARK H PARENT
REMARK Flexibility Score: inf
ROOT
ATOM      1  C   UNL     1      27.235   6.095  32.489  1.00  0.00     0.027 C 
ENDROOT
BRANCH   1   2
ATOM      2  C   UNL     1      28.091   4.909  32.127  1.00  0.00    -0.031 C 
ATOM      3  C   UNL     1      29.378   5.053  31.772  1.00  0.00    -0.027 C 
BRANCH   3   4
ATOM      4  C   UNL     1      30.253   3.871  31.462  1.00  0.00     0.054 C 
BRANCH   4   5
ATOM      5  C   UNL     1      30.791   3.970  30.060  1.00  0.00    -0.027 C 
ATOM      6  C   UNL     1      30.432   3.164  29.043  1.00  0.00    -0.031 C 
BRANCH   6   7
ATOM      7  C   UNL     1      29.482   1.995  29.158  1.00  0.00     0.027 C 
BRANCH   7   8
ATOM      8  C   UNL     1      28.167   2.268  28.413  1.00  0.00     0.004 C 
BRANCH   8   9
ATOM      9  C   UNL     1      27.142   2.999  29.298  1.00  0.00     0.000 C 
BRANCH   9  10
ATOM     10  C   UNL     1      25.696   2.575  29.003  1.00  0.00    -0.003 C 
ATOM     11  C   UNL     1      25.607   1.453  27.969  1.00  0.00     0.004 C 
ENDBRANCH   9  10
ENDBRANCH   8   9
ENDBRANCH   7   8
ENDBRANCH   6   7
ENDBRANCH   4   5
ENDBRANCH   3   4
ENDBRANCH   1   2
BRANCH   1  12
ATOM     12  C   UNL     1      28.074   7.373  32.651  1.00  0.00     0.004 C 
BRANCH  12  13
ATOM     13  C   UNL     1      27.276   8.684  32.499  1.00  0.00     0.000 C 
BRANCH  13  14
ATOM     14  C   UNL     1      27.645   9.789  33.509  1.00  0.00     0.000 C 
BRANCH  14  15
ATOM     15  C   UNL     1      28.766   9.420  34.501  1.00  0.00     0.001 C 
BRANCH  15  16
ATOM     16  C   UNL     1      28.900  10.362  35.711  1.00  0.00     0.012 C 
BRANCH  16  17
ATOM     17  C   UNL     1      27.933  11.554  35.651  1.00  0.00     0.123 C 
BRANCH  17  18
ATOM     18  C   UNL     1      28.271  12.560  36.703  1.00  0.00     0.305 C 
ATOM     19  O   UNL     1      29.103  12.270  37.604  1.00  0.00    -0.252 OA
BRANCH  18  20
ATOM     20  O   UNL     1      27.644  13.809  36.685  1.00  0.00    -0.469 OA
ATOM     21  C   UNL     1      26.276  13.984  37.024  1.00  0.00     0.282 C 
ENDBRANCH  18  20
ENDBRANCH  17  18
ENDBRANCH  16  17
ENDBRANCH  15  16
ENDBRANCH  14  15
ENDBRANCH  13  14
ENDBRANCH  12  13
ENDBRANCH   1  12
TORSDOF 15
ENDMDL
MODEL 5
REMARK VINA RESULT:    -5.681      3.677      8.164
REMARK INTER + INTRA:         -12.114
REMARK INTER:                 -11.117
REMARK INTRA:                  -0.998
REMARK UNBOUND:                -1.451
REMARK SMILES CCCCCC=CCC=CCCCCCCCC(=O)OC
REMARK SMILES IDX 11 1 10 2 9 3 8 4 7 5 6 6 5 7 4 8 3 9 2 10 1 11 12 12 13 13
REMARK SMILES IDX 14 14 15 15 16 16 17 17 18 18 19 19 20 20 21 21
REMARK H PARENT
REMARK Flexibility Score: inf
ROOT
ATOM      1  C   UNL     1      27.179   9.989  32.600  1.00  0.00     0.027 C 
ENDROOT
BRANCH   1   2
ATOM      2  C   UNL     1      27.716   9.745  33.986  1.00  0.00    -0.031 C 
ATOM      3  C   UNL     1      28.215  10.745  34.732  1.00  0.00    -0.027 C 
BRANCH   3   4
ATOM      4  C   UNL     1      28.703  10.520  36.135  1.00  0.00     0.054 C 
BRANCH   4   5
ATOM      5  C   UNL     1      29.332  11.774  36.680  1.00  0.00    -0.027 C 
ATOM      6  C   UNL     1      28.662  12.908  36.960  1.00  0.00    -0.031 C 
BRANCH   6   7
ATOM      7  C   UNL     1      27.187  13.126  36.715  1.00  0.00     0.027 C 
BRANCH   7   8
ATOM      8  C   UNL     1      26.908  14.550  36.214  1.00  0.00     0.004 C 
BRANCH   8   9
ATOM      9  C   UNL     1      27.552  14.818  34.843  1.00  0.00     0.000 C 
BRANCH   9  10
ATOM     10  C   UNL     1      26.869  14.046  33.706  1.00  0.00    -0.003 C 
ATOM     11  C   UNL     1      25.611  14.743  33.189  1.00  0.00     0.004 C 
ENDBRANCH   9  10
ENDBRANCH   8   9
ENDBRANCH   7   8
ENDBRANCH   6   7
ENDBRANCH   4   5
ENDBRANCH   3   4
ENDBRANCH   1   2
BRANCH   1  12
ATOM     12  C   UNL     1      26.654   8.695  31.958  1.00  0.00     0.004 C 
BRANCH  12  13
ATOM     13  C   UNL     1      26.817   7.436  32.836  1.00  0.00     0.000 C 
BRANCH  13  14
ATOM     14  C   UNL     1      28.044   6.565  32.499  1.00  0.00     0.000 C 
BRANCH  14  15
ATOM     15  C   UNL     1      27.781   5.047  32.479  1.00  0.00     0.001 C 
BRANCH  15  16
ATOM     16  C   UNL     1      28.520   4.273  31.372  1.00  0.00     0.012 C 
BRANCH  16  17
ATOM     17  C   UNL     1      30.026   4.571  31.337  1.00  0.00     0.123 C 
BRANCH  17  18
ATOM     18  C   UNL     1      30.694   3.782  30.258  1.00  0.00     0.305 C 
ATOM     19  O   UNL     1      31.855   4.095  29.880  1.00  0.00    -0.252 OA
BRANCH  18  20
ATOM     20  O   UNL     1      30.014   2.714  29.667  1.00  0.00    -0.469 OA
ATOM     21  C   UNL     1      29.748   2.654  28.273  1.00  0.00     0.282 C 
ENDBRANCH  18  20
ENDBRANCH  17  18
ENDBRANCH  16  17
ENDBRANCH  15  16
ENDBRANCH  14  15
ENDBRANCH  13  14
ENDBRANCH  12  13
ENDBRANCH   1  12
TORSDOF 15
ENDMDL
MODEL 6
REMARK VINA RESULT:    -5.467      4.214      8.572
REMARK INTER + INTRA:         -11.712
REMARK INTER:                 -10.667
REMARK INTRA:                  -1.045
REMARK UNBOUND:                -1.451
REMARK SMILES CCCCCC=CCC=CCCCCCCCC(=O)OC
REMARK SMILES IDX 11 1 10 2 9 3 8 4 7 5 6 6 5 7 4 8 3 9 2 10 1 11 12 12 13 13
REMARK SMILES IDX 14 14 15 15 16 16 17 17 18 18 19 19 20 20 21 21
REMARK H PARENT
REMARK Flexibility Score: inf
ROOT
ATOM      1  C   UNL     1      26.722   7.433  32.017  1.00  0.00     0.027 C 
ENDROOT
BRANCH   1   2
ATOM      2  C   UNL     1      26.787   8.822  32.599  1.00  0.00    -0.031 C 
ATOM      3  C   UNL     1      27.671   9.141  33.558  1.00  0.00    -0.027 C 
BRANCH   3   4
ATOM      4  C   UNL     1      27.778  10.537  34.106  1.00  0.00     0.054 C 
BRANCH   4   5
ATOM      5  C   UNL     1      28.557  10.538  35.393  1.00  0.00    -0.027 C 
ATOM      6  C   UNL     1      28.446  11.473  36.356  1.00  0.00    -0.031 C 
BRANCH   6   7
ATOM      7  C   UNL     1      27.571  12.702  36.272  1.00  0.00     0.027 C 
BRANCH   7   8
ATOM      8  C   UNL     1      28.413  13.977  36.121  1.00  0.00     0.004 C 
BRANCH   8   9
ATOM      9  C   UNL     1      27.811  14.950  35.092  1.00  0.00     0.000 C 
BRANCH   9  10
ATOM     10  C   UNL     1      27.204  14.228  33.880  1.00  0.00    -0.003 C 
ATOM     11  C   UNL     1      25.813  14.749  33.517  1.00  0.00     0.004 C 
ENDBRANCH   9  10
ENDBRANCH   8   9
ENDBRANCH   7   8
ENDBRANCH   6   7
ENDBRANCH   4   5
ENDBRANCH   3   4
ENDBRANCH   1   2
BRANCH   1  12
ATOM     12  C   UNL     1      27.556   6.435  32.836  1.00  0.00     0.004 C 
BRANCH  12  13
ATOM     13  C   UNL     1      27.986   5.174  32.058  1.00  0.00     0.000 C 
BRANCH  13  14
ATOM     14  C   UNL     1      29.499   5.070  31.776  1.00  0.00     0.000 C 
BRANCH  14  15
ATOM     15  C   UNL     1      29.890   4.073  30.669  1.00  0.00     0.001 C 
BRANCH  15  16
ATOM     16  C   UNL     1      29.346   2.645  30.859  1.00  0.00     0.012 C 
BRANCH  16  17
ATOM     17  C   UNL     1      28.321   2.248  29.786  1.00  0.00     0.123 C 
BRANCH  17  18
ATOM     18  C   UNL     1      27.228   1.421  30.382  1.00  0.00     0.305 C 
ATOM     19  O   UNL     1      27.461   0.710  31.395  1.00  0.00    -0.252 OA
BRANCH  18  20
ATOM     20  O   UNL     1      25.960   1.433  29.796  1.00  0.00    -0.469 OA
ATOM     21  C   UNL     1      25.568   2.407  28.838  1.00  0.00     0.282 C 
ENDBRANCH  18  20
ENDBRANCH  17  18
ENDBRANCH  16  17
ENDBRANCH  15  16
ENDBRANCH  14  15
ENDBRANCH  13  14
ENDBRANCH  12  13
ENDBRANCH   1  12
TORSDOF 15
ENDMDL
MODEL 7
REMARK VINA RESULT:    -5.465      4.382      8.448
REMARK INTER + INTRA:         -11.707
REMARK INTER:                 -10.774
REMARK INTRA:                  -0.934
REMARK UNBOUND:                -1.451
REMARK SMILES CCCCCC=CCC=CCCCCCCCC(=O)OC
REMARK SMILES IDX 11 1 10 2 9 3 8 4 7 5 6 6 5 7 4 8 3 9 2 10 1 11 12 12 13 13
REMARK SMILES IDX 14 14 15 15 16 16 17 17 18 18 19 19 20 20 21 21
REMARK H PARENT
REMARK Flexibility Score: inf
ROOT
ATOM      1  C   UNL     1      26.934   6.817  32.167  1.00  0.00     0.027 C 
ENDROOT
BRANCH   1   2
ATOM      2  C   UNL     1      27.018   8.035  33.049  1.00  0.00    -0.031 C 
ATOM      3  C   UNL     1      27.441   9.218  32.574  1.00  0.00    -0.027 C 
BRANCH   3   4
ATOM      4  C   UNL     1      27.477  10.451  33.433  1.00  0.00     0.054 C 
BRANCH   4   5
ATOM      5  C   UNL     1      28.262  10.193  34.690  1.00  0.00    -0.027 C 
ATOM      6  C   UNL     1      28.342  11.042  35.732  1.00  0.00    -0.031 C 
BRANCH   6   7
ATOM      7  C   UNL     1      27.709  12.413  35.783  1.00  0.00     0.027 C 
BRANCH   7   8
ATOM      8  C   UNL     1      28.450  13.335  36.762  1.00  0.00     0.004 C 
BRANCH   8   9
ATOM      9  C   UNL     1      29.336  12.546  37.741  1.00  0.00     0.000 C 
BRANCH   9  10
ATOM     10  C   UNL     1      30.740  13.149  37.887  1.00  0.00    -0.003 C 
ATOM     11  C   UNL     1      30.861  14.530  37.243  1.00  0.00     0.004 C 
ENDBRANCH   9  10
ENDBRANCH   8   9
ENDBRANCH   7   8
ENDBRANCH   6   7
ENDBRANCH   4   5
ENDBRANCH   3   4
ENDBRANCH   1   2
BRANCH   1  12
ATOM     12  C   UNL     1      27.631   5.605  32.805  1.00  0.00     0.004 C 
BRANCH  12  13
ATOM     13  C   UNL     1      28.105   4.538  31.796  1.00  0.00     0.000 C 
BRANCH  13  14
ATOM     14  C   UNL     1      29.605   4.602  31.441  1.00  0.00     0.000 C 
BRANCH  14  15
ATOM     15  C   UNL     1      30.188   3.311  30.834  1.00  0.00     0.001 C 
BRANCH  15  16
ATOM     16  C   UNL     1      30.582   3.411  29.349  1.00  0.00     0.012 C 
BRANCH  16  17
ATOM     17  C   UNL     1      30.002   2.271  28.499  1.00  0.00     0.123 C 
BRANCH  17  18
ATOM     18  C   UNL     1      28.781   2.727  27.767  1.00  0.00     0.305 C 
ATOM     19  O   UNL     1      28.863   3.679  26.945  1.00  0.00    -0.252 OA
BRANCH  18  20
ATOM     20  O   UNL     1      27.557   2.103  28.018  1.00  0.00    -0.469 OA
ATOM     21  C   UNL     1      27.009   1.989  29.323  1.00  0.00     0.282 C 
ENDBRANCH  18  20
ENDBRANCH  17  18
ENDBRANCH  16  17
ENDBRANCH  15  16
ENDBRANCH  14  15
ENDBRANCH  13  14
ENDBRANCH  12  13
ENDBRANCH   1  12
TORSDOF 15
ENDMDL
MODEL 8
REMARK VINA RESULT:    -5.451      4.156      8.482
REMARK INTER + INTRA:         -11.682
REMARK INTER:                 -10.437
REMARK INTRA:                  -1.245
REMARK UNBOUND:                -1.451
REMARK SMILES CCCCCC=CCC=CCCCCCCCC(=O)OC
REMARK SMILES IDX 11 1 10 2 9 3 8 4 7 5 6 6 5 7 4 8 3 9 2 10 1 11 12 12 13 13
REMARK SMILES IDX 14 14 15 15 16 16 17 17 18 18 19 19 20 20 21 21
REMARK H PARENT
REMARK Flexibility Score: inf
ROOT
ATOM      1  C   UNL     1      29.688   9.328  35.218  1.00  0.00     0.027 C 
ENDROOT
BRANCH   1   2
ATOM      2  C   UNL     1      28.629  10.338  35.579  1.00  0.00    -0.031 C 
ATOM      3  C   UNL     1      28.929  11.457  36.260  1.00  0.00    -0.027 C 
BRANCH   3   4
ATOM      4  C   UNL     1      27.889  12.494  36.577  1.00  0.00     0.054 C 
BRANCH   4   5
ATOM      5  C   UNL     1      28.410  13.462  37.605  1.00  0.00    -0.027 C 
ATOM      6  C   UNL     1      29.064  14.604  37.320  1.00  0.00    -0.031 C 
BRANCH   6   7
ATOM      7  C   UNL     1      29.436  15.065  35.931  1.00  0.00     0.027 C 
BRANCH   7   8
ATOM      8  C   UNL     1      28.288  15.849  35.276  1.00  0.00     0.004 C 
BRANCH   8   9
ATOM      9  C   UNL     1      27.985  15.350  33.853  1.00  0.00     0.000 C 
BRANCH   9  10
ATOM     10  C   UNL     1      26.828  14.342  33.812  1.00  0.00    -0.003 C 
ATOM     11  C   UNL     1      25.578  14.902  33.134  1.00  0.00     0.004 C 
ENDBRANCH   9  10
ENDBRANCH   8   9
ENDBRANCH   7   8
ENDBRANCH   6   7
ENDBRANCH   4   5
ENDBRANCH   3   4
ENDBRANCH   1   2
BRANCH   1  12
ATOM     12  C   UNL     1      29.335   8.571  33.928  1.00  0.00     0.004 C 
BRANCH  12  13
ATOM     13  C   UNL     1      28.006   9.007  33.276  1.00  0.00     0.000 C 
BRANCH  13  14
ATOM     14  C   UNL     1      26.915   7.918  33.235  1.00  0.00     0.000 C 
BRANCH  14  15
ATOM     15  C   UNL     1      27.004   6.949  32.040  1.00  0.00     0.001 C 
BRANCH  15  16
ATOM     16  C   UNL     1      27.526   5.541  32.382  1.00  0.00     0.012 C 
BRANCH  16  17
ATOM     17  C   UNL     1      28.989   5.329  31.968  1.00  0.00     0.123 C 
BRANCH  17  18
ATOM     18  C   UNL     1      29.150   4.028  31.249  1.00  0.00     0.305 C 
ATOM     19  O   UNL     1      28.133   3.408  30.840  1.00  0.00    -0.252 OA
BRANCH  18  20
ATOM     20  O   UNL     1      30.431   3.506  31.054  1.00  0.00    -0.469 OA
ATOM     21  C   UNL     1      31.411   4.157  30.258  1.00  0.00     0.282 C 
ENDBRANCH  18  20
ENDBRANCH  17  18
ENDBRANCH  16  17
ENDBRANCH  15  16
ENDBRANCH  14  15
ENDBRANCH  13  14
ENDBRANCH  12  13
ENDBRANCH   1  12
TORSDOF 15
ENDMDL
MODEL 9
REMARK VINA RESULT:    -5.420      4.397      8.794
REMARK INTER + INTRA:         -11.623
REMARK INTER:                 -10.722
REMARK INTRA:                  -0.900
REMARK UNBOUND:                -1.451
REMARK SMILES CCCCCC=CCC=CCCCCCCCC(=O)OC
REMARK SMILES IDX 11 1 10 2 9 3 8 4 7 5 6 6 5 7 4 8 3 9 2 10 1 11 12 12 13 13
REMARK SMILES IDX 14 14 15 15 16 16 17 17 18 18 19 19 20 20 21 21
REMARK H PARENT
REMARK Flexibility Score: inf
ROOT
ATOM      1  C   UNL     1      26.822   7.325  32.090  1.00  0.00     0.027 C 
ENDROOT
BRANCH   1   2
ATOM      2  C   UNL     1      26.772   8.639  32.826  1.00  0.00    -0.031 C 
ATOM      3  C   UNL     1      27.836   9.106  33.501  1.00  0.00    -0.027 C 
BRANCH   3   4
ATOM      4  C   UNL     1      27.812  10.440  34.193  1.00  0.00     0.054 C 
BRANCH   4   5
ATOM      5  C   UNL     1      28.724  10.427  35.389  1.00  0.00    -0.027 C 
ATOM      6  C   UNL     1      28.678  11.317  36.399  1.00  0.00    -0.031 C 
BRANCH   6   7
ATOM      7  C   UNL     1      27.747  12.505  36.464  1.00  0.00     0.027 C 
BRANCH   7   8
ATOM      8  C   UNL     1      28.379  13.745  35.816  1.00  0.00     0.004 C 
BRANCH   8   9
ATOM      9  C   UNL     1      27.327  14.649  35.149  1.00  0.00     0.000 C 
BRANCH   9  10
ATOM     10  C   UNL     1      26.902  14.141  33.764  1.00  0.00    -0.003 C 
ATOM     11  C   UNL     1      25.614  14.794  33.264  1.00  0.00     0.004 C 
ENDBRANCH   9  10
ENDBRANCH   8   9
ENDBRANCH   7   8
ENDBRANCH   6   7
ENDBRANCH   4   5
ENDBRANCH   3   4
ENDBRANCH   1   2
BRANCH   1  12
ATOM     12  C   UNL     1      27.879   6.380  32.683  1.00  0.00     0.004 C 
BRANCH  12  13
ATOM     13  C   UNL     1      27.925   4.984  32.029  1.00  0.00     0.000 C 
BRANCH  13  14
ATOM     14  C   UNL     1      29.319   4.543  31.539  1.00  0.00     0.000 C 
BRANCH  14  15
ATOM     15  C   UNL     1      29.342   3.231  30.730  1.00  0.00     0.001 C 
BRANCH  15  16
ATOM     16  C   UNL     1      29.900   3.358  29.301  1.00  0.00     0.012 C 
BRANCH  16  17
ATOM     17  C   UNL     1      28.820   3.196  28.221  1.00  0.00     0.123 C 
BRANCH  17  18
ATOM     18  C   UNL     1      29.003   1.909  27.482  1.00  0.00     0.305 C 
ATOM     19  O   UNL     1      28.213   1.605  26.548  1.00  0.00    -0.252 OA
BRANCH  18  20
ATOM     20  O   UNL     1      30.039   1.048  27.850  1.00  0.00    -0.469 OA
ATOM     21  C   UNL     1      30.083  -0.314  27.447  1.00  0.00     0.282 C 
ENDBRANCH  18  20
ENDBRANCH  17  18
ENDBRANCH  16  17
ENDBRANCH  15  16
ENDBRANCH  14  15
ENDBRANCH  13  14
ENDBRANCH  12  13
ENDBRANCH   1  12
TORSDOF 15
ENDMDL
