MODEL 1
REMARK VINA RESULT:    -7.752      0.000      0.000
REMARK INTER + INTRA:          -9.432
REMARK INTER:                  -9.338
REMARK INTRA:                  -0.094
REMARK UNBOUND:                -0.094
REMARK SMILES O=c1c(O)c(-c2ccc(O)c(O)c2)oc2cc(O)cc(O)c12
REMARK SMILES IDX 5 1 3 2 2 3 1 4 22 5 20 6 19 7 17 8 16 9 15 10 14 11 6 12
REMARK SMILES IDX 7 13 8 14 9 15 13 16 11 17 10 18 12 20 4 22 21 24 18 26
REMARK H PARENT 10 19 12 21 4 23 21 25 18 27
REMARK Flexibility Score: inf
ROOT
ATOM      1  C   UNL     1     -22.376 -15.524 -10.558  1.00  0.00     0.180 A 
ATOM      2  C   UNL     1     -21.301 -14.725 -10.132  1.00  0.00     0.208 A 
ATOM      3  C   UNL     1     -20.913 -14.768  -8.783  1.00  0.00     0.238 A 
ATOM      4  O   UNL     1     -19.985 -14.011  -8.396  1.00  0.00    -0.285 OA
ATOM      5  C   UNL     1     -21.594 -15.621  -7.881  1.00  0.00     0.111 A 
ATOM      6  C   UNL     1     -21.261 -15.773  -6.501  1.00  0.00     0.134 A 
ATOM      7  C   UNL     1     -22.086 -16.545  -5.674  1.00  0.00     0.093 A 
ATOM      8  C   UNL     1     -23.194 -17.221  -6.189  1.00  0.00     0.123 A 
ATOM      9  C   UNL     1     -23.493 -17.126  -7.546  1.00  0.00     0.094 A 
ATOM     10  C   UNL     1     -22.711 -16.335  -8.390  1.00  0.00     0.146 A 
ATOM     11  O   UNL     1     -23.037 -16.262  -9.675  1.00  0.00    -0.452 OA
ENDROOT
BRANCH   1  12
ATOM     12  C   UNL     1     -22.826 -15.552 -11.968  1.00  0.00     0.025 A 
ATOM     13  C   UNL     1     -23.256 -14.384 -12.623  1.00  0.00     0.016 A 
ATOM     14  C   UNL     1     -23.653 -14.430 -13.962  1.00  0.00     0.051 A 
ATOM     15  C   UNL     1     -23.615 -15.639 -14.669  1.00  0.00     0.157 A 
ATOM     16  C   UNL     1     -22.770 -16.756 -12.689  1.00  0.00     0.062 A 
ATOM     17  C   UNL     1     -23.170 -16.804 -14.032  1.00  0.00     0.158 A 
BRANCH  15  18
ATOM     18  O   UNL     1     -24.012 -15.689 -16.004  1.00  0.00    -0.504 OA
ATOM     19  H   UNL     1     -24.725 -15.069 -16.369  1.00  0.00     0.293 HD
ENDBRANCH  15  18
BRANCH  17  20
ATOM     20  O   UNL     1     -23.125 -18.003 -14.739  1.00  0.00    -0.504 OA
ATOM     21  H   UNL     1     -22.397 -18.689 -14.577  1.00  0.00     0.293 HD
ENDBRANCH  17  20
ENDBRANCH   1  12
BRANCH   2  22
ATOM     22  O   UNL     1     -20.656 -13.875 -11.034  1.00  0.00    -0.502 OA
ATOM     23  H   UNL     1     -21.133 -13.111 -11.499  1.00  0.00     0.293 HD
ENDBRANCH   2  22
BRANCH   6  24
ATOM     24  O   UNL     1     -20.125 -15.216  -5.907  1.00  0.00    -0.507 OA
ATOM     25  H   UNL     1     -19.714 -15.533  -5.042  1.00  0.00     0.293 HD
ENDBRANCH   6  24
BRANCH   8  26
ATOM     26  O   UNL     1     -24.000 -18.000  -5.361  1.00  0.00    -0.508 OA
ATOM     27  H   UNL     1     -24.702 -18.624  -5.741  1.00  0.00     0.293 HD
ENDBRANCH   8  26
TORSDOF 6
ENDMDL
MODEL 2
REMARK VINA RESULT:    -7.168      0.624      1.422
REMARK INTER + INTRA:          -8.728
REMARK INTER:                  -8.476
REMARK INTRA:                  -0.252
REMARK UNBOUND:                -0.094
REMARK SMILES O=c1c(O)c(-c2ccc(O)c(O)c2)oc2cc(O)cc(O)c12
REMARK SMILES IDX 5 1 3 2 2 3 1 4 22 5 20 6 19 7 17 8 16 9 15 10 14 11 6 12
REMARK SMILES IDX 7 13 8 14 9 15 13 16 11 17 10 18 12 20 4 22 21 24 18 26
REMARK H PARENT 10 19 12 21 4 23 21 25 18 27
REMARK Flexibility Score: inf
ROOT
ATOM      1  C   UNL     1     -22.322 -15.632 -10.752  1.00  0.00     0.180 A 
ATOM      2  C   UNL     1     -21.287 -14.762 -10.365  1.00  0.00     0.208 A 
ATOM      3  C   UNL     1     -20.919 -14.700  -9.011  1.00  0.00     0.238 A 
ATOM      4  O   UNL     1     -20.030 -13.880  -8.663  1.00  0.00    -0.285 OA
ATOM      5  C   UNL     1     -21.577 -15.521  -8.064  1.00  0.00     0.111 A 
ATOM      6  C   UNL     1     -21.258 -15.570  -6.673  1.00  0.00     0.134 A 
ATOM      7  C   UNL     1     -22.063 -16.321  -5.807  1.00  0.00     0.093 A 
ATOM      8  C   UNL     1     -23.133 -17.077  -6.291  1.00  0.00     0.123 A 
ATOM      9  C   UNL     1     -23.415 -17.083  -7.655  1.00  0.00     0.094 A 
ATOM     10  C   UNL     1     -22.654 -16.315  -8.539  1.00  0.00     0.146 A 
ATOM     11  O   UNL     1     -22.964 -16.340  -9.830  1.00  0.00    -0.452 OA
ENDROOT
BRANCH   1  12
ATOM     12  C   UNL     1     -22.748 -15.770 -12.162  1.00  0.00     0.025 A 
ATOM     13  C   UNL     1     -22.435 -16.917 -12.913  1.00  0.00     0.016 A 
ATOM     14  C   UNL     1     -22.869 -17.036 -14.236  1.00  0.00     0.051 A 
ATOM     15  C   UNL     1     -23.632 -16.019 -14.823  1.00  0.00     0.157 A 
ATOM     16  C   UNL     1     -23.532 -14.764 -12.750  1.00  0.00     0.062 A 
ATOM     17  C   UNL     1     -23.967 -14.882 -14.078  1.00  0.00     0.158 A 
BRANCH  15  18
ATOM     18  O   UNL     1     -24.066 -16.134 -16.143  1.00  0.00    -0.504 OA
ATOM     19  H   UNL     1     -25.043 -16.277 -16.369  1.00  0.00     0.293 HD
ENDBRANCH  15  18
BRANCH  17  20
ATOM     20  O   UNL     1     -24.733 -13.875 -14.662  1.00  0.00    -0.504 OA
ATOM     21  H   UNL     1     -25.746 -13.917 -14.673  1.00  0.00     0.293 HD
ENDBRANCH  17  20
ENDBRANCH   1  12
BRANCH   2  22
ATOM     22  O   UNL     1     -20.666 -13.944 -11.312  1.00  0.00    -0.502 OA
ATOM     23  H   UNL     1     -20.022 -14.307 -12.007  1.00  0.00     0.293 HD
ENDBRANCH   2  22
BRANCH   6  24
ATOM     24  O   UNL     1     -20.157 -14.927  -6.103  1.00  0.00    -0.507 OA
ATOM     25  H   UNL     1     -19.355 -14.595  -6.617  1.00  0.00     0.293 HD
ENDBRANCH   6  24
BRANCH   8  26
ATOM     26  O   UNL     1     -23.918 -17.835  -5.424  1.00  0.00    -0.508 OA
ATOM     27  H   UNL     1     -24.309 -17.436  -4.579  1.00  0.00     0.293 HD
ENDBRANCH   8  26
TORSDOF 6
ENDMDL
MODEL 3
REMARK VINA RESULT:    -6.869      1.414      6.773
REMARK INTER + INTRA:          -8.368
REMARK INTER:                  -8.716
REMARK INTRA:                   0.348
REMARK UNBOUND:                -0.094
REMARK SMILES O=c1c(O)c(-c2ccc(O)c(O)c2)oc2cc(O)cc(O)c12
REMARK SMILES IDX 5 1 3 2 2 3 1 4 22 5 20 6 19 7 17 8 16 9 15 10 14 11 6 12
REMARK SMILES IDX 7 13 8 14 9 15 13 16 11 17 10 18 12 20 4 22 21 24 18 26
REMARK H PARENT 10 19 12 21 4 23 21 25 18 27
REMARK Flexibility Score: inf
ROOT
ATOM      1  C   UNL     1     -22.339 -15.722 -10.705  1.00  0.00     0.180 A 
ATOM      2  C   UNL     1     -21.647 -14.776 -11.481  1.00  0.00     0.208 A 
ATOM      3  C   UNL     1     -21.927 -14.686 -12.855  1.00  0.00     0.238 A 
ATOM      4  O   UNL     1     -21.266 -13.875 -13.555  1.00  0.00    -0.285 OA
ATOM      5  C   UNL     1     -22.907 -15.530 -13.430  1.00  0.00     0.111 A 
ATOM      6  C   UNL     1     -23.300 -15.497 -14.803  1.00  0.00     0.134 A 
ATOM      7  C   UNL     1     -24.185 -16.467 -15.290  1.00  0.00     0.093 A 
ATOM      8  C   UNL     1     -24.741 -17.427 -14.442  1.00  0.00     0.123 A 
ATOM      9  C   UNL     1     -24.410 -17.430 -13.089  1.00  0.00     0.094 A 
ATOM     10  C   UNL     1     -23.501 -16.499 -12.580  1.00  0.00     0.146 A 
ATOM     11  O   UNL     1     -23.204 -16.544 -11.287  1.00  0.00    -0.452 OA
ENDROOT
BRANCH   1  12
ATOM     12  C   UNL     1     -22.116 -15.859  -9.248  1.00  0.00     0.025 A 
ATOM     13  C   UNL     1     -23.121 -16.351  -8.396  1.00  0.00     0.016 A 
ATOM     14  C   UNL     1     -22.879 -16.494  -7.027  1.00  0.00     0.051 A 
ATOM     15  C   UNL     1     -21.629 -16.160  -6.492  1.00  0.00     0.157 A 
ATOM     16  C   UNL     1     -20.857 -15.546  -8.708  1.00  0.00     0.062 A 
ATOM     17  C   UNL     1     -20.615 -15.688  -7.334  1.00  0.00     0.158 A 
BRANCH  15  18
ATOM     18  O   UNL     1     -21.385 -16.300  -5.127  1.00  0.00    -0.504 OA
ATOM     19  H   UNL     1     -22.140 -16.312  -4.452  1.00  0.00     0.293 HD
ENDBRANCH  15  18
BRANCH  17  20
ATOM     20  O   UNL     1     -19.370 -15.364  -6.800  1.00  0.00    -0.504 OA
ATOM     21  H   UNL     1     -18.948 -15.916  -6.062  1.00  0.00     0.293 HD
ENDBRANCH  17  20
ENDBRANCH   1  12
BRANCH   2  22
ATOM     22  O   UNL     1     -20.668 -13.968 -10.898  1.00  0.00    -0.502 OA
ATOM     23  H   UNL     1     -19.792 -13.752 -11.361  1.00  0.00     0.293 HD
ENDBRANCH   2  22
BRANCH   6  24
ATOM     24  O   UNL     1     -22.876 -14.524 -15.712  1.00  0.00    -0.507 OA
ATOM     25  H   UNL     1     -23.459 -13.790 -16.082  1.00  0.00     0.293 HD
ENDBRANCH   6  24
BRANCH   8  26
ATOM     26  O   UNL     1     -25.633 -18.378 -14.932  1.00  0.00    -0.508 OA
ATOM     27  H   UNL     1     -26.587 -18.134 -15.175  1.00  0.00     0.293 HD
ENDBRANCH   8  26
TORSDOF 6
ENDMDL
MODEL 4
REMARK VINA RESULT:    -6.686      1.422      6.711
REMARK INTER + INTRA:          -8.148
REMARK INTER:                  -8.592
REMARK INTRA:                   0.444
REMARK UNBOUND:                -0.094
REMARK SMILES O=c1c(O)c(-c2ccc(O)c(O)c2)oc2cc(O)cc(O)c12
REMARK SMILES IDX 5 1 3 2 2 3 1 4 22 5 20 6 19 7 17 8 16 9 15 10 14 11 6 12
REMARK SMILES IDX 7 13 8 14 9 15 13 16 11 17 10 18 12 20 4 22 21 24 18 26
REMARK H PARENT 10 19 12 21 4 23 21 25 18 27
REMARK Flexibility Score: inf
ROOT
ATOM      1  C   UNL     1     -21.943 -15.526 -10.843  1.00  0.00     0.180 A 
ATOM      2  C   UNL     1     -21.247 -14.660 -11.704  1.00  0.00     0.208 A 
ATOM      3  C   UNL     1     -21.608 -14.614 -13.061  1.00  0.00     0.238 A 
ATOM      4  O   UNL     1     -20.945 -13.877 -13.838  1.00  0.00    -0.285 OA
ATOM      5  C   UNL     1     -22.669 -15.422 -13.536  1.00  0.00     0.111 A 
ATOM      6  C   UNL     1     -23.144 -15.427 -14.882  1.00  0.00     0.134 A 
ATOM      7  C   UNL     1     -24.112 -16.362 -15.268  1.00  0.00     0.093 A 
ATOM      8  C   UNL     1     -24.669 -17.248 -14.343  1.00  0.00     0.123 A 
ATOM      9  C   UNL     1     -24.254 -17.210 -13.014  1.00  0.00     0.094 A 
ATOM     10  C   UNL     1     -23.263 -16.314 -12.605  1.00  0.00     0.146 A 
ATOM     11  O   UNL     1     -22.889 -16.319 -11.332  1.00  0.00    -0.452 OA
ENDROOT
BRANCH   1  12
ATOM     12  C   UNL     1     -21.638 -15.610  -9.397  1.00  0.00     0.025 A 
ATOM     13  C   UNL     1     -20.490 -15.007  -8.854  1.00  0.00     0.016 A 
ATOM     14  C   UNL     1     -20.235 -15.080  -7.482  1.00  0.00     0.051 A 
ATOM     15  C   UNL     1     -21.129 -15.744  -6.632  1.00  0.00     0.157 A 
ATOM     16  C   UNL     1     -22.541 -16.256  -8.536  1.00  0.00     0.062 A 
ATOM     17  C   UNL     1     -22.286 -16.330  -7.159  1.00  0.00     0.158 A 
BRANCH  15  18
ATOM     18  O   UNL     1     -20.878 -15.820  -5.263  1.00  0.00    -0.504 OA
ATOM     19  H   UNL     1     -21.202 -16.602  -4.707  1.00  0.00     0.293 HD
ENDBRANCH  15  18
BRANCH  17  20
ATOM     20  O   UNL     1     -23.177 -16.983  -6.311  1.00  0.00    -0.504 OA
ATOM     21  H   UNL     1     -23.336 -16.665  -5.361  1.00  0.00     0.293 HD
ENDBRANCH  17  20
ENDBRANCH   1  12
BRANCH   2  22
ATOM     22  O   UNL     1     -20.189 -13.887 -11.220  1.00  0.00    -0.502 OA
ATOM     23  H   UNL     1     -19.266 -13.905 -11.638  1.00  0.00     0.293 HD
ENDBRANCH   2  22
BRANCH   6  24
ATOM     24  O   UNL     1     -22.722 -14.524 -15.861  1.00  0.00    -0.507 OA
ATOM     25  H   UNL     1     -23.285 -14.213 -16.638  1.00  0.00     0.293 HD
ENDBRANCH   6  24
BRANCH   8  26
ATOM     26  O   UNL     1     -25.643 -18.164 -14.732  1.00  0.00    -0.508 OA
ATOM     27  H   UNL     1     -25.441 -18.902 -15.396  1.00  0.00     0.293 HD
ENDBRANCH   8  26
TORSDOF 6
ENDMDL
MODEL 5
REMARK VINA RESULT:    -6.613      1.587      3.147
REMARK INTER + INTRA:          -8.060
REMARK INTER:                  -8.476
REMARK INTRA:                   0.416
REMARK UNBOUND:                -0.094
REMARK SMILES O=c1c(O)c(-c2ccc(O)c(O)c2)oc2cc(O)cc(O)c12
REMARK SMILES IDX 5 1 3 2 2 3 1 4 22 5 20 6 19 7 17 8 16 9 15 10 14 11 6 12
REMARK SMILES IDX 7 13 8 14 9 15 13 16 11 17 10 18 12 20 4 22 21 24 18 26
REMARK H PARENT 10 19 12 21 4 23 21 25 18 27
REMARK Flexibility Score: inf
ROOT
ATOM      1  C   UNL     1     -22.682 -16.135 -10.880  1.00  0.00     0.180 A 
ATOM      2  C   UNL     1     -23.494 -17.147 -10.339  1.00  0.00     0.208 A 
ATOM      3  C   UNL     1     -23.527 -17.321  -8.946  1.00  0.00     0.238 A 
ATOM      4  O   UNL     1     -24.214 -18.264  -8.471  1.00  0.00    -0.285 OA
ATOM      5  C   UNL     1     -22.762 -16.472  -8.111  1.00  0.00     0.111 A 
ATOM      6  C   UNL     1     -22.751 -16.533  -6.685  1.00  0.00     0.134 A 
ATOM      7  C   UNL     1     -21.856 -15.731  -5.967  1.00  0.00     0.093 A 
ATOM      8  C   UNL     1     -21.019 -14.823  -6.619  1.00  0.00     0.123 A 
ATOM      9  C   UNL     1     -21.065 -14.713  -8.007  1.00  0.00     0.094 A 
ATOM     10  C   UNL     1     -21.921 -15.527  -8.754  1.00  0.00     0.146 A 
ATOM     11  O   UNL     1     -21.925 -15.399 -10.075  1.00  0.00    -0.452 OA
ENDROOT
BRANCH   1  12
ATOM     12  C   UNL     1     -22.614 -15.874 -12.336  1.00  0.00     0.025 A 
ATOM     13  C   UNL     1     -23.550 -16.431 -13.224  1.00  0.00     0.016 A 
ATOM     14  C   UNL     1     -23.480 -16.152 -14.592  1.00  0.00     0.051 A 
ATOM     15  C   UNL     1     -22.484 -15.302 -15.089  1.00  0.00     0.157 A 
ATOM     16  C   UNL     1     -21.630 -15.006 -12.838  1.00  0.00     0.062 A 
ATOM     17  C   UNL     1     -21.558 -14.726 -14.210  1.00  0.00     0.158 A 
BRANCH  15  18
ATOM     18  O   UNL     1     -22.410 -15.022 -16.452  1.00  0.00    -0.504 OA
ATOM     19  H   UNL     1     -22.104 -15.718 -17.121  1.00  0.00     0.293 HD
ENDBRANCH  15  18
BRANCH  17  20
ATOM     20  O   UNL     1     -20.573 -13.875 -14.706  1.00  0.00    -0.504 OA
ATOM     21  H   UNL     1     -20.052 -13.254 -14.097  1.00  0.00     0.293 HD
ENDBRANCH  17  20
ENDBRANCH   1  12
BRANCH   2  22
ATOM     22  O   UNL     1     -24.225 -17.988 -11.182  1.00  0.00    -0.502 OA
ATOM     23  H   UNL     1     -24.409 -18.959 -10.957  1.00  0.00     0.293 HD
ENDBRANCH   2  22
BRANCH   6  24
ATOM     24  O   UNL     1     -23.611 -17.337  -5.932  1.00  0.00    -0.507 OA
ATOM     25  H   UNL     1     -23.568 -18.344  -5.891  1.00  0.00     0.293 HD
ENDBRANCH   6  24
BRANCH   8  26
ATOM     26  O   UNL     1     -20.143 -14.016  -5.896  1.00  0.00    -0.508 OA
ATOM     27  H   UNL     1     -20.122 -13.011  -6.023  1.00  0.00     0.293 HD
ENDBRANCH   8  26
TORSDOF 6
ENDMDL
MODEL 6
REMARK VINA RESULT:    -5.791      1.881      7.158
REMARK INTER + INTRA:          -7.070
REMARK INTER:                  -6.747
REMARK INTRA:                  -0.323
REMARK UNBOUND:                -0.094
REMARK SMILES O=c1c(O)c(-c2ccc(O)c(O)c2)oc2cc(O)cc(O)c12
REMARK SMILES IDX 5 1 3 2 2 3 1 4 22 5 20 6 19 7 17 8 16 9 15 10 14 11 6 12
REMARK SMILES IDX 7 13 8 14 9 15 13 16 11 17 10 18 12 20 4 22 21 24 18 26
REMARK H PARENT 10 19 12 21 4 23 21 25 18 27
REMARK Flexibility Score: inf
ROOT
ATOM      1  C   UNL     1     -22.652 -15.729 -10.385  1.00  0.00     0.180 A 
ATOM      2  C   UNL     1     -23.407 -16.913 -10.452  1.00  0.00     0.208 A 
ATOM      3  C   UNL     1     -23.880 -17.350 -11.700  1.00  0.00     0.238 A 
ATOM      4  O   UNL     1     -24.601 -18.381 -11.746  1.00  0.00    -0.285 OA
ATOM      5  C   UNL     1     -23.578 -16.607 -12.867  1.00  0.00     0.111 A 
ATOM      6  C   UNL     1     -23.972 -16.978 -14.188  1.00  0.00     0.134 A 
ATOM      7  C   UNL     1     -23.730 -16.100 -15.252  1.00  0.00     0.093 A 
ATOM      8  C   UNL     1     -23.052 -14.895 -15.053  1.00  0.00     0.123 A 
ATOM      9  C   UNL     1     -22.611 -14.552 -13.777  1.00  0.00     0.094 A 
ATOM     10  C   UNL     1     -22.870 -15.390 -12.689  1.00  0.00     0.146 A 
ATOM     11  O   UNL     1     -22.442 -15.020 -11.488  1.00  0.00    -0.452 OA
ENDROOT
BRANCH   1  12
ATOM     12  C   UNL     1     -22.099 -15.219  -9.111  1.00  0.00     0.025 A 
ATOM     13  C   UNL     1     -22.823 -14.325  -8.303  1.00  0.00     0.016 A 
ATOM     14  C   UNL     1     -22.290 -13.875  -7.092  1.00  0.00     0.051 A 
ATOM     15  C   UNL     1     -21.034 -14.322  -6.664  1.00  0.00     0.157 A 
ATOM     16  C   UNL     1     -20.848 -15.680  -8.666  1.00  0.00     0.062 A 
ATOM     17  C   UNL     1     -20.312 -15.229  -7.451  1.00  0.00     0.158 A 
BRANCH  15  18
ATOM     18  O   UNL     1     -20.498 -13.875  -5.457  1.00  0.00    -0.504 OA
ATOM     19  H   UNL     1     -19.772 -13.170  -5.429  1.00  0.00     0.293 HD
ENDBRANCH  15  18
BRANCH  17  20
ATOM     20  O   UNL     1     -19.066 -15.677  -7.020  1.00  0.00    -0.504 OA
ATOM     21  H   UNL     1     -18.872 -15.845  -6.039  1.00  0.00     0.293 HD
ENDBRANCH  17  20
ENDBRANCH   1  12
BRANCH   2  22
ATOM     22  O   UNL     1     -23.712 -17.619  -9.286  1.00  0.00    -0.502 OA
ATOM     23  H   UNL     1     -23.799 -17.167  -8.382  1.00  0.00     0.293 HD
ENDBRANCH   2  22
BRANCH   6  24
ATOM     24  O   UNL     1     -24.571 -18.199 -14.510  1.00  0.00    -0.507 OA
ATOM     25  H   UNL     1     -24.332 -19.085 -14.091  1.00  0.00     0.293 HD
ENDBRANCH   6  24
BRANCH   8  26
ATOM     26  O   UNL     1     -22.802 -14.035 -16.120  1.00  0.00    -0.508 OA
ATOM     27  H   UNL     1     -22.717 -13.035 -15.985  1.00  0.00     0.293 HD
ENDBRANCH   8  26
TORSDOF 6
ENDMDL
