MODEL 1
REMARK VINA RESULT:    -3.423      0.000      0.000
REMARK INTER + INTRA:          -5.690
REMARK INTER:                  -5.224
REMARK INTRA:                  -0.466
REMARK UNBOUND:                -0.466
REMARK SMILES CCCCCCCCCCC(=O)[O-]
REMARK SMILES IDX 7 1 8 2 9 3 10 4 11 5 12 6 13 7 6 8 5 9 4 10 3 11 2 12 1 13
REMARK H PARENT
REMARK Flexibility Score: inf
ROOT
ATOM      1  C   UNL     1      42.942  21.488  79.068  1.00  0.00     0.000 C 
ENDROOT
BRANCH   1   2
ATOM      2  C   UNL     1      44.303  20.777  79.125  1.00  0.00     0.000 C 
BRANCH   2   3
ATOM      3  C   UNL     1      44.660  20.075  77.807  1.00  0.00     0.006 C 
BRANCH   3   4
ATOM      4  C   UNL     1      45.624  18.910  78.049  1.00  0.00     0.053 C 
BRANCH   4   5
ATOM      5  C   UNL     1      45.746  18.065  76.821  1.00  0.00     0.041 C 
ATOM      6  O   UNL     1      45.663  16.811  76.904  1.00  0.00    -0.550 OA
ATOM      7  O   UNL     1      45.903  18.664  75.578  1.00  0.00    -0.550 OA
ENDBRANCH   4   5
ENDBRANCH   3   4
ENDBRANCH   2   3
ENDBRANCH   1   2
BRANCH   1   8
ATOM      8  C   UNL     1      42.152  21.155  77.793  1.00  0.00     0.000 C 
BRANCH   8   9
ATOM      9  C   UNL     1      40.698  20.800  78.124  1.00  0.00    -0.000 C 
BRANCH   9  10
ATOM     10  C   UNL     1      40.606  20.027  79.448  1.00  0.00    -0.000 C 
BRANCH  10  11
ATOM     11  C   UNL     1      39.239  20.213  80.139  1.00  0.00    -0.000 C 
BRANCH  11  12
ATOM     12  C   UNL     1      38.750  18.960  80.886  1.00  0.00    -0.003 C 
ATOM     13  C   UNL     1      37.590  18.258  80.182  1.00  0.00     0.004 C 
ENDBRANCH  11  12
ENDBRANCH  10  11
ENDBRANCH   9  10
ENDBRANCH   8   9
ENDBRANCH   1   8
TORSDOF 9
ENDMDL
MODEL 2
REMARK VINA RESULT:    -3.388      3.733      6.632
REMARK INTER + INTRA:          -5.636
REMARK INTER:                  -5.272
REMARK INTRA:                  -0.365
REMARK UNBOUND:                -0.466
REMARK SMILES CCCCCCCCCCC(=O)[O-]
REMARK SMILES IDX 7 1 8 2 9 3 10 4 11 5 12 6 13 7 6 8 5 9 4 10 3 11 2 12 1 13
REMARK H PARENT
REMARK Flexibility Score: inf
ROOT
ATOM      1  C   UNL     1      41.853  20.916  79.983  1.00  0.00     0.000 C 
ENDROOT
BRANCH   1   2
ATOM      2  C   UNL     1      40.555  21.273  79.243  1.00  0.00     0.000 C 
BRANCH   2   3
ATOM      3  C   UNL     1      39.305  20.700  79.927  1.00  0.00     0.006 C 
BRANCH   3   4
ATOM      4  C   UNL     1      39.321  19.169  79.906  1.00  0.00     0.053 C 
BRANCH   4   5
ATOM      5  C   UNL     1      37.992  18.624  80.322  1.00  0.00     0.041 C 
ATOM      6  O   UNL     1      37.702  17.419  80.097  1.00  0.00    -0.550 OA
ATOM      7  O   UNL     1      37.090  19.435  81.001  1.00  0.00    -0.550 OA
ENDBRANCH   4   5
ENDBRANCH   3   4
ENDBRANCH   2   3
ENDBRANCH   1   2
BRANCH   1   8
ATOM      8  C   UNL     1      42.895  20.258  79.066  1.00  0.00     0.000 C 
BRANCH   8   9
ATOM      9  C   UNL     1      43.933  21.281  78.592  1.00  0.00    -0.000 C 
BRANCH   9  10
ATOM     10  C   UNL     1      44.930  20.645  77.612  1.00  0.00    -0.000 C 
BRANCH  10  11
ATOM     11  C   UNL     1      45.203  19.162  77.937  1.00  0.00    -0.000 C 
BRANCH  11  12
ATOM     12  C   UNL     1      45.813  18.376  76.763  1.00  0.00    -0.003 C 
ATOM     13  C   UNL     1      45.749  16.863  76.960  1.00  0.00     0.004 C 
ENDBRANCH  11  12
ENDBRANCH  10  11
ENDBRANCH   9  10
ENDBRANCH   8   9
ENDBRANCH   1   8
TORSDOF 9
ENDMDL
MODEL 3
REMARK VINA RESULT:    -3.353     16.158     17.548
REMARK INTER + INTRA:          -5.584
REMARK INTER:                  -4.220
REMARK INTRA:                  -1.364
REMARK UNBOUND:                -0.466
REMARK SMILES CCCCCCCCCCC(=O)[O-]
REMARK SMILES IDX 7 1 8 2 9 3 10 4 11 5 12 6 13 7 6 8 5 9 4 10 3 11 2 12 1 13
REMARK H PARENT
REMARK Flexibility Score: inf
ROOT
ATOM      1  C   UNL     1      44.247  31.270  90.910  1.00  0.00     0.000 C 
ENDROOT
BRANCH   1   2
ATOM      2  C   UNL     1      44.588  31.464  92.396  1.00  0.00     0.000 C 
BRANCH   2   3
ATOM      3  C   UNL     1      43.813  30.507  93.313  1.00  0.00     0.006 C 
BRANCH   3   4
ATOM      4  C   UNL     1      42.797  29.684  92.514  1.00  0.00     0.053 C 
BRANCH   4   5
ATOM      5  C   UNL     1      42.589  28.347  93.151  1.00  0.00     0.041 C 
ATOM      6  O   UNL     1      43.317  27.982  94.112  1.00  0.00    -0.550 OA
ATOM      7  O   UNL     1      41.560  27.522  92.714  1.00  0.00    -0.550 OA
ENDBRANCH   4   5
ENDBRANCH   3   4
ENDBRANCH   2   3
ENDBRANCH   1   2
BRANCH   1   8
ATOM      8  C   UNL     1      45.493  31.267  90.012  1.00  0.00     0.000 C 
BRANCH   8   9
ATOM      9  C   UNL     1      46.753  30.942  90.822  1.00  0.00    -0.000 C 
BRANCH   9  10
ATOM     10  C   UNL     1      47.333  29.578  90.421  1.00  0.00    -0.000 C 
BRANCH  10  11
ATOM     11  C   UNL     1      47.349  28.580  91.597  1.00  0.00    -0.000 C 
BRANCH  11  12
ATOM     12  C   UNL     1      46.004  27.865  91.816  1.00  0.00    -0.003 C 
ATOM     13  C   UNL     1      45.220  27.657  90.522  1.00  0.00     0.004 C 
ENDBRANCH  11  12
ENDBRANCH  10  11
ENDBRANCH   9  10
ENDBRANCH   8   9
ENDBRANCH   1   8
TORSDOF 9
ENDMDL
MODEL 4
REMARK VINA RESULT:    -3.351     17.256     18.716
REMARK INTER + INTRA:          -5.580
REMARK INTER:                  -4.495
REMARK INTRA:                  -1.085
REMARK UNBOUND:                -0.466
REMARK SMILES CCCCCCCCCCC(=O)[O-]
REMARK SMILES IDX 7 1 8 2 9 3 10 4 11 5 12 6 13 7 6 8 5 9 4 10 3 11 2 12 1 13
REMARK H PARENT
REMARK Flexibility Score: inf
ROOT
ATOM      1  C   UNL     1      53.037  33.355  85.987  1.00  0.00     0.000 C 
ENDROOT
BRANCH   1   2
ATOM      2  C   UNL     1      52.843  34.309  84.798  1.00  0.00     0.000 C 
BRANCH   2   3
ATOM      3  C   UNL     1      51.879  33.750  83.741  1.00  0.00     0.006 C 
BRANCH   3   4
ATOM      4  C   UNL     1      50.486  33.520  84.335  1.00  0.00     0.053 C 
BRANCH   4   5
ATOM      5  C   UNL     1      49.472  34.372  83.640  1.00  0.00     0.041 C 
ATOM      6  O   UNL     1      49.640  34.701  82.436  1.00  0.00    -0.550 OA
ATOM      7  O   UNL     1      48.318  34.763  84.307  1.00  0.00    -0.550 OA
ENDBRANCH   4   5
ENDBRANCH   3   4
ENDBRANCH   2   3
ENDBRANCH   1   2
BRANCH   1   8
ATOM      8  C   UNL     1      53.479  34.084  87.265  1.00  0.00     0.000 C 
BRANCH   8   9
ATOM      9  C   UNL     1      52.332  34.155  88.281  1.00  0.00    -0.000 C 
BRANCH   9  10
ATOM     10  C   UNL     1      51.448  35.386  88.031  1.00  0.00    -0.000 C 
BRANCH  10  11
ATOM     11  C   UNL     1      50.027  35.001  87.570  1.00  0.00    -0.000 C 
BRANCH  11  12
ATOM     12  C   UNL     1      49.619  33.570  87.960  1.00  0.00    -0.003 C 
ATOM     13  C   UNL     1      48.222  33.192  87.471  1.00  0.00     0.004 C 
ENDBRANCH  11  12
ENDBRANCH  10  11
ENDBRANCH   9  10
ENDBRANCH   8   9
ENDBRANCH   1   8
TORSDOF 9
ENDMDL
MODEL 5
REMARK VINA RESULT:    -3.314     16.533     18.205
REMARK INTER + INTRA:          -5.524
REMARK INTER:                  -4.456
REMARK INTRA:                  -1.068
REMARK UNBOUND:                -0.466
REMARK SMILES CCCCCCCCCCC(=O)[O-]
REMARK SMILES IDX 7 1 8 2 9 3 10 4 11 5 12 6 13 7 6 8 5 9 4 10 3 11 2 12 1 13
REMARK H PARENT
REMARK Flexibility Score: inf
ROOT
ATOM      1  C   UNL     1      47.084  31.119  88.256  1.00  0.00     0.000 C 
ENDROOT
BRANCH   1   2
ATOM      2  C   UNL     1      47.923  32.035  87.352  1.00  0.00     0.000 C 
BRANCH   2   3
ATOM      3  C   UNL     1      48.285  33.366  88.029  1.00  0.00     0.006 C 
BRANCH   3   4
ATOM      4  C   UNL     1      48.643  34.432  86.989  1.00  0.00     0.053 C 
BRANCH   4   5
ATOM      5  C   UNL     1      50.123  34.634  86.934  1.00  0.00     0.041 C 
ATOM      6  O   UNL     1      50.740  35.077  87.939  1.00  0.00    -0.550 OA
ATOM      7  O   UNL     1      50.829  34.290  85.788  1.00  0.00    -0.550 OA
ENDBRANCH   4   5
ENDBRANCH   3   4
ENDBRANCH   2   3
ENDBRANCH   1   2
BRANCH   1   8
ATOM      8  C   UNL     1      46.786  31.749  89.625  1.00  0.00     0.000 C 
BRANCH   8   9
ATOM      9  C   UNL     1      46.736  30.679  90.722  1.00  0.00    -0.000 C 
BRANCH   9  10
ATOM     10  C   UNL     1      48.094  29.978  90.873  1.00  0.00    -0.000 C 
BRANCH  10  11
ATOM     11  C   UNL     1      49.235  30.973  91.170  1.00  0.00    -0.000 C 
BRANCH  11  12
ATOM     12  C   UNL     1      50.370  30.938  90.131  1.00  0.00    -0.003 C 
ATOM     13  C   UNL     1      51.216  32.209  90.127  1.00  0.00     0.004 C 
ENDBRANCH  11  12
ENDBRANCH  10  11
ENDBRANCH   9  10
ENDBRANCH   8   9
ENDBRANCH   1   8
TORSDOF 9
ENDMDL
MODEL 6
REMARK VINA RESULT:    -3.297     17.318     18.053
REMARK INTER + INTRA:          -5.497
REMARK INTER:                  -4.895
REMARK INTRA:                  -0.603
REMARK UNBOUND:                -0.466
REMARK SMILES CCCCCCCCCCC(=O)[O-]
REMARK SMILES IDX 7 1 8 2 9 3 10 4 11 5 12 6 13 7 6 8 5 9 4 10 3 11 2 12 1 13
REMARK H PARENT
REMARK Flexibility Score: inf
ROOT
ATOM      1  C   UNL     1      47.322  31.913  88.902  1.00  0.00     0.000 C 
ENDROOT
BRANCH   1   2
ATOM      2  C   UNL     1      47.892  32.327  87.537  1.00  0.00     0.000 C 
BRANCH   2   3
ATOM      3  C   UNL     1      48.407  33.774  87.524  1.00  0.00     0.006 C 
BRANCH   3   4
ATOM      4  C   UNL     1      49.937  33.812  87.456  1.00  0.00     0.053 C 
BRANCH   4   5
ATOM      5  C   UNL     1      50.446  35.167  87.833  1.00  0.00     0.041 C 
ATOM      6  O   UNL     1      49.642  36.124  87.992  1.00  0.00    -0.550 OA
ATOM      7  O   UNL     1      51.803  35.363  88.056  1.00  0.00    -0.550 OA
ENDBRANCH   4   5
ENDBRANCH   3   4
ENDBRANCH   2   3
ENDBRANCH   1   2
BRANCH   1   8
ATOM      8  C   UNL     1      48.358  31.200  89.785  1.00  0.00     0.000 C 
BRANCH   8   9
ATOM      9  C   UNL     1      47.743  30.783  91.126  1.00  0.00    -0.000 C 
BRANCH   9  10
ATOM     10  C   UNL     1      46.864  29.533  90.966  1.00  0.00    -0.000 C 
BRANCH  10  11
ATOM     11  C   UNL     1      45.607  29.585  91.859  1.00  0.00    -0.000 C 
BRANCH  11  12
ATOM     12  C   UNL     1      44.923  30.963  91.881  1.00  0.00    -0.003 C 
ATOM     13  C   UNL     1      44.139  31.261  90.605  1.00  0.00     0.004 C 
ENDBRANCH  11  12
ENDBRANCH  10  11
ENDBRANCH   9  10
ENDBRANCH   8   9
ENDBRANCH   1   8
TORSDOF 9
ENDMDL
MODEL 7
REMARK VINA RESULT:    -3.282     10.796     13.550
REMARK INTER + INTRA:          -5.476
REMARK INTER:                  -4.402
REMARK INTRA:                  -1.074
REMARK UNBOUND:                -0.466
REMARK SMILES CCCCCCCCCCC(=O)[O-]
REMARK SMILES IDX 7 1 8 2 9 3 10 4 11 5 12 6 13 7 6 8 5 9 4 10 3 11 2 12 1 13
REMARK H PARENT
REMARK Flexibility Score: inf
ROOT
ATOM      1  C   UNL     1      52.918  20.574  85.897  1.00  0.00     0.000 C 
ENDROOT
BRANCH   1   2
ATOM      2  C   UNL     1      52.412  19.577  84.843  1.00  0.00     0.000 C 
BRANCH   2   3
ATOM      3  C   UNL     1      51.514  18.485  85.442  1.00  0.00     0.006 C 
BRANCH   3   4
ATOM      4  C   UNL     1      50.321  19.099  86.181  1.00  0.00     0.053 C 
BRANCH   4   5
ATOM      5  C   UNL     1      49.246  19.484  85.215  1.00  0.00     0.041 C 
ATOM      6  O   UNL     1      48.510  18.601  84.702  1.00  0.00    -0.550 OA
ATOM      7  O   UNL     1      49.026  20.823  84.918  1.00  0.00    -0.550 OA
ENDBRANCH   4   5
ENDBRANCH   3   4
ENDBRANCH   2   3
ENDBRANCH   1   2
BRANCH   1   8
ATOM      8  C   UNL     1      54.398  20.939  85.705  1.00  0.00     0.000 C 
BRANCH   8   9
ATOM      9  C   UNL     1      54.966  20.279  84.443  1.00  0.00    -0.000 C 
BRANCH   9  10
ATOM     10  C   UNL     1      56.125  19.332  84.788  1.00  0.00    -0.000 C 
BRANCH  10  11
ATOM     11  C   UNL     1      55.806  17.865  84.432  1.00  0.00    -0.000 C 
BRANCH  11  12
ATOM     12  C   UNL     1      55.854  16.913  85.639  1.00  0.00    -0.003 C 
ATOM     13  C   UNL     1      54.845  17.274  86.727  1.00  0.00     0.004 C 
ENDBRANCH  11  12
ENDBRANCH  10  11
ENDBRANCH   9  10
ENDBRANCH   8   9
ENDBRANCH   1   8
TORSDOF 9
ENDMDL
MODEL 8
REMARK VINA RESULT:    -3.282     17.416     18.824
REMARK INTER + INTRA:          -5.475
REMARK INTER:                  -4.941
REMARK INTRA:                  -0.533
REMARK UNBOUND:                -0.466
REMARK SMILES CCCCCCCCCCC(=O)[O-]
REMARK SMILES IDX 7 1 8 2 9 3 10 4 11 5 12 6 13 7 6 8 5 9 4 10 3 11 2 12 1 13
REMARK H PARENT
REMARK Flexibility Score: inf
ROOT
ATOM      1  C   UNL     1      48.149  30.834  90.631  1.00  0.00     0.000 C 
ENDROOT
BRANCH   1   2
ATOM      2  C   UNL     1      46.728  31.345  90.919  1.00  0.00     0.000 C 
BRANCH   2   3
ATOM      3  C   UNL     1      45.744  30.211  91.241  1.00  0.00     0.006 C 
BRANCH   3   4
ATOM      4  C   UNL     1      44.345  30.763  91.533  1.00  0.00     0.053 C 
BRANCH   4   5
ATOM      5  C   UNL     1      44.016  30.620  92.984  1.00  0.00     0.041 C 
ATOM      6  O   UNL     1      44.019  29.482  93.525  1.00  0.00    -0.550 OA
ATOM      7  O   UNL     1      43.754  31.747  93.752  1.00  0.00    -0.550 OA
ENDBRANCH   4   5
ENDBRANCH   3   4
ENDBRANCH   2   3
ENDBRANCH   1   2
BRANCH   1   8
ATOM      8  C   UNL     1      48.717  31.377  89.311  1.00  0.00     0.000 C 
BRANCH   8   9
ATOM      9  C   UNL     1      47.660  32.185  88.550  1.00  0.00    -0.000 C 
BRANCH   9  10
ATOM     10  C   UNL     1      48.297  32.991  87.408  1.00  0.00    -0.000 C 
BRANCH  10  11
ATOM     11  C   UNL     1      48.575  34.454  87.811  1.00  0.00    -0.000 C 
BRANCH  11  12
ATOM     12  C   UNL     1      50.015  34.911  87.521  1.00  0.00    -0.003 C 
ATOM     13  C   UNL     1      51.069  34.017  88.171  1.00  0.00     0.004 C 
ENDBRANCH  11  12
ENDBRANCH  10  11
ENDBRANCH   9  10
ENDBRANCH   8   9
ENDBRANCH   1   8
TORSDOF 9
ENDMDL
MODEL 9
REMARK VINA RESULT:    -3.274     17.217     19.013
REMARK INTER + INTRA:          -5.463
REMARK INTER:                  -4.948
REMARK INTRA:                  -0.515
REMARK UNBOUND:                -0.466
REMARK SMILES CCCCCCCCCCC(=O)[O-]
REMARK SMILES IDX 7 1 8 2 9 3 10 4 11 5 12 6 13 7 6 8 5 9 4 10 3 11 2 12 1 13
REMARK H PARENT
REMARK Flexibility Score: inf
ROOT
ATOM      1  C   UNL     1      48.907  32.137  87.962  1.00  0.00     0.000 C 
ENDROOT
BRANCH   1   2
ATOM      2  C   UNL     1      48.405  31.444  89.239  1.00  0.00     0.000 C 
BRANCH   2   3
ATOM      3  C   UNL     1      46.909  31.679  89.492  1.00  0.00     0.006 C 
BRANCH   3   4
ATOM      4  C   UNL     1      46.524  31.276  90.919  1.00  0.00     0.053 C 
BRANCH   4   5
ATOM      5  C   UNL     1      45.039  31.322  91.094  1.00  0.00     0.041 C 
ATOM      6  O   UNL     1      44.284  31.386  90.088  1.00  0.00    -0.550 OA
ATOM      7  O   UNL     1      44.487  31.245  92.367  1.00  0.00    -0.550 OA
ENDBRANCH   4   5
ENDBRANCH   3   4
ENDBRANCH   2   3
ENDBRANCH   1   2
BRANCH   1   8
ATOM      8  C   UNL     1      48.254  33.509  87.738  1.00  0.00     0.000 C 
BRANCH   8   9
ATOM      9  C   UNL     1      49.165  34.422  86.909  1.00  0.00    -0.000 C 
BRANCH   9  10
ATOM     10  C   UNL     1      49.926  35.408  87.808  1.00  0.00    -0.000 C 
BRANCH  10  11
ATOM     11  C   UNL     1      51.427  35.070  87.906  1.00  0.00    -0.000 C 
BRANCH  11  12
ATOM     12  C   UNL     1      52.035  34.573  86.583  1.00  0.00    -0.003 C 
ATOM     13  C   UNL     1      53.346  33.814  86.775  1.00  0.00     0.004 C 
ENDBRANCH  11  12
ENDBRANCH  10  11
ENDBRANCH   9  10
ENDBRANCH   8   9
ENDBRANCH   1   8
TORSDOF 9
ENDMDL
