MODEL 1
REMARK VINA RESULT:    -6.272      0.000      0.000
REMARK INTER + INTRA:         -13.258
REMARK INTER:                 -11.405
REMARK INTRA:                  -1.853
REMARK UNBOUND:                -1.853
REMARK SMILES CCCCCCCCCCCCCC[C@H](C)C(=O)[O-]
REMARK SMILES IDX 9 1 10 2 11 3 12 4 13 5 14 6 15 7 16 8 17 9 18 10 19 11 8 12
REMARK SMILES IDX 7 13 6 14 5 15 4 16 3 17 2 18 1 19
REMARK H PARENT
REMARK Flexibility Score: inf
ROOT
ATOM      1  C   UNL     1      15.014   2.499  14.878  1.00  0.00     0.000 C 
ENDROOT
BRANCH   1   2
ATOM      2  C   UNL     1      13.500   2.493  15.151  1.00  0.00     0.000 C 
BRANCH   2   3
ATOM      3  C   UNL     1      13.117   3.269  16.418  1.00  0.00     0.000 C 
BRANCH   3   4
ATOM      4  C   UNL     1      14.337   3.488  17.321  1.00  0.00     0.000 C 
BRANCH   4   5
ATOM      5  C   UNL     1      13.951   3.390  18.805  1.00  0.00     0.001 C 
BRANCH   5   6
ATOM      6  C   UNL     1      14.619   2.186  19.506  1.00  0.00     0.009 C 
BRANCH   6   7
ATOM      7  C   UNL     1      15.105   1.062  18.561  1.00  0.00     0.032 C 
ATOM      8  C   UNL     1      14.032   0.002  18.283  1.00  0.00     0.014 C 
BRANCH   7   9
ATOM      9  C   UNL     1      16.391   0.442  19.047  1.00  0.00     0.044 C 
ATOM     10  O   UNL     1      17.508   0.859  18.641  1.00  0.00    -0.550 OA
ATOM     11  O   UNL     1      16.345  -0.625  19.936  1.00  0.00    -0.550 OA
ENDBRANCH   7   9
ENDBRANCH   6   7
ENDBRANCH   5   6
ENDBRANCH   4   5
ENDBRANCH   3   4
ENDBRANCH   2   3
ENDBRANCH   1   2
BRANCH   1  12
ATOM     12  C   UNL     1      15.378   2.975  13.456  1.00  0.00     0.000 C 
BRANCH  12  13
ATOM     13  C   UNL     1      15.515   1.804  12.466  1.00  0.00    -0.000 C 
BRANCH  13  14
ATOM     14  C   UNL     1      16.713   1.969  11.519  1.00  0.00    -0.000 C 
BRANCH  14  15
ATOM     15  C   UNL     1      17.632   0.736  11.512  1.00  0.00    -0.000 C 
BRANCH  15  16
ATOM     16  C   UNL     1      17.410  -0.167  12.734  1.00  0.00    -0.000 C 
BRANCH  16  17
ATOM     17  C   UNL     1      18.664  -0.284  13.620  1.00  0.00    -0.000 C 
BRANCH  17  18
ATOM     18  C   UNL     1      18.324  -0.685  15.063  1.00  0.00    -0.003 C 
ATOM     19  C   UNL     1      16.829  -0.591  15.366  1.00  0.00     0.004 C 
ENDBRANCH  17  18
ENDBRANCH  16  17
ENDBRANCH  15  16
ENDBRANCH  14  15
ENDBRANCH  13  14
ENDBRANCH  12  13
ENDBRANCH   1  12
TORSDOF 14
ENDMDL
MODEL 2
REMARK VINA RESULT:    -6.268      1.643      2.641
REMARK INTER + INTRA:         -13.251
REMARK INTER:                 -11.194
REMARK INTRA:                  -2.058
REMARK UNBOUND:                -1.853
REMARK SMILES CCCCCCCCCCCCCC[C@H](C)C(=O)[O-]
REMARK SMILES IDX 9 1 10 2 11 3 12 4 13 5 14 6 15 7 16 8 17 9 18 10 19 11 8 12
REMARK SMILES IDX 7 13 6 14 5 15 4 16 3 17 2 18 1 19
REMARK H PARENT
REMARK Flexibility Score: inf
ROOT
ATOM      1  C   UNL     1      13.276   2.282  16.088  1.00  0.00     0.000 C 
ENDROOT
BRANCH   1   2
ATOM      2  C   UNL     1      13.308   3.552  16.955  1.00  0.00     0.000 C 
BRANCH   2   3
ATOM      3  C   UNL     1      13.843   3.297  18.369  1.00  0.00     0.000 C 
BRANCH   3   4
ATOM      4  C   UNL     1      13.883   1.797  18.683  1.00  0.00     0.000 C 
BRANCH   4   5
ATOM      5  C   UNL     1      15.101   1.445  19.552  1.00  0.00     0.001 C 
BRANCH   5   6
ATOM      6  C   UNL     1      15.192  -0.068  19.850  1.00  0.00     0.009 C 
BRANCH   6   7
ATOM      7  C   UNL     1      16.490  -0.757  19.366  1.00  0.00     0.032 C 
ATOM      8  C   UNL     1      17.612   0.236  19.036  1.00  0.00     0.014 C 
BRANCH   7   9
ATOM      9  C   UNL     1      16.226  -1.702  18.222  1.00  0.00     0.044 C 
ATOM     10  O   UNL     1      15.051  -1.942  17.834  1.00  0.00    -0.550 OA
ATOM     11  O   UNL     1      17.291  -2.345  17.602  1.00  0.00    -0.550 OA
ENDBRANCH   7   9
ENDBRANCH   6   7
ENDBRANCH   5   6
ENDBRANCH   4   5
ENDBRANCH   3   4
ENDBRANCH   2   3
ENDBRANCH   1   2
BRANCH   1  12
ATOM     12  C   UNL     1      13.992   2.447  14.731  1.00  0.00     0.000 C 
BRANCH  12  13
ATOM     13  C   UNL     1      15.523   2.351  14.865  1.00  0.00    -0.000 C 
BRANCH  13  14
ATOM     14  C   UNL     1      15.965   1.179  15.754  1.00  0.00    -0.000 C 
BRANCH  14  15
ATOM     15  C   UNL     1      16.293  -0.085  14.941  1.00  0.00    -0.000 C 
BRANCH  15  16
ATOM     16  C   UNL     1      16.895   0.242  13.566  1.00  0.00    -0.000 C 
BRANCH  16  17
ATOM     17  C   UNL     1      18.359  -0.214  13.436  1.00  0.00    -0.000 C 
BRANCH  17  18
ATOM     18  C   UNL     1      18.823  -1.041  14.645  1.00  0.00    -0.003 C 
ATOM     19  C   UNL     1      19.927  -0.350  15.444  1.00  0.00     0.004 C 
ENDBRANCH  17  18
ENDBRANCH  16  17
ENDBRANCH  15  16
ENDBRANCH  14  15
ENDBRANCH  13  14
ENDBRANCH  12  13
ENDBRANCH   1  12
TORSDOF 14
ENDMDL
MODEL 3
REMARK VINA RESULT:    -6.239      1.876      4.534
REMARK INTER + INTRA:         -13.197
REMARK INTER:                 -11.515
REMARK INTRA:                  -1.682
REMARK UNBOUND:                -1.853
REMARK SMILES CCCCCCCCCCCCCC[C@H](C)C(=O)[O-]
REMARK SMILES IDX 9 1 10 2 11 3 12 4 13 5 14 6 15 7 16 8 17 9 18 10 19 11 8 12
REMARK SMILES IDX 7 13 6 14 5 15 4 16 3 17 2 18 1 19
REMARK H PARENT
REMARK Flexibility Score: inf
ROOT
ATOM      1  C   UNL     1      14.403   2.212  18.627  1.00  0.00     0.000 C 
ENDROOT
BRANCH   1   2
ATOM      2  C   UNL     1      14.038   0.893  19.330  1.00  0.00     0.000 C 
BRANCH   2   3
ATOM      3  C   UNL     1      15.138  -0.170  19.215  1.00  0.00     0.000 C 
BRANCH   3   4
ATOM      4  C   UNL     1      16.491   0.383  19.680  1.00  0.00     0.000 C 
BRANCH   4   5
ATOM      5  C   UNL     1      17.615  -0.020  18.712  1.00  0.00     0.001 C 
BRANCH   5   6
ATOM      6  C   UNL     1      17.731   0.946  17.513  1.00  0.00     0.009 C 
BRANCH   6   7
ATOM      7  C   UNL     1      17.741   0.269  16.121  1.00  0.00     0.032 C 
ATOM      8  C   UNL     1      16.484  -0.567  15.849  1.00  0.00     0.014 C 
BRANCH   7   9
ATOM      9  C   UNL     1      19.002  -0.527  15.898  1.00  0.00     0.044 C 
ATOM     10  O   UNL     1      20.084   0.041  15.592  1.00  0.00    -0.550 OA
ATOM     11  O   UNL     1      18.967  -1.913  16.003  1.00  0.00    -0.550 OA
ENDBRANCH   7   9
ENDBRANCH   6   7
ENDBRANCH   5   6
ENDBRANCH   4   5
ENDBRANCH   3   4
ENDBRANCH   2   3
ENDBRANCH   1   2
BRANCH   1  12
ATOM     12  C   UNL     1      13.175   3.066  18.248  1.00  0.00     0.000 C 
BRANCH  12  13
ATOM     13  C   UNL     1      13.158   3.429  16.752  1.00  0.00    -0.000 C 
BRANCH  13  14
ATOM     14  C   UNL     1      13.619   2.268  15.858  1.00  0.00    -0.000 C 
BRANCH  14  15
ATOM     15  C   UNL     1      14.816   2.647  14.970  1.00  0.00    -0.000 C 
BRANCH  15  16
ATOM     16  C   UNL     1      14.821   1.885  13.636  1.00  0.00    -0.000 C 
BRANCH  16  17
ATOM     17  C   UNL     1      15.560   2.646  12.521  1.00  0.00    -0.000 C 
BRANCH  17  18
ATOM     18  C   UNL     1      15.986   1.725  11.368  1.00  0.00    -0.003 C 
ATOM     19  C   UNL     1      17.465   1.869  11.013  1.00  0.00     0.004 C 
ENDBRANCH  17  18
ENDBRANCH  16  17
ENDBRANCH  15  16
ENDBRANCH  14  15
ENDBRANCH  13  14
ENDBRANCH  12  13
ENDBRANCH   1  12
TORSDOF 14
ENDMDL
MODEL 4
REMARK VINA RESULT:    -6.224      1.595      3.958
REMARK INTER + INTRA:         -13.170
REMARK INTER:                 -11.407
REMARK INTRA:                  -1.763
REMARK UNBOUND:                -1.853
REMARK SMILES CCCCCCCCCCCCCC[C@H](C)C(=O)[O-]
REMARK SMILES IDX 9 1 10 2 11 3 12 4 13 5 14 6 15 7 16 8 17 9 18 10 19 11 8 12
REMARK SMILES IDX 7 13 6 14 5 15 4 16 3 17 2 18 1 19
REMARK H PARENT
REMARK Flexibility Score: inf
ROOT
ATOM      1  C   UNL     1      14.351   3.287  17.931  1.00  0.00     0.000 C 
ENDROOT
BRANCH   1   2
ATOM      2  C   UNL     1      14.367   2.398  19.187  1.00  0.00     0.000 C 
BRANCH   2   3
ATOM      3  C   UNL     1      13.979   0.943  18.896  1.00  0.00     0.000 C 
BRANCH   3   4
ATOM      4  C   UNL     1      14.797  -0.029  19.754  1.00  0.00     0.000 C 
BRANCH   4   5
ATOM      5  C   UNL     1      16.278   0.380  19.794  1.00  0.00     0.001 C 
BRANCH   5   6
ATOM      6  C   UNL     1      17.178  -0.599  19.007  1.00  0.00     0.009 C 
BRANCH   6   7
ATOM      7  C   UNL     1      17.626  -0.103  17.611  1.00  0.00     0.032 C 
ATOM      8  C   UNL     1      17.535   1.420  17.455  1.00  0.00     0.014 C 
BRANCH   7   9
ATOM      9  C   UNL     1      16.899  -0.824  16.505  1.00  0.00     0.044 C 
ATOM     10  O   UNL     1      15.990  -1.658  16.759  1.00  0.00    -0.550 OA
ATOM     11  O   UNL     1      17.254  -0.588  15.182  1.00  0.00    -0.550 OA
ENDBRANCH   7   9
ENDBRANCH   6   7
ENDBRANCH   5   6
ENDBRANCH   4   5
ENDBRANCH   3   4
ENDBRANCH   2   3
ENDBRANCH   1   2
BRANCH   1  12
ATOM     12  C   UNL     1      13.009   3.249  17.170  1.00  0.00     0.000 C 
BRANCH  12  13
ATOM     13  C   UNL     1      13.193   2.903  15.681  1.00  0.00    -0.000 C 
BRANCH  13  14
ATOM     14  C   UNL     1      14.511   2.164  15.406  1.00  0.00    -0.000 C 
BRANCH  14  15
ATOM     15  C   UNL     1      15.254   2.720  14.180  1.00  0.00    -0.000 C 
BRANCH  15  16
ATOM     16  C   UNL     1      15.470   1.656  13.093  1.00  0.00    -0.000 C 
BRANCH  16  17
ATOM     17  C   UNL     1      15.740   2.270  11.708  1.00  0.00    -0.000 C 
BRANCH  17  18
ATOM     18  C   UNL     1      17.163   1.981  11.208  1.00  0.00    -0.003 C 
ATOM     19  C   UNL     1      17.467   0.485  11.123  1.00  0.00     0.004 C 
ENDBRANCH  17  18
ENDBRANCH  16  17
ENDBRANCH  15  16
ENDBRANCH  14  15
ENDBRANCH  13  14
ENDBRANCH  12  13
ENDBRANCH   1  12
TORSDOF 14
ENDMDL
MODEL 5
REMARK VINA RESULT:    -6.215      0.975      2.326
REMARK INTER + INTRA:         -13.153
REMARK INTER:                 -11.422
REMARK INTRA:                  -1.731
REMARK UNBOUND:                -1.853
REMARK SMILES CCCCCCCCCCCCCC[C@H](C)C(=O)[O-]
REMARK SMILES IDX 9 1 10 2 11 3 12 4 13 5 14 6 15 7 16 8 17 9 18 10 19 11 8 12
REMARK SMILES IDX 7 13 6 14 5 15 4 16 3 17 2 18 1 19
REMARK H PARENT
REMARK Flexibility Score: inf
ROOT
ATOM      1  C   UNL     1      13.183   3.003  15.837  1.00  0.00     0.000 C 
ENDROOT
BRANCH   1   2
ATOM      2  C   UNL     1      13.085   3.335  17.336  1.00  0.00     0.000 C 
BRANCH   2   3
ATOM      3  C   UNL     1      14.420   3.171  18.073  1.00  0.00     0.000 C 
BRANCH   3   4
ATOM      4  C   UNL     1      14.321   2.095  19.162  1.00  0.00     0.000 C 
BRANCH   4   5
ATOM      5  C   UNL     1      13.904   0.741  18.566  1.00  0.00     0.001 C 
BRANCH   5   6
ATOM      6  C   UNL     1      15.089  -0.244  18.462  1.00  0.00     0.009 C 
BRANCH   6   7
ATOM      7  C   UNL     1      16.094   0.055  17.324  1.00  0.00     0.032 C 
ATOM      8  C   UNL     1      16.255  -1.111  16.341  1.00  0.00     0.014 C 
BRANCH   7   9
ATOM      9  C   UNL     1      17.423   0.521  17.863  1.00  0.00     0.044 C 
ATOM     10  O   UNL     1      18.272   1.072  17.112  1.00  0.00    -0.550 OA
ATOM     11  O   UNL     1      17.732   0.313  19.201  1.00  0.00    -0.550 OA
ENDBRANCH   7   9
ENDBRANCH   6   7
ENDBRANCH   5   6
ENDBRANCH   4   5
ENDBRANCH   3   4
ENDBRANCH   2   3
ENDBRANCH   1   2
BRANCH   1  12
ATOM     12  C   UNL     1      14.612   2.640  15.381  1.00  0.00     0.000 C 
BRANCH  12  13
ATOM     13  C   UNL     1      14.624   1.915  14.023  1.00  0.00    -0.000 C 
BRANCH  13  14
ATOM     14  C   UNL     1      15.358   2.714  12.935  1.00  0.00    -0.000 C 
BRANCH  14  15
ATOM     15  C   UNL     1      15.673   1.865  11.692  1.00  0.00    -0.000 C 
BRANCH  15  16
ATOM     16  C   UNL     1      17.114   2.065  11.196  1.00  0.00    -0.000 C 
BRANCH  16  17
ATOM     17  C   UNL     1      17.945   0.771  11.255  1.00  0.00    -0.000 C 
BRANCH  17  18
ATOM     18  C   UNL     1      17.523  -0.143  12.415  1.00  0.00    -0.003 C 
ATOM     19  C   UNL     1      18.563  -0.196  13.534  1.00  0.00     0.004 C 
ENDBRANCH  17  18
ENDBRANCH  16  17
ENDBRANCH  15  16
ENDBRANCH  14  15
ENDBRANCH  13  14
ENDBRANCH  12  13
ENDBRANCH   1  12
TORSDOF 14
ENDMDL
MODEL 6
REMARK VINA RESULT:    -6.199      1.266      4.426
REMARK INTER + INTRA:         -13.124
REMARK INTER:                 -11.143
REMARK INTRA:                  -1.981
REMARK UNBOUND:                -1.853
REMARK SMILES CCCCCCCCCCCCCC[C@H](C)C(=O)[O-]
REMARK SMILES IDX 9 1 10 2 11 3 12 4 13 5 14 6 15 7 16 8 17 9 18 10 19 11 8 12
REMARK SMILES IDX 7 13 6 14 5 15 4 16 3 17 2 18 1 19
REMARK H PARENT
REMARK Flexibility Score: inf
ROOT
ATOM      1  C   UNL     1      17.828   0.369  11.809  1.00  0.00     0.000 C 
ENDROOT
BRANCH   1   2
ATOM      2  C   UNL     1      17.411   0.021  13.249  1.00  0.00     0.000 C 
BRANCH   2   3
ATOM      3  C   UNL     1      18.524  -0.675  14.042  1.00  0.00     0.000 C 
BRANCH   3   4
ATOM      4  C   UNL     1      18.291  -0.545  15.552  1.00  0.00     0.000 C 
BRANCH   4   5
ATOM      5  C   UNL     1      17.174   0.467  15.854  1.00  0.00     0.001 C 
BRANCH   5   6
ATOM      6  C   UNL     1      16.256   0.000  17.006  1.00  0.00     0.009 C 
BRANCH   6   7
ATOM      7  C   UNL     1      16.449   0.751  18.345  1.00  0.00     0.032 C 
ATOM      8  C   UNL     1      17.532   0.128  19.235  1.00  0.00     0.014 C 
BRANCH   7   9
ATOM      9  C   UNL     1      15.145   0.916  19.084  1.00  0.00     0.044 C 
ATOM     10  O   UNL     1      14.135   0.224  18.784  1.00  0.00    -0.550 OA
ATOM     11  O   UNL     1      15.043   1.866  20.093  1.00  0.00    -0.550 OA
ENDBRANCH   7   9
ENDBRANCH   6   7
ENDBRANCH   5   6
ENDBRANCH   4   5
ENDBRANCH   3   4
ENDBRANCH   2   3
ENDBRANCH   1   2
BRANCH   1  12
ATOM     12  C   UNL     1      16.978   1.492  11.179  1.00  0.00     0.000 C 
BRANCH  12  13
ATOM     13  C   UNL     1      15.624   1.666  11.889  1.00  0.00    -0.000 C 
BRANCH  13  14
ATOM     14  C   UNL     1      15.493   3.030  12.584  1.00  0.00    -0.000 C 
BRANCH  14  15
ATOM     15  C   UNL     1      15.224   2.899  14.093  1.00  0.00    -0.000 C 
BRANCH  15  16
ATOM     16  C   UNL     1      14.137   1.860  14.406  1.00  0.00    -0.000 C 
BRANCH  16  17
ATOM     17  C   UNL     1      13.279   2.249  15.624  1.00  0.00    -0.000 C 
BRANCH  17  18
ATOM     18  C   UNL     1      14.028   3.175  16.594  1.00  0.00    -0.003 C 
ATOM     19  C   UNL     1      13.122   3.741  17.687  1.00  0.00     0.004 C 
ENDBRANCH  17  18
ENDBRANCH  16  17
ENDBRANCH  15  16
ENDBRANCH  14  15
ENDBRANCH  13  14
ENDBRANCH  12  13
ENDBRANCH   1  12
TORSDOF 14
ENDMDL
MODEL 7
REMARK VINA RESULT:    -6.164      1.438      3.436
REMARK INTER + INTRA:         -13.062
REMARK INTER:                 -11.276
REMARK INTRA:                  -1.786
REMARK UNBOUND:                -1.853
REMARK SMILES CCCCCCCCCCCCCC[C@H](C)C(=O)[O-]
REMARK SMILES IDX 9 1 10 2 11 3 12 4 13 5 14 6 15 7 16 8 17 9 18 10 19 11 8 12
REMARK SMILES IDX 7 13 6 14 5 15 4 16 3 17 2 18 1 19
REMARK H PARENT
REMARK Flexibility Score: inf
ROOT
ATOM      1  C   UNL     1      16.796   1.786  11.277  1.00  0.00     0.000 C 
ENDROOT
BRANCH   1   2
ATOM      2  C   UNL     1      15.512   1.666  12.115  1.00  0.00     0.000 C 
BRANCH   2   3
ATOM      3  C   UNL     1      15.441   2.693  13.252  1.00  0.00     0.000 C 
BRANCH   3   4
ATOM      4  C   UNL     1      14.678   2.131  14.457  1.00  0.00     0.000 C 
BRANCH   4   5
ATOM      5  C   UNL     1      15.140   2.796  15.764  1.00  0.00     0.001 C 
BRANCH   5   6
ATOM      6  C   UNL     1      15.117   1.818  16.959  1.00  0.00     0.009 C 
BRANCH   6   7
ATOM      7  C   UNL     1      13.839   1.872  17.829  1.00  0.00     0.032 C 
ATOM      8  C   UNL     1      13.253   3.285  17.953  1.00  0.00     0.014 C 
BRANCH   7   9
ATOM      9  C   UNL     1      14.055   1.236  19.178  1.00  0.00     0.044 C 
ATOM     10  O   UNL     1      13.593   0.093  19.440  1.00  0.00    -0.550 OA
ATOM     11  O   UNL     1      14.750   1.930  20.161  1.00  0.00    -0.550 OA
ENDBRANCH   7   9
ENDBRANCH   6   7
ENDBRANCH   5   6
ENDBRANCH   4   5
ENDBRANCH   3   4
ENDBRANCH   2   3
ENDBRANCH   1   2
BRANCH   1  12
ATOM     12  C   UNL     1      17.916   0.824  11.728  1.00  0.00     0.000 C 
BRANCH  12  13
ATOM     13  C   UNL     1      17.443  -0.147  12.824  1.00  0.00    -0.000 C 
BRANCH  13  14
ATOM     14  C   UNL     1      18.524  -0.414  13.882  1.00  0.00    -0.000 C 
BRANCH  14  15
ATOM     15  C   UNL     1      18.035  -0.124  15.311  1.00  0.00    -0.000 C 
BRANCH  15  16
ATOM     16  C   UNL     1      16.832  -0.995  15.706  1.00  0.00    -0.000 C 
BRANCH  16  17
ATOM     17  C   UNL     1      17.153  -1.960  16.861  1.00  0.00    -0.000 C 
BRANCH  17  18
ATOM     18  C   UNL     1      16.521  -1.514  18.189  1.00  0.00    -0.003 C 
ATOM     19  C   UNL     1      17.377  -0.491  18.935  1.00  0.00     0.004 C 
ENDBRANCH  17  18
ENDBRANCH  16  17
ENDBRANCH  15  16
ENDBRANCH  14  15
ENDBRANCH  13  14
ENDBRANCH  12  13
ENDBRANCH   1  12
TORSDOF 14
ENDMDL
MODEL 8
REMARK VINA RESULT:    -6.145      1.537      5.208
REMARK INTER + INTRA:         -13.027
REMARK INTER:                 -10.923
REMARK INTRA:                  -2.104
REMARK UNBOUND:                -1.853
REMARK SMILES CCCCCCCCCCCCCC[C@H](C)C(=O)[O-]
REMARK SMILES IDX 9 1 10 2 11 3 12 4 13 5 14 6 15 7 16 8 17 9 18 10 19 11 8 12
REMARK SMILES IDX 7 13 6 14 5 15 4 16 3 17 2 18 1 19
REMARK H PARENT
REMARK Flexibility Score: inf
ROOT
ATOM      1  C   UNL     1      15.468   3.039  12.966  1.00  0.00     0.000 C 
ENDROOT
BRANCH   1   2
ATOM      2  C   UNL     1      15.736   1.836  12.046  1.00  0.00     0.000 C 
BRANCH   2   3
ATOM      3  C   UNL     1      17.215   1.432  12.006  1.00  0.00     0.000 C 
BRANCH   3   4
ATOM      4  C   UNL     1      17.399  -0.033  12.420  1.00  0.00     0.000 C 
BRANCH   4   5
ATOM      5  C   UNL     1      17.578  -0.160  13.941  1.00  0.00     0.001 C 
BRANCH   5   6
ATOM      6  C   UNL     1      16.328  -0.748  14.632  1.00  0.00     0.009 C 
BRANCH   6   7
ATOM      7  C   UNL     1      16.253  -0.521  16.161  1.00  0.00     0.032 C 
ATOM      8  C   UNL     1      17.343   0.423  16.684  1.00  0.00     0.014 C 
BRANCH   7   9
ATOM      9  C   UNL     1      16.231  -1.825  16.917  1.00  0.00     0.044 C 
ATOM     10  O   UNL     1      15.181  -2.231  17.482  1.00  0.00    -0.550 OA
ATOM     11  O   UNL     1      17.394  -2.578  17.020  1.00  0.00    -0.550 OA
ENDBRANCH   7   9
ENDBRANCH   6   7
ENDBRANCH   5   6
ENDBRANCH   4   5
ENDBRANCH   3   4
ENDBRANCH   2   3
ENDBRANCH   1   2
BRANCH   1  12
ATOM     12  C   UNL     1      15.290   2.650  14.449  1.00  0.00     0.000 C 
BRANCH  12  13
ATOM     13  C   UNL     1      13.856   2.185  14.761  1.00  0.00    -0.000 C 
BRANCH  13  14
ATOM     14  C   UNL     1      13.215   2.980  15.908  1.00  0.00    -0.000 C 
BRANCH  14  15
ATOM     15  C   UNL     1      14.220   3.325  17.020  1.00  0.00    -0.000 C 
BRANCH  15  16
ATOM     16  C   UNL     1      13.841   2.695  18.369  1.00  0.00    -0.000 C 
BRANCH  16  17
ATOM     17  C   UNL     1      13.910   1.157  18.344  1.00  0.00    -0.000 C 
BRANCH  17  18
ATOM     18  C   UNL     1      14.521   0.578  19.629  1.00  0.00    -0.003 C 
ATOM     19  C   UNL     1      13.542  -0.305  20.402  1.00  0.00     0.004 C 
ENDBRANCH  17  18
ENDBRANCH  16  17
ENDBRANCH  15  16
ENDBRANCH  14  15
ENDBRANCH  13  14
ENDBRANCH  12  13
ENDBRANCH   1  12
TORSDOF 14
ENDMDL
MODEL 9
REMARK VINA RESULT:    -6.133      1.797      3.902
REMARK INTER + INTRA:         -13.006
REMARK INTER:                 -11.369
REMARK INTRA:                  -1.636
REMARK UNBOUND:                -1.853
REMARK SMILES CCCCCCCCCCCCCC[C@H](C)C(=O)[O-]
REMARK SMILES IDX 9 1 10 2 11 3 12 4 13 5 14 6 15 7 16 8 17 9 18 10 19 11 8 12
REMARK SMILES IDX 7 13 6 14 5 15 4 16 3 17 2 18 1 19
REMARK H PARENT
REMARK Flexibility Score: inf
ROOT
ATOM      1  C   UNL     1      16.614  -0.999  15.517  1.00  0.00     0.000 C 
ENDROOT
BRANCH   1   2
ATOM      2  C   UNL     1      16.211  -1.787  16.776  1.00  0.00     0.000 C 
BRANCH   2   3
ATOM      3  C   UNL     1      17.305  -1.798  17.851  1.00  0.00     0.000 C 
BRANCH   3   4
ATOM      4  C   UNL     1      16.730  -1.445  19.228  1.00  0.00     0.000 C 
BRANCH   4   5
ATOM      5  C   UNL     1      16.627   0.077  19.411  1.00  0.00     0.001 C 
BRANCH   5   6
ATOM      6  C   UNL     1      15.668   0.466  20.558  1.00  0.00     0.009 C 
BRANCH   6   7
ATOM      7  C   UNL     1      14.200   0.710  20.133  1.00  0.00     0.032 C 
ATOM      8  C   UNL     1      13.303  -0.518  20.336  1.00  0.00     0.014 C 
BRANCH   7   9
ATOM      9  C   UNL     1      14.108   1.243  18.726  1.00  0.00     0.044 C 
ATOM     10  O   UNL     1      13.679   0.525  17.785  1.00  0.00    -0.550 OA
ATOM     11  O   UNL     1      14.531   2.539  18.454  1.00  0.00    -0.550 OA
ENDBRANCH   7   9
ENDBRANCH   6   7
ENDBRANCH   5   6
ENDBRANCH   4   5
ENDBRANCH   3   4
ENDBRANCH   2   3
ENDBRANCH   1   2
BRANCH   1  12
ATOM     12  C   UNL     1      16.479   0.530  15.681  1.00  0.00     0.000 C 
BRANCH  12  13
ATOM     13  C   UNL     1      15.280   1.096  14.898  1.00  0.00    -0.000 C 
BRANCH  13  14
ATOM     14  C   UNL     1      15.386   2.612  14.673  1.00  0.00    -0.000 C 
BRANCH  14  15
ATOM     15  C   UNL     1      15.437   2.984  13.181  1.00  0.00    -0.000 C 
BRANCH  15  16
ATOM     16  C   UNL     1      15.442   1.748  12.269  1.00  0.00    -0.000 C 
BRANCH  16  17
ATOM     17  C   UNL     1      16.435   1.877  11.101  1.00  0.00    -0.000 C 
BRANCH  17  18
ATOM     18  C   UNL     1      17.380   0.671  10.999  1.00  0.00    -0.003 C 
ATOM     19  C   UNL     1      18.024   0.311  12.338  1.00  0.00     0.004 C 
ENDBRANCH  17  18
ENDBRANCH  16  17
ENDBRANCH  15  16
ENDBRANCH  14  15
ENDBRANCH  13  14
ENDBRANCH  12  13
ENDBRANCH   1  12
TORSDOF 14
ENDMDL
