MODEL 1
REMARK VINA RESULT:    -5.342      0.000      0.000
REMARK INTER + INTRA:         -11.855
REMARK INTER:                 -10.027
REMARK INTRA:                  -1.828
REMARK UNBOUND:                -1.828
REMARK SMILES CCCCCCCCC=CCCCCCCCC(=O)[O-]
REMARK SMILES IDX 10 1 9 2 11 3 12 4 13 5 14 6 15 7 16 8 17 9 18 10 19 11
REMARK SMILES IDX 20 12 8 13 7 14 6 15 5 16 4 17 3 18 2 19 1 20
REMARK H PARENT
REMARK Flexibility Score: inf
ROOT
ATOM      1  C   UNL     1      18.289 157.035  -3.950  1.00  0.00    -0.031 C 
ATOM      2  C   UNL     1      18.426 157.242  -2.626  1.00  0.00    -0.031 C 
ENDROOT
BRANCH   1   3
ATOM      3  C   UNL     1      19.385 156.548  -4.867  1.00  0.00     0.027 C 
BRANCH   3   4
ATOM      4  C   UNL     1      19.553 155.021  -4.824  1.00  0.00     0.004 C 
BRANCH   4   5
ATOM      5  C   UNL     1      20.965 154.609  -4.375  1.00  0.00     0.000 C 
BRANCH   5   6
ATOM      6  C   UNL     1      21.108 153.087  -4.205  1.00  0.00     0.000 C 
BRANCH   6   7
ATOM      7  C   UNL     1      20.875 152.321  -5.519  1.00  0.00     0.000 C 
BRANCH   7   8
ATOM      8  C   UNL     1      20.705 150.810  -5.298  1.00  0.00     0.006 C 
BRANCH   8   9
ATOM      9  C   UNL     1      19.406 150.267  -5.907  1.00  0.00     0.053 C 
BRANCH   9  10
ATOM     10  C   UNL     1      18.315 150.253  -4.885  1.00  0.00     0.041 C 
ATOM     11  O   UNL     1      18.541 150.644  -3.710  1.00  0.00    -0.550 OA
ATOM     12  O   UNL     1      17.032 149.856  -5.242  1.00  0.00    -0.550 OA
ENDBRANCH   9  10
ENDBRANCH   8   9
ENDBRANCH   7   8
ENDBRANCH   6   7
ENDBRANCH   5   6
ENDBRANCH   4   5
ENDBRANCH   3   4
ENDBRANCH   1   3
BRANCH   2  13
ATOM     13  C   UNL     1      19.708 157.058  -1.847  1.00  0.00     0.027 C 
BRANCH  13  14
ATOM     14  C   UNL     1      19.629 155.851  -0.896  1.00  0.00     0.004 C 
BRANCH  14  15
ATOM     15  C   UNL     1      19.889 156.206   0.578  1.00  0.00     0.000 C 
BRANCH  15  16
ATOM     16  C   UNL     1      18.600 156.381   1.392  1.00  0.00     0.000 C 
BRANCH  16  17
ATOM     17  C   UNL     1      17.395 155.783   0.653  1.00  0.00    -0.000 C 
BRANCH  17  18
ATOM     18  C   UNL     1      16.252 156.794   0.452  1.00  0.00    -0.000 C 
BRANCH  18  19
ATOM     19  C   UNL     1      15.271 156.444  -0.680  1.00  0.00    -0.003 C 
ATOM     20  C   UNL     1      15.555 155.085  -1.320  1.00  0.00     0.004 C 
ENDBRANCH  18  19
ENDBRANCH  17  18
ENDBRANCH  16  17
ENDBRANCH  15  16
ENDBRANCH  14  15
ENDBRANCH  13  14
ENDBRANCH   2  13
TORSDOF 15
ENDMDL
MODEL 2
REMARK VINA RESULT:    -5.332      2.999      6.464
REMARK INTER + INTRA:         -11.835
REMARK INTER:                  -9.013
REMARK INTRA:                  -2.822
REMARK UNBOUND:                -1.828
REMARK SMILES CCCCCCCCC=CCCCCCCCC(=O)[O-]
REMARK SMILES IDX 10 1 9 2 11 3 12 4 13 5 14 6 15 7 16 8 17 9 18 10 19 11
REMARK SMILES IDX 20 12 8 13 7 14 6 15 5 16 4 17 3 18 2 19 1 20
REMARK H PARENT
REMARK Flexibility Score: inf
ROOT
ATOM      1  C   UNL     1      20.986 150.880  -5.093  1.00  0.00    -0.031 C 
ATOM      2  C   UNL     1      20.005 149.974  -5.266  1.00  0.00    -0.031 C 
ENDROOT
BRANCH   1   3
ATOM      3  C   UNL     1      20.901 152.334  -5.493  1.00  0.00     0.027 C 
BRANCH   3   4
ATOM      4  C   UNL     1      21.505 153.271  -4.436  1.00  0.00     0.004 C 
BRANCH   4   5
ATOM      5  C   UNL     1      20.577 154.457  -4.120  1.00  0.00     0.000 C 
BRANCH   5   6
ATOM      6  C   UNL     1      19.245 154.383  -4.883  1.00  0.00     0.000 C 
BRANCH   6   7
ATOM      7  C   UNL     1      18.260 155.488  -4.463  1.00  0.00     0.000 C 
BRANCH   7   8
ATOM      8  C   UNL     1      17.685 155.261  -3.056  1.00  0.00     0.006 C 
BRANCH   8   9
ATOM      9  C   UNL     1      17.905 156.463  -2.129  1.00  0.00     0.053 C 
BRANCH   9  10
ATOM     10  C   UNL     1      16.739 156.633  -1.207  1.00  0.00     0.041 C 
ATOM     11  O   UNL     1      16.671 157.635  -0.449  1.00  0.00    -0.550 OA
ATOM     12  O   UNL     1      15.701 155.710  -1.221  1.00  0.00    -0.550 OA
ENDBRANCH   9  10
ENDBRANCH   8   9
ENDBRANCH   7   8
ENDBRANCH   6   7
ENDBRANCH   5   6
ENDBRANCH   4   5
ENDBRANCH   3   4
ENDBRANCH   1   3
BRANCH   2  13
ATOM     13  C   UNL     1      18.673 150.251  -5.925  1.00  0.00     0.027 C 
BRANCH  13  14
ATOM     14  C   UNL     1      17.514 150.190  -4.915  1.00  0.00     0.004 C 
BRANCH  14  15
ATOM     15  C   UNL     1      17.449 151.405  -3.973  1.00  0.00     0.000 C 
BRANCH  15  16
ATOM     16  C   UNL     1      17.749 151.052  -2.510  1.00  0.00     0.000 C 
BRANCH  16  17
ATOM     17  C   UNL     1      18.926 151.877  -1.972  1.00  0.00    -0.000 C 
BRANCH  17  18
ATOM     18  C   UNL     1      19.789 151.102  -0.960  1.00  0.00    -0.000 C 
BRANCH  18  19
ATOM     19  C   UNL     1      20.942 150.294  -1.579  1.00  0.00    -0.003 C 
ATOM     20  C   UNL     1      22.281 151.030  -1.533  1.00  0.00     0.004 C 
ENDBRANCH  18  19
ENDBRANCH  17  18
ENDBRANCH  16  17
ENDBRANCH  15  16
ENDBRANCH  14  15
ENDBRANCH  13  14
ENDBRANCH   2  13
TORSDOF 15
ENDMDL
MODEL 3
REMARK VINA RESULT:    -5.270      2.666      6.216
REMARK INTER + INTRA:         -11.719
REMARK INTER:                  -8.704
REMARK INTRA:                  -3.015
REMARK UNBOUND:                -1.828
REMARK SMILES CCCCCCCCC=CCCCCCCCC(=O)[O-]
REMARK SMILES IDX 10 1 9 2 11 3 12 4 13 5 14 6 15 7 16 8 17 9 18 10 19 11
REMARK SMILES IDX 20 12 8 13 7 14 6 15 5 16 4 17 3 18 2 19 1 20
REMARK H PARENT
REMARK Flexibility Score: inf
ROOT
ATOM      1  C   UNL     1      19.269 154.082  -4.652  1.00  0.00    -0.031 C 
ATOM      2  C   UNL     1      18.505 153.318  -3.847  1.00  0.00    -0.031 C 
ENDROOT
BRANCH   1   3
ATOM      3  C   UNL     1      20.636 154.614  -4.297  1.00  0.00     0.027 C 
BRANCH   3   4
ATOM      4  C   UNL     1      20.666 156.148  -4.212  1.00  0.00     0.004 C 
BRANCH   4   5
ATOM      5  C   UNL     1      21.584 156.645  -3.081  1.00  0.00     0.000 C 
BRANCH   5   6
ATOM      6  C   UNL     1      20.878 156.665  -1.715  1.00  0.00     0.000 C 
BRANCH   6   7
ATOM      7  C   UNL     1      19.442 157.212  -1.799  1.00  0.00     0.000 C 
BRANCH   7   8
ATOM      8  C   UNL     1      18.417 156.285  -1.127  1.00  0.00     0.006 C 
BRANCH   8   9
ATOM      9  C   UNL     1      17.084 156.232  -1.884  1.00  0.00     0.053 C 
BRANCH   9  10
ATOM     10  C   UNL     1      16.028 155.595  -1.038  1.00  0.00     0.041 C 
ATOM     11  O   UNL     1      14.987 156.234  -0.735  1.00  0.00    -0.550 OA
ATOM     12  O   UNL     1      16.169 154.276  -0.625  1.00  0.00    -0.550 OA
ENDBRANCH   9  10
ENDBRANCH   8   9
ENDBRANCH   7   8
ENDBRANCH   6   7
ENDBRANCH   5   6
ENDBRANCH   4   5
ENDBRANCH   3   4
ENDBRANCH   1   3
BRANCH   2  13
ATOM     13  C   UNL     1      18.872 152.901  -2.442  1.00  0.00     0.027 C 
BRANCH  13  14
ATOM     14  C   UNL     1      18.709 151.385  -2.237  1.00  0.00     0.004 C 
BRANCH  14  15
ATOM     15  C   UNL     1      20.045 150.629  -2.115  1.00  0.00     0.000 C 
BRANCH  15  16
ATOM     16  C   UNL     1      21.268 151.554  -2.176  1.00  0.00     0.000 C 
BRANCH  16  17
ATOM     17  C   UNL     1      22.082 151.308  -3.454  1.00  0.00    -0.000 C 
BRANCH  17  18
ATOM     18  C   UNL     1      21.458 150.238  -4.367  1.00  0.00    -0.000 C 
BRANCH  18  19
ATOM     19  C   UNL     1      20.777 150.785  -5.633  1.00  0.00    -0.003 C 
ATOM     20  C   UNL     1      19.356 150.256  -5.824  1.00  0.00     0.004 C 
ENDBRANCH  18  19
ENDBRANCH  17  18
ENDBRANCH  16  17
ENDBRANCH  15  16
ENDBRANCH  14  15
ENDBRANCH  13  14
ENDBRANCH   2  13
TORSDOF 15
ENDMDL
MODEL 4
REMARK VINA RESULT:    -5.263      2.059      5.910
REMARK INTER + INTRA:         -11.706
REMARK INTER:                  -9.282
REMARK INTRA:                  -2.424
REMARK UNBOUND:                -1.828
REMARK SMILES CCCCCCCCC=CCCCCCCCC(=O)[O-]
REMARK SMILES IDX 10 1 9 2 11 3 12 4 13 5 14 6 15 7 16 8 17 9 18 10 19 11
REMARK SMILES IDX 20 12 8 13 7 14 6 15 5 16 4 17 3 18 2 19 1 20
REMARK H PARENT
REMARK Flexibility Score: inf
ROOT
ATOM      1  C   UNL     1      19.052 155.113  -5.235  1.00  0.00    -0.031 C 
ATOM      2  C   UNL     1      19.918 154.147  -4.872  1.00  0.00    -0.031 C 
ENDROOT
BRANCH   1   3
ATOM      3  C   UNL     1      19.179 156.571  -4.868  1.00  0.00     0.027 C 
BRANCH   3   4
ATOM      4  C   UNL     1      18.161 157.000  -3.799  1.00  0.00     0.004 C 
BRANCH   4   5
ATOM      5  C   UNL     1      18.838 157.328  -2.457  1.00  0.00     0.000 C 
BRANCH   5   6
ATOM      6  C   UNL     1      18.219 156.556  -1.281  1.00  0.00     0.000 C 
BRANCH   6   7
ATOM      7  C   UNL     1      16.973 157.252  -0.705  1.00  0.00     0.000 C 
BRANCH   7   8
ATOM      8  C   UNL     1      15.701 156.402  -0.853  1.00  0.00     0.006 C 
BRANCH   8   9
ATOM      9  C   UNL     1      16.004 154.905  -0.994  1.00  0.00     0.053 C 
BRANCH   9  10
ATOM     10  C   UNL     1      15.376 154.359  -2.236  1.00  0.00     0.041 C 
ATOM     11  O   UNL     1      14.127 154.212  -2.303  1.00  0.00    -0.550 OA
ATOM     12  O   UNL     1      16.163 154.058  -3.340  1.00  0.00    -0.550 OA
ENDBRANCH   9  10
ENDBRANCH   8   9
ENDBRANCH   7   8
ENDBRANCH   6   7
ENDBRANCH   5   6
ENDBRANCH   4   5
ENDBRANCH   3   4
ENDBRANCH   1   3
BRANCH   2  13
ATOM     13  C   UNL     1      21.137 154.356  -4.003  1.00  0.00     0.027 C 
BRANCH  13  14
ATOM     14  C   UNL     1      20.962 153.719  -2.613  1.00  0.00     0.004 C 
BRANCH  14  15
ATOM     15  C   UNL     1      19.546 153.174  -2.356  1.00  0.00     0.000 C 
BRANCH  15  16
ATOM     16  C   UNL     1      19.532 151.688  -1.975  1.00  0.00     0.000 C 
BRANCH  16  17
ATOM     17  C   UNL     1      19.179 150.811  -3.184  1.00  0.00    -0.000 C 
BRANCH  17  18
ATOM     18  C   UNL     1      20.420 150.267  -3.913  1.00  0.00    -0.000 C 
BRANCH  18  19
ATOM     19  C   UNL     1      20.398 150.436  -5.442  1.00  0.00    -0.003 C 
ATOM     20  C   UNL     1      19.005 150.254  -6.044  1.00  0.00     0.004 C 
ENDBRANCH  18  19
ENDBRANCH  17  18
ENDBRANCH  16  17
ENDBRANCH  15  16
ENDBRANCH  14  15
ENDBRANCH  13  14
ENDBRANCH   2  13
TORSDOF 15
ENDMDL
MODEL 5
REMARK VINA RESULT:    -5.238      1.833      5.736
REMARK INTER + INTRA:         -11.660
REMARK INTER:                  -9.308
REMARK INTRA:                  -2.352
REMARK UNBOUND:                -1.828
REMARK SMILES CCCCCCCCC=CCCCCCCCC(=O)[O-]
REMARK SMILES IDX 10 1 9 2 11 3 12 4 13 5 14 6 15 7 16 8 17 9 18 10 19 11
REMARK SMILES IDX 20 12 8 13 7 14 6 15 5 16 4 17 3 18 2 19 1 20
REMARK H PARENT
REMARK Flexibility Score: inf
ROOT
ATOM      1  C   UNL     1      18.535 157.314  -2.335  1.00  0.00    -0.031 C 
ATOM      2  C   UNL     1      18.598 156.975  -3.637  1.00  0.00    -0.031 C 
ENDROOT
BRANCH   1   3
ATOM      3  C   UNL     1      17.876 156.489  -1.257  1.00  0.00     0.027 C 
BRANCH   3   4
ATOM      4  C   UNL     1      16.508 157.052  -0.839  1.00  0.00     0.004 C 
BRANCH   4   5
ATOM      5  C   UNL     1      15.408 155.978  -0.874  1.00  0.00     0.000 C 
BRANCH   5   6
ATOM      6  C   UNL     1      15.963 154.574  -1.166  1.00  0.00     0.000 C 
BRANCH   6   7
ATOM      7  C   UNL     1      15.299 153.917  -2.389  1.00  0.00     0.000 C 
BRANCH   7   8
ATOM      8  C   UNL     1      16.177 152.827  -3.022  1.00  0.00     0.006 C 
BRANCH   8   9
ATOM      9  C   UNL     1      17.299 152.357  -2.088  1.00  0.00     0.053 C 
BRANCH   9  10
ATOM     10  C   UNL     1      17.030 150.967  -1.605  1.00  0.00     0.041 C 
ATOM     11  O   UNL     1      16.495 150.123  -2.370  1.00  0.00    -0.550 OA
ATOM     12  O   UNL     1      17.416 150.589  -0.326  1.00  0.00    -0.550 OA
ENDBRANCH   9  10
ENDBRANCH   8   9
ENDBRANCH   7   8
ENDBRANCH   6   7
ENDBRANCH   5   6
ENDBRANCH   4   5
ENDBRANCH   3   4
ENDBRANCH   1   3
BRANCH   2  13
ATOM     13  C   UNL     1      17.984 155.733  -4.241  1.00  0.00     0.027 C 
BRANCH  13  14
ATOM     14  C   UNL     1      19.001 154.948  -5.086  1.00  0.00     0.004 C 
BRANCH  14  15
ATOM     15  C   UNL     1      19.810 153.916  -4.280  1.00  0.00     0.000 C 
BRANCH  15  16
ATOM     16  C   UNL     1      21.038 153.389  -5.036  1.00  0.00     0.000 C 
BRANCH  16  17
ATOM     17  C   UNL     1      21.387 151.961  -4.592  1.00  0.00    -0.000 C 
BRANCH  17  18
ATOM     18  C   UNL     1      20.712 150.882  -5.457  1.00  0.00    -0.000 C 
BRANCH  18  19
ATOM     19  C   UNL     1      19.563 150.126  -4.767  1.00  0.00    -0.003 C 
ATOM     20  C   UNL     1      18.248 150.200  -5.541  1.00  0.00     0.004 C 
ENDBRANCH  18  19
ENDBRANCH  17  18
ENDBRANCH  16  17
ENDBRANCH  15  16
ENDBRANCH  14  15
ENDBRANCH  13  14
ENDBRANCH   2  13
TORSDOF 15
ENDMDL
MODEL 6
REMARK VINA RESULT:    -5.221      2.129      5.820
REMARK INTER + INTRA:         -11.628
REMARK INTER:                  -9.412
REMARK INTRA:                  -2.216
REMARK UNBOUND:                -1.828
REMARK SMILES CCCCCCCCC=CCCCCCCCC(=O)[O-]
REMARK SMILES IDX 10 1 9 2 11 3 12 4 13 5 14 6 15 7 16 8 17 9 18 10 19 11
REMARK SMILES IDX 20 12 8 13 7 14 6 15 5 16 4 17 3 18 2 19 1 20
REMARK H PARENT
REMARK Flexibility Score: inf
ROOT
ATOM      1  C   UNL     1      18.135 157.331  -3.161  1.00  0.00    -0.031 C 
ATOM      2  C   UNL     1      18.507 156.866  -4.369  1.00  0.00    -0.031 C 
ENDROOT
BRANCH   1   3
ATOM      3  C   UNL     1      18.938 157.181  -1.892  1.00  0.00     0.027 C 
BRANCH   3   4
ATOM      4  C   UNL     1      18.100 156.630  -0.728  1.00  0.00     0.004 C 
BRANCH   4   5
ATOM      5  C   UNL     1      16.614 157.009  -0.857  1.00  0.00     0.000 C 
BRANCH   5   6
ATOM      6  C   UNL     1      15.696 155.777  -0.931  1.00  0.00     0.000 C 
BRANCH   6   7
ATOM      7  C   UNL     1      16.442 154.509  -1.381  1.00  0.00     0.000 C 
BRANCH   7   8
ATOM      8  C   UNL     1      16.040 154.058  -2.794  1.00  0.00     0.006 C 
BRANCH   8   9
ATOM      9  C   UNL     1      15.516 152.617  -2.826  1.00  0.00     0.053 C 
BRANCH   9  10
ATOM     10  C   UNL     1      14.033 152.604  -3.017  1.00  0.00     0.041 C 
ATOM     11  O   UNL     1      13.372 153.672  -2.924  1.00  0.00    -0.550 OA
ATOM     12  O   UNL     1      13.384 151.421  -3.349  1.00  0.00    -0.550 OA
ENDBRANCH   9  10
ENDBRANCH   8   9
ENDBRANCH   7   8
ENDBRANCH   6   7
ENDBRANCH   5   6
ENDBRANCH   4   5
ENDBRANCH   3   4
ENDBRANCH   1   3
BRANCH   2  13
ATOM     13  C   UNL     1      19.770 156.082  -4.646  1.00  0.00     0.027 C 
BRANCH  13  14
ATOM     14  C   UNL     1      19.491 154.573  -4.757  1.00  0.00     0.004 C 
BRANCH  14  15
ATOM     15  C   UNL     1      19.675 153.811  -3.433  1.00  0.00     0.000 C 
BRANCH  15  16
ATOM     16  C   UNL     1      20.529 152.545  -3.579  1.00  0.00     0.000 C 
BRANCH  16  17
ATOM     17  C   UNL     1      21.024 152.377  -5.022  1.00  0.00    -0.000 C 
BRANCH  17  18
ATOM     18  C   UNL     1      20.796 150.958  -5.573  1.00  0.00    -0.000 C 
BRANCH  18  19
ATOM     19  C   UNL     1      19.719 150.143  -4.836  1.00  0.00    -0.003 C 
ATOM     20  C   UNL     1      18.360 150.181  -5.534  1.00  0.00     0.004 C 
ENDBRANCH  18  19
ENDBRANCH  17  18
ENDBRANCH  16  17
ENDBRANCH  15  16
ENDBRANCH  14  15
ENDBRANCH  13  14
ENDBRANCH   2  13
TORSDOF 15
ENDMDL
MODEL 7
REMARK VINA RESULT:    -5.211      3.425      6.102
REMARK INTER + INTRA:         -11.609
REMARK INTER:                  -8.978
REMARK INTRA:                  -2.631
REMARK UNBOUND:                -1.828
REMARK SMILES CCCCCCCCC=CCCCCCCCC(=O)[O-]
REMARK SMILES IDX 10 1 9 2 11 3 12 4 13 5 14 6 15 7 16 8 17 9 18 10 19 11
REMARK SMILES IDX 20 12 8 13 7 14 6 15 5 16 4 17 3 18 2 19 1 20
REMARK H PARENT
REMARK Flexibility Score: inf
ROOT
ATOM      1  C   UNL     1      20.303 150.209  -5.253  1.00  0.00    -0.031 C 
ATOM      2  C   UNL     1      21.164 151.222  -5.041  1.00  0.00    -0.031 C 
ENDROOT
BRANCH   1   3
ATOM      3  C   UNL     1      19.062 150.293  -6.109  1.00  0.00     0.027 C 
BRANCH   3   4
ATOM      4  C   UNL     1      17.781 149.984  -5.320  1.00  0.00     0.004 C 
BRANCH   4   5
ATOM      5  C   UNL     1      17.820 150.578  -3.901  1.00  0.00     0.000 C 
BRANCH   5   6
ATOM      6  C   UNL     1      16.432 151.016  -3.407  1.00  0.00     0.000 C 
BRANCH   6   7
ATOM      7  C   UNL     1      15.503 149.824  -3.116  1.00  0.00     0.000 C 
BRANCH   7   8
ATOM      8  C   UNL     1      15.102 149.737  -1.636  1.00  0.00     0.006 C 
BRANCH   8   9
ATOM      9  C   UNL     1      15.859 150.742  -0.759  1.00  0.00     0.053 C 
BRANCH   9  10
ATOM     10  C   UNL     1      16.292 150.098   0.520  1.00  0.00     0.041 C 
ATOM     11  O   UNL     1      17.509 150.084   0.842  1.00  0.00    -0.550 OA
ATOM     12  O   UNL     1      15.347 149.557   1.382  1.00  0.00    -0.550 OA
ENDBRANCH   9  10
ENDBRANCH   8   9
ENDBRANCH   7   8
ENDBRANCH   6   7
ENDBRANCH   5   6
ENDBRANCH   4   5
ENDBRANCH   3   4
ENDBRANCH   1   3
BRANCH   2  13
ATOM     13  C   UNL     1      21.011 152.621  -5.592  1.00  0.00     0.027 C 
BRANCH  13  14
ATOM     14  C   UNL     1      20.846 153.660  -4.469  1.00  0.00     0.004 C 
BRANCH  14  15
ATOM     15  C   UNL     1      19.378 153.985  -4.138  1.00  0.00     0.000 C 
BRANCH  15  16
ATOM     16  C   UNL     1      19.052 153.844  -2.645  1.00  0.00     0.000 C 
BRANCH  16  17
ATOM     17  C   UNL     1      20.189 153.135  -1.896  1.00  0.00    -0.000 C 
BRANCH  17  18
ATOM     18  C   UNL     1      19.778 151.758  -1.346  1.00  0.00    -0.000 C 
BRANCH  18  19
ATOM     19  C   UNL     1      20.912 150.720  -1.289  1.00  0.00    -0.003 C 
ATOM     20  C   UNL     1      22.283 151.313  -1.613  1.00  0.00     0.004 C 
ENDBRANCH  18  19
ENDBRANCH  17  18
ENDBRANCH  16  17
ENDBRANCH  15  16
ENDBRANCH  14  15
ENDBRANCH  13  14
ENDBRANCH   2  13
TORSDOF 15
ENDMDL
MODEL 8
REMARK VINA RESULT:    -5.208      2.702      6.461
REMARK INTER + INTRA:         -11.604
REMARK INTER:                  -9.089
REMARK INTRA:                  -2.515
REMARK UNBOUND:                -1.828
REMARK SMILES CCCCCCCCC=CCCCCCCCC(=O)[O-]
REMARK SMILES IDX 10 1 9 2 11 3 12 4 13 5 14 6 15 7 16 8 17 9 18 10 19 11
REMARK SMILES IDX 20 12 8 13 7 14 6 15 5 16 4 17 3 18 2 19 1 20
REMARK H PARENT
REMARK Flexibility Score: inf
ROOT
ATOM      1  C   UNL     1      18.141 154.685  -3.907  1.00  0.00    -0.031 C 
ATOM      2  C   UNL     1      18.896 153.651  -4.325  1.00  0.00    -0.031 C 
ENDROOT
BRANCH   1   3
ATOM      3  C   UNL     1      18.342 156.123  -4.320  1.00  0.00     0.027 C 
BRANCH   3   4
ATOM      4  C   UNL     1      18.806 157.010  -3.154  1.00  0.00     0.004 C 
BRANCH   4   5
ATOM      5  C   UNL     1      20.251 156.697  -2.731  1.00  0.00     0.000 C 
BRANCH   5   6
ATOM      6  C   UNL     1      20.394 156.517  -1.211  1.00  0.00     0.000 C 
BRANCH   6   7
ATOM      7  C   UNL     1      19.585 155.322  -0.677  1.00  0.00     0.000 C 
BRANCH   7   8
ATOM      8  C   UNL     1      18.416 155.756   0.221  1.00  0.00     0.006 C 
BRANCH   8   9
ATOM      9  C   UNL     1      17.057 155.285  -0.311  1.00  0.00     0.053 C 
BRANCH   9  10
ATOM     10  C   UNL     1      16.135 156.448  -0.493  1.00  0.00     0.041 C 
ATOM     11  O   UNL     1      16.583 157.624  -0.458  1.00  0.00    -0.550 OA
ATOM     12  O   UNL     1      14.787 156.234  -0.751  1.00  0.00    -0.550 OA
ENDBRANCH   9  10
ENDBRANCH   8   9
ENDBRANCH   7   8
ENDBRANCH   6   7
ENDBRANCH   5   6
ENDBRANCH   4   5
ENDBRANCH   3   4
ENDBRANCH   1   3
BRANCH   2  13
ATOM     13  C   UNL     1      20.091 153.763  -5.243  1.00  0.00     0.027 C 
BRANCH  13  14
ATOM     14  C   UNL     1      21.416 153.730  -4.460  1.00  0.00     0.004 C 
BRANCH  14  15
ATOM     15  C   UNL     1      21.406 152.757  -3.268  1.00  0.00     0.000 C 
BRANCH  15  16
ATOM     16  C   UNL     1      22.601 151.794  -3.264  1.00  0.00     0.000 C 
BRANCH  16  17
ATOM     17  C   UNL     1      22.184 150.395  -3.737  1.00  0.00    -0.000 C 
BRANCH  17  18
ATOM     18  C   UNL     1      20.686 150.298  -4.077  1.00  0.00    -0.000 C 
BRANCH  18  19
ATOM     19  C   UNL     1      20.368 150.223  -5.581  1.00  0.00    -0.003 C 
ATOM     20  C   UNL     1      18.869 150.258  -5.878  1.00  0.00     0.004 C 
ENDBRANCH  18  19
ENDBRANCH  17  18
ENDBRANCH  16  17
ENDBRANCH  15  16
ENDBRANCH  14  15
ENDBRANCH  13  14
ENDBRANCH   2  13
TORSDOF 15
ENDMDL
MODEL 9
REMARK VINA RESULT:    -5.207      1.704      5.361
REMARK INTER + INTRA:         -11.601
REMARK INTER:                  -8.935
REMARK INTRA:                  -2.666
REMARK UNBOUND:                -1.828
REMARK SMILES CCCCCCCCC=CCCCCCCCC(=O)[O-]
REMARK SMILES IDX 10 1 9 2 11 3 12 4 13 5 14 6 15 7 16 8 17 9 18 10 19 11
REMARK SMILES IDX 20 12 8 13 7 14 6 15 5 16 4 17 3 18 2 19 1 20
REMARK H PARENT
REMARK Flexibility Score: inf
ROOT
ATOM      1  C   UNL     1      17.384 157.414  -1.536  1.00  0.00    -0.031 C 
ATOM      2  C   UNL     1      18.486 157.232  -2.287  1.00  0.00    -0.031 C 
ENDROOT
BRANCH   1   3
ATOM      3  C   UNL     1      17.154 156.804  -0.174  1.00  0.00     0.027 C 
BRANCH   3   4
ATOM      4  C   UNL     1      16.628 155.363  -0.256  1.00  0.00     0.004 C 
BRANCH   4   5
ATOM      5  C   UNL     1      15.464 155.230  -1.253  1.00  0.00     0.000 C 
BRANCH   5   6
ATOM      6  C   UNL     1      15.609 154.002  -2.167  1.00  0.00     0.000 C 
BRANCH   6   7
ATOM      7  C   UNL     1      16.549 154.258  -3.358  1.00  0.00     0.000 C 
BRANCH   7   8
ATOM      8  C   UNL     1      17.518 153.092  -3.606  1.00  0.00     0.006 C 
BRANCH   8   9
ATOM      9  C   UNL     1      18.363 152.753  -2.372  1.00  0.00     0.053 C 
BRANCH   9  10
ATOM     10  C   UNL     1      18.317 151.285  -2.093  1.00  0.00     0.041 C 
ATOM     11  O   UNL     1      19.341 150.687  -1.672  1.00  0.00    -0.550 OA
ATOM     12  O   UNL     1      17.127 150.584  -2.249  1.00  0.00    -0.550 OA
ENDBRANCH   9  10
ENDBRANCH   8   9
ENDBRANCH   7   8
ENDBRANCH   6   7
ENDBRANCH   5   6
ENDBRANCH   4   5
ENDBRANCH   3   4
ENDBRANCH   1   3
BRANCH   2  13
ATOM     13  C   UNL     1      19.659 156.355  -1.909  1.00  0.00     0.027 C 
BRANCH  13  14
ATOM     14  C   UNL     1      20.729 156.329  -3.014  1.00  0.00     0.004 C 
BRANCH  14  15
ATOM     15  C   UNL     1      20.371 155.418  -4.201  1.00  0.00     0.000 C 
BRANCH  15  16
ATOM     16  C   UNL     1      21.420 154.330  -4.465  1.00  0.00     0.000 C 
BRANCH  16  17
ATOM     17  C   UNL     1      20.812 153.153  -5.242  1.00  0.00    -0.000 C 
BRANCH  17  18
ATOM     18  C   UNL     1      21.152 151.786  -4.623  1.00  0.00    -0.000 C 
BRANCH  18  19
ATOM     19  C   UNL     1      20.782 150.572  -5.493  1.00  0.00    -0.003 C 
ATOM     20  C   UNL     1      19.274 150.341  -5.587  1.00  0.00     0.004 C 
ENDBRANCH  18  19
ENDBRANCH  17  18
ENDBRANCH  16  17
ENDBRANCH  15  16
ENDBRANCH  14  15
ENDBRANCH  13  14
ENDBRANCH   2  13
TORSDOF 15
ENDMDL
