MODEL 1
REMARK VINA RESULT:    -3.506      0.000      0.000
REMARK INTER + INTRA:          -3.966
REMARK INTER:                  -3.711
REMARK INTRA:                  -0.255
REMARK UNBOUND:                -0.255
REMARK SMILES CC1=CC[C@@H]2[C@H]3[C@@H](C(C)C)CC[C@]2(C)[C@@H]13
REMARK SMILES IDX 1 1 2 2 3 3 4 4 5 5 6 6 15 7 13 8 12 9 11 10 7 11 14 12 8 13
REMARK SMILES IDX 9 14 10 15
REMARK H PARENT
REMARK Flexibility Score: inf
ROOT
ATOM      1  C   UNL     1     153.651 138.783 165.124  1.00  0.00     0.039 C 
ATOM      2  C   UNL     1     153.797 138.200 163.758  1.00  0.00    -0.073 C 
ATOM      3  C   UNL     1     154.966 138.287 163.063  1.00  0.00    -0.027 C 
ATOM      4  C   UNL     1     155.119 137.476 161.771  1.00  0.00     0.031 C 
ATOM      5  C   UNL     1     153.841 136.614 161.514  1.00  0.00     0.003 C 
ATOM      6  C   UNL     1     152.603 137.531 161.699  1.00  0.00     0.004 C 
ATOM      7  C   UNL     1     152.733 137.244 163.211  1.00  0.00     0.024 C 
ATOM      8  C   UNL     1     153.379 135.896 162.812  1.00  0.00    -0.022 C 
ATOM      9  C   UNL     1     152.248 134.875 162.494  1.00  0.00     0.008 C 
ATOM     10  C   UNL     1     151.378 135.324 161.295  1.00  0.00     0.005 C 
ATOM     11  C   UNL     1     151.287 136.877 161.159  1.00  0.00    -0.005 C 
ATOM     12  C   UNL     1     154.442 135.271 163.751  1.00  0.00     0.012 C 
ENDROOT
BRANCH  11  13
ATOM     13  C   UNL     1     150.951 137.373 159.709  1.00  0.00    -0.014 C 
ATOM     14  C   UNL     1     151.153 136.292 158.625  1.00  0.00     0.007 C 
ATOM     15  C   UNL     1     149.497 137.878 159.621  1.00  0.00     0.007 C 
ENDBRANCH  11  13
TORSDOF 1
ENDMDL
