MODEL 1
REMARK VINA RESULT:    -5.537      0.000      0.000
REMARK INTER + INTRA:          -5.537
REMARK INTER:                  -5.537
REMARK INTRA:                   0.000
REMARK UNBOUND:                 0.000
REMARK SMILES C=C1CCC[C@@]2(C)CC(=O)C(=C(C)C)C[C@@H]12
REMARK SMILES IDX 13 1 12 2 11 3 15 4 16 5 2 6 1 7 3 8 4 9 5 10 6 11 8 12 9 13
REMARK SMILES IDX 10 14 7 15 14 16
REMARK H PARENT
REMARK Flexibility Score: inf
ROOT
ATOM      1  C   UNL     1      -3.255  12.023  -6.720  1.00  0.00     0.039 C 
ATOM      2  C   UNL     1      -3.890  12.670  -5.510  1.00  0.00    -0.070 C 
ATOM      3  C   UNL     1      -5.182  12.406  -5.163  1.00  0.00    -0.006 C 
ATOM      4  C   UNL     1      -6.052  11.453  -5.959  1.00  0.00     0.047 C 
ATOM      5  C   UNL     1      -7.546  11.869  -5.995  1.00  0.00     0.025 C 
ATOM      6  C   UNL     1      -8.353  10.732  -6.601  1.00  0.00    -0.073 C 
ATOM      7  C   UNL     1      -8.700  10.757  -7.897  1.00  0.00     0.008 C 
ATOM      8  C   UNL     1      -8.619   9.500  -5.761  1.00  0.00     0.031 C 
ATOM      9  C   UNL     1      -9.103   9.870  -4.352  1.00  0.00     0.005 C 
ATOM     10  C   UNL     1      -8.256  10.980  -3.704  1.00  0.00     0.008 C 
ATOM     11  C   UNL     1      -8.133  12.250  -4.598  1.00  0.00    -0.018 C 
ATOM     12  C   UNL     1      -7.231  13.305  -3.905  1.00  0.00     0.088 C 
ATOM     13  C   UNL     1      -5.786  12.922  -3.913  1.00  0.00     0.159 C 
ATOM     14  O   UNL     1      -5.108  13.043  -2.859  1.00  0.00    -0.295 OA
ATOM     15  C   UNL     1      -9.529  12.902  -4.779  1.00  0.00     0.012 C 
ATOM     16  C   UNL     1      -3.047  13.650  -4.727  1.00  0.00     0.039 C 
ENDROOT
TORSDOF 0
ENDMDL
MODEL 2
REMARK VINA RESULT:    -5.355     14.249     15.639
REMARK INTER + INTRA:          -5.355
REMARK INTER:                  -5.355
REMARK INTRA:                   0.000
REMARK UNBOUND:                 0.000
REMARK SMILES C=C1CCC[C@@]2(C)CC(=O)C(=C(C)C)C[C@@H]12
REMARK SMILES IDX 13 1 12 2 11 3 15 4 16 5 2 6 1 7 3 8 4 9 5 10 6 11 8 12 9 13
REMARK SMILES IDX 10 14 7 15 14 16
REMARK H PARENT
REMARK Flexibility Score: inf
ROOT
ATOM      1  C   UNL     1       6.413   2.321  -5.410  1.00  0.00     0.039 C 
ATOM      2  C   UNL     1       6.721   3.792  -5.577  1.00  0.00    -0.070 C 
ATOM      3  C   UNL     1       6.581   4.412  -6.784  1.00  0.00    -0.006 C 
ATOM      4  C   UNL     1       6.108   3.672  -8.020  1.00  0.00     0.047 C 
ATOM      5  C   UNL     1       6.760   4.186  -9.331  1.00  0.00     0.025 C 
ATOM      6  C   UNL     1       6.043   3.551 -10.511  1.00  0.00    -0.073 C 
ATOM      7  C   UNL     1       6.555   2.470 -11.120  1.00  0.00     0.008 C 
ATOM      8  C   UNL     1       4.667   4.060 -10.886  1.00  0.00     0.031 C 
ATOM      9  C   UNL     1       4.626   5.594 -10.936  1.00  0.00     0.005 C 
ATOM     10  C   UNL     1       5.297   6.248  -9.714  1.00  0.00     0.008 C 
ATOM     11  C   UNL     1       6.750   5.741  -9.477  1.00  0.00    -0.018 C 
ATOM     12  C   UNL     1       7.346   6.405  -8.208  1.00  0.00     0.088 C 
ATOM     13  C   UNL     1       6.748   5.874  -6.945  1.00  0.00     0.159 C 
ATOM     14  O   UNL     1       6.395   6.678  -6.042  1.00  0.00    -0.295 OA
ATOM     15  C   UNL     1       7.654   6.158 -10.668  1.00  0.00     0.012 C 
ATOM     16  C   UNL     1       7.228   4.535  -4.362  1.00  0.00     0.039 C 
ENDROOT
TORSDOF 0
ENDMDL
MODEL 3
REMARK VINA RESULT:    -5.231     14.740     16.789
REMARK INTER + INTRA:          -5.231
REMARK INTER:                  -5.231
REMARK INTRA:                   0.000
REMARK UNBOUND:                 0.000
REMARK SMILES C=C1CCC[C@@]2(C)CC(=O)C(=C(C)C)C[C@@H]12
REMARK SMILES IDX 13 1 12 2 11 3 15 4 16 5 2 6 1 7 3 8 4 9 5 10 6 11 8 12 9 13
REMARK SMILES IDX 10 14 7 15 14 16
REMARK H PARENT
REMARK Flexibility Score: inf
ROOT
ATOM      1  C   UNL     1       3.368   3.332 -10.581  1.00  0.00     0.039 C 
ATOM      2  C   UNL     1       4.306   2.188 -10.269  1.00  0.00    -0.070 C 
ATOM      3  C   UNL     1       5.239   2.286  -9.280  1.00  0.00    -0.006 C 
ATOM      4  C   UNL     1       5.390   3.537  -8.436  1.00  0.00     0.047 C 
ATOM      5  C   UNL     1       6.856   3.826  -8.021  1.00  0.00     0.025 C 
ATOM      6  C   UNL     1       6.859   4.944  -6.992  1.00  0.00    -0.073 C 
ATOM      7  C   UNL     1       7.108   6.211  -7.361  1.00  0.00     0.008 C 
ATOM      8  C   UNL     1       6.421   4.632  -5.576  1.00  0.00     0.031 C 
ATOM      9  C   UNL     1       7.086   3.354  -5.048  1.00  0.00     0.005 C 
ATOM     10  C   UNL     1       7.035   2.194  -6.059  1.00  0.00     0.008 C 
ATOM     11  C   UNL     1       7.611   2.581  -7.454  1.00  0.00    -0.018 C 
ATOM     12  C   UNL     1       7.487   1.384  -8.433  1.00  0.00     0.088 C 
ATOM     13  C   UNL     1       6.078   1.138  -8.867  1.00  0.00     0.159 C 
ATOM     14  O   UNL     1       5.628  -0.038  -8.873  1.00  0.00    -0.295 OA
ATOM     15  C   UNL     1       9.124   2.902  -7.328  1.00  0.00     0.012 C 
ATOM     16  C   UNL     1       4.192   0.947 -11.125  1.00  0.00     0.039 C 
ENDROOT
TORSDOF 0
ENDMDL
MODEL 4
REMARK VINA RESULT:    -5.168      1.370      1.689
REMARK INTER + INTRA:          -5.168
REMARK INTER:                  -5.168
REMARK INTRA:                   0.000
REMARK UNBOUND:                 0.000
REMARK SMILES C=C1CCC[C@@]2(C)CC(=O)C(=C(C)C)C[C@@H]12
REMARK SMILES IDX 13 1 12 2 11 3 15 4 16 5 2 6 1 7 3 8 4 9 5 10 6 11 8 12 9 13
REMARK SMILES IDX 10 14 7 15 14 16
REMARK H PARENT
REMARK Flexibility Score: inf
ROOT
ATOM      1  C   UNL     1      -2.557  11.826  -8.134  1.00  0.00     0.039 C 
ATOM      2  C   UNL     1      -2.811  12.728  -6.947  1.00  0.00    -0.070 C 
ATOM      3  C   UNL     1      -4.014  12.731  -6.306  1.00  0.00    -0.006 C 
ATOM      4  C   UNL     1      -5.160  11.836  -6.737  1.00  0.00     0.047 C 
ATOM      5  C   UNL     1      -6.555  12.484  -6.538  1.00  0.00     0.025 C 
ATOM      6  C   UNL     1      -7.621  11.425  -6.769  1.00  0.00    -0.073 C 
ATOM      7  C   UNL     1      -8.246  11.332  -7.953  1.00  0.00     0.008 C 
ATOM      8  C   UNL     1      -7.851  10.380  -5.697  1.00  0.00     0.031 C 
ATOM      9  C   UNL     1      -7.951  11.011  -4.302  1.00  0.00     0.005 C 
ATOM     10  C   UNL     1      -6.839  12.043  -4.035  1.00  0.00     0.008 C 
ATOM     11  C   UNL     1      -6.755  13.142  -5.135  1.00  0.00    -0.018 C 
ATOM     12  C   UNL     1      -5.588  14.117  -4.827  1.00  0.00     0.088 C 
ATOM     13  C   UNL     1      -4.246  13.503  -5.064  1.00  0.00     0.159 C 
ATOM     14  O   UNL     1      -3.337  13.651  -4.205  1.00  0.00    -0.295 OA
ATOM     15  C   UNL     1      -8.057  13.987  -5.136  1.00  0.00     0.012 C 
ATOM     16  C   UNL     1      -1.691  13.651  -6.527  1.00  0.00     0.039 C 
ENDROOT
TORSDOF 0
ENDMDL
MODEL 5
REMARK VINA RESULT:    -5.025     14.824     17.354
REMARK INTER + INTRA:          -5.025
REMARK INTER:                  -5.025
REMARK INTRA:                   0.000
REMARK UNBOUND:                 0.000
REMARK SMILES C=C1CCC[C@@]2(C)CC(=O)C(=C(C)C)C[C@@H]12
REMARK SMILES IDX 13 1 12 2 11 3 15 4 16 5 2 6 1 7 3 8 4 9 5 10 6 11 8 12 9 13
REMARK SMILES IDX 10 14 7 15 14 16
REMARK H PARENT
REMARK Flexibility Score: inf
ROOT
ATOM      1  C   UNL     1       7.122   4.173  -4.464  1.00  0.00     0.039 C 
ATOM      2  C   UNL     1       8.056   3.234  -5.194  1.00  0.00    -0.070 C 
ATOM      3  C   UNL     1       7.918   2.997  -6.530  1.00  0.00    -0.006 C 
ATOM      4  C   UNL     1       6.833   3.657  -7.359  1.00  0.00     0.047 C 
ATOM      5  C   UNL     1       6.292   2.751  -8.496  1.00  0.00     0.025 C 
ATOM      6  C   UNL     1       5.399   3.587  -9.399  1.00  0.00    -0.073 C 
ATOM      7  C   UNL     1       4.066   3.564  -9.252  1.00  0.00     0.008 C 
ATOM      8  C   UNL     1       6.046   4.564 -10.358  1.00  0.00     0.031 C 
ATOM      9  C   UNL     1       7.209   3.919 -11.125  1.00  0.00     0.005 C 
ATOM     10  C   UNL     1       8.154   3.119 -10.210  1.00  0.00     0.008 C 
ATOM     11  C   UNL     1       7.408   2.062  -9.343  1.00  0.00    -0.018 C 
ATOM     12  C   UNL     1       8.412   1.328  -8.416  1.00  0.00     0.088 C 
ATOM     13  C   UNL     1       8.896   2.189  -7.294  1.00  0.00     0.159 C 
ATOM     14  O   UNL     1      10.125   2.215  -7.019  1.00  0.00    -0.295 OA
ATOM     15  C   UNL     1       6.774   0.983 -10.261  1.00  0.00     0.012 C 
ATOM     16  C   UNL     1       9.121   2.541  -4.376  1.00  0.00     0.039 C 
ENDROOT
TORSDOF 0
ENDMDL
MODEL 6
REMARK VINA RESULT:    -4.985     14.764     16.521
REMARK INTER + INTRA:          -4.985
REMARK INTER:                  -4.985
REMARK INTRA:                   0.000
REMARK UNBOUND:                 0.000
REMARK SMILES C=C1CCC[C@@]2(C)CC(=O)C(=C(C)C)C[C@@H]12
REMARK SMILES IDX 13 1 12 2 11 3 15 4 16 5 2 6 1 7 3 8 4 9 5 10 6 11 8 12 9 13
REMARK SMILES IDX 10 14 7 15 14 16
REMARK H PARENT
REMARK Flexibility Score: inf
ROOT
ATOM      1  C   UNL     1       8.657   1.020  -5.533  1.00  0.00     0.039 C 
ATOM      2  C   UNL     1       8.003   2.383  -5.534  1.00  0.00    -0.070 C 
ATOM      3  C   UNL     1       7.273   2.817  -6.601  1.00  0.00    -0.006 C 
ATOM      4  C   UNL     1       7.071   1.967  -7.840  1.00  0.00     0.047 C 
ATOM      5  C   UNL     1       7.002   2.794  -9.150  1.00  0.00     0.025 C 
ATOM      6  C   UNL     1       6.560   1.880 -10.281  1.00  0.00    -0.073 C 
ATOM      7  C   UNL     1       7.463   1.336 -11.111  1.00  0.00     0.008 C 
ATOM      8  C   UNL     1       5.105   1.466 -10.354  1.00  0.00     0.031 C 
ATOM      9  C   UNL     1       4.166   2.666 -10.177  1.00  0.00     0.005 C 
ATOM     10  C   UNL     1       4.569   3.568  -8.996  1.00  0.00     0.008 C 
ATOM     11  C   UNL     1       6.054   4.033  -9.068  1.00  0.00    -0.018 C 
ATOM     12  C   UNL     1       6.403   4.897  -7.827  1.00  0.00     0.088 C 
ATOM     13  C   UNL     1       6.515   4.089  -6.575  1.00  0.00     0.159 C 
ATOM     14  O   UNL     1       5.961   4.501  -5.521  1.00  0.00    -0.295 OA
ATOM     15  C   UNL     1       6.263   4.933 -10.315  1.00  0.00     0.012 C 
ATOM     16  C   UNL     1       8.224   3.258  -4.321  1.00  0.00     0.039 C 
ENDROOT
TORSDOF 0
ENDMDL
MODEL 7
REMARK VINA RESULT:    -4.973     14.459     15.834
REMARK INTER + INTRA:          -4.973
REMARK INTER:                  -4.973
REMARK INTRA:                   0.000
REMARK UNBOUND:                 0.000
REMARK SMILES C=C1CCC[C@@]2(C)CC(=O)C(=C(C)C)C[C@@H]12
REMARK SMILES IDX 13 1 12 2 11 3 15 4 16 5 2 6 1 7 3 8 4 9 5 10 6 11 8 12 9 13
REMARK SMILES IDX 10 14 7 15 14 16
REMARK H PARENT
REMARK Flexibility Score: inf
ROOT
ATOM      1  C   UNL     1       7.122   4.764  -4.670  1.00  0.00     0.039 C 
ATOM      2  C   UNL     1       6.444   4.068  -5.828  1.00  0.00    -0.070 C 
ATOM      3  C   UNL     1       6.475   4.593  -7.086  1.00  0.00    -0.006 C 
ATOM      4  C   UNL     1       7.187   5.895  -7.399  1.00  0.00     0.047 C 
ATOM      5  C   UNL     1       6.488   6.728  -8.505  1.00  0.00     0.025 C 
ATOM      6  C   UNL     1       7.405   7.873  -8.904  1.00  0.00    -0.073 C 
ATOM      7  C   UNL     1       7.229   9.100  -8.389  1.00  0.00     0.008 C 
ATOM      8  C   UNL     1       8.614   7.571  -9.765  1.00  0.00     0.031 C 
ATOM      9  C   UNL     1       8.251   6.675 -10.957  1.00  0.00     0.005 C 
ATOM     10  C   UNL     1       7.371   5.477 -10.554  1.00  0.00     0.008 C 
ATOM     11  C   UNL     1       6.094   5.899  -9.769  1.00  0.00    -0.018 C 
ATOM     12  C   UNL     1       5.281   4.643  -9.357  1.00  0.00     0.088 C 
ATOM     13  C   UNL     1       5.935   3.869  -8.259  1.00  0.00     0.159 C 
ATOM     14  O   UNL     1       6.017   2.615  -8.350  1.00  0.00    -0.295 OA
ATOM     15  C   UNL     1       5.172   6.750 -10.683  1.00  0.00     0.012 C 
ATOM     16  C   UNL     1       5.700   2.788  -5.526  1.00  0.00     0.039 C 
ENDROOT
TORSDOF 0
ENDMDL
MODEL 8
REMARK VINA RESULT:    -4.925     14.376     15.706
REMARK INTER + INTRA:          -4.925
REMARK INTER:                  -4.925
REMARK INTRA:                   0.000
REMARK UNBOUND:                 0.000
REMARK SMILES C=C1CCC[C@@]2(C)CC(=O)C(=C(C)C)C[C@@H]12
REMARK SMILES IDX 13 1 12 2 11 3 15 4 16 5 2 6 1 7 3 8 4 9 5 10 6 11 8 12 9 13
REMARK SMILES IDX 10 14 7 15 14 16
REMARK H PARENT
REMARK Flexibility Score: inf
ROOT
ATOM      1  C   UNL     1       6.305   7.942 -11.125  1.00  0.00     0.039 C 
ATOM      2  C   UNL     1       7.147   7.549  -9.932  1.00  0.00    -0.070 C 
ATOM      3  C   UNL     1       7.032   6.317  -9.359  1.00  0.00    -0.006 C 
ATOM      4  C   UNL     1       6.064   5.272  -9.881  1.00  0.00     0.047 C 
ATOM      5  C   UNL     1       5.461   4.380  -8.765  1.00  0.00     0.025 C 
ATOM      6  C   UNL     1       4.709   3.230  -9.414  1.00  0.00    -0.073 C 
ATOM      7  C   UNL     1       3.377   3.288  -9.572  1.00  0.00     0.008 C 
ATOM      8  C   UNL     1       5.502   2.093 -10.024  1.00  0.00     0.031 C 
ATOM      9  C   UNL     1       6.607   1.604  -9.078  1.00  0.00     0.005 C 
ATOM     10  C   UNL     1       7.416   2.760  -8.460  1.00  0.00     0.008 C 
ATOM     11  C   UNL     1       6.518   3.822  -7.759  1.00  0.00    -0.018 C 
ATOM     12  C   UNL     1       7.392   4.976  -7.201  1.00  0.00     0.088 C 
ATOM     13  C   UNL     1       7.934   5.861  -8.277  1.00  0.00     0.159 C 
ATOM     14  O   UNL     1       9.146   6.201  -8.247  1.00  0.00    -0.295 OA
ATOM     15  C   UNL     1       5.794   3.180  -6.545  1.00  0.00     0.012 C 
ATOM     16  C   UNL     1       8.091   8.591  -9.377  1.00  0.00     0.039 C 
ENDROOT
TORSDOF 0
ENDMDL
MODEL 9
REMARK VINA RESULT:    -4.864     14.951     17.555
REMARK INTER + INTRA:          -4.864
REMARK INTER:                  -4.864
REMARK INTRA:                   0.000
REMARK UNBOUND:                 0.000
REMARK SMILES C=C1CCC[C@@]2(C)CC(=O)C(=C(C)C)C[C@@H]12
REMARK SMILES IDX 13 1 12 2 11 3 15 4 16 5 2 6 1 7 3 8 4 9 5 10 6 11 8 12 9 13
REMARK SMILES IDX 10 14 7 15 14 16
REMARK H PARENT
REMARK Flexibility Score: inf
ROOT
ATOM      1  C   UNL     1      10.101   2.366  -4.375  1.00  0.00     0.039 C 
ATOM      2  C   UNL     1       9.488   1.544  -5.487  1.00  0.00    -0.070 C 
ATOM      3  C   UNL     1       8.712   2.121  -6.448  1.00  0.00    -0.006 C 
ATOM      4  C   UNL     1       8.421   3.609  -6.464  1.00  0.00     0.047 C 
ATOM      5  C   UNL     1       7.005   3.953  -6.995  1.00  0.00     0.025 C 
ATOM      6  C   UNL     1       6.912   5.457  -7.195  1.00  0.00    -0.073 C 
ATOM      7  C   UNL     1       6.345   6.236  -6.261  1.00  0.00     0.008 C 
ATOM      8  C   UNL     1       7.612   6.076  -8.387  1.00  0.00     0.031 C 
ATOM      9  C   UNL     1       7.323   5.299  -9.678  1.00  0.00     0.005 C 
ATOM     10  C   UNL     1       7.473   3.776  -9.503  1.00  0.00     0.008 C 
ATOM     11  C   UNL     1       6.628   3.217  -8.320  1.00  0.00    -0.018 C 
ATOM     12  C   UNL     1       6.861   1.690  -8.173  1.00  0.00     0.088 C 
ATOM     13  C   UNL     1       8.210   1.364  -7.618  1.00  0.00     0.159 C 
ATOM     14  O   UNL     1       8.897   0.455  -8.155  1.00  0.00    -0.295 OA
ATOM     15  C   UNL     1       5.116   3.414  -8.614  1.00  0.00     0.012 C 
ATOM     16  C   UNL     1       9.740   0.054  -5.465  1.00  0.00     0.039 C 
ENDROOT
TORSDOF 0
ENDMDL
