MODEL 1
REMARK VINA RESULT:    -3.938      0.000      0.000
REMARK INTER + INTRA:          -3.938
REMARK INTER:                  -3.938
REMARK INTRA:                   0.000
REMARK UNBOUND:                 0.000
REMARK SMILES C=C1[C@@H]2CC[C@@H](C2)C1(C)C
REMARK SMILES IDX 9 1 8 2 6 3 5 4 4 5 3 6 7 7 2 8 1 9 10 10
REMARK H PARENT
REMARK Flexibility Score: inf
ROOT
ATOM      1  C   UNL     1      13.300   6.724  19.218  1.00  0.00     0.016 C 
ATOM      2  C   UNL     1      12.620   5.911  18.092  1.00  0.00    -0.012 C 
ATOM      3  C   UNL     1      11.103   6.252  17.890  1.00  0.00    -0.001 C 
ATOM      4  C   UNL     1      10.879   7.782  17.807  1.00  0.00     0.005 C 
ATOM      5  C   UNL     1      11.552   8.155  16.470  1.00  0.00     0.008 C 
ATOM      6  C   UNL     1      11.977   6.789  15.903  1.00  0.00     0.015 C 
ATOM      7  C   UNL     1      10.876   5.893  16.424  1.00  0.00     0.012 C 
ATOM      8  C   UNL     1      13.137   6.300  16.728  1.00  0.00    -0.068 C 
ATOM      9  C   UNL     1      14.413   6.273  16.323  1.00  0.00     0.008 C 
ATOM     10  C   UNL     1      12.826   4.404  18.366  1.00  0.00     0.016 C 
ENDROOT
TORSDOF 0
ENDMDL
MODEL 2
REMARK VINA RESULT:    -3.731      1.139      3.111
REMARK INTER + INTRA:          -3.731
REMARK INTER:                  -3.731
REMARK INTRA:                   0.000
REMARK UNBOUND:                 0.000
REMARK SMILES C=C1[C@@H]2CC[C@@H](C2)C1(C)C
REMARK SMILES IDX 9 1 8 2 6 3 5 4 4 5 3 6 7 7 2 8 1 9 10 10
REMARK H PARENT
REMARK Flexibility Score: inf
ROOT
ATOM      1  C   UNL     1      13.396   8.465  17.297  1.00  0.00     0.016 C 
ATOM      2  C   UNL     1      12.022   7.779  17.116  1.00  0.00    -0.012 C 
ATOM      3  C   UNL     1      11.993   6.710  15.968  1.00  0.00    -0.001 C 
ATOM      4  C   UNL     1      13.191   5.736  16.079  1.00  0.00     0.005 C 
ATOM      5  C   UNL     1      12.873   4.946  17.367  1.00  0.00     0.008 C 
ATOM      6  C   UNL     1      11.489   5.485  17.769  1.00  0.00     0.015 C 
ATOM      7  C   UNL     1      10.875   5.773  16.418  1.00  0.00     0.012 C 
ATOM      8  C   UNL     1      11.682   6.886  18.284  1.00  0.00    -0.068 C 
ATOM      9  C   UNL     1      11.615   7.250  19.570  1.00  0.00     0.008 C 
ATOM     10  C   UNL     1      10.944   8.864  16.900  1.00  0.00     0.016 C 
ENDROOT
TORSDOF 0
ENDMDL
MODEL 3
REMARK VINA RESULT:    -3.705      1.127      2.593
REMARK INTER + INTRA:          -3.705
REMARK INTER:                  -3.705
REMARK INTRA:                   0.000
REMARK UNBOUND:                 0.000
REMARK SMILES C=C1[C@@H]2CC[C@@H](C2)C1(C)C
REMARK SMILES IDX 9 1 8 2 6 3 5 4 4 5 3 6 7 7 2 8 1 9 10 10
REMARK H PARENT
REMARK Flexibility Score: inf
ROOT
ATOM      1  C   UNL     1      14.225   7.366  17.263  1.00  0.00     0.016 C 
ATOM      2  C   UNL     1      13.459   6.036  17.075  1.00  0.00    -0.012 C 
ATOM      3  C   UNL     1      13.375   5.162  18.375  1.00  0.00    -0.001 C 
ATOM      4  C   UNL     1      12.914   6.006  19.588  1.00  0.00     0.005 C 
ATOM      5  C   UNL     1      11.449   6.340  19.237  1.00  0.00     0.008 C 
ATOM      6  C   UNL     1      11.220   5.558  17.931  1.00  0.00     0.015 C 
ATOM      7  C   UNL     1      12.104   4.350  18.146  1.00  0.00     0.012 C 
ATOM      8  C   UNL     1      11.985   6.264  16.844  1.00  0.00    -0.068 C 
ATOM      9  C   UNL     1      11.438   7.009  15.876  1.00  0.00     0.008 C 
ATOM     10  C   UNL     1      14.099   5.248  15.910  1.00  0.00     0.016 C 
ENDROOT
TORSDOF 0
ENDMDL
MODEL 4
REMARK VINA RESULT:    -3.510      1.416      3.650
REMARK INTER + INTRA:          -3.510
REMARK INTER:                  -3.510
REMARK INTRA:                   0.000
REMARK UNBOUND:                 0.000
REMARK SMILES C=C1[C@@H]2CC[C@@H](C2)C1(C)C
REMARK SMILES IDX 9 1 8 2 6 3 5 4 4 5 3 6 7 7 2 8 1 9 10 10
REMARK H PARENT
REMARK Flexibility Score: inf
ROOT
ATOM      1  C   UNL     1      13.185   7.359  18.030  1.00  0.00     0.016 C 
ATOM      2  C   UNL     1      13.219   6.235  16.968  1.00  0.00    -0.012 C 
ATOM      3  C   UNL     1      14.626   6.034  16.302  1.00  0.00    -0.001 C 
ATOM      4  C   UNL     1      15.743   5.946  17.370  1.00  0.00     0.005 C 
ATOM      5  C   UNL     1      15.440   4.607  18.075  1.00  0.00     0.008 C 
ATOM      6  C   UNL     1      14.264   4.045  17.257  1.00  0.00     0.015 C 
ATOM      7  C   UNL     1      14.581   4.570  15.875  1.00  0.00     0.012 C 
ATOM      8  C   UNL     1      13.049   4.870  17.588  1.00  0.00    -0.068 C 
ATOM      9  C   UNL     1      12.027   4.465  18.351  1.00  0.00     0.008 C 
ATOM     10  C   UNL     1      12.131   6.515  15.907  1.00  0.00     0.016 C 
ENDROOT
TORSDOF 0
ENDMDL
MODEL 5
REMARK VINA RESULT:    -3.439      1.071      2.081
REMARK INTER + INTRA:          -3.439
REMARK INTER:                  -3.439
REMARK INTRA:                   0.000
REMARK UNBOUND:                 0.000
REMARK SMILES C=C1[C@@H]2CC[C@@H](C2)C1(C)C
REMARK SMILES IDX 9 1 8 2 6 3 5 4 4 5 3 6 7 7 2 8 1 9 10 10
REMARK H PARENT
REMARK Flexibility Score: inf
ROOT
ATOM      1  C   UNL     1      13.288   4.198  18.056  1.00  0.00     0.016 C 
ATOM      2  C   UNL     1      13.394   5.338  17.016  1.00  0.00    -0.012 C 
ATOM      3  C   UNL     1      12.048   5.644  16.270  1.00  0.00    -0.001 C 
ATOM      4  C   UNL     1      10.875   5.790  17.270  1.00  0.00     0.005 C 
ATOM      5  C   UNL     1      11.222   7.094  18.018  1.00  0.00     0.008 C 
ATOM      6  C   UNL     1      12.481   7.589  17.284  1.00  0.00     0.015 C 
ATOM      7  C   UNL     1      12.216   7.108  15.876  1.00  0.00     0.012 C 
ATOM      8  C   UNL     1      13.615   6.679  17.672  1.00  0.00    -0.068 C 
ATOM      9  C   UNL     1      14.613   7.003  18.503  1.00  0.00     0.008 C 
ATOM     10  C   UNL     1      14.525   5.002  16.018  1.00  0.00     0.016 C 
ENDROOT
TORSDOF 0
ENDMDL
MODEL 6
REMARK VINA RESULT:    -3.384      1.047      2.507
REMARK INTER + INTRA:          -3.384
REMARK INTER:                  -3.384
REMARK INTRA:                   0.000
REMARK UNBOUND:                 0.000
REMARK SMILES C=C1[C@@H]2CC[C@@H](C2)C1(C)C
REMARK SMILES IDX 9 1 8 2 6 3 5 4 4 5 3 6 7 7 2 8 1 9 10 10
REMARK H PARENT
REMARK Flexibility Score: inf
ROOT
ATOM      1  C   UNL     1      13.700   6.907  19.397  1.00  0.00     0.016 C 
ATOM      2  C   UNL     1      12.677   6.675  18.260  1.00  0.00    -0.012 C 
ATOM      3  C   UNL     1      12.936   7.551  16.985  1.00  0.00    -0.001 C 
ATOM      4  C   UNL     1      14.418   7.475  16.544  1.00  0.00     0.005 C 
ATOM      5  C   UNL     1      14.558   6.016  16.061  1.00  0.00     0.008 C 
ATOM      6  C   UNL     1      13.122   5.474  16.179  1.00  0.00     0.015 C 
ATOM      7  C   UNL     1      12.308   6.712  15.876  1.00  0.00     0.012 C 
ATOM      8  C   UNL     1      12.823   5.305  17.644  1.00  0.00    -0.068 C 
ATOM      9  C   UNL     1      12.756   4.133  18.286  1.00  0.00     0.008 C 
ATOM     10  C   UNL     1      11.252   6.898  18.815  1.00  0.00     0.016 C 
ENDROOT
TORSDOF 0
ENDMDL
MODEL 7
REMARK VINA RESULT:    -3.315      1.346      2.540
REMARK INTER + INTRA:          -3.315
REMARK INTER:                  -3.315
REMARK INTRA:                   0.000
REMARK UNBOUND:                 0.000
REMARK SMILES C=C1[C@@H]2CC[C@@H](C2)C1(C)C
REMARK SMILES IDX 9 1 8 2 6 3 5 4 4 5 3 6 7 7 2 8 1 9 10 10
REMARK H PARENT
REMARK Flexibility Score: inf
ROOT
ATOM      1  C   UNL     1      14.164   6.728  19.800  1.00  0.00     0.016 C 
ATOM      2  C   UNL     1      12.730   6.170  19.646  1.00  0.00    -0.012 C 
ATOM      3  C   UNL     1      11.876   6.906  18.554  1.00  0.00    -0.001 C 
ATOM      4  C   UNL     1      12.661   7.042  17.227  1.00  0.00     0.005 C 
ATOM      5  C   UNL     1      12.762   5.582  16.737  1.00  0.00     0.008 C 
ATOM      6  C   UNL     1      11.933   4.810  17.778  1.00  0.00     0.015 C 
ATOM      7  C   UNL     1      10.877   5.830  18.137  1.00  0.00     0.012 C 
ATOM      8  C   UNL     1      12.727   4.781  19.056  1.00  0.00    -0.068 C 
ATOM      9  C   UNL     1      13.364   3.709  19.543  1.00  0.00     0.008 C 
ATOM     10  C   UNL     1      12.029   6.202  21.022  1.00  0.00     0.016 C 
ENDROOT
TORSDOF 0
ENDMDL
MODEL 8
REMARK VINA RESULT:    -3.288      0.696      2.280
REMARK INTER + INTRA:          -3.288
REMARK INTER:                  -3.288
REMARK INTRA:                   0.000
REMARK UNBOUND:                 0.000
REMARK SMILES C=C1[C@@H]2CC[C@@H](C2)C1(C)C
REMARK SMILES IDX 9 1 8 2 6 3 5 4 4 5 3 6 7 7 2 8 1 9 10 10
REMARK H PARENT
REMARK Flexibility Score: inf
ROOT
ATOM      1  C   UNL     1      14.345   6.384  16.733  1.00  0.00     0.016 C 
ATOM      2  C   UNL     1      13.211   6.594  17.764  1.00  0.00    -0.012 C 
ATOM      3  C   UNL     1      12.151   7.666  17.332  1.00  0.00    -0.001 C 
ATOM      4  C   UNL     1      11.668   7.423  15.881  1.00  0.00     0.005 C 
ATOM      5  C   UNL     1      10.875   6.105  15.999  1.00  0.00     0.008 C 
ATOM      6  C   UNL     1      10.908   5.817  17.511  1.00  0.00     0.015 C 
ATOM      7  C   UNL     1      10.901   7.216  18.083  1.00  0.00     0.012 C 
ATOM      8  C   UNL     1      12.308   5.388  17.858  1.00  0.00    -0.068 C 
ATOM      9  C   UNL     1      12.681   4.135  18.145  1.00  0.00     0.008 C 
ATOM     10  C   UNL     1      13.836   6.941  19.133  1.00  0.00     0.016 C 
ENDROOT
TORSDOF 0
ENDMDL
MODEL 9
REMARK VINA RESULT:    -3.280      2.351      3.699
REMARK INTER + INTRA:          -3.280
REMARK INTER:                  -3.280
REMARK INTRA:                   0.000
REMARK UNBOUND:                 0.000
REMARK SMILES C=C1[C@@H]2CC[C@@H](C2)C1(C)C
REMARK SMILES IDX 9 1 8 2 6 3 5 4 4 5 3 6 7 7 2 8 1 9 10 10
REMARK H PARENT
REMARK Flexibility Score: inf
ROOT
ATOM      1  C   UNL     1      16.177   5.958  18.736  1.00  0.00     0.016 C 
ATOM      2  C   UNL     1      15.956   5.438  17.297  1.00  0.00    -0.012 C 
ATOM      3  C   UNL     1      15.316   4.007  17.230  1.00  0.00    -0.001 C 
ATOM      4  C   UNL     1      14.075   3.905  18.150  1.00  0.00     0.005 C 
ATOM      5  C   UNL     1      13.055   4.831  17.454  1.00  0.00     0.008 C 
ATOM      6  C   UNL     1      13.794   5.257  16.173  1.00  0.00     0.015 C 
ATOM      7  C   UNL     1      14.614   4.023  15.875  1.00  0.00     0.012 C 
ATOM      8  C   UNL     1      14.882   6.215  16.576  1.00  0.00    -0.068 C 
ATOM      9  C   UNL     1      14.858   7.538  16.373  1.00  0.00     0.008 C 
ATOM     10  C   UNL     1      17.299   5.488  16.533  1.00  0.00     0.016 C 
ENDROOT
TORSDOF 0
ENDMDL
