MODEL 1
REMARK VINA RESULT:    -4.282      0.000      0.000
REMARK INTER + INTRA:          -6.922
REMARK INTER:                  -6.535
REMARK INTRA:                  -0.387
REMARK UNBOUND:                -0.387
REMARK SMILES CC1=CCC[C@@H](C)C(=O)C[C@H](C(C)C)C(=O)C1
REMARK SMILES IDX 8 1 9 2 6 3 7 4 5 5 4 6 3 7 2 8 1 9 10 11 11 12 15 13 16 14
REMARK SMILES IDX 17 15 12 17 13 18 14 19
REMARK H PARENT
REMARK Flexibility Score: 70.00
ROOT
ATOM      1  C   UNL     1      33.930  20.569  23.635  1.00  0.00     0.136 C 
ATOM      2  O   UNL     1      34.945  20.047  23.196  1.00  0.00    -0.299 OA
ENDROOT
BRANCH   1   3
ATOM      3  C   UNL     1      33.720  20.591  25.139  1.00  0.00     0.053 C 
ATOM      4  C   UNL     1      34.763  21.479  25.829  1.00  0.00     0.016 C 
BRANCH   3   5
ATOM      5  C   UNL     1      33.711  19.175  25.748  1.00  0.00     0.015 C 
BRANCH   5   6
ATOM      6  C   UNL     1      32.540  18.310  25.227  1.00  0.00     0.028 C 
BRANCH   6   7
ATOM      7  C   UNL     1      31.213  18.959  25.538  1.00  0.00    -0.028 C 
ATOM      8  C   UNL     1      30.198  19.128  24.657  1.00  0.00    -0.070 CG0
ATOM      9  C   UNL     1      28.923  19.752  25.167  1.00  0.00     0.039 C 
ATOM     10  G   UNL     1      30.308  18.782  23.179  1.00  0.00     0.000 G0
ENDBRANCH   6   7
ENDBRANCH   5   6
ENDBRANCH   3   5
ENDBRANCH   1   3
BRANCH   1  11
ATOM     11  C   UNL     1      32.939  21.157  22.650  1.00  0.00     0.087 C 
BRANCH  11  12
ATOM     12  C   UNL     1      32.205  20.095  21.785  1.00  0.00     0.066 C 
BRANCH  12  13
ATOM     13  C   UNL     1      30.761  19.881  22.228  1.00  0.00     0.140 C 
ATOM     14  O   UNL     1      29.901  20.640  21.806  1.00  0.00    -0.299 OA
BRANCH  13  15
ATOM     15  C   UNL     1      30.312  18.775  23.169  1.00  0.00     0.106 CG0
ATOM     16  G   UNL     1      30.179  19.154  24.638  1.00  0.00     0.000 G0
ENDBRANCH  13  15
ENDBRANCH  12  13
BRANCH  12  17
ATOM     17  C   UNL     1      32.326  20.415  20.261  1.00  0.00    -0.006 C 
ATOM     18  C   UNL     1      32.153  19.194  19.338  1.00  0.00     0.008 C 
ATOM     19  C   UNL     1      33.657  21.113  19.945  1.00  0.00     0.008 C 
ENDBRANCH  12  17
ENDBRANCH  11  12
ENDBRANCH   1  11
TORSDOF 1
ENDMDL
MODEL 2
REMARK VINA RESULT:    -4.265      1.635      4.236
REMARK INTER + INTRA:          -6.897
REMARK INTER:                  -6.624
REMARK INTRA:                  -0.273
REMARK UNBOUND:                -0.387
REMARK SMILES CC1=CCC[C@@H](C)C(=O)C[C@H](C(C)C)C(=O)C1
REMARK SMILES IDX 8 1 9 2 6 3 7 4 5 5 4 6 3 7 2 8 1 9 10 11 11 12 15 13 16 14
REMARK SMILES IDX 17 15 12 17 13 18 14 19
REMARK H PARENT
REMARK Flexibility Score: 70.00
ROOT
ATOM      1  C   UNL     1      33.304  18.924  24.960  1.00  0.00     0.136 C 
ATOM      2  O   UNL     1      33.442  19.407  26.076  1.00  0.00    -0.299 OA
ENDROOT
BRANCH   1   3
ATOM      3  C   UNL     1      34.484  18.970  24.003  1.00  0.00     0.053 C 
ATOM      4  C   UNL     1      35.713  18.284  24.609  1.00  0.00     0.016 C 
BRANCH   3   5
ATOM      5  C   UNL     1      34.816  20.407  23.556  1.00  0.00     0.015 C 
BRANCH   5   6
ATOM      6  C   UNL     1      33.614  21.119  22.894  1.00  0.00     0.028 C 
BRANCH   6   7
ATOM      7  C   UNL     1      33.180  20.392  21.644  1.00  0.00    -0.028 C 
ATOM      8  C   UNL     1      31.897  20.175  21.268  1.00  0.00    -0.070 CG0
ATOM      9  C   UNL     1      31.660  19.474  19.954  1.00  0.00     0.039 C 
ATOM     10  G   UNL     1      30.700  20.544  22.133  1.00  0.00     0.000 G0
ENDBRANCH   6   7
ENDBRANCH   5   6
ENDBRANCH   3   5
ENDBRANCH   1   3
BRANCH   1  11
ATOM     11  C   UNL     1      31.965  18.315  24.598  1.00  0.00     0.087 C 
BRANCH  11  12
ATOM     12  C   UNL     1      30.802  19.343  24.536  1.00  0.00     0.066 C 
BRANCH  12  13
ATOM     13  C   UNL     1      30.238  19.500  23.126  1.00  0.00     0.140 C 
ATOM     14  O   UNL     1      29.347  18.744  22.766  1.00  0.00    -0.299 OA
BRANCH  13  15
ATOM     15  C   UNL     1      30.714  20.542  22.128  1.00  0.00     0.106 CG0
ATOM     16  G   UNL     1      31.903  20.150  21.262  1.00  0.00     0.000 G0
ENDBRANCH  13  15
ENDBRANCH  12  13
BRANCH  12  17
ATOM     17  C   UNL     1      29.698  19.025  25.594  1.00  0.00    -0.006 C 
ATOM     18  C   UNL     1      28.999  20.266  26.179  1.00  0.00     0.008 C 
ATOM     19  C   UNL     1      30.256  18.163  26.736  1.00  0.00     0.008 C 
ENDBRANCH  12  17
ENDBRANCH  11  12
ENDBRANCH   1  11
TORSDOF 1
ENDMDL
MODEL 3
REMARK VINA RESULT:    -4.147      4.349      7.168
REMARK INTER + INTRA:          -6.716
REMARK INTER:                  -6.479
REMARK INTRA:                  -0.237
REMARK UNBOUND:                -0.387
REMARK SMILES CC1=CCC[C@@H](C)C(=O)C[C@H](C(C)C)C(=O)C1
REMARK SMILES IDX 8 1 9 2 6 3 7 4 5 5 4 6 3 7 2 8 1 9 10 11 11 12 15 13 16 14
REMARK SMILES IDX 17 15 12 17 13 18 14 19
REMARK H PARENT
REMARK Flexibility Score: 70.00
ROOT
ATOM      1  C   UNL     1      38.865  18.813  26.967  1.00  0.00     0.136 C 
ATOM      2  O   UNL     1      40.031  19.168  27.062  1.00  0.00    -0.299 OA
ENDROOT
BRANCH   1   3
ATOM      3  C   UNL     1      38.551  17.571  26.150  1.00  0.00     0.053 C 
ATOM      4  C   UNL     1      39.334  17.566  24.832  1.00  0.00     0.016 C 
BRANCH   3   5
ATOM      5  C   UNL     1      37.041  17.405  25.897  1.00  0.00     0.015 C 
BRANCH   5   6
ATOM      6  C   UNL     1      36.567  18.133  24.617  1.00  0.00     0.028 C 
BRANCH   6   7
ATOM      7  C   UNL     1      35.252  18.836  24.854  1.00  0.00    -0.028 C 
ATOM      8  C   UNL     1      35.099  20.168  25.044  1.00  0.00    -0.070 CG0
ATOM      9  C   UNL     1      33.696  20.696  25.212  1.00  0.00     0.039 C 
ATOM     10  G   UNL     1      36.268  21.136  25.161  1.00  0.00     0.000 G0
ENDBRANCH   6   7
ENDBRANCH   5   6
ENDBRANCH   3   5
ENDBRANCH   1   3
BRANCH   1  11
ATOM     11  C   UNL     1      37.801  19.637  27.666  1.00  0.00     0.087 C 
BRANCH  11  12
ATOM     12  C   UNL     1      37.858  21.153  27.329  1.00  0.00     0.066 C 
BRANCH  12  13
ATOM     13  C   UNL     1      36.631  21.624  26.554  1.00  0.00     0.140 C 
ATOM     14  O   UNL     1      35.883  22.435  27.080  1.00  0.00    -0.299 OA
BRANCH  13  15
ATOM     15  C   UNL     1      36.270  21.147  25.157  1.00  0.00     0.106 CG0
ATOM     16  G   UNL     1      35.089  20.192  25.056  1.00  0.00     0.000 G0
ENDBRANCH  13  15
ENDBRANCH  12  13
BRANCH  12  17
ATOM     17  C   UNL     1      38.130  22.013  28.604  1.00  0.00    -0.006 C 
ATOM     18  C   UNL     1      39.431  22.837  28.552  1.00  0.00     0.008 C 
ATOM     19  C   UNL     1      38.124  21.144  29.871  1.00  0.00     0.008 C 
ENDBRANCH  12  17
ENDBRANCH  11  12
ENDBRANCH   1  11
TORSDOF 1
ENDMDL
MODEL 4
REMARK VINA RESULT:    -4.136      4.704      7.354
REMARK INTER + INTRA:          -6.699
REMARK INTER:                  -7.483
REMARK INTRA:                   0.784
REMARK UNBOUND:                -0.387
REMARK SMILES CC1=CCC[C@@H](C)C(=O)C[C@H](C(C)C)C(=O)C1
REMARK SMILES IDX 8 1 9 2 6 3 7 4 5 5 4 6 3 7 2 8 1 9 10 11 11 12 15 13 16 14
REMARK SMILES IDX 17 15 12 17 13 18 14 19
REMARK H PARENT
REMARK Flexibility Score: 70.00
ROOT
ATOM      1  C   UNL     1      32.303  20.231  18.956  1.00  0.00     0.136 C 
ATOM      2  O   UNL     1      31.230  20.813  19.039  1.00  0.00    -0.299 OA
ENDROOT
BRANCH   1   3
ATOM      3  C   UNL     1      33.484  20.775  19.742  1.00  0.00     0.053 C 
ATOM      4  C   UNL     1      33.169  20.833  21.241  1.00  0.00     0.016 C 
BRANCH   3   5
ATOM      5  C   UNL     1      33.948  22.149  19.221  1.00  0.00     0.015 C 
BRANCH   5   6
ATOM      6  C   UNL     1      33.969  22.225  17.677  1.00  0.00     0.028 C 
BRANCH   6   7
ATOM      7  C   UNL     1      34.970  21.251  17.105  1.00  0.00    -0.028 C 
ATOM      8  C   UNL     1      34.797  20.521  15.977  1.00  0.00    -0.070 CG0
ATOM      9  C   UNL     1      35.935  19.637  15.531  1.00  0.00     0.039 C 
ATOM     10  G   UNL     1      33.497  20.502  15.185  1.00  0.00     0.000 G0
ENDBRANCH   6   7
ENDBRANCH   5   6
ENDBRANCH   3   5
ENDBRANCH   1   3
BRANCH   1  11
ATOM     11  C   UNL     1      32.390  19.005  18.068  1.00  0.00     0.087 C 
BRANCH  11  12
ATOM     12  C   UNL     1      31.710  19.182  16.683  1.00  0.00     0.066 C 
BRANCH  12  13
ATOM     13  C   UNL     1      32.199  20.427  15.948  1.00  0.00     0.140 C 
ATOM     14  O   UNL     1      31.510  21.436  15.985  1.00  0.00    -0.299 OA
BRANCH  13  15
ATOM     15  C   UNL     1      33.499  20.500  15.165  1.00  0.00     0.106 CG0
ATOM     16  G   UNL     1      34.780  20.523  15.986  1.00  0.00     0.000 G0
ENDBRANCH  13  15
ENDBRANCH  12  13
BRANCH  12  17
ATOM     17  C   UNL     1      31.829  17.887  15.817  1.00  0.00    -0.006 C 
ATOM     18  C   UNL     1      30.537  17.053  15.736  1.00  0.00     0.008 C 
ATOM     19  C   UNL     1      32.984  16.999  16.303  1.00  0.00     0.008 C 
ENDBRANCH  12  17
ENDBRANCH  11  12
ENDBRANCH   1  11
TORSDOF 1
ENDMDL
MODEL 5
REMARK VINA RESULT:    -4.124      3.586      6.362
REMARK INTER + INTRA:          -6.682
REMARK INTER:                  -6.762
REMARK INTRA:                   0.081
REMARK UNBOUND:                -0.387
REMARK SMILES CC1=CCC[C@@H](C)C(=O)C[C@H](C(C)C)C(=O)C1
REMARK SMILES IDX 8 1 9 2 6 3 7 4 5 5 4 6 3 7 2 8 1 9 10 11 11 12 15 13 16 14
REMARK SMILES IDX 17 15 12 17 13 18 14 19
REMARK H PARENT
REMARK Flexibility Score: 70.00
ROOT
ATOM      1  C   UNL     1      32.775  20.815  15.676  1.00  0.00     0.136 C 
ATOM      2  O   UNL     1      32.470  20.881  14.494  1.00  0.00    -0.299 OA
ENDROOT
BRANCH   1   3
ATOM      3  C   UNL     1      34.110  21.396  16.112  1.00  0.00     0.053 C 
ATOM      4  C   UNL     1      35.205  20.323  16.112  1.00  0.00     0.016 C 
BRANCH   3   5
ATOM      5  C   UNL     1      34.022  22.097  17.481  1.00  0.00     0.015 C 
BRANCH   5   6
ATOM      6  C   UNL     1      34.612  21.242  18.627  1.00  0.00     0.028 C 
BRANCH   6   7
ATOM      7  C   UNL     1      33.897  21.519  19.928  1.00  0.00    -0.028 C 
ATOM      8  C   UNL     1      33.171  20.618  20.631  1.00  0.00    -0.070 CG0
ATOM      9  C   UNL     1      32.572  21.067  21.940  1.00  0.00     0.039 C 
ATOM     10  G   UNL     1      32.881  19.208  20.134  1.00  0.00     0.000 G0
ENDBRANCH   6   7
ENDBRANCH   5   6
ENDBRANCH   3   5
ENDBRANCH   1   3
BRANCH   1  11
ATOM     11  C   UNL     1      31.805  20.153  16.635  1.00  0.00     0.087 C 
BRANCH  11  12
ATOM     12  C   UNL     1      32.442  19.028  17.496  1.00  0.00     0.066 C 
BRANCH  12  13
ATOM     13  C   UNL     1      31.960  19.060  18.944  1.00  0.00     0.140 C 
ATOM     14  O   UNL     1      30.760  18.974  19.163  1.00  0.00    -0.299 OA
BRANCH  13  15
ATOM     15  C   UNL     1      32.880  19.193  20.146  1.00  0.00     0.106 CG0
ATOM     16  G   UNL     1      33.153  20.610  20.631  1.00  0.00     0.000 G0
ENDBRANCH  13  15
ENDBRANCH  12  13
BRANCH  12  17
ATOM     17  C   UNL     1      32.259  17.626  16.832  1.00  0.00    -0.006 C 
ATOM     18  C   UNL     1      33.528  17.069  16.160  1.00  0.00     0.008 C 
ATOM     19  C   UNL     1      31.105  17.638  15.819  1.00  0.00     0.008 C 
ENDBRANCH  12  17
ENDBRANCH  11  12
ENDBRANCH   1  11
TORSDOF 1
ENDMDL
MODEL 6
REMARK VINA RESULT:    -4.093      4.705      6.832
REMARK INTER + INTRA:          -6.633
REMARK INTER:                  -6.471
REMARK INTRA:                  -0.162
REMARK UNBOUND:                -0.387
REMARK SMILES CC1=CCC[C@@H](C)C(=O)C[C@H](C(C)C)C(=O)C1
REMARK SMILES IDX 8 1 9 2 6 3 7 4 5 5 4 6 3 7 2 8 1 9 10 11 11 12 15 13 16 14
REMARK SMILES IDX 17 15 12 17 13 18 14 19
REMARK H PARENT
REMARK Flexibility Score: 70.00
ROOT
ATOM      1  C   UNL     1      39.096  20.369  26.919  1.00  0.00     0.136 C 
ATOM      2  O   UNL     1      39.704  19.796  27.813  1.00  0.00    -0.299 OA
ENDROOT
BRANCH   1   3
ATOM      3  C   UNL     1      38.378  21.667  27.251  1.00  0.00     0.053 C 
ATOM      4  C   UNL     1      37.787  21.625  28.665  1.00  0.00     0.016 C 
BRANCH   3   5
ATOM      5  C   UNL     1      37.297  22.018  26.210  1.00  0.00     0.015 C 
BRANCH   5   6
ATOM      6  C   UNL     1      35.915  21.421  26.562  1.00  0.00     0.028 C 
BRANCH   6   7
ATOM      7  C   UNL     1      35.314  20.716  25.370  1.00  0.00    -0.028 C 
ATOM      8  C   UNL     1      35.409  19.389  25.113  1.00  0.00    -0.070 CG0
ATOM      9  C   UNL     1      34.696  18.857  23.896  1.00  0.00     0.039 C 
ATOM     10  G   UNL     1      36.249  18.435  25.951  1.00  0.00     0.000 G0
ENDBRANCH   6   7
ENDBRANCH   5   6
ENDBRANCH   3   5
ENDBRANCH   1   3
BRANCH   1  11
ATOM     11  C   UNL     1      39.091  19.747  25.537  1.00  0.00     0.087 C 
BRANCH  11  12
ATOM     12  C   UNL     1      38.899  18.205  25.542  1.00  0.00     0.066 C 
BRANCH  12  13
ATOM     13  C   UNL     1      37.458  17.797  25.249  1.00  0.00     0.140 C 
ATOM     14  O   UNL     1      37.256  16.933  24.407  1.00  0.00    -0.299 OA
BRANCH  13  15
ATOM     15  C   UNL     1      36.244  18.397  25.938  1.00  0.00     0.106 CG0
ATOM     16  G   UNL     1      35.423  19.382  25.118  1.00  0.00     0.000 G0
ENDBRANCH  13  15
ENDBRANCH  12  13
BRANCH  12  17
ATOM     17  C   UNL     1      39.928  17.497  24.604  1.00  0.00    -0.006 C 
ATOM     18  C   UNL     1      40.873  16.514  25.321  1.00  0.00     0.008 C 
ATOM     19  C   UNL     1      40.756  18.522  23.815  1.00  0.00     0.008 C 
ENDBRANCH  12  17
ENDBRANCH  11  12
ENDBRANCH   1  11
TORSDOF 1
ENDMDL
MODEL 7
REMARK VINA RESULT:    -4.039      1.970      5.267
REMARK INTER + INTRA:          -6.552
REMARK INTER:                  -6.737
REMARK INTRA:                   0.185
REMARK UNBOUND:                -0.387
REMARK SMILES CC1=CCC[C@@H](C)C(=O)C[C@H](C(C)C)C(=O)C1
REMARK SMILES IDX 8 1 9 2 6 3 7 4 5 5 4 6 3 7 2 8 1 9 10 11 11 12 15 13 16 14
REMARK SMILES IDX 17 15 12 17 13 18 14 19
REMARK H PARENT
REMARK Flexibility Score: 70.00
ROOT
ATOM      1  C   UNL     1      30.130  19.695  22.691  1.00  0.00     0.136 C 
ATOM      2  O   UNL     1      29.195  19.015  22.290  1.00  0.00    -0.299 OA
ENDROOT
BRANCH   1   3
ATOM      3  C   UNL     1      31.199  20.112  21.695  1.00  0.00     0.053 C 
ATOM      4  C   UNL     1      30.783  19.764  20.261  1.00  0.00     0.016 C 
BRANCH   3   5
ATOM      5  C   UNL     1      32.577  19.511  22.032  1.00  0.00     0.015 C 
BRANCH   5   6
ATOM      6  C   UNL     1      33.523  20.530  22.708  1.00  0.00     0.028 C 
BRANCH   6   7
ATOM      7  C   UNL     1      34.531  19.829  23.586  1.00  0.00    -0.028 C 
ATOM      8  C   UNL     1      34.285  19.336  24.823  1.00  0.00    -0.070 CG0
ATOM      9  C   UNL     1      35.408  18.618  25.528  1.00  0.00     0.039 C 
ATOM     10  G   UNL     1      32.963  19.531  25.553  1.00  0.00     0.000 G0
ENDBRANCH   6   7
ENDBRANCH   5   6
ENDBRANCH   3   5
ENDBRANCH   1   3
BRANCH   1  11
ATOM     11  C   UNL     1      30.169  20.074  24.158  1.00  0.00     0.087 C 
BRANCH  11  12
ATOM     12  C   UNL     1      30.386  18.869  25.114  1.00  0.00     0.066 C 
BRANCH  12  13
ATOM     13  C   UNL     1      31.862  18.515  25.278  1.00  0.00     0.140 C 
ATOM     14  O   UNL     1      32.197  17.345  25.168  1.00  0.00    -0.299 OA
BRANCH  13  15
ATOM     15  C   UNL     1      32.955  19.529  25.571  1.00  0.00     0.106 CG0
ATOM     16  G   UNL     1      34.267  19.340  24.821  1.00  0.00     0.000 G0
ENDBRANCH  13  15
ENDBRANCH  12  13
BRANCH  12  17
ATOM     17  C   UNL     1      29.664  19.086  26.482  1.00  0.00    -0.006 C 
ATOM     18  C   UNL     1      29.864  17.943  27.496  1.00  0.00     0.008 C 
ATOM     19  C   UNL     1      28.163  19.339  26.282  1.00  0.00     0.008 C 
ENDBRANCH  12  17
ENDBRANCH  11  12
ENDBRANCH   1  11
TORSDOF 1
ENDMDL
MODEL 8
REMARK VINA RESULT:    -3.980      1.904      4.331
REMARK INTER + INTRA:          -6.461
REMARK INTER:                  -6.401
REMARK INTRA:                  -0.060
REMARK UNBOUND:                -0.387
REMARK SMILES CC1=CCC[C@@H](C)C(=O)C[C@H](C(C)C)C(=O)C1
REMARK SMILES IDX 8 1 9 2 6 3 7 4 5 5 4 6 3 7 2 8 1 9 10 11 11 12 15 13 16 14
REMARK SMILES IDX 17 15 12 17 13 18 14 19
REMARK H PARENT
REMARK Flexibility Score: 70.00
ROOT
ATOM      1  C   UNL     1      31.172  19.555  25.340  1.00  0.00     0.136 C 
ATOM      2  O   UNL     1      31.485  18.446  25.749  1.00  0.00    -0.299 OA
ENDROOT
BRANCH   1   3
ATOM      3  C   UNL     1      29.706  19.952  25.377  1.00  0.00     0.053 C 
ATOM      4  C   UNL     1      28.891  18.974  26.231  1.00  0.00     0.016 C 
BRANCH   3   5
ATOM      5  C   UNL     1      29.103  20.089  23.965  1.00  0.00     0.015 C 
BRANCH   5   6
ATOM      6  C   UNL     1      29.701  19.077  22.961  1.00  0.00     0.028 C 
BRANCH   6   7
ATOM      7  C   UNL     1      29.880  19.709  21.602  1.00  0.00    -0.028 C 
ATOM      8  C   UNL     1      31.033  19.726  20.891  1.00  0.00    -0.070 CG0
ATOM      9  C   UNL     1      31.004  20.362  19.524  1.00  0.00     0.039 C 
ATOM     10  G   UNL     1      32.355  19.198  21.430  1.00  0.00     0.000 G0
ENDBRANCH   6   7
ENDBRANCH   5   6
ENDBRANCH   3   5
ENDBRANCH   1   3
BRANCH   1  11
ATOM     11  C   UNL     1      32.265  20.465  24.814  1.00  0.00     0.087 C 
BRANCH  11  12
ATOM     12  C   UNL     1      33.296  19.746  23.901  1.00  0.00     0.066 C 
BRANCH  12  13
ATOM     13  C   UNL     1      33.105  20.089  22.426  1.00  0.00     0.140 C 
ATOM     14  O   UNL     1      33.566  21.140  22.006  1.00  0.00    -0.299 OA
BRANCH  13  15
ATOM     15  C   UNL     1      32.372  19.204  21.432  1.00  0.00     0.106 CG0
ATOM     16  G   UNL     1      31.047  19.737  20.905  1.00  0.00     0.000 G0
ENDBRANCH  13  15
ENDBRANCH  12  13
BRANCH  12  17
ATOM     17  C   UNL     1      34.760  19.986  24.390  1.00  0.00    -0.006 C 
ATOM     18  C   UNL     1      35.554  18.699  24.682  1.00  0.00     0.008 C 
ATOM     19  C   UNL     1      34.790  20.899  25.624  1.00  0.00     0.008 C 
ENDBRANCH  12  17
ENDBRANCH  11  12
ENDBRANCH   1  11
TORSDOF 1
ENDMDL
MODEL 9
REMARK VINA RESULT:    -3.724      5.657      8.374
REMARK INTER + INTRA:          -6.071
REMARK INTER:                  -5.791
REMARK INTRA:                  -0.281
REMARK UNBOUND:                -0.387
REMARK SMILES CC1=CCC[C@@H](C)C(=O)C[C@H](C(C)C)C(=O)C1
REMARK SMILES IDX 8 1 9 2 6 3 7 4 5 5 4 6 3 7 2 8 1 9 10 11 11 12 15 13 16 14
REMARK SMILES IDX 17 15 12 17 13 18 14 19
REMARK H PARENT
REMARK Flexibility Score: 70.00
ROOT
ATOM      1  C   UNL     1      37.314  18.131  25.522  1.00  0.00     0.136 C 
ATOM      2  O   UNL     1      37.091  17.408  24.561  1.00  0.00    -0.299 OA
ENDROOT
BRANCH   1   3
ATOM      3  C   UNL     1      36.334  19.252  25.826  1.00  0.00     0.053 C 
ATOM      4  C   UNL     1      34.886  18.786  25.635  1.00  0.00     0.016 C 
BRANCH   3   5
ATOM      5  C   UNL     1      36.621  20.518  24.996  1.00  0.00     0.015 C 
BRANCH   5   6
ATOM      6  C   UNL     1      36.991  21.735  25.875  1.00  0.00     0.028 C 
BRANCH   6   7
ATOM      7  C   UNL     1      36.959  21.371  27.340  1.00  0.00    -0.028 C 
ATOM      8  C   UNL     1      38.045  21.141  28.115  1.00  0.00    -0.070 CG0
ATOM      9  C   UNL     1      37.815  20.840  29.575  1.00  0.00     0.039 C 
ATOM     10  G   UNL     1      39.467  21.106  27.572  1.00  0.00     0.000 G0
ENDBRANCH   6   7
ENDBRANCH   5   6
ENDBRANCH   3   5
ENDBRANCH   1   3
BRANCH   1  11
ATOM     11  C   UNL     1      38.557  17.868  26.349  1.00  0.00     0.087 C 
BRANCH  11  12
ATOM     12  C   UNL     1      39.712  18.874  26.085  1.00  0.00     0.066 C 
BRANCH  12  13
ATOM     13  C   UNL     1      40.043  19.715  27.315  1.00  0.00     0.140 C 
ATOM     14  O   UNL     1      40.818  19.260  28.143  1.00  0.00    -0.299 OA
BRANCH  13  15
ATOM     15  C   UNL     1      39.468  21.096  27.583  1.00  0.00     0.106 CG0
ATOM     16  G   UNL     1      38.044  21.139  28.121  1.00  0.00     0.000 G0
ENDBRANCH  13  15
ENDBRANCH  12  13
BRANCH  12  17
ATOM     17  C   UNL     1      40.967  18.161  25.488  1.00  0.00    -0.006 C 
ATOM     18  C   UNL     1      41.080  18.249  23.954  1.00  0.00     0.008 C 
ATOM     19  C   UNL     1      41.029  16.690  25.924  1.00  0.00     0.008 C 
ENDBRANCH  12  17
ENDBRANCH  11  12
ENDBRANCH   1  11
TORSDOF 1
ENDMDL
