MODEL 1
REMARK VINA RESULT:    -2.898      0.000      0.000
REMARK INTER + INTRA:          -3.569
REMARK INTER:                  -3.491
REMARK INTRA:                  -0.078
REMARK UNBOUND:                -0.078
REMARK SMILES CC[C@@H](C)[C@H]([NH3+])C(=O)[O-]
REMARK SMILES IDX 3 1 4 2 5 3 6 4 7 8 8 9 9 10 2 11 1 12
REMARK H PARENT 6 5 6 6 6 7
REMARK Flexibility Score: inf
ROOT
ATOM      1  C   UNL     1      -3.461   7.243   5.444  1.00  0.00     0.050 C 
ATOM      2  C   UNL     1      -4.558   8.070   4.747  1.00  0.00     0.014 C 
ENDROOT
BRANCH   1   3
ATOM      3  C   UNL     1      -3.879   5.741   5.520  1.00  0.00     0.230 C 
BRANCH   3   4
ATOM      4  N   UNL     1      -5.198   5.503   4.911  1.00  0.00    -0.350 N 
ATOM      5  H   UNL     1      -5.833   6.310   5.102  1.00  0.00     0.345 HD
ATOM      6  H   UNL     1      -5.638   4.626   5.270  1.00  0.00     0.345 HD
ATOM      7  H   UNL     1      -5.090   5.415   3.874  1.00  0.00     0.345 HD
ENDBRANCH   3   4
BRANCH   3   8
ATOM      8  C   UNL     1      -3.830   5.194   6.928  1.00  0.00     0.099 C 
ATOM      9  O   UNL     1      -3.620   5.956   7.908  1.00  0.00    -0.544 OA
ATOM     10  O   UNL     1      -3.982   3.830   7.144  1.00  0.00    -0.544 OA
ENDBRANCH   3   8
ENDBRANCH   1   3
BRANCH   1  11
ATOM     11  C   UNL     1      -2.083   7.457   4.763  1.00  0.00     0.006 C 
ATOM     12  C   UNL     1      -2.171   8.310   3.497  1.00  0.00     0.004 C 
ENDBRANCH   1  11
TORSDOF 4
ENDMDL
MODEL 2
REMARK VINA RESULT:    -2.622      9.825     10.678
REMARK INTER + INTRA:          -3.236
REMARK INTER:                  -3.180
REMARK INTRA:                  -0.057
REMARK UNBOUND:                -0.078
REMARK SMILES CC[C@@H](C)[C@H]([NH3+])C(=O)[O-]
REMARK SMILES IDX 3 1 4 2 5 3 6 4 7 8 8 9 9 10 2 11 1 12
REMARK H PARENT 6 5 6 6 6 7
REMARK Flexibility Score: inf
ROOT
ATOM      1  C   UNL     1      -6.217  -2.408  -0.186  1.00  0.00     0.050 C 
ATOM      2  C   UNL     1      -7.142  -2.914  -1.309  1.00  0.00     0.014 C 
ENDROOT
BRANCH   1   3
ATOM      3  C   UNL     1      -6.841  -2.719   1.212  1.00  0.00     0.230 C 
BRANCH   3   4
ATOM      4  N   UNL     1      -7.843  -3.795   1.143  1.00  0.00    -0.350 N 
ATOM      5  H   UNL     1      -8.701  -3.456   0.650  1.00  0.00     0.345 HD
ATOM      6  H   UNL     1      -8.106  -4.141   2.093  1.00  0.00     0.345 HD
ATOM      7  H   UNL     1      -7.453  -4.598   0.597  1.00  0.00     0.345 HD
ENDBRANCH   3   4
BRANCH   3   8
ATOM      8  C   UNL     1      -7.413  -1.491   1.879  1.00  0.00     0.099 C 
ATOM      9  O   UNL     1      -7.003  -1.121   3.011  1.00  0.00    -0.544 OA
ATOM     10  O   UNL     1      -8.430  -0.777   1.256  1.00  0.00    -0.544 OA
ENDBRANCH   3   8
ENDBRANCH   1   3
BRANCH   1  11
ATOM     11  C   UNL     1      -4.780  -2.968  -0.350  1.00  0.00     0.006 C 
ATOM     12  C   UNL     1      -3.947  -2.181  -1.363  1.00  0.00     0.004 C 
ENDBRANCH   1  11
TORSDOF 4
ENDMDL
MODEL 3
REMARK VINA RESULT:    -2.621     10.961     11.807
REMARK INTER + INTRA:          -3.235
REMARK INTER:                  -3.171
REMARK INTRA:                  -0.063
REMARK UNBOUND:                -0.078
REMARK SMILES CC[C@@H](C)[C@H]([NH3+])C(=O)[O-]
REMARK SMILES IDX 3 1 4 2 5 3 6 4 7 8 8 9 9 10 2 11 1 12
REMARK H PARENT 6 5 6 6 6 7
REMARK Flexibility Score: inf
ROOT
ATOM      1  C   UNL     1      -4.926  -3.327  -1.397  1.00  0.00     0.050 C 
ATOM      2  C   UNL     1      -3.897  -2.184  -1.481  1.00  0.00     0.014 C 
ENDROOT
BRANCH   1   3
ATOM      3  C   UNL     1      -5.498  -3.439   0.051  1.00  0.00     0.230 C 
BRANCH   3   4
ATOM      4  N   UNL     1      -6.003  -2.148   0.547  1.00  0.00    -0.350 N 
ATOM      5  H   UNL     1      -5.824  -1.397  -0.159  1.00  0.00     0.345 HD
ATOM      6  H   UNL     1      -5.558  -1.880   1.454  1.00  0.00     0.345 HD
ATOM      7  H   UNL     1      -7.037  -2.213   0.694  1.00  0.00     0.345 HD
ENDBRANCH   3   4
BRANCH   3   8
ATOM      8  C   UNL     1      -4.509  -4.039   1.022  1.00  0.00     0.099 C 
ATOM      9  O   UNL     1      -4.483  -3.672   2.227  1.00  0.00    -0.544 OA
ATOM     10  O   UNL     1      -3.591  -4.983   0.576  1.00  0.00    -0.544 OA
ENDBRANCH   3   8
ENDBRANCH   1   3
BRANCH   1  11
ATOM     11  C   UNL     1      -6.029  -3.165  -2.477  1.00  0.00     0.006 C 
ATOM     12  C   UNL     1      -5.553  -3.556  -3.877  1.00  0.00     0.004 C 
ENDBRANCH   1  11
TORSDOF 4
ENDMDL
MODEL 4
REMARK VINA RESULT:    -2.613     10.712     11.316
REMARK INTER + INTRA:          -3.225
REMARK INTER:                  -3.148
REMARK INTRA:                  -0.077
REMARK UNBOUND:                -0.078
REMARK SMILES CC[C@@H](C)[C@H]([NH3+])C(=O)[O-]
REMARK SMILES IDX 3 1 4 2 5 3 6 4 7 8 8 9 9 10 2 11 1 12
REMARK H PARENT 6 5 6 6 6 7
REMARK Flexibility Score: inf
ROOT
ATOM      1  C   UNL     1      -6.271  -2.310  -0.389  1.00  0.00     0.050 C 
ATOM      2  C   UNL     1      -7.253  -2.940  -1.395  1.00  0.00     0.014 C 
ENDROOT
BRANCH   1   3
ATOM      3  C   UNL     1      -6.435  -2.969   1.017  1.00  0.00     0.230 C 
BRANCH   3   4
ATOM      4  N   UNL     1      -6.471  -1.968   2.095  1.00  0.00    -0.350 N 
ATOM      5  H   UNL     1      -7.074  -1.160   1.816  1.00  0.00     0.345 HD
ATOM      6  H   UNL     1      -5.515  -1.618   2.331  1.00  0.00     0.345 HD
ATOM      7  H   UNL     1      -6.885  -2.398   2.954  1.00  0.00     0.345 HD
ENDBRANCH   3   4
BRANCH   3   8
ATOM      8  C   UNL     1      -5.387  -4.021   1.292  1.00  0.00     0.099 C 
ATOM      9  O   UNL     1      -5.459  -5.159   0.757  1.00  0.00    -0.544 OA
ATOM     10  O   UNL     1      -4.348  -3.745   2.173  1.00  0.00    -0.544 OA
ENDBRANCH   3   8
ENDBRANCH   1   3
BRANCH   1  11
ATOM     11  C   UNL     1      -4.814  -2.366  -0.922  1.00  0.00     0.006 C 
ATOM     12  C   UNL     1      -4.701  -3.078  -2.271  1.00  0.00     0.004 C 
ENDBRANCH   1  11
TORSDOF 4
ENDMDL
MODEL 5
REMARK VINA RESULT:    -2.607      2.422      3.614
REMARK INTER + INTRA:          -3.218
REMARK INTER:                  -3.279
REMARK INTRA:                   0.060
REMARK UNBOUND:                -0.078
REMARK SMILES CC[C@@H](C)[C@H]([NH3+])C(=O)[O-]
REMARK SMILES IDX 3 1 4 2 5 3 6 4 7 8 8 9 9 10 2 11 1 12
REMARK H PARENT 6 5 6 6 6 7
REMARK Flexibility Score: inf
ROOT
ATOM      1  C   UNL     1      -6.468   5.786   5.913  1.00  0.00     0.050 C 
ATOM      2  C   UNL     1      -6.984   4.422   6.409  1.00  0.00     0.014 C 
ENDROOT
BRANCH   1   3
ATOM      3  C   UNL     1      -4.929   5.903   6.149  1.00  0.00     0.230 C 
BRANCH   3   4
ATOM      4  N   UNL     1      -4.156   5.481   4.970  1.00  0.00    -0.350 N 
ATOM      5  H   UNL     1      -3.142   5.402   5.215  1.00  0.00     0.345 HD
ATOM      6  H   UNL     1      -4.265   6.150   4.174  1.00  0.00     0.345 HD
ATOM      7  H   UNL     1      -4.487   4.540   4.656  1.00  0.00     0.345 HD
ENDBRANCH   3   4
BRANCH   3   8
ATOM      8  C   UNL     1      -4.473   5.165   7.385  1.00  0.00     0.099 C 
ATOM      9  O   UNL     1      -3.900   4.047   7.295  1.00  0.00    -0.544 OA
ATOM     10  O   UNL     1      -4.718   5.707   8.642  1.00  0.00    -0.544 OA
ENDBRANCH   3   8
ENDBRANCH   1   3
BRANCH   1  11
ATOM     11  C   UNL     1      -6.879   6.035   4.437  1.00  0.00     0.006 C 
ATOM     12  C   UNL     1      -8.336   5.665   4.155  1.00  0.00     0.004 C 
ENDBRANCH   1  11
TORSDOF 4
ENDMDL
MODEL 6
REMARK VINA RESULT:    -2.568     10.822     11.722
REMARK INTER + INTRA:          -3.171
REMARK INTER:                  -3.034
REMARK INTRA:                  -0.136
REMARK UNBOUND:                -0.078
REMARK SMILES CC[C@@H](C)[C@H]([NH3+])C(=O)[O-]
REMARK SMILES IDX 3 1 4 2 5 3 6 4 7 8 8 9 9 10 2 11 1 12
REMARK H PARENT 6 5 6 6 6 7
REMARK Flexibility Score: inf
ROOT
ATOM      1  C   UNL     1      -6.104  -3.411  -1.193  1.00  0.00     0.050 C 
ATOM      2  C   UNL     1      -5.618  -3.389  -2.655  1.00  0.00     0.014 C 
ENDROOT
BRANCH   1   3
ATOM      3  C   UNL     1      -5.054  -2.727  -0.262  1.00  0.00     0.230 C 
BRANCH   3   4
ATOM      4  N   UNL     1      -4.089  -1.914  -1.020  1.00  0.00    -0.350 N 
ATOM      5  H   UNL     1      -4.284  -0.897  -0.875  1.00  0.00     0.345 HD
ATOM      6  H   UNL     1      -4.122  -2.127  -2.042  1.00  0.00     0.345 HD
ATOM      7  H   UNL     1      -3.122  -2.111  -0.674  1.00  0.00     0.345 HD
ENDBRANCH   3   4
BRANCH   3   8
ATOM      8  C   UNL     1      -4.342  -3.712   0.634  1.00  0.00     0.099 C 
ATOM      9  O   UNL     1      -3.580  -4.591   0.149  1.00  0.00    -0.544 OA
ATOM     10  O   UNL     1      -4.554  -3.675   2.007  1.00  0.00    -0.544 OA
ENDBRANCH   3   8
ENDBRANCH   1   3
BRANCH   1  11
ATOM     11  C   UNL     1      -7.523  -2.796  -1.067  1.00  0.00     0.006 C 
ATOM     12  C   UNL     1      -7.654  -1.843   0.122  1.00  0.00     0.004 C 
ENDBRANCH   1  11
TORSDOF 4
ENDMDL
MODEL 7
REMARK VINA RESULT:    -2.541      9.916     10.949
REMARK INTER + INTRA:          -3.139
REMARK INTER:                  -3.024
REMARK INTRA:                  -0.115
REMARK UNBOUND:                -0.078
REMARK SMILES CC[C@@H](C)[C@H]([NH3+])C(=O)[O-]
REMARK SMILES IDX 3 1 4 2 5 3 6 4 7 8 8 9 9 10 2 11 1 12
REMARK H PARENT 6 5 6 6 6 7
REMARK Flexibility Score: inf
ROOT
ATOM      1  C   UNL     1      -7.761  -3.049   0.373  1.00  0.00     0.050 C 
ATOM      2  C   UNL     1      -7.379  -4.537   0.482  1.00  0.00     0.014 C 
ENDROOT
BRANCH   1   3
ATOM      3  C   UNL     1      -6.775  -2.172   1.208  1.00  0.00     0.230 C 
BRANCH   3   4
ATOM      4  N   UNL     1      -5.681  -2.970   1.786  1.00  0.00    -0.350 N 
ATOM      5  H   UNL     1      -5.174  -2.412   2.510  1.00  0.00     0.345 HD
ATOM      6  H   UNL     1      -5.003  -3.284   1.057  1.00  0.00     0.345 HD
ATOM      7  H   UNL     1      -6.079  -3.818   2.252  1.00  0.00     0.345 HD
ENDBRANCH   3   4
BRANCH   3   8
ATOM      8  C   UNL     1      -7.475  -1.364   2.275  1.00  0.00     0.099 C 
ATOM      9  O   UNL     1      -7.096  -1.415   3.475  1.00  0.00    -0.544 OA
ATOM     10  O   UNL     1      -8.573  -0.581   1.938  1.00  0.00    -0.544 OA
ENDBRANCH   3   8
ENDBRANCH   1   3
BRANCH   1  11
ATOM     11  C   UNL     1      -7.864  -2.606  -1.110  1.00  0.00     0.006 C 
ATOM     12  C   UNL     1      -9.066  -1.698  -1.378  1.00  0.00     0.004 C 
ENDBRANCH   1  11
TORSDOF 4
ENDMDL
MODEL 8
REMARK VINA RESULT:    -2.534      8.315      9.107
REMARK INTER + INTRA:          -3.130
REMARK INTER:                  -3.063
REMARK INTRA:                  -0.068
REMARK UNBOUND:                -0.078
REMARK SMILES CC[C@@H](C)[C@H]([NH3+])C(=O)[O-]
REMARK SMILES IDX 3 1 4 2 5 3 6 4 7 8 8 9 9 10 2 11 1 12
REMARK H PARENT 6 5 6 6 6 7
REMARK Flexibility Score: inf
ROOT
ATOM      1  C   UNL     1       3.462   3.205   4.461  1.00  0.00     0.050 C 
ATOM      2  C   UNL     1       3.293   4.721   4.673  1.00  0.00     0.014 C 
ENDROOT
BRANCH   1   3
ATOM      3  C   UNL     1       4.344   2.928   3.202  1.00  0.00     0.230 C 
BRANCH   3   4
ATOM      4  N   UNL     1       5.460   3.881   3.089  1.00  0.00    -0.350 N 
ATOM      5  H   UNL     1       5.571   4.188   2.096  1.00  0.00     0.345 HD
ATOM      6  H   UNL     1       6.359   3.466   3.423  1.00  0.00     0.345 HD
ATOM      7  H   UNL     1       5.253   4.727   3.668  1.00  0.00     0.345 HD
ENDBRANCH   3   4
BRANCH   3   8
ATOM      8  C   UNL     1       3.537   2.887   1.926  1.00  0.00     0.099 C 
ATOM      9  O   UNL     1       2.306   2.624   1.948  1.00  0.00    -0.544 OA
ATOM     10  O   UNL     1       4.166   3.109   0.706  1.00  0.00    -0.544 OA
ENDBRANCH   3   8
ENDBRANCH   1   3
BRANCH   1  11
ATOM     11  C   UNL     1       4.000   2.518   5.744  1.00  0.00     0.006 C 
ATOM     12  C   UNL     1       3.068   2.689   6.945  1.00  0.00     0.004 C 
ENDBRANCH   1  11
TORSDOF 4
ENDMDL
MODEL 9
REMARK VINA RESULT:    -2.513      7.824      8.657
REMARK INTER + INTRA:          -3.105
REMARK INTER:                  -3.013
REMARK INTRA:                  -0.093
REMARK UNBOUND:                -0.078
REMARK SMILES CC[C@@H](C)[C@H]([NH3+])C(=O)[O-]
REMARK SMILES IDX 3 1 4 2 5 3 6 4 7 8 8 9 9 10 2 11 1 12
REMARK H PARENT 6 5 6 6 6 7
REMARK Flexibility Score: inf
ROOT
ATOM      1  C   UNL     1       3.315   4.096   4.417  1.00  0.00     0.050 C 
ATOM      2  C   UNL     1       3.605   5.394   5.196  1.00  0.00     0.014 C 
ENDROOT
BRANCH   1   3
ATOM      3  C   UNL     1       3.804   4.230   2.940  1.00  0.00     0.230 C 
BRANCH   3   4
ATOM      4  N   UNL     1       3.235   5.413   2.274  1.00  0.00    -0.350 N 
ATOM      5  H   UNL     1       2.838   5.146   1.345  1.00  0.00     0.345 HD
ATOM      6  H   UNL     1       3.950   6.163   2.140  1.00  0.00     0.345 HD
ATOM      7  H   UNL     1       2.459   5.800   2.859  1.00  0.00     0.345 HD
ENDBRANCH   3   4
BRANCH   3   8
ATOM      8  C   UNL     1       3.551   2.981   2.129  1.00  0.00     0.099 C 
ATOM      9  O   UNL     1       4.508   2.319   1.648  1.00  0.00    -0.544 OA
ATOM     10  O   UNL     1       2.246   2.574   1.878  1.00  0.00    -0.544 OA
ENDBRANCH   3   8
ENDBRANCH   1   3
BRANCH   1  11
ATOM     11  C   UNL     1       3.909   2.863   5.146  1.00  0.00     0.006 C 
ATOM     12  C   UNL     1       3.339   2.671   6.552  1.00  0.00     0.004 C 
ENDBRANCH   1  11
TORSDOF 4
ENDMDL
