MODEL 1
REMARK VINA RESULT:    -3.778      0.000      0.000
REMARK INTER + INTRA:          -6.960
REMARK INTER:                  -5.765
REMARK INTRA:                  -1.195
REMARK UNBOUND:                -1.195
REMARK SMILES C=CCCCCCCCCCC
REMARK SMILES IDX 7 1 8 2 9 3 10 4 11 5 12 6 6 7 5 8 4 9 3 10 2 11 1 12
REMARK H PARENT
REMARK Flexibility Score: inf
ROOT
ATOM      1  C   UNL     1      31.592   9.737  32.255  1.00  0.00     0.000 C 
ENDROOT
BRANCH   1   2
ATOM      2  C   UNL     1      31.405   8.215  32.143  1.00  0.00    -0.000 C 
BRANCH   2   3
ATOM      3  C   UNL     1      32.028   7.451  33.325  1.00  0.00    -0.000 C 
BRANCH   3   4
ATOM      4  C   UNL     1      31.004   7.128  34.425  1.00  0.00    -0.000 C 
BRANCH   4   5
ATOM      5  C   UNL     1      31.651   6.990  35.810  1.00  0.00    -0.003 C 
ATOM      6  C   UNL     1      30.735   6.237  36.772  1.00  0.00     0.004 C 
ENDBRANCH   4   5
ENDBRANCH   3   4
ENDBRANCH   2   3
ENDBRANCH   1   2
BRANCH   1   7
ATOM      7  C   UNL     1      32.926  10.119  32.920  1.00  0.00     0.000 C 
BRANCH   7   8
ATOM      8  C   UNL     1      32.746  11.129  34.064  1.00  0.00     0.000 C 
BRANCH   8   9
ATOM      9  C   UNL     1      31.529  10.814  34.950  1.00  0.00     0.004 C 
BRANCH   9  10
ATOM     10  C   UNL     1      31.938  10.428  36.378  1.00  0.00     0.027 C 
BRANCH  10  11
ATOM     11  C   UNL     1      30.791  10.521  37.349  1.00  0.00    -0.035 C 
ATOM     12  C   UNL     1      30.603   9.611  38.309  1.00  0.00     0.004 C 
ENDBRANCH  10  11
ENDBRANCH   9  10
ENDBRANCH   8   9
ENDBRANCH   7   8
ENDBRANCH   1   7
TORSDOF 9
ENDMDL
MODEL 2
REMARK VINA RESULT:    -3.755      1.571      4.497
REMARK INTER + INTRA:          -6.925
REMARK INTER:                  -6.022
REMARK INTRA:                  -0.903
REMARK UNBOUND:                -1.195
REMARK SMILES C=CCCCCCCCCCC
REMARK SMILES IDX 7 1 8 2 9 3 10 4 11 5 12 6 6 7 5 8 4 9 3 10 2 11 1 12
REMARK H PARENT
REMARK Flexibility Score: inf
ROOT
ATOM      1  C   UNL     1      31.559   8.898  32.668  1.00  0.00     0.000 C 
ENDROOT
BRANCH   1   2
ATOM      2  C   UNL     1      32.883   9.673  32.579  1.00  0.00    -0.000 C 
BRANCH   2   3
ATOM      3  C   UNL     1      32.779  11.097  33.156  1.00  0.00    -0.000 C 
BRANCH   3   4
ATOM      4  C   UNL     1      32.407  12.140  32.091  1.00  0.00    -0.000 C 
BRANCH   4   5
ATOM      5  C   UNL     1      33.122  11.897  30.754  1.00  0.00    -0.003 C 
ATOM      6  C   UNL     1      32.120  11.601  29.641  1.00  0.00     0.004 C 
ENDBRANCH   4   5
ENDBRANCH   3   4
ENDBRANCH   2   3
ENDBRANCH   1   2
BRANCH   1   7
ATOM      7  C   UNL     1      31.749   7.465  33.195  1.00  0.00     0.000 C 
BRANCH   7   8
ATOM      8  C   UNL     1      30.824   7.145  34.380  1.00  0.00     0.000 C 
BRANCH   8   9
ATOM      9  C   UNL     1      31.590   6.963  35.701  1.00  0.00     0.004 C 
BRANCH   9  10
ATOM     10  C   UNL     1      31.173   7.996  36.758  1.00  0.00     0.027 C 
BRANCH  10  11
ATOM     11  C   UNL     1      31.105   9.393  36.200  1.00  0.00    -0.035 C 
ATOM     12  C   UNL     1      31.827  10.393  36.713  1.00  0.00     0.004 C 
ENDBRANCH  10  11
ENDBRANCH   9  10
ENDBRANCH   8   9
ENDBRANCH   7   8
ENDBRANCH   1   7
TORSDOF 9
ENDMDL
MODEL 3
REMARK VINA RESULT:    -3.750      1.852      4.219
REMARK INTER + INTRA:          -6.918
REMARK INTER:                  -5.964
REMARK INTRA:                  -0.954
REMARK UNBOUND:                -1.195
REMARK SMILES C=CCCCCCCCCCC
REMARK SMILES IDX 7 1 8 2 9 3 10 4 11 5 12 6 6 7 5 8 4 9 3 10 2 11 1 12
REMARK H PARENT
REMARK Flexibility Score: inf
ROOT
ATOM      1  C   UNL     1      31.881   8.793  32.349  1.00  0.00     0.000 C 
ENDROOT
BRANCH   1   2
ATOM      2  C   UNL     1      31.988   7.481  33.142  1.00  0.00    -0.000 C 
BRANCH   2   3
ATOM      3  C   UNL     1      30.940   7.377  34.265  1.00  0.00    -0.000 C 
BRANCH   3   4
ATOM      4  C   UNL     1      31.563   7.015  35.623  1.00  0.00    -0.000 C 
BRANCH   4   5
ATOM      5  C   UNL     1      31.169   7.999  36.733  1.00  0.00    -0.003 C 
ATOM      6  C   UNL     1      31.196   9.439  36.226  1.00  0.00     0.004 C 
ENDBRANCH   4   5
ENDBRANCH   3   4
ENDBRANCH   2   3
ENDBRANCH   1   2
BRANCH   1   7
ATOM      7  C   UNL     1      33.047   9.755  32.639  1.00  0.00     0.000 C 
BRANCH   7   8
ATOM      8  C   UNL     1      32.575  11.086  33.246  1.00  0.00     0.000 C 
BRANCH   8   9
ATOM      9  C   UNL     1      32.142  12.106  32.179  1.00  0.00     0.004 C 
BRANCH   9  10
ATOM     10  C   UNL     1      33.105  12.134  30.983  1.00  0.00     0.027 C 
BRANCH  10  11
ATOM     11  C   UNL     1      32.387  12.001  29.666  1.00  0.00    -0.035 C 
ATOM     12  C   UNL     1      31.972  10.818  29.205  1.00  0.00     0.004 C 
ENDBRANCH  10  11
ENDBRANCH   9  10
ENDBRANCH   8   9
ENDBRANCH   7   8
ENDBRANCH   1   7
TORSDOF 9
ENDMDL
MODEL 4
REMARK VINA RESULT:    -3.725      1.196      3.980
REMARK INTER + INTRA:          -6.880
REMARK INTER:                  -5.370
REMARK INTRA:                  -1.510
REMARK UNBOUND:                -1.195
REMARK SMILES C=CCCCCCCCCCC
REMARK SMILES IDX 7 1 8 2 9 3 10 4 11 5 12 6 6 7 5 8 4 9 3 10 2 11 1 12
REMARK H PARENT
REMARK Flexibility Score: inf
ROOT
ATOM      1  C   UNL     1      30.576   7.138  33.609  1.00  0.00     0.000 C 
ENDROOT
BRANCH   1   2
ATOM      2  C   UNL     1      32.013   7.588  33.302  1.00  0.00    -0.000 C 
BRANCH   2   3
ATOM      3  C   UNL     1      32.066   8.832  32.397  1.00  0.00    -0.000 C 
BRANCH   3   4
ATOM      4  C   UNL     1      33.048   9.896  32.913  1.00  0.00    -0.000 C 
BRANCH   4   5
ATOM      5  C   UNL     1      32.841  11.262  32.243  1.00  0.00    -0.003 C 
ATOM      6  C   UNL     1      32.280  11.103  30.832  1.00  0.00     0.004 C 
ENDBRANCH   4   5
ENDBRANCH   3   4
ENDBRANCH   2   3
ENDBRANCH   1   2
BRANCH   1   7
ATOM      7  C   UNL     1      30.390   6.718  35.077  1.00  0.00     0.000 C 
BRANCH   7   8
ATOM      8  C   UNL     1      31.423   7.367  36.012  1.00  0.00     0.000 C 
BRANCH   8   9
ATOM      9  C   UNL     1      30.866   8.594  36.753  1.00  0.00     0.004 C 
BRANCH   9  10
ATOM     10  C   UNL     1      31.639   9.876  36.410  1.00  0.00     0.027 C 
BRANCH  10  11
ATOM     11  C   UNL     1      30.772  10.905  35.734  1.00  0.00    -0.035 C 
ATOM     12  C   UNL     1      29.846  10.565  34.833  1.00  0.00     0.004 C 
ENDBRANCH  10  11
ENDBRANCH   9  10
ENDBRANCH   8   9
ENDBRANCH   7   8
ENDBRANCH   1   7
TORSDOF 9
ENDMDL
MODEL 5
REMARK VINA RESULT:    -3.674      1.048      4.318
REMARK INTER + INTRA:          -6.802
REMARK INTER:                  -5.796
REMARK INTRA:                  -1.005
REMARK UNBOUND:                -1.195
REMARK SMILES C=CCCCCCCCCCC
REMARK SMILES IDX 7 1 8 2 9 3 10 4 11 5 12 6 6 7 5 8 4 9 3 10 2 11 1 12
REMARK H PARENT
REMARK Flexibility Score: inf
ROOT
ATOM      1  C   UNL     1      31.491  10.409  34.897  1.00  0.00     0.000 C 
ENDROOT
BRANCH   1   2
ATOM      2  C   UNL     1      32.601  11.163  34.147  1.00  0.00    -0.000 C 
BRANCH   2   3
ATOM      3  C   UNL     1      33.055  10.435  32.869  1.00  0.00    -0.000 C 
BRANCH   3   4
ATOM      4  C   UNL     1      32.397   9.054  32.711  1.00  0.00    -0.000 C 
BRANCH   4   5
ATOM      5  C   UNL     1      31.473   8.979  31.487  1.00  0.00    -0.003 C 
ATOM      6  C   UNL     1      31.663  10.192  30.580  1.00  0.00     0.004 C 
ENDBRANCH   4   5
ENDBRANCH   3   4
ENDBRANCH   2   3
ENDBRANCH   1   2
BRANCH   1   7
ATOM      7  C   UNL     1      31.718  10.386  36.419  1.00  0.00     0.000 C 
BRANCH   7   8
ATOM      8  C   UNL     1      31.316   9.046  37.055  1.00  0.00     0.000 C 
BRANCH   8   9
ATOM      9  C   UNL     1      31.578   7.846  36.128  1.00  0.00     0.004 C 
BRANCH   9  10
ATOM     10  C   UNL     1      30.750   6.617  36.528  1.00  0.00     0.027 C 
BRANCH  10  11
ATOM     11  C   UNL     1      29.861   6.136  35.411  1.00  0.00    -0.035 C 
ATOM     12  C   UNL     1      30.004   6.575  34.157  1.00  0.00     0.004 C 
ENDBRANCH  10  11
ENDBRANCH   9  10
ENDBRANCH   8   9
ENDBRANCH   7   8
ENDBRANCH   1   7
TORSDOF 9
ENDMDL
MODEL 6
REMARK VINA RESULT:    -3.660      1.757      4.578
REMARK INTER + INTRA:          -6.781
REMARK INTER:                  -5.682
REMARK INTRA:                  -1.099
REMARK UNBOUND:                -1.195
REMARK SMILES C=CCCCCCCCCCC
REMARK SMILES IDX 7 1 8 2 9 3 10 4 11 5 12 6 6 7 5 8 4 9 3 10 2 11 1 12
REMARK H PARENT
REMARK Flexibility Score: inf
ROOT
ATOM      1  C   UNL     1      33.100   9.419  32.908  1.00  0.00     0.000 C 
ENDROOT
BRANCH   1   2
ATOM      2  C   UNL     1      33.022  10.933  33.160  1.00  0.00    -0.000 C 
BRANCH   2   3
ATOM      3  C   UNL     1      31.773  11.577  32.531  1.00  0.00    -0.000 C 
BRANCH   3   4
ATOM      4  C   UNL     1      32.119  12.524  31.371  1.00  0.00    -0.000 C 
BRANCH   4   5
ATOM      5  C   UNL     1      32.761  11.792  30.184  1.00  0.00    -0.003 C 
ATOM      6  C   UNL     1      31.815  10.740  29.610  1.00  0.00     0.004 C 
ENDBRANCH   4   5
ENDBRANCH   3   4
ENDBRANCH   2   3
ENDBRANCH   1   2
BRANCH   1   7
ATOM      7  C   UNL     1      31.711   8.761  32.833  1.00  0.00     0.000 C 
BRANCH   7   8
ATOM      8  C   UNL     1      31.709   7.325  33.382  1.00  0.00     0.000 C 
BRANCH   8   9
ATOM      9  C   UNL     1      30.767   7.150  34.586  1.00  0.00     0.004 C 
BRANCH   9  10
ATOM     10  C   UNL     1      31.488   7.384  35.921  1.00  0.00     0.027 C 
BRANCH  10  11
ATOM     11  C   UNL     1      30.988   8.612  36.636  1.00  0.00    -0.035 C 
ATOM     12  C   UNL     1      31.603   9.792  36.526  1.00  0.00     0.004 C 
ENDBRANCH  10  11
ENDBRANCH   9  10
ENDBRANCH   8   9
ENDBRANCH   7   8
ENDBRANCH   1   7
TORSDOF 9
ENDMDL
MODEL 7
REMARK VINA RESULT:    -3.654      1.458      3.588
REMARK INTER + INTRA:          -6.771
REMARK INTER:                  -5.083
REMARK INTRA:                  -1.688
REMARK UNBOUND:                -1.195
REMARK SMILES C=CCCCCCCCCCC
REMARK SMILES IDX 7 1 8 2 9 3 10 4 11 5 12 6 6 7 5 8 4 9 3 10 2 11 1 12
REMARK H PARENT
REMARK Flexibility Score: inf
ROOT
ATOM      1  C   UNL     1      32.203   9.185  32.289  1.00  0.00     0.000 C 
ENDROOT
BRANCH   1   2
ATOM      2  C   UNL     1      33.102  10.245  32.946  1.00  0.00    -0.000 C 
BRANCH   2   3
ATOM      3  C   UNL     1      32.310  11.239  33.815  1.00  0.00    -0.000 C 
BRANCH   3   4
ATOM      4  C   UNL     1      30.877  11.458  33.304  1.00  0.00    -0.000 C 
BRANCH   4   5
ATOM      5  C   UNL     1      29.816  11.046  34.334  1.00  0.00    -0.003 C 
ATOM      6  C   UNL     1      28.634  10.354  33.659  1.00  0.00     0.004 C 
ENDBRANCH   4   5
ENDBRANCH   3   4
ENDBRANCH   2   3
ENDBRANCH   1   2
BRANCH   1   7
ATOM      7  C   UNL     1      32.231   7.841  33.039  1.00  0.00     0.000 C 
BRANCH   7   8
ATOM      8  C   UNL     1      30.844   7.185  33.124  1.00  0.00     0.000 C 
BRANCH   8   9
ATOM      9  C   UNL     1      30.273   7.187  34.553  1.00  0.00     0.004 C 
BRANCH   9  10
ATOM     10  C   UNL     1      31.361   7.424  35.609  1.00  0.00     0.027 C 
BRANCH  10  11
ATOM     11  C   UNL     1      30.917   8.380  36.685  1.00  0.00    -0.035 C 
ATOM     12  C   UNL     1      31.639   9.454  37.017  1.00  0.00     0.004 C 
ENDBRANCH  10  11
ENDBRANCH   9  10
ENDBRANCH   8   9
ENDBRANCH   7   8
ENDBRANCH   1   7
TORSDOF 9
ENDMDL
MODEL 8
REMARK VINA RESULT:    -3.638      1.200      4.484
REMARK INTER + INTRA:          -6.747
REMARK INTER:                  -5.472
REMARK INTRA:                  -1.274
REMARK UNBOUND:                -1.195
REMARK SMILES C=CCCCCCCCCCC
REMARK SMILES IDX 7 1 8 2 9 3 10 4 11 5 12 6 6 7 5 8 4 9 3 10 2 11 1 12
REMARK H PARENT
REMARK Flexibility Score: inf
ROOT
ATOM      1  C   UNL     1      30.355   6.685  35.137  1.00  0.00     0.000 C 
ENDROOT
BRANCH   1   2
ATOM      2  C   UNL     1      31.383   7.350  36.066  1.00  0.00    -0.000 C 
BRANCH   2   3
ATOM      3  C   UNL     1      30.776   8.488  36.906  1.00  0.00    -0.000 C 
BRANCH   3   4
ATOM      4  C   UNL     1      31.655   9.750  36.912  1.00  0.00    -0.000 C 
BRANCH   4   5
ATOM      5  C   UNL     1      31.256  10.750  35.817  1.00  0.00    -0.003 C 
ATOM      6  C   UNL     1      29.813  10.531  35.372  1.00  0.00     0.004 C 
ENDBRANCH   4   5
ENDBRANCH   3   4
ENDBRANCH   2   3
ENDBRANCH   1   2
BRANCH   1   7
ATOM      7  C   UNL     1      30.597   7.019  33.654  1.00  0.00     0.000 C 
BRANCH   7   8
ATOM      8  C   UNL     1      32.005   7.580  33.398  1.00  0.00     0.000 C 
BRANCH   8   9
ATOM      9  C   UNL     1      31.987   8.883  32.581  1.00  0.00     0.004 C 
BRANCH   9  10
ATOM     10  C   UNL     1      33.125   9.832  32.983  1.00  0.00     0.027 C 
BRANCH  10  11
ATOM     11  C   UNL     1      33.064  11.145  32.247  1.00  0.00    -0.035 C 
ATOM     12  C   UNL     1      32.390  11.280  31.101  1.00  0.00     0.004 C 
ENDBRANCH  10  11
ENDBRANCH   9  10
ENDBRANCH   8   9
ENDBRANCH   7   8
ENDBRANCH   1   7
TORSDOF 9
ENDMDL
MODEL 9
REMARK VINA RESULT:    -3.597      1.323      3.728
REMARK INTER + INTRA:          -6.684
REMARK INTER:                  -5.675
REMARK INTRA:                  -1.010
REMARK UNBOUND:                -1.195
REMARK SMILES C=CCCCCCCCCCC
REMARK SMILES IDX 7 1 8 2 9 3 10 4 11 5 12 6 6 7 5 8 4 9 3 10 2 11 1 12
REMARK H PARENT
REMARK Flexibility Score: inf
ROOT
ATOM      1  C   UNL     1      32.310  11.470  33.771  1.00  0.00     0.000 C 
ENDROOT
BRANCH   1   2
ATOM      2  C   UNL     1      32.900  10.496  32.738  1.00  0.00    -0.000 C 
BRANCH   2   3
ATOM      3  C   UNL     1      32.338   9.070  32.878  1.00  0.00    -0.000 C 
BRANCH   3   4
ATOM      4  C   UNL     1      31.447   8.668  31.692  1.00  0.00    -0.000 C 
BRANCH   4   5
ATOM      5  C   UNL     1      31.478   9.700  30.555  1.00  0.00    -0.003 C 
ATOM      6  C   UNL     1      31.188   9.042  29.209  1.00  0.00     0.004 C 
ENDBRANCH   4   5
ENDBRANCH   3   4
ENDBRANCH   2   3
ENDBRANCH   1   2
BRANCH   1   7
ATOM      7  C   UNL     1      30.876  11.095  34.183  1.00  0.00     0.000 C 
BRANCH   7   8
ATOM      8  C   UNL     1      30.682  11.095  35.708  1.00  0.00     0.000 C 
BRANCH   8   9
ATOM      9  C   UNL     1      31.801  10.344  36.450  1.00  0.00     0.004 C 
BRANCH   9  10
ATOM     10  C   UNL     1      31.272   9.111  37.197  1.00  0.00     0.027 C 
BRANCH  10  11
ATOM     11  C   UNL     1      30.841   8.014  36.260  1.00  0.00    -0.035 C 
ATOM     12  C   UNL     1      31.609   6.946  36.024  1.00  0.00     0.004 C 
ENDBRANCH  10  11
ENDBRANCH   9  10
ENDBRANCH   8   9
ENDBRANCH   7   8
ENDBRANCH   1   7
TORSDOF 9
ENDMDL
