MODEL 1
REMARK VINA RESULT:    -0.167      0.000      0.000
REMARK INTER + INTRA:          -0.196
REMARK INTER:                  -0.187
REMARK INTRA:                  -0.009
REMARK UNBOUND:                -0.009
REMARK SMILES CCCC(=O)[O-]
REMARK SMILES IDX 3 1 4 2 5 3 6 4 2 5 1 6
REMARK H PARENT
REMARK Flexibility Score: inf
ROOT
ATOM      1  C   UNL     1     -36.918  17.005  18.218  1.00  0.00     0.052 C 
ENDROOT
BRANCH   1   2
ATOM      2  C   UNL     1     -35.472  16.976  17.826  1.00  0.00     0.041 C 
ATOM      3  O   UNL     1     -35.048  16.093  17.035  1.00  0.00    -0.550 OA
ATOM      4  O   UNL     1     -34.600  17.943  18.308  1.00  0.00    -0.550 OA
ENDBRANCH   1   2
BRANCH   1   5
ATOM      5  C   UNL     1     -37.559  15.615  18.129  1.00  0.00     0.003 C 
ATOM      6  C   UNL     1     -38.913  15.552  18.836  1.00  0.00     0.004 C 
ENDBRANCH   1   5
TORSDOF 2
ENDMDL
MODEL 2
REMARK VINA RESULT:     1.019      2.069      3.366
REMARK INTER + INTRA:           1.129
REMARK INTER:                   1.137
REMARK INTRA:                  -0.009
REMARK UNBOUND:                -0.009
REMARK SMILES CCCC(=O)[O-]
REMARK SMILES IDX 3 1 4 2 5 3 6 4 2 5 1 6
REMARK H PARENT
REMARK Flexibility Score: inf
ROOT
ATOM      1  C   UNL     1     -36.789  17.094  18.241  1.00  0.00     0.052 C 
ENDROOT
BRANCH   1   2
ATOM      2  C   UNL     1     -37.567  15.818  18.126  1.00  0.00     0.041 C 
ATOM      3  O   UNL     1     -37.232  14.946  17.283  1.00  0.00    -0.550 OA
ATOM      4  O   UNL     1     -38.643  15.580  18.972  1.00  0.00    -0.550 OA
ENDBRANCH   1   2
BRANCH   1   5
ATOM      5  C   UNL     1     -35.298  16.878  17.954  1.00  0.00     0.003 C 
ATOM      6  C   UNL     1     -34.474  18.146  18.172  1.00  0.00     0.004 C 
ENDBRANCH   1   5
TORSDOF 2
ENDMDL
MODEL 3
REMARK VINA RESULT:     1.102      2.833      3.715
REMARK INTER + INTRA:           1.221
REMARK INTER:                   1.227
REMARK INTRA:                  -0.005
REMARK UNBOUND:                -0.009
REMARK SMILES CCCC(=O)[O-]
REMARK SMILES IDX 3 1 4 2 5 3 6 4 2 5 1 6
REMARK H PARENT
REMARK Flexibility Score: inf
ROOT
ATOM      1  C   UNL     1     -37.064  15.895  18.098  1.00  0.00     0.052 C 
ENDROOT
BRANCH   1   2
ATOM      2  C   UNL     1     -38.493  15.769  18.532  1.00  0.00     0.041 C 
ATOM      3  O   UNL     1     -38.793  15.042  19.515  1.00  0.00    -0.550 OA
ATOM      4  O   UNL     1     -39.487  16.480  17.873  1.00  0.00    -0.550 OA
ENDBRANCH   1   2
BRANCH   1   5
ATOM      5  C   UNL     1     -36.571  17.345  18.178  1.00  0.00     0.003 C 
ATOM      6  C   UNL     1     -35.046  17.442  18.171  1.00  0.00     0.004 C 
ENDBRANCH   1   5
TORSDOF 2
ENDMDL
MODEL 4
REMARK VINA RESULT:     1.510      5.463      5.910
REMARK INTER + INTRA:           1.677
REMARK INTER:                   1.685
REMARK INTRA:                  -0.008
REMARK UNBOUND:                -0.009
REMARK SMILES CCCC(=O)[O-]
REMARK SMILES IDX 3 1 4 2 5 3 6 4 2 5 1 6
REMARK H PARENT
REMARK Flexibility Score: inf
ROOT
ATOM      1  C   UNL     1     -33.185  12.293  19.206  1.00  0.00     0.052 C 
ENDROOT
BRANCH   1   2
ATOM      2  C   UNL     1     -33.110  12.489  17.723  1.00  0.00     0.041 C 
ATOM      3  O   UNL     1     -34.165  12.574  17.042  1.00  0.00    -0.550 OA
ATOM      4  O   UNL     1     -31.875  12.612  17.098  1.00  0.00    -0.550 OA
ENDBRANCH   1   2
BRANCH   1   5
ATOM      5  C   UNL     1     -33.289  10.809  19.579  1.00  0.00     0.003 C 
ATOM      6  C   UNL     1     -34.018  10.592  20.905  1.00  0.00     0.004 C 
ENDBRANCH   1   5
TORSDOF 2
ENDMDL
MODEL 5
REMARK VINA RESULT:     1.878      6.135      6.813
REMARK INTER + INTRA:           2.088
REMARK INTER:                   2.112
REMARK INTRA:                  -0.024
REMARK UNBOUND:                -0.009
REMARK SMILES CCCC(=O)[O-]
REMARK SMILES IDX 3 1 4 2 5 3 6 4 2 5 1 6
REMARK H PARENT
REMARK Flexibility Score: inf
ROOT
ATOM      1  C   UNL     1     -33.144  11.017  19.191  1.00  0.00     0.052 C 
ENDROOT
BRANCH   1   2
ATOM      2  C   UNL     1     -33.811  10.955  20.532  1.00  0.00     0.041 C 
ATOM      3  O   UNL     1     -34.132  12.016  21.128  1.00  0.00    -0.550 OA
ATOM      4  O   UNL     1     -34.106   9.726  21.107  1.00  0.00    -0.550 OA
ENDBRANCH   1   2
BRANCH   1   5
ATOM      5  C   UNL     1     -33.003  12.460  18.692  1.00  0.00     0.003 C 
ATOM      6  C   UNL     1     -33.505  12.632  17.258  1.00  0.00     0.004 C 
ENDBRANCH   1   5
TORSDOF 2
ENDMDL
MODEL 6
REMARK VINA RESULT:     1.901      2.284      3.029
REMARK INTER + INTRA:           2.115
REMARK INTER:                   2.119
REMARK INTRA:                  -0.005
REMARK UNBOUND:                -0.009
REMARK SMILES CCCC(=O)[O-]
REMARK SMILES IDX 3 1 4 2 5 3 6 4 2 5 1 6
REMARK H PARENT
REMARK Flexibility Score: inf
ROOT
ATOM      1  C   UNL     1     -35.157  15.518  17.171  1.00  0.00     0.052 C 
ENDROOT
BRANCH   1   2
ATOM      2  C   UNL     1     -35.723  16.703  17.892  1.00  0.00     0.041 C 
ATOM      3  O   UNL     1     -36.940  16.727  18.213  1.00  0.00    -0.550 OA
ATOM      4  O   UNL     1     -34.899  17.767  18.239  1.00  0.00    -0.550 OA
ENDBRANCH   1   2
BRANCH   1   5
ATOM      5  C   UNL     1     -34.506  14.521  18.138  1.00  0.00     0.003 C 
ATOM      6  C   UNL     1     -33.854  13.346  17.410  1.00  0.00     0.004 C 
ENDBRANCH   1   5
TORSDOF 2
ENDMDL
MODEL 7
REMARK VINA RESULT:     2.440      1.963      2.912
REMARK INTER + INTRA:           2.716
REMARK INTER:                   2.546
REMARK INTRA:                   0.170
REMARK UNBOUND:                -0.009
REMARK SMILES CCCC(=O)[O-]
REMARK SMILES IDX 3 1 4 2 5 3 6 4 2 5 1 6
REMARK H PARENT
REMARK Flexibility Score: inf
ROOT
ATOM      1  C   UNL     1     -36.382  16.594  17.953  1.00  0.00     0.052 C 
ENDROOT
BRANCH   1   2
ATOM      2  C   UNL     1     -35.353  15.780  17.227  1.00  0.00     0.041 C 
ATOM      3  O   UNL     1     -34.710  14.886  17.835  1.00  0.00    -0.550 OA
ATOM      4  O   UNL     1     -35.130  15.988  15.872  1.00  0.00    -0.550 OA
ENDBRANCH   1   2
BRANCH   1   5
ATOM      5  C   UNL     1     -35.761  17.822  18.630  1.00  0.00     0.003 C 
ATOM      6  C   UNL     1     -34.417  18.210  18.012  1.00  0.00     0.004 C 
ENDBRANCH   1   5
TORSDOF 2
ENDMDL
