MODEL 1
REMARK VINA RESULT:    -2.297      0.000      0.000
REMARK INTER + INTRA:          -3.295
REMARK INTER:                  -3.103
REMARK INTRA:                  -0.192
REMARK UNBOUND:                -0.192
REMARK SMILES C[C@H](O)[C@@H](O)[C@@H](O)[C@H](O)C=O
REMARK SMILES IDX 4 1 2 2 1 3 3 4 6 6 8 7 10 8 11 9 9 10 7 12 5 14
REMARK H PARENT 3 5 9 11 7 13 5 15
REMARK Flexibility Score: inf
ROOT
ATOM      1  C   UNL     1      45.362 -25.193  -2.049  1.00  0.00     0.174 C 
ENDROOT
BRANCH   1   2
ATOM      2  C   UNL     1      46.112 -24.204  -1.106  1.00  0.00     0.142 C 
ATOM      3  C   UNL     1      46.053 -24.601   0.377  1.00  0.00     0.041 C 
BRANCH   2   4
ATOM      4  O   UNL     1      45.598 -22.904  -1.261  1.00  0.00    -0.391 OA
ATOM      5  H   UNL     1      45.869 -22.378  -0.463  1.00  0.00     0.211 HD
ENDBRANCH   2   4
ENDBRANCH   1   2
BRANCH   1   6
ATOM      6  C   UNL     1      46.080 -25.407  -3.416  1.00  0.00     0.181 C 
BRANCH   6   7
ATOM      7  C   UNL     1      45.409 -24.674  -4.612  1.00  0.00     0.209 C 
BRANCH   7   8
ATOM      8  C   UNL     1      46.122 -23.396  -5.000  1.00  0.00     0.258 C 
ATOM      9  O   UNL     1      45.847 -22.830  -6.047  1.00  0.00    -0.300 OA
ENDBRANCH   7   8
BRANCH   7  10
ATOM     10  O   UNL     1      45.235 -25.540  -5.710  1.00  0.00    -0.383 OA
ATOM     11  H   UNL     1      44.463 -26.137  -5.534  1.00  0.00     0.211 HD
ENDBRANCH   7  10
ENDBRANCH   6   7
BRANCH   6  12
ATOM     12  O   UNL     1      46.125 -26.782  -3.706  1.00  0.00    -0.387 OA
ATOM     13  H   UNL     1      46.360 -27.251  -2.863  1.00  0.00     0.211 HD
ENDBRANCH   6  12
ENDBRANCH   1   6
BRANCH   1  14
ATOM     14  O   UNL     1      44.048 -24.733  -2.245  1.00  0.00    -0.388 OA
ATOM     15  H   UNL     1      44.101 -23.763  -2.455  1.00  0.00     0.211 HD
ENDBRANCH   1  14
TORSDOF 8
ENDMDL
MODEL 2
REMARK VINA RESULT:    -1.838      3.494      6.019
REMARK INTER + INTRA:          -2.674
REMARK INTER:                  -1.956
REMARK INTRA:                  -0.718
REMARK UNBOUND:                -0.192
REMARK SMILES C[C@H](O)[C@@H](O)[C@@H](O)[C@H](O)C=O
REMARK SMILES IDX 4 1 2 2 1 3 3 4 6 6 8 7 10 8 11 9 9 10 7 12 5 14
REMARK H PARENT 3 5 9 11 7 13 5 15
REMARK Flexibility Score: inf
ROOT
ATOM      1  C   UNL     1      45.970 -24.917   0.885  1.00  0.00     0.174 C 
ENDROOT
BRANCH   1   2
ATOM      2  C   UNL     1      46.099 -24.424  -0.588  1.00  0.00     0.142 C 
ATOM      3  C   UNL     1      46.039 -22.896  -0.734  1.00  0.00     0.041 C 
BRANCH   2   4
ATOM      4  O   UNL     1      45.095 -25.007  -1.382  1.00  0.00    -0.391 OA
ATOM      5  H   UNL     1      44.425 -24.302  -1.583  1.00  0.00     0.211 HD
ENDBRANCH   2   4
ENDBRANCH   1   2
BRANCH   1   6
ATOM      6  C   UNL     1      45.413 -26.368   1.004  1.00  0.00     0.181 C 
BRANCH   6   7
ATOM      7  C   UNL     1      45.485 -26.965   2.438  1.00  0.00     0.209 C 
BRANCH   7   8
ATOM      8  C   UNL     1      46.111 -28.343   2.476  1.00  0.00     0.258 C 
ATOM      9  O   UNL     1      45.456 -29.326   2.166  1.00  0.00    -0.300 OA
ENDBRANCH   7   8
BRANCH   7  10
ATOM     10  O   UNL     1      46.109 -26.073   3.332  1.00  0.00    -0.383 OA
ATOM     11  H   UNL     1      45.484 -25.864   4.072  1.00  0.00     0.211 HD
ENDBRANCH   7  10
ENDBRANCH   6   7
BRANCH   6  12
ATOM     12  O   UNL     1      46.125 -27.212   0.134  1.00  0.00    -0.387 OA
ATOM     13  H   UNL     1      45.565 -27.336  -0.677  1.00  0.00     0.211 HD
ENDBRANCH   6  12
ENDBRANCH   1   6
BRANCH   1  14
ATOM     14  O   UNL     1      45.164 -24.016   1.602  1.00  0.00    -0.388 OA
ATOM     15  H   UNL     1      44.830 -24.491   2.408  1.00  0.00     0.211 HD
ENDBRANCH   1  14
TORSDOF 8
ENDMDL
MODEL 3
REMARK VINA RESULT:    -1.815      1.390      2.079
REMARK INTER + INTRA:          -2.643
REMARK INTER:                  -3.075
REMARK INTRA:                   0.432
REMARK UNBOUND:                -0.192
REMARK SMILES C[C@H](O)[C@@H](O)[C@@H](O)[C@H](O)C=O
REMARK SMILES IDX 4 1 2 2 1 3 3 4 6 6 8 7 10 8 11 9 9 10 7 12 5 14
REMARK H PARENT 3 5 9 11 7 13 5 15
REMARK Flexibility Score: inf
ROOT
ATOM      1  C   UNL     1      45.496 -24.066  -0.958  1.00  0.00     0.174 C 
ENDROOT
BRANCH   1   2
ATOM      2  C   UNL     1      46.118 -24.278   0.455  1.00  0.00     0.142 C 
ATOM      3  C   UNL     1      45.661 -25.574   1.142  1.00  0.00     0.041 C 
BRANCH   2   4
ATOM      4  O   UNL     1      45.819 -23.181   1.284  1.00  0.00    -0.391 OA
ATOM      5  H   UNL     1      46.547 -22.515   1.171  1.00  0.00     0.211 HD
ENDBRANCH   2   4
ENDBRANCH   1   2
BRANCH   1   6
ATOM      6  C   UNL     1      46.084 -25.021  -2.041  1.00  0.00     0.181 C 
BRANCH   6   7
ATOM      7  C   UNL     1      45.290 -25.037  -3.378  1.00  0.00     0.209 C 
BRANCH   7   8
ATOM      8  C   UNL     1      46.124 -25.485  -4.558  1.00  0.00     0.258 C 
ATOM      9  O   UNL     1      45.722 -25.314  -5.699  1.00  0.00    -0.300 OA
ENDBRANCH   7   8
BRANCH   7  10
ATOM     10  O   UNL     1      44.099 -25.780  -3.256  1.00  0.00    -0.383 OA
ATOM     11  H   UNL     1      43.913 -26.241  -4.113  1.00  0.00     0.211 HD
ENDBRANCH   7  10
ENDBRANCH   6   7
BRANCH   6  12
ATOM     12  O   UNL     1      46.125 -26.331  -1.532  1.00  0.00    -0.387 OA
ATOM     13  H   UNL     1      45.221 -26.535  -1.176  1.00  0.00     0.211 HD
ENDBRANCH   6  12
ENDBRANCH   1   6
BRANCH   1  14
ATOM     14  O   UNL     1      45.665 -22.723  -1.337  1.00  0.00    -0.388 OA
ATOM     15  H   UNL     1      45.435 -22.161  -0.551  1.00  0.00     0.211 HD
ENDBRANCH   1  14
TORSDOF 8
ENDMDL
MODEL 4
REMARK VINA RESULT:    -1.661      1.243      2.289
REMARK INTER + INTRA:          -2.435
REMARK INTER:                  -2.991
REMARK INTRA:                   0.556
REMARK UNBOUND:                -0.192
REMARK SMILES C[C@H](O)[C@@H](O)[C@@H](O)[C@H](O)C=O
REMARK SMILES IDX 4 1 2 2 1 3 3 4 6 6 8 7 10 8 11 9 9 10 7 12 5 14
REMARK H PARENT 3 5 9 11 7 13 5 15
REMARK Flexibility Score: inf
ROOT
ATOM      1  C   UNL     1      45.966 -24.726  -3.564  1.00  0.00     0.174 C 
ENDROOT
BRANCH   1   2
ATOM      2  C   UNL     1      45.163 -24.491  -2.249  1.00  0.00     0.142 C 
ATOM      3  C   UNL     1      45.997 -24.685  -0.974  1.00  0.00     0.041 C 
BRANCH   2   4
ATOM      4  O   UNL     1      44.044 -25.343  -2.208  1.00  0.00    -0.391 OA
ATOM      5  H   UNL     1      43.511 -25.175  -3.029  1.00  0.00     0.211 HD
ENDBRANCH   2   4
ENDBRANCH   1   2
BRANCH   1   6
ATOM      6  C   UNL     1      45.405 -23.930  -4.781  1.00  0.00     0.181 C 
BRANCH   6   7
ATOM      7  C   UNL     1      45.464 -24.700  -6.131  1.00  0.00     0.209 C 
BRANCH   7   8
ATOM      8  C   UNL     1      46.123 -23.907  -7.239  1.00  0.00     0.258 C 
ATOM      9  O   UNL     1      45.703 -22.800  -7.539  1.00  0.00    -0.300 OA
ENDBRANCH   7   8
BRANCH   7  10
ATOM     10  O   UNL     1      46.046 -25.972  -5.969  1.00  0.00    -0.383 OA
ATOM     11  H   UNL     1      45.992 -26.467  -6.826  1.00  0.00     0.211 HD
ENDBRANCH   7  10
ENDBRANCH   6   7
BRANCH   6  12
ATOM     12  O   UNL     1      46.125 -22.730  -4.922  1.00  0.00    -0.387 OA
ATOM     13  H   UNL     1      46.833 -22.730  -4.225  1.00  0.00     0.211 HD
ENDBRANCH   6  12
ENDBRANCH   1   6
BRANCH   1  14
ATOM     14  O   UNL     1      45.996 -26.104  -3.844  1.00  0.00    -0.388 OA
ATOM     15  H   UNL     1      45.056 -26.428  -3.844  1.00  0.00     0.211 HD
ENDBRANCH   1  14
TORSDOF 8
ENDMDL
MODEL 5
REMARK VINA RESULT:    -1.395      1.192      2.186
REMARK INTER + INTRA:          -2.076
REMARK INTER:                  -2.020
REMARK INTRA:                  -0.056
REMARK UNBOUND:                -0.192
REMARK SMILES C[C@H](O)[C@@H](O)[C@@H](O)[C@H](O)C=O
REMARK SMILES IDX 4 1 2 2 1 3 3 4 6 6 8 7 10 8 11 9 9 10 7 12 5 14
REMARK H PARENT 3 5 9 11 7 13 5 15
REMARK Flexibility Score: inf
ROOT
ATOM      1  C   UNL     1      46.068 -24.860  -2.856  1.00  0.00     0.174 C 
ENDROOT
BRANCH   1   2
ATOM      2  C   UNL     1      46.116 -24.333  -1.390  1.00  0.00     0.142 C 
ATOM      3  C   UNL     1      45.926 -25.432  -0.333  1.00  0.00     0.041 C 
BRANCH   2   4
ATOM      4  O   UNL     1      45.143 -23.334  -1.204  1.00  0.00    -0.391 OA
ATOM      5  H   UNL     1      44.283 -23.789  -1.000  1.00  0.00     0.211 HD
ENDBRANCH   2   4
ENDBRANCH   1   2
BRANCH   1   6
ATOM      6  C   UNL     1      45.635 -23.776  -3.889  1.00  0.00     0.181 C 
BRANCH   6   7
ATOM      7  C   UNL     1      46.125 -24.043  -5.340  1.00  0.00     0.209 C 
BRANCH   7   8
ATOM      8  C   UNL     1      45.375 -25.167  -6.022  1.00  0.00     0.258 C 
ATOM      9  O   UNL     1      45.985 -26.043  -6.616  1.00  0.00    -0.300 OA
ENDBRANCH   7   8
BRANCH   7  10
ATOM     10  O   UNL     1      46.122 -22.860  -6.106  1.00  0.00    -0.383 OA
ATOM     11  H   UNL     1      45.436 -22.934  -6.817  1.00  0.00     0.211 HD
ENDBRANCH   7  10
ENDBRANCH   6   7
BRANCH   6  12
ATOM     12  O   UNL     1      46.123 -22.523  -3.478  1.00  0.00    -0.387 OA
ATOM     13  H   UNL     1      46.713 -22.187  -4.203  1.00  0.00     0.211 HD
ENDBRANCH   6  12
ENDBRANCH   1   6
BRANCH   1  14
ATOM     14  O   UNL     1      45.210 -25.973  -2.916  1.00  0.00    -0.388 OA
ATOM     15  H   UNL     1      44.556 -25.806  -3.646  1.00  0.00     0.211 HD
ENDBRANCH   1  14
TORSDOF 8
ENDMDL
MODEL 6
REMARK VINA RESULT:    -1.246      3.147      4.876
REMARK INTER + INTRA:          -1.875
REMARK INTER:                  -1.757
REMARK INTRA:                  -0.118
REMARK UNBOUND:                -0.192
REMARK SMILES C[C@H](O)[C@@H](O)[C@@H](O)[C@H](O)C=O
REMARK SMILES IDX 4 1 2 2 1 3 3 4 6 6 8 7 10 8 11 9 9 10 7 12 5 14
REMARK H PARENT 3 5 9 11 7 13 5 15
REMARK Flexibility Score: inf
ROOT
ATOM      1  C   UNL     1      45.075 -26.283   1.678  1.00  0.00     0.174 C 
ENDROOT
BRANCH   1   2
ATOM      2  C   UNL     1      45.260 -27.778   2.080  1.00  0.00     0.142 C 
ATOM      3  C   UNL     1      45.863 -27.970   3.480  1.00  0.00     0.041 C 
BRANCH   2   4
ATOM      4  O   UNL     1      46.065 -28.437   1.133  1.00  0.00    -0.391 OA
ATOM      5  H   UNL     1      45.579 -29.254   0.845  1.00  0.00     0.211 HD
ENDBRANCH   2   4
ENDBRANCH   1   2
BRANCH   1   6
ATOM      6  C   UNL     1      46.125 -25.789   0.637  1.00  0.00     0.181 C 
BRANCH   6   7
ATOM      7  C   UNL     1      45.893 -24.335   0.136  1.00  0.00     0.209 C 
BRANCH   7   8
ATOM      8  C   UNL     1      45.491 -24.267  -1.321  1.00  0.00     0.258 C 
ATOM      9  O   UNL     1      44.512 -24.878  -1.720  1.00  0.00    -0.300 OA
ENDBRANCH   7   8
BRANCH   7  10
ATOM     10  O   UNL     1      44.991 -23.645   0.970  1.00  0.00    -0.383 OA
ATOM     11  H   UNL     1      45.391 -22.779   1.236  1.00  0.00     0.211 HD
ENDBRANCH   7  10
ENDBRANCH   6   7
BRANCH   6  12
ATOM     12  O   UNL     1      46.116 -26.649  -0.475  1.00  0.00    -0.387 OA
ATOM     13  H   UNL     1      45.226 -27.088  -0.499  1.00  0.00     0.211 HD
ENDBRANCH   6  12
ENDBRANCH   1   6
BRANCH   1  14
ATOM     14  O   UNL     1      45.113 -25.488   2.837  1.00  0.00    -0.388 OA
ATOM     15  H   UNL     1      45.865 -25.816   3.398  1.00  0.00     0.211 HD
ENDBRANCH   1  14
TORSDOF 8
ENDMDL
