MODEL 1
REMARK VINA RESULT:    -3.917      0.000      0.000
REMARK INTER + INTRA:          -6.674
REMARK INTER:                  -6.208
REMARK INTRA:                  -0.466
REMARK UNBOUND:                -0.466
REMARK SMILES CCCCCCCCCCCC(=O)[O-]
REMARK SMILES IDX 7 1 8 2 9 3 10 4 11 5 12 6 13 7 14 8 6 9 5 10 4 11 3 12 2 13
REMARK SMILES IDX 1 14
REMARK H PARENT
REMARK Flexibility Score: inf
ROOT
ATOM      1  C   UNL     1     -23.421 -14.457   3.026  1.00  0.00     0.000 C 
ENDROOT
BRANCH   1   2
ATOM      2  C   UNL     1     -24.282 -15.683   2.701  1.00  0.00     0.000 C 
BRANCH   2   3
ATOM      3  C   UNL     1     -25.462 -15.802   3.673  1.00  0.00     0.000 C 
BRANCH   3   4
ATOM      4  C   UNL     1     -26.560 -16.710   3.099  1.00  0.00     0.006 C 
BRANCH   4   5
ATOM      5  C   UNL     1     -27.931 -16.432   3.728  1.00  0.00     0.053 C 
BRANCH   5   6
ATOM      6  C   UNL     1     -28.680 -15.374   2.978  1.00  0.00     0.041 C 
ATOM      7  O   UNL     1     -29.427 -15.689   2.014  1.00  0.00    -0.550 OA
ATOM      8  O   UNL     1     -28.578 -14.043   3.363  1.00  0.00    -0.550 OA
ENDBRANCH   5   6
ENDBRANCH   4   5
ENDBRANCH   3   4
ENDBRANCH   2   3
ENDBRANCH   1   2
BRANCH   1   9
ATOM      9  C   UNL     1     -23.791 -13.874   4.398  1.00  0.00     0.000 C 
BRANCH   9  10
ATOM     10  C   UNL     1     -23.488 -12.372   4.505  1.00  0.00    -0.000 C 
BRANCH  10  11
ATOM     11  C   UNL     1     -21.983 -12.068   4.494  1.00  0.00    -0.000 C 
BRANCH  11  12
ATOM     12  C   UNL     1     -21.730 -10.553   4.443  1.00  0.00    -0.000 C 
BRANCH  12  13
ATOM     13  C   UNL     1     -20.290 -10.207   4.034  1.00  0.00    -0.003 C 
ATOM     14  C   UNL     1     -19.467 -11.441   3.666  1.00  0.00     0.004 C 
ENDBRANCH  12  13
ENDBRANCH  11  12
ENDBRANCH  10  11
ENDBRANCH   9  10
ENDBRANCH   1   9
TORSDOF 10
ENDMDL
MODEL 2
REMARK VINA RESULT:    -3.917     10.696     11.593
REMARK INTER + INTRA:          -6.673
REMARK INTER:                  -6.193
REMARK INTRA:                  -0.480
REMARK UNBOUND:                -0.466
REMARK SMILES CCCCCCCCCCCC(=O)[O-]
REMARK SMILES IDX 7 1 8 2 9 3 10 4 11 5 12 6 13 7 14 8 6 9 5 10 4 11 3 12 2 13
REMARK SMILES IDX 1 14
REMARK H PARENT
REMARK Flexibility Score: inf
ROOT
ATOM      1  C   UNL     1     -16.157 -17.689  -4.510  1.00  0.00     0.000 C 
ENDROOT
BRANCH   1   2
ATOM      2  C   UNL     1     -17.609 -17.755  -4.021  1.00  0.00     0.000 C 
BRANCH   2   3
ATOM      3  C   UNL     1     -18.315 -19.007  -4.556  1.00  0.00     0.000 C 
BRANCH   3   4
ATOM      4  C   UNL     1     -19.611 -19.282  -3.779  1.00  0.00     0.006 C 
BRANCH   4   5
ATOM      5  C   UNL     1     -20.803 -19.536  -4.712  1.00  0.00     0.053 C 
BRANCH   5   6
ATOM      6  C   UNL     1     -20.808 -20.939  -5.235  1.00  0.00     0.041 C 
ATOM      7  O   UNL     1     -20.699 -21.912  -4.444  1.00  0.00    -0.550 OA
ATOM      8  O   UNL     1     -20.967 -21.173  -6.595  1.00  0.00    -0.550 OA
ENDBRANCH   5   6
ENDBRANCH   4   5
ENDBRANCH   3   4
ENDBRANCH   2   3
ENDBRANCH   1   2
BRANCH   1   9
ATOM      9  C   UNL     1     -15.415 -16.506  -3.872  1.00  0.00     0.000 C 
BRANCH   9  10
ATOM     10  C   UNL     1     -16.369 -15.415  -3.359  1.00  0.00    -0.000 C 
BRANCH  10  11
ATOM     11  C   UNL     1     -16.202 -14.083  -4.104  1.00  0.00    -0.000 C 
BRANCH  11  12
ATOM     12  C   UNL     1     -16.150 -14.308  -5.624  1.00  0.00    -0.000 C 
BRANCH  12  13
ATOM     13  C   UNL     1     -16.354 -13.011  -6.421  1.00  0.00    -0.003 C 
ATOM     14  C   UNL     1     -17.713 -12.952  -7.118  1.00  0.00     0.004 C 
ENDBRANCH  12  13
ENDBRANCH  11  12
ENDBRANCH  10  11
ENDBRANCH   9  10
ENDBRANCH   1   9
TORSDOF 10
ENDMDL
MODEL 3
REMARK VINA RESULT:    -3.909     10.439     11.218
REMARK INTER + INTRA:          -6.661
REMARK INTER:                  -5.873
REMARK INTRA:                  -0.788
REMARK UNBOUND:                -0.466
REMARK SMILES CCCCCCCCCCCC(=O)[O-]
REMARK SMILES IDX 7 1 8 2 9 3 10 4 11 5 12 6 13 7 14 8 6 9 5 10 4 11 3 12 2 13
REMARK SMILES IDX 1 14
REMARK H PARENT
REMARK Flexibility Score: inf
ROOT
ATOM      1  C   UNL     1     -18.245 -18.124  -3.161  1.00  0.00     0.000 C 
ENDROOT
BRANCH   1   2
ATOM      2  C   UNL     1     -18.096 -18.554  -4.625  1.00  0.00     0.000 C 
BRANCH   2   3
ATOM      3  C   UNL     1     -18.578 -19.997  -4.827  1.00  0.00     0.000 C 
BRANCH   3   4
ATOM      4  C   UNL     1     -19.650 -20.369  -3.792  1.00  0.00     0.006 C 
BRANCH   4   5
ATOM      5  C   UNL     1     -20.745 -21.263  -4.388  1.00  0.00     0.053 C 
BRANCH   5   6
ATOM      6  C   UNL     1     -21.387 -20.630  -5.584  1.00  0.00     0.041 C 
ATOM      7  O   UNL     1     -21.398 -21.232  -6.690  1.00  0.00    -0.550 OA
ATOM      8  O   UNL     1     -22.001 -19.390  -5.470  1.00  0.00    -0.550 OA
ENDBRANCH   5   6
ENDBRANCH   4   5
ENDBRANCH   3   4
ENDBRANCH   2   3
ENDBRANCH   1   2
BRANCH   1   9
ATOM      9  C   UNL     1     -17.506 -16.804  -2.898  1.00  0.00     0.000 C 
BRANCH   9  10
ATOM     10  C   UNL     1     -15.978 -16.961  -2.941  1.00  0.00    -0.000 C 
BRANCH  10  11
ATOM     11  C   UNL     1     -15.265 -15.694  -3.437  1.00  0.00    -0.000 C 
BRANCH  11  12
ATOM     12  C   UNL     1     -16.283 -14.628  -3.873  1.00  0.00    -0.000 C 
BRANCH  12  13
ATOM     13  C   UNL     1     -16.298 -14.413  -5.395  1.00  0.00    -0.003 C 
ATOM     14  C   UNL     1     -15.252 -15.257  -6.122  1.00  0.00     0.004 C 
ENDBRANCH  12  13
ENDBRANCH  11  12
ENDBRANCH  10  11
ENDBRANCH   9  10
ENDBRANCH   1   9
TORSDOF 10
ENDMDL
MODEL 4
REMARK VINA RESULT:    -3.890      3.579      7.385
REMARK INTER + INTRA:          -6.631
REMARK INTER:                  -5.992
REMARK INTRA:                  -0.639
REMARK UNBOUND:                -0.466
REMARK SMILES CCCCCCCCCCCC(=O)[O-]
REMARK SMILES IDX 7 1 8 2 9 3 10 4 11 5 12 6 13 7 14 8 6 9 5 10 4 11 3 12 2 13
REMARK SMILES IDX 1 14
REMARK H PARENT
REMARK Flexibility Score: inf
ROOT
ATOM      1  C   UNL     1     -23.934 -12.462   4.696  1.00  0.00     0.000 C 
ENDROOT
BRANCH   1   2
ATOM      2  C   UNL     1     -24.535 -11.057   4.812  1.00  0.00     0.000 C 
BRANCH   2   3
ATOM      3  C   UNL     1     -23.496  -9.982   4.467  1.00  0.00     0.000 C 
BRANCH   3   4
ATOM      4  C   UNL     1     -22.130 -10.320   5.082  1.00  0.00     0.006 C 
BRANCH   4   5
ATOM      5  C   UNL     1     -20.973 -10.044   4.113  1.00  0.00     0.053 C 
BRANCH   5   6
ATOM      6  C   UNL     1     -20.194 -11.287   3.811  1.00  0.00     0.041 C 
ATOM      7  O   UNL     1     -20.793 -12.373   3.589  1.00  0.00    -0.550 OA
ATOM      8  O   UNL     1     -18.808 -11.241   3.744  1.00  0.00    -0.550 OA
ENDBRANCH   5   6
ENDBRANCH   4   5
ENDBRANCH   3   4
ENDBRANCH   2   3
ENDBRANCH   1   2
BRANCH   1   9
ATOM      9  C   UNL     1     -24.906 -13.419   3.991  1.00  0.00     0.000 C 
BRANCH   9  10
ATOM     10  C   UNL     1     -24.193 -14.399   3.046  1.00  0.00    -0.000 C 
BRANCH  10  11
ATOM     11  C   UNL     1     -24.808 -15.807   3.078  1.00  0.00    -0.000 C 
BRANCH  11  12
ATOM     12  C   UNL     1     -25.821 -15.936   4.225  1.00  0.00    -0.000 C 
BRANCH  12  13
ATOM     13  C   UNL     1     -27.160 -16.536   3.767  1.00  0.00    -0.003 C 
ATOM     14  C   UNL     1     -28.172 -15.471   3.346  1.00  0.00     0.004 C 
ENDBRANCH  12  13
ENDBRANCH  11  12
ENDBRANCH  10  11
ENDBRANCH   9  10
ENDBRANCH   1   9
TORSDOF 10
ENDMDL
MODEL 5
REMARK VINA RESULT:    -3.890     10.138     10.920
REMARK INTER + INTRA:          -6.630
REMARK INTER:                  -6.041
REMARK INTRA:                  -0.590
REMARK UNBOUND:                -0.466
REMARK SMILES CCCCCCCCCCCC(=O)[O-]
REMARK SMILES IDX 7 1 8 2 9 3 10 4 11 5 12 6 13 7 14 8 6 9 5 10 4 11 3 12 2 13
REMARK SMILES IDX 1 14
REMARK H PARENT
REMARK Flexibility Score: inf
ROOT
ATOM      1  C   UNL     1     -18.658 -18.865  -3.384  1.00  0.00     0.000 C 
ENDROOT
BRANCH   1   2
ATOM      2  C   UNL     1     -20.090 -19.359  -3.616  1.00  0.00     0.000 C 
BRANCH   2   3
ATOM      3  C   UNL     1     -20.103 -20.623  -4.486  1.00  0.00     0.000 C 
BRANCH   3   4
ATOM      4  C   UNL     1     -21.206 -20.547  -5.552  1.00  0.00     0.006 C 
BRANCH   4   5
ATOM      5  C   UNL     1     -21.981 -19.225  -5.491  1.00  0.00     0.053 C 
BRANCH   5   6
ATOM      6  C   UNL     1     -23.182 -19.244  -6.386  1.00  0.00     0.041 C 
ATOM      7  O   UNL     1     -24.339 -19.149  -5.898  1.00  0.00    -0.550 OA
ATOM      8  O   UNL     1     -23.021 -19.333  -7.763  1.00  0.00    -0.550 OA
ENDBRANCH   5   6
ENDBRANCH   4   5
ENDBRANCH   3   4
ENDBRANCH   2   3
ENDBRANCH   1   2
BRANCH   1   9
ATOM      9  C   UNL     1     -17.895 -18.748  -4.711  1.00  0.00     0.000 C 
BRANCH   9  10
ATOM     10  C   UNL     1     -16.676 -17.817  -4.614  1.00  0.00    -0.000 C 
BRANCH  10  11
ATOM     11  C   UNL     1     -16.451 -17.281  -3.192  1.00  0.00    -0.000 C 
BRANCH  11  12
ATOM     12  C   UNL     1     -15.555 -16.032  -3.213  1.00  0.00    -0.000 C 
BRANCH  12  13
ATOM     13  C   UNL     1     -16.327 -14.757  -3.587  1.00  0.00    -0.003 C 
ATOM     14  C   UNL     1     -16.116 -14.344  -5.043  1.00  0.00     0.004 C 
ENDBRANCH  12  13
ENDBRANCH  11  12
ENDBRANCH  10  11
ENDBRANCH   9  10
ENDBRANCH   1   9
TORSDOF 10
ENDMDL
MODEL 6
REMARK VINA RESULT:    -3.869      3.923      6.736
REMARK INTER + INTRA:          -6.597
REMARK INTER:                  -5.422
REMARK INTRA:                  -1.175
REMARK UNBOUND:                -0.466
REMARK SMILES CCCCCCCCCCCC(=O)[O-]
REMARK SMILES IDX 7 1 8 2 9 3 10 4 11 5 12 6 13 7 14 8 6 9 5 10 4 11 3 12 2 13
REMARK SMILES IDX 1 14
REMARK H PARENT
REMARK Flexibility Score: inf
ROOT
ATOM      1  C   UNL     1     -24.247 -15.321   3.585  1.00  0.00     0.000 C 
ENDROOT
BRANCH   1   2
ATOM      2  C   UNL     1     -23.503 -13.994   3.389  1.00  0.00     0.000 C 
BRANCH   2   3
ATOM      3  C   UNL     1     -23.471 -13.183   4.690  1.00  0.00     0.000 C 
BRANCH   3   4
ATOM      4  C   UNL     1     -22.473 -12.019   4.589  1.00  0.00     0.006 C 
BRANCH   4   5
ATOM      5  C   UNL     1     -21.174 -12.430   3.885  1.00  0.00     0.053 C 
BRANCH   5   6
ATOM      6  C   UNL     1     -20.156 -11.332   3.914  1.00  0.00     0.041 C 
ATOM      7  O   UNL     1     -18.949 -11.578   3.656  1.00  0.00    -0.550 OA
ATOM      8  O   UNL     1     -20.547 -10.029   4.196  1.00  0.00    -0.550 OA
ENDBRANCH   5   6
ENDBRANCH   4   5
ENDBRANCH   3   4
ENDBRANCH   2   3
ENDBRANCH   1   2
BRANCH   1   9
ATOM      9  C   UNL     1     -24.935 -15.367   4.957  1.00  0.00     0.000 C 
BRANCH   9  10
ATOM     10  C   UNL     1     -26.394 -15.840   4.873  1.00  0.00    -0.000 C 
BRANCH  10  11
ATOM     11  C   UNL     1     -27.141 -15.250   3.668  1.00  0.00    -0.000 C 
BRANCH  11  12
ATOM     12  C   UNL     1     -27.766 -13.891   4.022  1.00  0.00    -0.000 C 
BRANCH  12  13
ATOM     13  C   UNL     1     -27.042 -12.714   3.352  1.00  0.00    -0.003 C 
ATOM     14  C   UNL     1     -26.686 -11.600   4.337  1.00  0.00     0.004 C 
ENDBRANCH  12  13
ENDBRANCH  11  12
ENDBRANCH  10  11
ENDBRANCH   9  10
ENDBRANCH   1   9
TORSDOF 10
ENDMDL
MODEL 7
REMARK VINA RESULT:    -3.830     12.063     13.330
REMARK INTER + INTRA:          -6.535
REMARK INTER:                  -5.739
REMARK INTRA:                  -0.796
REMARK UNBOUND:                -0.466
REMARK SMILES CCCCCCCCCCCC(=O)[O-]
REMARK SMILES IDX 7 1 8 2 9 3 10 4 11 5 12 6 13 7 14 8 6 9 5 10 4 11 3 12 2 13
REMARK SMILES IDX 1 14
REMARK H PARENT
REMARK Flexibility Score: inf
ROOT
ATOM      1  C   UNL     1     -18.240 -18.132  -3.525  1.00  0.00     0.000 C 
ENDROOT
BRANCH   1   2
ATOM      2  C   UNL     1     -17.550 -18.546  -4.830  1.00  0.00     0.000 C 
BRANCH   2   3
ATOM      3  C   UNL     1     -17.943 -19.974  -5.233  1.00  0.00     0.000 C 
BRANCH   3   4
ATOM      4  C   UNL     1     -16.960 -20.544  -6.266  1.00  0.00     0.006 C 
BRANCH   4   5
ATOM      5  C   UNL     1     -15.910 -19.513  -6.698  1.00  0.00     0.053 C 
BRANCH   5   6
ATOM      6  C   UNL     1     -15.733 -19.492  -8.185  1.00  0.00     0.041 C 
ATOM      7  O   UNL     1     -16.017 -20.508  -8.872  1.00  0.00    -0.550 OA
ATOM      8  O   UNL     1     -15.284 -18.338  -8.816  1.00  0.00    -0.550 OA
ENDBRANCH   5   6
ENDBRANCH   4   5
ENDBRANCH   3   4
ENDBRANCH   2   3
ENDBRANCH   1   2
BRANCH   1   9
ATOM      9  C   UNL     1     -17.564 -16.897  -2.914  1.00  0.00     0.000 C 
BRANCH   9  10
ATOM     10  C   UNL     1     -16.035 -17.035  -2.835  1.00  0.00    -0.000 C 
BRANCH  10  11
ATOM     11  C   UNL     1     -15.303 -15.739  -3.213  1.00  0.00    -0.000 C 
BRANCH  11  12
ATOM     12  C   UNL     1     -16.234 -14.785  -3.977  1.00  0.00    -0.000 C 
BRANCH  12  13
ATOM     13  C   UNL     1     -15.953 -14.768  -5.487  1.00  0.00    -0.003 C 
ATOM     14  C   UNL     1     -16.632 -13.601  -6.202  1.00  0.00     0.004 C 
ENDBRANCH  12  13
ENDBRANCH  11  12
ENDBRANCH  10  11
ENDBRANCH   9  10
ENDBRANCH   1   9
TORSDOF 10
ENDMDL
MODEL 8
REMARK VINA RESULT:    -3.822      1.364      1.836
REMARK INTER + INTRA:          -6.523
REMARK INTER:                  -5.736
REMARK INTRA:                  -0.787
REMARK UNBOUND:                -0.466
REMARK SMILES CCCCCCCCCCCC(=O)[O-]
REMARK SMILES IDX 7 1 8 2 9 3 10 4 11 5 12 6 13 7 14 8 6 9 5 10 4 11 3 12 2 13
REMARK SMILES IDX 1 14
REMARK H PARENT
REMARK Flexibility Score: inf
ROOT
ATOM      1  C   UNL     1     -24.115 -15.335   2.710  1.00  0.00     0.000 C 
ENDROOT
BRANCH   1   2
ATOM      2  C   UNL     1     -25.109 -15.706   3.817  1.00  0.00     0.000 C 
BRANCH   2   3
ATOM      3  C   UNL     1     -26.353 -16.389   3.234  1.00  0.00     0.000 C 
BRANCH   3   4
ATOM      4  C   UNL     1     -27.619 -15.573   3.534  1.00  0.00     0.006 C 
BRANCH   4   5
ATOM      5  C   UNL     1     -27.373 -14.487   4.589  1.00  0.00     0.053 C 
BRANCH   5   6
ATOM      6  C   UNL     1     -27.794 -13.135   4.100  1.00  0.00     0.041 C 
ATOM      7  O   UNL     1     -27.243 -12.626   3.089  1.00  0.00    -0.550 OA
ATOM      8  O   UNL     1     -28.817 -12.450   4.744  1.00  0.00    -0.550 OA
ENDBRANCH   5   6
ENDBRANCH   4   5
ENDBRANCH   3   4
ENDBRANCH   2   3
ENDBRANCH   1   2
BRANCH   1   9
ATOM      9  C   UNL     1     -23.160 -14.227   3.178  1.00  0.00     0.000 C 
BRANCH   9  10
ATOM     10  C   UNL     1     -23.796 -13.299   4.226  1.00  0.00    -0.000 C 
BRANCH  10  11
ATOM     11  C   UNL     1     -22.869 -12.146   4.637  1.00  0.00    -0.000 C 
BRANCH  11  12
ATOM     12  C   UNL     1     -21.458 -12.346   4.064  1.00  0.00    -0.000 C 
BRANCH  12  13
ATOM     13  C   UNL     1     -20.613 -11.064   4.112  1.00  0.00    -0.003 C 
ATOM     14  C   UNL     1     -19.174 -11.286   3.646  1.00  0.00     0.004 C 
ENDBRANCH  12  13
ENDBRANCH  11  12
ENDBRANCH  10  11
ENDBRANCH   9  10
ENDBRANCH   1   9
TORSDOF 10
ENDMDL
MODEL 9
REMARK VINA RESULT:    -3.730      2.643      3.862
REMARK INTER + INTRA:          -6.377
REMARK INTER:                  -5.508
REMARK INTRA:                  -0.869
REMARK UNBOUND:                -0.466
REMARK SMILES CCCCCCCCCCCC(=O)[O-]
REMARK SMILES IDX 7 1 8 2 9 3 10 4 11 5 12 6 13 7 14 8 6 9 5 10 4 11 3 12 2 13
REMARK SMILES IDX 1 14
REMARK H PARENT
REMARK Flexibility Score: inf
ROOT
ATOM      1  C   UNL     1     -25.449 -10.859   5.204  1.00  0.00     0.000 C 
ENDROOT
BRANCH   1   2
ATOM      2  C   UNL     1     -25.266 -12.332   5.587  1.00  0.00     0.000 C 
BRANCH   2   3
ATOM      3  C   UNL     1     -26.335 -13.210   4.923  1.00  0.00     0.000 C 
BRANCH   3   4
ATOM      4  C   UNL     1     -25.724 -14.070   3.806  1.00  0.00     0.006 C 
BRANCH   4   5
ATOM      5  C   UNL     1     -24.285 -14.495   4.123  1.00  0.00     0.053 C 
BRANCH   5   6
ATOM      6  C   UNL     1     -23.614 -15.110   2.933  1.00  0.00     0.041 C 
ATOM      7  O   UNL     1     -22.474 -14.714   2.572  1.00  0.00    -0.550 OA
ATOM      8  O   UNL     1     -24.234 -16.143   2.241  1.00  0.00    -0.550 OA
ENDBRANCH   5   6
ENDBRANCH   4   5
ENDBRANCH   3   4
ENDBRANCH   2   3
ENDBRANCH   1   2
BRANCH   1   9
ATOM      9  C   UNL     1     -24.280 -10.008   5.721  1.00  0.00     0.000 C 
BRANCH   9  10
ATOM     10  C   UNL     1     -23.143  -9.877   4.696  1.00  0.00    -0.000 C 
BRANCH  10  11
ATOM     11  C   UNL     1     -21.839 -10.538   5.169  1.00  0.00    -0.000 C 
BRANCH  11  12
ATOM     12  C   UNL     1     -21.690 -11.945   4.570  1.00  0.00    -0.000 C 
BRANCH  12  13
ATOM     13  C   UNL     1     -20.394 -12.110   3.761  1.00  0.00    -0.003 C 
ATOM     14  C   UNL     1     -19.525 -10.853   3.774  1.00  0.00     0.004 C 
ENDBRANCH  12  13
ENDBRANCH  11  12
ENDBRANCH  10  11
ENDBRANCH   9  10
ENDBRANCH   1   9
TORSDOF 10
ENDMDL
