MODEL 1
REMARK VINA RESULT:    -4.813      0.000      0.000
REMARK INTER + INTRA:          -8.311
REMARK INTER:                  -7.346
REMARK INTRA:                  -0.965
REMARK UNBOUND:                -0.965
REMARK SMILES O=C([O-])CCCCCCCCC(=O)[O-]
REMARK SMILES IDX 7 1 6 2 5 3 4 4 2 5 1 6 3 7 8 8 9 9 10 10 11 11 12 12 13 13
REMARK SMILES IDX 14 14
REMARK H PARENT
REMARK Flexibility Score: inf
ROOT
ATOM      1  C   UNL     1      17.981  22.093   6.271  1.00  0.00     0.000 C 
ENDROOT
BRANCH   1   2
ATOM      2  C   UNL     1      16.936  23.026   6.895  1.00  0.00     0.000 C 
BRANCH   2   3
ATOM      3  C   UNL     1      17.555  24.387   7.249  1.00  0.00     0.006 C 
BRANCH   3   4
ATOM      4  C   UNL     1      17.511  24.671   8.755  1.00  0.00     0.053 C 
BRANCH   4   5
ATOM      5  C   UNL     1      18.321  25.877   9.118  1.00  0.00     0.041 C 
ATOM      6  O   UNL     1      19.224  25.797   9.992  1.00  0.00    -0.550 OA
ATOM      7  O   UNL     1      18.101  27.083   8.465  1.00  0.00    -0.550 OA
ENDBRANCH   4   5
ENDBRANCH   3   4
ENDBRANCH   2   3
ENDBRANCH   1   2
BRANCH   1   8
ATOM      8  C   UNL     1      19.305  22.829   6.035  1.00  0.00     0.000 C 
BRANCH   8   9
ATOM      9  C   UNL     1      20.477  21.842   5.955  1.00  0.00     0.000 C 
BRANCH   9  10
ATOM     10  C   UNL     1      21.448  22.046   7.123  1.00  0.00     0.006 C 
BRANCH  10  11
ATOM     11  C   UNL     1      21.011  23.221   8.003  1.00  0.00     0.053 C 
BRANCH  11  12
ATOM     12  C   UNL     1      20.744  22.760   9.400  1.00  0.00     0.041 C 
ATOM     13  O   UNL     1      21.435  23.198  10.356  1.00  0.00    -0.550 OA
ATOM     14  O   UNL     1      19.762  21.805   9.641  1.00  0.00    -0.550 OA
ENDBRANCH  11  12
ENDBRANCH  10  11
ENDBRANCH   9  10
ENDBRANCH   8   9
ENDBRANCH   1   8
TORSDOF 9
ENDMDL
MODEL 2
REMARK VINA RESULT:    -4.771      0.976      1.187
REMARK INTER + INTRA:          -8.246
REMARK INTER:                  -7.196
REMARK INTRA:                  -1.049
REMARK UNBOUND:                -0.965
REMARK SMILES O=C([O-])CCCCCCCCC(=O)[O-]
REMARK SMILES IDX 7 1 6 2 5 3 4 4 2 5 1 6 3 7 8 8 9 9 10 10 11 11 12 12 13 13
REMARK SMILES IDX 14 14
REMARK H PARENT
REMARK Flexibility Score: inf
ROOT
ATOM      1  C   UNL     1      18.745  23.142   6.118  1.00  0.00     0.000 C 
ENDROOT
BRANCH   1   2
ATOM      2  C   UNL     1      17.297  22.974   6.596  1.00  0.00     0.000 C 
BRANCH   2   3
ATOM      3  C   UNL     1      16.963  23.985   7.703  1.00  0.00     0.006 C 
BRANCH   3   4
ATOM      4  C   UNL     1      18.166  24.861   8.073  1.00  0.00     0.053 C 
BRANCH   4   5
ATOM      5  C   UNL     1      18.190  25.185   9.535  1.00  0.00     0.041 C 
ATOM      6  O   UNL     1      19.173  25.791  10.035  1.00  0.00    -0.550 OA
ATOM      7  O   UNL     1      17.110  24.845  10.339  1.00  0.00    -0.550 OA
ENDBRANCH   4   5
ENDBRANCH   3   4
ENDBRANCH   2   3
ENDBRANCH   1   2
BRANCH   1   8
ATOM      8  C   UNL     1      19.300  21.821   5.571  1.00  0.00     0.000 C 
BRANCH   8   9
ATOM      9  C   UNL     1      20.802  21.695   5.858  1.00  0.00     0.000 C 
BRANCH   9  10
ATOM     10  C   UNL     1      21.192  22.492   7.108  1.00  0.00     0.006 C 
BRANCH  10  11
ATOM     11  C   UNL     1      21.242  21.587   8.343  1.00  0.00     0.053 C 
BRANCH  11  12
ATOM     12  C   UNL     1      20.370  22.132   9.428  1.00  0.00     0.041 C 
ATOM     13  O   UNL     1      20.838  22.939  10.273  1.00  0.00    -0.550 OA
ATOM     14  O   UNL     1      19.050  21.709   9.538  1.00  0.00    -0.550 OA
ENDBRANCH  11  12
ENDBRANCH  10  11
ENDBRANCH   9  10
ENDBRANCH   8   9
ENDBRANCH   1   8
TORSDOF 9
ENDMDL
MODEL 3
REMARK VINA RESULT:    -4.765      0.811      3.887
REMARK INTER + INTRA:          -8.238
REMARK INTER:                  -7.142
REMARK INTRA:                  -1.095
REMARK UNBOUND:                -0.965
REMARK SMILES O=C([O-])CCCCCCCCC(=O)[O-]
REMARK SMILES IDX 7 1 6 2 5 3 4 4 2 5 1 6 3 7 8 8 9 9 10 10 11 11 12 12 13 13
REMARK SMILES IDX 14 14
REMARK H PARENT
REMARK Flexibility Score: inf
ROOT
ATOM      1  C   UNL     1      18.852  22.027   5.781  1.00  0.00     0.000 C 
ENDROOT
BRANCH   1   2
ATOM      2  C   UNL     1      20.317  22.382   6.063  1.00  0.00     0.000 C 
BRANCH   2   3
ATOM      3  C   UNL     1      20.767  21.824   7.422  1.00  0.00     0.006 C 
BRANCH   3   4
ATOM      4  C   UNL     1      21.333  22.916   8.339  1.00  0.00     0.053 C 
BRANCH   4   5
ATOM      5  C   UNL     1      20.770  22.825   9.724  1.00  0.00     0.041 C 
ATOM      6  O   UNL     1      21.291  23.479  10.665  1.00  0.00    -0.550 OA
ATOM      7  O   UNL     1      19.650  22.041   9.969  1.00  0.00    -0.550 OA
ENDBRANCH   4   5
ENDBRANCH   3   4
ENDBRANCH   2   3
ENDBRANCH   1   2
BRANCH   1   8
ATOM      8  C   UNL     1      17.923  23.186   6.160  1.00  0.00     0.000 C 
BRANCH   8   9
ATOM      9  C   UNL     1      17.091  22.841   7.402  1.00  0.00     0.000 C 
BRANCH   9  10
ATOM     10  C   UNL     1      17.049  24.019   8.381  1.00  0.00     0.006 C 
BRANCH  10  11
ATOM     11  C   UNL     1      18.157  25.030   8.072  1.00  0.00     0.053 C 
BRANCH  11  12
ATOM     12  C   UNL     1      18.583  25.739   9.318  1.00  0.00     0.041 C 
ATOM     13  O   UNL     1      18.400  25.208  10.444  1.00  0.00    -0.550 OA
ATOM     14  O   UNL     1      19.137  27.012   9.239  1.00  0.00    -0.550 OA
ENDBRANCH  11  12
ENDBRANCH  10  11
ENDBRANCH   9  10
ENDBRANCH   8   9
ENDBRANCH   1   8
TORSDOF 9
ENDMDL
MODEL 4
REMARK VINA RESULT:    -4.684      1.825      3.271
REMARK INTER + INTRA:          -8.113
REMARK INTER:                  -7.130
REMARK INTRA:                  -0.983
REMARK UNBOUND:                -0.965
REMARK SMILES O=C([O-])CCCCCCCCC(=O)[O-]
REMARK SMILES IDX 7 1 6 2 5 3 4 4 2 5 1 6 3 7 8 8 9 9 10 10 11 11 12 12 13 13
REMARK SMILES IDX 14 14
REMARK H PARENT
REMARK Flexibility Score: inf
ROOT
ATOM      1  C   UNL     1      17.203  24.561   7.984  1.00  0.00     0.000 C 
ENDROOT
BRANCH   1   2
ATOM      2  C   UNL     1      18.250  25.605   8.392  1.00  0.00     0.000 C 
BRANCH   2   3
ATOM      3  C   UNL     1      18.960  25.194   9.692  1.00  0.00     0.006 C 
BRANCH   3   4
ATOM      4  C   UNL     1      18.443  23.856  10.237  1.00  0.00     0.053 C 
BRANCH   4   5
ATOM      5  C   UNL     1      19.535  22.835  10.328  1.00  0.00     0.041 C 
ATOM      6  O   UNL     1      19.287  21.619  10.116  1.00  0.00    -0.550 OA
ATOM      7  O   UNL     1      20.835  23.231  10.614  1.00  0.00    -0.550 OA
ENDBRANCH   4   5
ENDBRANCH   3   4
ENDBRANCH   2   3
ENDBRANCH   1   2
BRANCH   1   8
ATOM      8  C   UNL     1      17.498  24.003   6.588  1.00  0.00     0.000 C 
BRANCH   8   9
ATOM      9  C   UNL     1      18.097  22.593   6.674  1.00  0.00     0.000 C 
BRANCH   9  10
ATOM     10  C   UNL     1      19.473  22.538   6.002  1.00  0.00     0.006 C 
BRANCH  10  11
ATOM     11  C   UNL     1      20.593  22.745   7.026  1.00  0.00     0.053 C 
BRANCH  11  12
ATOM     12  C   UNL     1      21.630  21.675   6.892  1.00  0.00     0.041 C 
ATOM     13  O   UNL     1      22.017  21.306   5.753  1.00  0.00    -0.550 OA
ATOM     14  O   UNL     1      22.134  21.050   8.027  1.00  0.00    -0.550 OA
ENDBRANCH  11  12
ENDBRANCH  10  11
ENDBRANCH   9  10
ENDBRANCH   8   9
ENDBRANCH   1   8
TORSDOF 9
ENDMDL
MODEL 5
REMARK VINA RESULT:    -4.656      1.844      4.098
REMARK INTER + INTRA:          -8.071
REMARK INTER:                  -7.091
REMARK INTRA:                  -0.980
REMARK UNBOUND:                -0.965
REMARK SMILES O=C([O-])CCCCCCCCC(=O)[O-]
REMARK SMILES IDX 7 1 6 2 5 3 4 4 2 5 1 6 3 7 8 8 9 9 10 10 11 11 12 12 13 13
REMARK SMILES IDX 14 14
REMARK H PARENT
REMARK Flexibility Score: inf
ROOT
ATOM      1  C   UNL     1      17.489  23.917   6.688  1.00  0.00     0.000 C 
ENDROOT
BRANCH   1   2
ATOM      2  C   UNL     1      18.254  22.597   6.846  1.00  0.00     0.000 C 
BRANCH   2   3
ATOM      3  C   UNL     1      19.623  22.669   6.152  1.00  0.00     0.006 C 
BRANCH   3   4
ATOM      4  C   UNL     1      20.782  22.694   7.156  1.00  0.00     0.053 C 
BRANCH   4   5
ATOM      5  C   UNL     1      21.719  21.542   6.951  1.00  0.00     0.041 C 
ATOM      6  O   UNL     1      22.266  20.986   7.939  1.00  0.00    -0.550 OA
ATOM      7  O   UNL     1      21.961  21.063   5.670  1.00  0.00    -0.550 OA
ENDBRANCH   4   5
ENDBRANCH   3   4
ENDBRANCH   2   3
ENDBRANCH   1   2
BRANCH   1   8
ATOM      8  C   UNL     1      17.280  24.598   8.046  1.00  0.00     0.000 C 
BRANCH   8   9
ATOM      9  C   UNL     1      18.408  25.594   8.342  1.00  0.00     0.000 C 
BRANCH   9  10
ATOM     10  C   UNL     1      19.154  25.214   9.626  1.00  0.00     0.006 C 
BRANCH  10  11
ATOM     11  C   UNL     1      18.508  24.000  10.299  1.00  0.00     0.053 C 
BRANCH  11  12
ATOM     12  C   UNL     1      19.505  22.897  10.460  1.00  0.00     0.041 C 
ATOM     13  O   UNL     1      20.714  23.162  10.689  1.00  0.00    -0.550 OA
ATOM     14  O   UNL     1      19.108  21.573  10.306  1.00  0.00    -0.550 OA
ENDBRANCH  11  12
ENDBRANCH  10  11
ENDBRANCH   9  10
ENDBRANCH   8   9
ENDBRANCH   1   8
TORSDOF 9
ENDMDL
MODEL 6
REMARK VINA RESULT:    -4.557      1.998      3.425
REMARK INTER + INTRA:          -7.920
REMARK INTER:                  -7.200
REMARK INTRA:                  -0.720
REMARK UNBOUND:                -0.965
REMARK SMILES O=C([O-])CCCCCCCCC(=O)[O-]
REMARK SMILES IDX 7 1 6 2 5 3 4 4 2 5 1 6 3 7 8 8 9 9 10 10 11 11 12 12 13 13
REMARK SMILES IDX 14 14
REMARK H PARENT
REMARK Flexibility Score: inf
ROOT
ATOM      1  C   UNL     1      21.750  22.920   9.502  1.00  0.00     0.000 C 
ENDROOT
BRANCH   1   2
ATOM      2  C   UNL     1      20.631  23.347  10.460  1.00  0.00     0.000 C 
BRANCH   2   3
ATOM      3  C   UNL     1      19.420  23.888   9.684  1.00  0.00     0.006 C 
BRANCH   3   4
ATOM      4  C   UNL     1      19.164  25.373   9.970  1.00  0.00     0.053 C 
BRANCH   4   5
ATOM      5  C   UNL     1      18.330  26.009   8.900  1.00  0.00     0.041 C 
ATOM      6  O   UNL     1      18.398  27.249   8.696  1.00  0.00    -0.550 OA
ATOM      7  O   UNL     1      17.501  25.225   8.108  1.00  0.00    -0.550 OA
ENDBRANCH   4   5
ENDBRANCH   3   4
ENDBRANCH   2   3
ENDBRANCH   1   2
BRANCH   1   8
ATOM      8  C   UNL     1      21.357  23.184   8.044  1.00  0.00     0.000 C 
BRANCH   8   9
ATOM      9  C   UNL     1      21.673  21.970   7.161  1.00  0.00     0.000 C 
BRANCH   9  10
ATOM     10  C   UNL     1      20.728  21.907   5.955  1.00  0.00     0.006 C 
BRANCH  10  11
ATOM     11  C   UNL     1      19.453  22.715   6.213  1.00  0.00     0.053 C 
BRANCH  11  12
ATOM     12  C   UNL     1      18.258  21.816   6.234  1.00  0.00     0.041 C 
ATOM     13  O   UNL     1      18.169  20.859   5.421  1.00  0.00    -0.550 OA
ATOM     14  O   UNL     1      17.215  22.066   7.119  1.00  0.00    -0.550 OA
ENDBRANCH  11  12
ENDBRANCH  10  11
ENDBRANCH   9  10
ENDBRANCH   8   9
ENDBRANCH   1   8
TORSDOF 9
ENDMDL
MODEL 7
REMARK VINA RESULT:    -4.551      1.790      4.449
REMARK INTER + INTRA:          -7.911
REMARK INTER:                  -6.911
REMARK INTRA:                  -1.000
REMARK UNBOUND:                -0.965
REMARK SMILES O=C([O-])CCCCCCCCC(=O)[O-]
REMARK SMILES IDX 7 1 6 2 5 3 4 4 2 5 1 6 3 7 8 8 9 9 10 10 11 11 12 12 13 13
REMARK SMILES IDX 14 14
REMARK H PARENT
REMARK Flexibility Score: inf
ROOT
ATOM      1  C   UNL     1      21.844  21.822   7.873  1.00  0.00     0.000 C 
ENDROOT
BRANCH   1   2
ATOM      2  C   UNL     1      21.469  21.779   6.386  1.00  0.00     0.000 C 
BRANCH   2   3
ATOM      3  C   UNL     1      20.106  22.445   6.143  1.00  0.00     0.006 C 
BRANCH   3   4
ATOM      4  C   UNL     1      18.960  21.428   6.109  1.00  0.00     0.053 C 
BRANCH   4   5
ATOM      5  C   UNL     1      18.220  21.382   7.411  1.00  0.00     0.041 C 
ATOM      6  O   UNL     1      17.203  22.103   7.588  1.00  0.00    -0.550 OA
ATOM      7  O   UNL     1      18.635  20.518   8.416  1.00  0.00    -0.550 OA
ENDBRANCH   4   5
ENDBRANCH   3   4
ENDBRANCH   2   3
ENDBRANCH   1   2
BRANCH   1   8
ATOM      8  C   UNL     1      21.551  23.201   8.474  1.00  0.00     0.000 C 
BRANCH   8   9
ATOM      9  C   UNL     1      20.957  23.073   9.882  1.00  0.00     0.000 C 
BRANCH   9  10
ATOM     10  C   UNL     1      19.582  23.746   9.962  1.00  0.00     0.006 C 
BRANCH  10  11
ATOM     11  C   UNL     1      19.373  24.711   8.791  1.00  0.00     0.053 C 
BRANCH  11  12
ATOM     12  C   UNL     1      18.561  25.890   9.222  1.00  0.00     0.041 C 
ATOM     13  O   UNL     1      17.341  25.752   9.502  1.00  0.00    -0.550 OA
ATOM     14  O   UNL     1      19.138  27.154   9.266  1.00  0.00    -0.550 OA
ENDBRANCH  11  12
ENDBRANCH  10  11
ENDBRANCH   9  10
ENDBRANCH   8   9
ENDBRANCH   1   8
TORSDOF 9
ENDMDL
MODEL 8
REMARK VINA RESULT:    -4.542      1.480      1.880
REMARK INTER + INTRA:          -7.896
REMARK INTER:                  -7.346
REMARK INTRA:                  -0.551
REMARK UNBOUND:                -0.965
REMARK SMILES O=C([O-])CCCCCCCCC(=O)[O-]
REMARK SMILES IDX 7 1 6 2 5 3 4 4 2 5 1 6 3 7 8 8 9 9 10 10 11 11 12 12 13 13
REMARK SMILES IDX 14 14
REMARK H PARENT
REMARK Flexibility Score: inf
ROOT
ATOM      1  C   UNL     1      17.702  23.516   6.495  1.00  0.00     0.000 C 
ENDROOT
BRANCH   1   2
ATOM      2  C   UNL     1      17.115  24.445   7.565  1.00  0.00     0.000 C 
BRANCH   2   3
ATOM      3  C   UNL     1      17.138  23.776   8.948  1.00  0.00     0.006 C 
BRANCH   3   4
ATOM      4  C   UNL     1      17.511  24.761  10.063  1.00  0.00     0.053 C 
BRANCH   4   5
ATOM      5  C   UNL     1      18.916  25.259   9.917  1.00  0.00     0.041 C 
ATOM      6  O   UNL     1      19.887  24.510  10.201  1.00  0.00    -0.550 OA
ATOM      7  O   UNL     1      19.153  26.540   9.437  1.00  0.00    -0.550 OA
ENDBRANCH   4   5
ENDBRANCH   3   4
ENDBRANCH   2   3
ENDBRANCH   1   2
BRANCH   1   8
ATOM      8  C   UNL     1      19.170  23.191   6.794  1.00  0.00     0.000 C 
BRANCH   8   9
ATOM      9  C   UNL     1      19.761  22.273   5.717  1.00  0.00     0.000 C 
BRANCH   9  10
ATOM     10  C   UNL     1      21.164  21.796   6.110  1.00  0.00     0.006 C 
BRANCH  10  11
ATOM     11  C   UNL     1      21.121  20.956   7.390  1.00  0.00     0.053 C 
BRANCH  11  12
ATOM     12  C   UNL     1      22.243  21.333   8.303  1.00  0.00     0.041 C 
ATOM     13  O   UNL     1      23.297  20.644   8.332  1.00  0.00    -0.550 OA
ATOM     14  O   UNL     1      22.107  22.419   9.161  1.00  0.00    -0.550 OA
ENDBRANCH  11  12
ENDBRANCH  10  11
ENDBRANCH   9  10
ENDBRANCH   8   9
ENDBRANCH   1   8
TORSDOF 9
ENDMDL
MODEL 9
REMARK VINA RESULT:    -4.394      2.383      3.304
REMARK INTER + INTRA:          -7.671
REMARK INTER:                  -6.761
REMARK INTRA:                  -0.910
REMARK UNBOUND:                -0.965
REMARK SMILES O=C([O-])CCCCCCCCC(=O)[O-]
REMARK SMILES IDX 7 1 6 2 5 3 4 4 2 5 1 6 3 7 8 8 9 9 10 10 11 11 12 12 13 13
REMARK SMILES IDX 14 14
REMARK H PARENT
REMARK Flexibility Score: inf
ROOT
ATOM      1  C   UNL     1      18.247  22.110  11.232  1.00  0.00     0.000 C 
ENDROOT
BRANCH   1   2
ATOM      2  C   UNL     1      16.950  22.795  11.679  1.00  0.00     0.000 C 
BRANCH   2   3
ATOM      3  C   UNL     1      16.944  24.278  11.277  1.00  0.00     0.006 C 
BRANCH   3   4
ATOM      4  C   UNL     1      16.973  24.467   9.756  1.00  0.00     0.053 C 
BRANCH   4   5
ATOM      5  C   UNL     1      18.111  25.340   9.326  1.00  0.00     0.041 C 
ATOM      6  O   UNL     1      18.044  25.986   8.247  1.00  0.00    -0.550 OA
ATOM      7  O   UNL     1      19.234  25.466  10.133  1.00  0.00    -0.550 OA
ENDBRANCH   4   5
ENDBRANCH   3   4
ENDBRANCH   2   3
ENDBRANCH   1   2
BRANCH   1   8
ATOM      8  C   UNL     1      17.956  20.966  10.254  1.00  0.00     0.000 C 
BRANCH   8   9
ATOM      9  C   UNL     1      18.823  21.085   8.994  1.00  0.00     0.000 C 
BRANCH   9  10
ATOM     10  C   UNL     1      19.935  22.123   9.188  1.00  0.00     0.006 C 
BRANCH  10  11
ATOM     11  C   UNL     1      20.419  22.667   7.841  1.00  0.00     0.053 C 
BRANCH  11  12
ATOM     12  C   UNL     1      21.564  21.854   7.327  1.00  0.00     0.041 C 
ATOM     13  O   UNL     1      22.362  21.304   8.130  1.00  0.00    -0.550 OA
ATOM     14  O   UNL     1      21.779  21.743   5.958  1.00  0.00    -0.550 OA
ENDBRANCH  11  12
ENDBRANCH  10  11
ENDBRANCH   9  10
ENDBRANCH   8   9
ENDBRANCH   1   8
TORSDOF 9
ENDMDL
