MODEL 1
REMARK VINA RESULT:    -4.103      0.000      0.000
REMARK INTER + INTRA:          -4.863
REMARK INTER:                  -4.822
REMARK INTRA:                  -0.041
REMARK UNBOUND:                -0.041
REMARK SMILES CCCCC(=O)[O-]
REMARK SMILES IDX 4 1 5 2 6 3 7 4 3 5 2 6 1 7
REMARK H PARENT
REMARK Flexibility Score: inf
ROOT
ATOM      1  C   UNL     1     -12.465   2.582  -9.405  1.00  0.00     0.053 C 
ENDROOT
BRANCH   1   2
ATOM      2  C   UNL     1     -12.107   3.805  -8.620  1.00  0.00     0.041 C 
ATOM      3  O   UNL     1     -12.921   4.762  -8.531  1.00  0.00    -0.550 OA
ATOM      4  O   UNL     1     -10.855   3.908  -8.026  1.00  0.00    -0.550 OA
ENDBRANCH   1   2
BRANCH   1   5
ATOM      5  C   UNL     1     -13.975   2.335  -9.353  1.00  0.00     0.006 C 
BRANCH   5   6
ATOM      6  C   UNL     1     -14.306   0.882  -9.711  1.00  0.00    -0.003 C 
ATOM      7  C   UNL     1     -13.048   0.111 -10.104  1.00  0.00     0.004 C 
ENDBRANCH   5   6
ENDBRANCH   1   5
TORSDOF 3
ENDMDL
MODEL 2
REMARK VINA RESULT:    -3.730      2.791      3.941
REMARK INTER + INTRA:          -4.425
REMARK INTER:                  -4.382
REMARK INTRA:                  -0.043
REMARK UNBOUND:                -0.041
REMARK SMILES CCCCC(=O)[O-]
REMARK SMILES IDX 4 1 5 2 6 3 7 4 3 5 2 6 1 7
REMARK H PARENT
REMARK Flexibility Score: inf
ROOT
ATOM      1  C   UNL     1     -13.972   2.296  -9.359  1.00  0.00     0.053 C 
ENDROOT
BRANCH   1   2
ATOM      2  C   UNL     1     -14.231   0.831  -9.520  1.00  0.00     0.041 C 
ATOM      3  O   UNL     1     -15.125   0.266  -8.836  1.00  0.00    -0.550 OA
ATOM      4  O   UNL     1     -13.453   0.079 -10.391  1.00  0.00    -0.550 OA
ENDBRANCH   1   2
BRANCH   1   5
ATOM      5  C   UNL     1     -12.484   2.602  -9.553  1.00  0.00     0.006 C 
BRANCH   5   6
ATOM      6  C   UNL     1     -12.087   3.884  -8.813  1.00  0.00    -0.003 C 
ATOM      7  C   UNL     1     -13.210   4.362  -7.896  1.00  0.00     0.004 C 
ENDBRANCH   5   6
ENDBRANCH   1   5
TORSDOF 3
ENDMDL
MODEL 3
REMARK VINA RESULT:    -3.575      4.289      5.148
REMARK INTER + INTRA:          -4.243
REMARK INTER:                  -4.207
REMARK INTRA:                  -0.036
REMARK UNBOUND:                -0.041
REMARK SMILES CCCCC(=O)[O-]
REMARK SMILES IDX 4 1 5 2 6 3 7 4 3 5 2 6 1 7
REMARK H PARENT
REMARK Flexibility Score: inf
ROOT
ATOM      1  C   UNL     1     -10.632  -0.769  -9.660  1.00  0.00     0.053 C 
ENDROOT
BRANCH   1   2
ATOM      2  C   UNL     1     -10.558  -2.263  -9.624  1.00  0.00     0.041 C 
ATOM      3  O   UNL     1     -11.613  -2.950  -9.606  1.00  0.00    -0.550 OA
ATOM      4  O   UNL     1      -9.323  -2.897  -9.559  1.00  0.00    -0.550 OA
ENDBRANCH   1   2
BRANCH   1   5
ATOM      5  C   UNL     1     -11.887  -0.313 -10.408  1.00  0.00     0.006 C 
BRANCH   5   6
ATOM      6  C   UNL     1     -12.529   0.896  -9.717  1.00  0.00    -0.003 C 
ATOM      7  C   UNL     1     -14.049   0.860  -9.842  1.00  0.00     0.004 C 
ENDBRANCH   5   6
ENDBRANCH   1   5
TORSDOF 3
ENDMDL
MODEL 4
REMARK VINA RESULT:    -3.568      3.200      3.934
REMARK INTER + INTRA:          -4.234
REMARK INTER:                  -4.190
REMARK INTRA:                  -0.044
REMARK UNBOUND:                -0.041
REMARK SMILES CCCCC(=O)[O-]
REMARK SMILES IDX 4 1 5 2 6 3 7 4 3 5 2 6 1 7
REMARK H PARENT
REMARK Flexibility Score: inf
ROOT
ATOM      1  C   UNL     1     -12.067   0.860  -9.675  1.00  0.00     0.053 C 
ENDROOT
BRANCH   1   2
ATOM      2  C   UNL     1     -11.641  -0.389 -10.380  1.00  0.00     0.041 C 
ATOM      3  O   UNL     1     -12.449  -1.005 -11.125  1.00  0.00    -0.550 OA
ATOM      4  O   UNL     1     -10.365  -0.901 -10.177  1.00  0.00    -0.550 OA
ENDBRANCH   1   2
BRANCH   1   5
ATOM      5  C   UNL     1     -13.592   1.001  -9.711  1.00  0.00     0.006 C 
BRANCH   5   6
ATOM      6  C   UNL     1     -14.021   2.412  -9.292  1.00  0.00    -0.003 C 
ATOM      7  C   UNL     1     -12.810   3.317  -9.080  1.00  0.00     0.004 C 
ENDBRANCH   5   6
ENDBRANCH   1   5
TORSDOF 3
ENDMDL
MODEL 5
REMARK VINA RESULT:    -3.408      7.933      8.643
REMARK INTER + INTRA:          -4.046
REMARK INTER:                  -4.026
REMARK INTRA:                  -0.020
REMARK UNBOUND:                -0.041
REMARK SMILES CCCCC(=O)[O-]
REMARK SMILES IDX 4 1 5 2 6 3 7 4 3 5 2 6 1 7
REMARK H PARENT
REMARK Flexibility Score: inf
ROOT
ATOM      1  C   UNL     1      -9.998  -4.225  -6.805  1.00  0.00     0.053 C 
ENDROOT
BRANCH   1   2
ATOM      2  C   UNL     1      -9.054  -4.267  -7.965  1.00  0.00     0.041 C 
ATOM      3  O   UNL     1      -9.187  -5.143  -8.860  1.00  0.00    -0.550 OA
ATOM      4  O   UNL     1      -7.996  -3.369  -8.033  1.00  0.00    -0.550 OA
ENDBRANCH   1   2
BRANCH   1   5
ATOM      5  C   UNL     1     -10.337  -5.644  -6.338  1.00  0.00     0.006 C 
BRANCH   5   6
ATOM      6  C   UNL     1     -11.458  -5.625  -5.293  1.00  0.00    -0.003 C 
ATOM      7  C   UNL     1     -12.718  -6.302  -5.824  1.00  0.00     0.004 C 
ENDBRANCH   5   6
ENDBRANCH   1   5
TORSDOF 3
ENDMDL
MODEL 6
REMARK VINA RESULT:    -3.403      4.495      5.667
REMARK INTER + INTRA:          -4.040
REMARK INTER:                  -4.002
REMARK INTRA:                  -0.038
REMARK UNBOUND:                -0.041
REMARK SMILES CCCCC(=O)[O-]
REMARK SMILES IDX 4 1 5 2 6 3 7 4 3 5 2 6 1 7
REMARK H PARENT
REMARK Flexibility Score: inf
ROOT
ATOM      1  C   UNL     1     -10.916  -1.990  -9.708  1.00  0.00     0.053 C 
ENDROOT
BRANCH   1   2
ATOM      2  C   UNL     1      -9.852  -2.740  -8.971  1.00  0.00     0.041 C 
ATOM      3  O   UNL     1      -9.209  -3.658  -9.546  1.00  0.00    -0.550 OA
ATOM      4  O   UNL     1      -9.603  -2.458  -7.634  1.00  0.00    -0.550 OA
ENDBRANCH   1   2
BRANCH   1   5
ATOM      5  C   UNL     1     -10.695  -0.480  -9.579  1.00  0.00     0.006 C 
BRANCH   5   6
ATOM      6  C   UNL     1     -11.964   0.294  -9.953  1.00  0.00    -0.003 C 
ATOM      7  C   UNL     1     -13.005  -0.626 -10.585  1.00  0.00     0.004 C 
ENDBRANCH   5   6
ENDBRANCH   1   5
TORSDOF 3
ENDMDL
MODEL 7
REMARK VINA RESULT:    -3.171     15.328     16.288
REMARK INTER + INTRA:          -3.768
REMARK INTER:                  -3.664
REMARK INTRA:                  -0.105
REMARK UNBOUND:                -0.041
REMARK SMILES CCCCC(=O)[O-]
REMARK SMILES IDX 4 1 5 2 6 3 7 4 3 5 2 6 1 7
REMARK H PARENT
REMARK Flexibility Score: inf
ROOT
ATOM      1  C   UNL     1     -12.439   4.694   6.844  1.00  0.00     0.053 C 
ENDROOT
BRANCH   1   2
ATOM      2  C   UNL     1     -12.387   5.480   5.572  1.00  0.00     0.041 C 
ATOM      3  O   UNL     1     -13.341   5.421   4.751  1.00  0.00    -0.550 OA
ATOM      4  O   UNL     1     -11.265   6.240   5.269  1.00  0.00    -0.550 OA
ENDBRANCH   1   2
BRANCH   1   5
ATOM      5  C   UNL     1     -11.133   3.921   7.050  1.00  0.00     0.006 C 
BRANCH   5   6
ATOM      6  C   UNL     1     -10.576   4.150   8.459  1.00  0.00    -0.003 C 
ATOM      7  C   UNL     1     -10.165   5.607   8.659  1.00  0.00     0.004 C 
ENDBRANCH   5   6
ENDBRANCH   1   5
TORSDOF 3
ENDMDL
MODEL 8
REMARK VINA RESULT:    -3.161     15.817     16.862
REMARK INTER + INTRA:          -3.756
REMARK INTER:                  -3.676
REMARK INTRA:                  -0.079
REMARK UNBOUND:                -0.041
REMARK SMILES CCCCC(=O)[O-]
REMARK SMILES IDX 4 1 5 2 6 3 7 4 3 5 2 6 1 7
REMARK H PARENT
REMARK Flexibility Score: inf
ROOT
ATOM      1  C   UNL     1      -9.479   6.291   7.233  1.00  0.00     0.053 C 
ENDROOT
BRANCH   1   2
ATOM      2  C   UNL     1      -9.552   6.258   5.738  1.00  0.00     0.041 C 
ATOM      3  O   UNL     1     -10.241   5.379   5.157  1.00  0.00    -0.550 OA
ATOM      4  O   UNL     1      -8.820   7.168   4.986  1.00  0.00    -0.550 OA
ENDBRANCH   1   2
BRANCH   1   5
ATOM      5  C   UNL     1     -10.880   6.423   7.835  1.00  0.00     0.006 C 
BRANCH   5   6
ATOM      6  C   UNL     1     -11.002   5.603   9.125  1.00  0.00    -0.003 C 
ATOM      7  C   UNL     1     -10.589   4.151   8.896  1.00  0.00     0.004 C 
ENDBRANCH   5   6
ENDBRANCH   1   5
TORSDOF 3
ENDMDL
MODEL 9
REMARK VINA RESULT:    -3.148     15.894     16.842
REMARK INTER + INTRA:          -3.741
REMARK INTER:                  -3.634
REMARK INTRA:                  -0.107
REMARK UNBOUND:                -0.041
REMARK SMILES CCCCC(=O)[O-]
REMARK SMILES IDX 4 1 5 2 6 3 7 4 3 5 2 6 1 7
REMARK H PARENT
REMARK Flexibility Score: inf
ROOT
ATOM      1  C   UNL     1     -10.005   6.122   7.944  1.00  0.00     0.053 C 
ENDROOT
BRANCH   1   2
ATOM      2  C   UNL     1      -9.172   6.571   6.785  1.00  0.00     0.041 C 
ATOM      3  O   UNL     1      -8.366   7.530   6.917  1.00  0.00    -0.550 OA
ATOM      4  O   UNL     1      -9.319   5.961   5.546  1.00  0.00    -0.550 OA
ENDBRANCH   1   2
BRANCH   1   5
ATOM      5  C   UNL     1     -10.208   4.605   7.903  1.00  0.00     0.006 C 
BRANCH   5   6
ATOM      6  C   UNL     1     -11.695   4.248   8.006  1.00  0.00    -0.003 C 
ATOM      7  C   UNL     1     -12.455   4.686   6.757  1.00  0.00     0.004 C 
ENDBRANCH   5   6
ENDBRANCH   1   5
TORSDOF 3
ENDMDL
