MODEL 1
REMARK VINA RESULT:    -5.371      0.000      0.000
REMARK INTER + INTRA:         -11.874
REMARK INTER:                  -9.767
REMARK INTRA:                  -2.106
REMARK UNBOUND:                -2.106
REMARK SMILES CCCCCCCCCCCCCCCC(=O)[O-]
REMARK SMILES IDX 9 1 10 2 11 3 12 4 13 5 14 6 15 7 16 8 17 9 18 10 8 11 7 12
REMARK SMILES IDX 6 13 5 14 4 15 3 16 2 17 1 18
REMARK H PARENT
REMARK Flexibility Score: inf
ROOT
ATOM      1  C   UNL     1     105.747  24.920 196.049  1.00  0.00     0.000 C 
ENDROOT
BRANCH   1   2
ATOM      2  C   UNL     1     104.985  24.310 194.857  1.00  0.00     0.000 C 
BRANCH   2   3
ATOM      3  C   UNL     1     105.159  22.791 194.686  1.00  0.00     0.000 C 
BRANCH   3   4
ATOM      4  C   UNL     1     104.382  22.231 193.483  1.00  0.00     0.000 C 
BRANCH   4   5
ATOM      5  C   UNL     1     103.050  22.963 193.239  1.00  0.00     0.000 C 
BRANCH   5   6
ATOM      6  C   UNL     1     101.799  22.211 193.733  1.00  0.00     0.006 C 
BRANCH   6   7
ATOM      7  C   UNL     1     101.456  22.515 195.198  1.00  0.00     0.053 C 
BRANCH   7   8
ATOM      8  C   UNL     1     101.547  21.271 196.023  1.00  0.00     0.041 C 
ATOM      9  O   UNL     1     102.667  20.752 196.268  1.00  0.00    -0.550 OA
ATOM     10  O   UNL     1     100.388  20.657 196.484  1.00  0.00    -0.550 OA
ENDBRANCH   7   8
ENDBRANCH   6   7
ENDBRANCH   5   6
ENDBRANCH   4   5
ENDBRANCH   3   4
ENDBRANCH   2   3
ENDBRANCH   1   2
BRANCH   1  11
ATOM     11  C   UNL     1     104.817  25.556 197.094  1.00  0.00     0.000 C 
BRANCH  11  12
ATOM     12  C   UNL     1     103.365  25.101 196.887  1.00  0.00    -0.000 C 
BRANCH  12  13
ATOM     13  C   UNL     1     102.794  24.362 198.108  1.00  0.00    -0.000 C 
BRANCH  13  14
ATOM     14  C   UNL     1     103.635  23.136 198.502  1.00  0.00    -0.000 C 
BRANCH  14  15
ATOM     15  C   UNL     1     104.151  23.216 199.948  1.00  0.00    -0.000 C 
BRANCH  15  16
ATOM     16  C   UNL     1     105.682  23.115 200.041  1.00  0.00    -0.000 C 
BRANCH  16  17
ATOM     17  C   UNL     1     106.257  22.383 198.822  1.00  0.00    -0.003 C 
ATOM     18  C   UNL     1     106.986  21.109 199.238  1.00  0.00     0.004 C 
ENDBRANCH  16  17
ENDBRANCH  15  16
ENDBRANCH  14  15
ENDBRANCH  13  14
ENDBRANCH  12  13
ENDBRANCH  11  12
ENDBRANCH   1  11
TORSDOF 14
ENDMDL
MODEL 2
REMARK VINA RESULT:    -5.300      2.173      5.599
REMARK INTER + INTRA:         -11.743
REMARK INTER:                  -9.712
REMARK INTRA:                  -2.032
REMARK UNBOUND:                -2.106
REMARK SMILES CCCCCCCCCCCCCCCC(=O)[O-]
REMARK SMILES IDX 9 1 10 2 11 3 12 4 13 5 14 6 15 7 16 8 17 9 18 10 8 11 7 12
REMARK SMILES IDX 6 13 5 14 4 15 3 16 2 17 1 18
REMARK H PARENT
REMARK Flexibility Score: inf
ROOT
ATOM      1  C   UNL     1     104.204  25.230 197.116  1.00  0.00     0.000 C 
ENDROOT
BRANCH   1   2
ATOM      2  C   UNL     1     102.666  25.145 197.134  1.00  0.00     0.000 C 
BRANCH   2   3
ATOM      3  C   UNL     1     102.087  24.092 198.095  1.00  0.00     0.000 C 
BRANCH   3   4
ATOM      4  C   UNL     1     103.119  23.031 198.512  1.00  0.00     0.000 C 
BRANCH   4   5
ATOM      5  C   UNL     1     103.593  23.197 199.967  1.00  0.00     0.000 C 
BRANCH   5   6
ATOM      6  C   UNL     1     105.121  23.281 200.144  1.00  0.00     0.006 C 
BRANCH   6   7
ATOM      7  C   UNL     1     105.896  22.684 198.962  1.00  0.00     0.053 C 
BRANCH   7   8
ATOM      8  C   UNL     1     106.957  21.751 199.452  1.00  0.00     0.041 C 
ATOM      9  O   UNL     1     106.874  20.516 199.219  1.00  0.00    -0.550 OA
ATOM     10  O   UNL     1     108.016  22.239 200.208  1.00  0.00    -0.550 OA
ENDBRANCH   7   8
ENDBRANCH   6   7
ENDBRANCH   5   6
ENDBRANCH   4   5
ENDBRANCH   3   4
ENDBRANCH   2   3
ENDBRANCH   1   2
BRANCH   1  11
ATOM     11  C   UNL     1     104.779  25.413 195.703  1.00  0.00     0.000 C 
BRANCH  11  12
ATOM     12  C   UNL     1     105.732  24.263 195.344  1.00  0.00    -0.000 C 
BRANCH  12  13
ATOM     13  C   UNL     1     105.010  22.912 195.212  1.00  0.00    -0.000 C 
BRANCH  13  14
ATOM     14  C   UNL     1     104.770  22.513 193.746  1.00  0.00    -0.000 C 
BRANCH  14  15
ATOM     15  C   UNL     1     103.275  22.413 193.400  1.00  0.00    -0.000 C 
BRANCH  15  16
ATOM     16  C   UNL     1     102.370  22.510 194.638  1.00  0.00    -0.000 C 
BRANCH  16  17
ATOM     17  C   UNL     1     101.245  21.470 194.578  1.00  0.00    -0.003 C 
ATOM     18  C   UNL     1     101.241  20.590 195.824  1.00  0.00     0.004 C 
ENDBRANCH  16  17
ENDBRANCH  15  16
ENDBRANCH  14  15
ENDBRANCH  13  14
ENDBRANCH  12  13
ENDBRANCH  11  12
ENDBRANCH   1  11
TORSDOF 14
ENDMDL
MODEL 3
REMARK VINA RESULT:    -5.258      1.780      3.808
REMARK INTER + INTRA:         -11.668
REMARK INTER:                  -9.361
REMARK INTRA:                  -2.307
REMARK UNBOUND:                -2.106
REMARK SMILES CCCCCCCCCCCCCCCC(=O)[O-]
REMARK SMILES IDX 9 1 10 2 11 3 12 4 13 5 14 6 15 7 16 8 17 9 18 10 8 11 7 12
REMARK SMILES IDX 6 13 5 14 4 15 3 16 2 17 1 18
REMARK H PARENT
REMARK Flexibility Score: inf
ROOT
ATOM      1  C   UNL     1     102.341  23.209 197.532  1.00  0.00     0.000 C 
ENDROOT
BRANCH   1   2
ATOM      2  C   UNL     1     102.439  24.721 197.808  1.00  0.00     0.000 C 
BRANCH   2   3
ATOM      3  C   UNL     1     103.289  25.510 196.797  1.00  0.00     0.000 C 
BRANCH   3   4
ATOM      4  C   UNL     1     104.770  25.602 197.202  1.00  0.00     0.000 C 
BRANCH   4   5
ATOM      5  C   UNL     1     105.720  25.040 196.130  1.00  0.00     0.000 C 
BRANCH   5   6
ATOM      6  C   UNL     1     105.019  24.420 194.906  1.00  0.00     0.006 C 
BRANCH   6   7
ATOM      7  C   UNL     1     105.017  22.886 194.928  1.00  0.00     0.053 C 
BRANCH   7   8
ATOM      8  C   UNL     1     104.413  22.347 193.670  1.00  0.00     0.041 C 
ATOM      9  O   UNL     1     105.129  21.736 192.834  1.00  0.00    -0.550 OA
ATOM     10  O   UNL     1     103.067  22.560 193.399  1.00  0.00    -0.550 OA
ENDBRANCH   7   8
ENDBRANCH   6   7
ENDBRANCH   5   6
ENDBRANCH   4   5
ENDBRANCH   3   4
ENDBRANCH   2   3
ENDBRANCH   1   2
BRANCH   1  11
ATOM     11  C   UNL     1     103.237  22.370 198.456  1.00  0.00     0.000 C 
BRANCH  11  12
ATOM     12  C   UNL     1     103.630  23.164 199.711  1.00  0.00    -0.000 C 
BRANCH  12  13
ATOM     13  C   UNL     1     105.138  23.105 200.003  1.00  0.00    -0.000 C 
BRANCH  13  14
ATOM     14  C   UNL     1     105.936  22.458 198.858  1.00  0.00    -0.000 C 
BRANCH  14  15
ATOM     15  C   UNL     1     107.028  21.504 199.367  1.00  0.00    -0.000 C 
BRANCH  15  16
ATOM     16  C   UNL     1     106.982  20.128 198.684  1.00  0.00    -0.000 C 
BRANCH  16  17
ATOM     17  C   UNL     1     106.057  20.154 197.462  1.00  0.00    -0.003 C 
ATOM     18  C   UNL     1     105.038  19.020 197.517  1.00  0.00     0.004 C 
ENDBRANCH  16  17
ENDBRANCH  15  16
ENDBRANCH  14  15
ENDBRANCH  13  14
ENDBRANCH  12  13
ENDBRANCH  11  12
ENDBRANCH   1  11
TORSDOF 14
ENDMDL
MODEL 4
REMARK VINA RESULT:    -5.156      2.078      5.362
REMARK INTER + INTRA:         -11.481
REMARK INTER:                  -9.155
REMARK INTRA:                  -2.327
REMARK UNBOUND:                -2.106
REMARK SMILES CCCCCCCCCCCCCCCC(=O)[O-]
REMARK SMILES IDX 9 1 10 2 11 3 12 4 13 5 14 6 15 7 16 8 17 9 18 10 8 11 7 12
REMARK SMILES IDX 6 13 5 14 4 15 3 16 2 17 1 18
REMARK H PARENT
REMARK Flexibility Score: inf
ROOT
ATOM      1  C   UNL     1     102.124  23.972 197.103  1.00  0.00     0.000 C 
ENDROOT
BRANCH   1   2
ATOM      2  C   UNL     1     102.060  24.134 198.633  1.00  0.00     0.000 C 
BRANCH   2   3
ATOM      3  C   UNL     1     102.321  22.846 199.433  1.00  0.00     0.000 C 
BRANCH   3   4
ATOM      4  C   UNL     1     103.512  22.972 200.399  1.00  0.00     0.000 C 
BRANCH   4   5
ATOM      5  C   UNL     1     104.770  23.548 199.726  1.00  0.00     0.000 C 
BRANCH   5   6
ATOM      6  C   UNL     1     105.853  22.508 199.382  1.00  0.00     0.006 C 
BRANCH   6   7
ATOM      7  C   UNL     1     105.575  21.764 198.069  1.00  0.00     0.053 C 
BRANCH   7   8
ATOM      8  C   UNL     1     106.857  21.305 197.448  1.00  0.00     0.041 C 
ATOM      9  O   UNL     1     107.958  21.759 197.858  1.00  0.00    -0.550 OA
ATOM     10  O   UNL     1     106.833  20.411 196.385  1.00  0.00    -0.550 OA
ENDBRANCH   7   8
ENDBRANCH   6   7
ENDBRANCH   5   6
ENDBRANCH   4   5
ENDBRANCH   3   4
ENDBRANCH   2   3
ENDBRANCH   1   2
BRANCH   1  11
ATOM     11  C   UNL     1     101.634  22.597 196.624  1.00  0.00     0.000 C 
BRANCH  11  12
ATOM     12  C   UNL     1     102.693  21.911 195.746  1.00  0.00    -0.000 C 
BRANCH  12  13
ATOM     13  C   UNL     1     102.486  22.180 194.247  1.00  0.00    -0.000 C 
BRANCH  13  14
ATOM     14  C   UNL     1     103.654  22.959 193.620  1.00  0.00    -0.000 C 
BRANCH  14  15
ATOM     15  C   UNL     1     104.806  23.191 194.611  1.00  0.00    -0.000 C 
BRANCH  15  16
ATOM     16  C   UNL     1     105.030  24.678 194.925  1.00  0.00    -0.000 C 
BRANCH  16  17
ATOM     17  C   UNL     1     105.874  24.849 196.194  1.00  0.00    -0.003 C 
ATOM     18  C   UNL     1     105.328  25.972 197.072  1.00  0.00     0.004 C 
ENDBRANCH  16  17
ENDBRANCH  15  16
ENDBRANCH  14  15
ENDBRANCH  13  14
ENDBRANCH  12  13
ENDBRANCH  11  12
ENDBRANCH   1  11
TORSDOF 14
ENDMDL
MODEL 5
REMARK VINA RESULT:    -5.140      1.704      4.527
REMARK INTER + INTRA:         -11.453
REMARK INTER:                  -9.454
REMARK INTRA:                  -1.999
REMARK UNBOUND:                -2.106
REMARK SMILES CCCCCCCCCCCCCCCC(=O)[O-]
REMARK SMILES IDX 9 1 10 2 11 3 12 4 13 5 14 6 15 7 16 8 17 9 18 10 8 11 7 12
REMARK SMILES IDX 6 13 5 14 4 15 3 16 2 17 1 18
REMARK H PARENT
REMARK Flexibility Score: inf
ROOT
ATOM      1  C   UNL     1     103.898  23.215 199.497  1.00  0.00     0.000 C 
ENDROOT
BRANCH   1   2
ATOM      2  C   UNL     1     103.115  23.205 200.823  1.00  0.00     0.000 C 
BRANCH   2   3
ATOM      3  C   UNL     1     101.622  23.555 200.698  1.00  0.00     0.000 C 
BRANCH   3   4
ATOM      4  C   UNL     1     101.226  23.986 199.275  1.00  0.00     0.000 C 
BRANCH   4   5
ATOM      5  C   UNL     1     100.044  23.178 198.712  1.00  0.00     0.000 C 
BRANCH   5   6
ATOM      6  C   UNL     1     100.408  22.212 197.569  1.00  0.00     0.006 C 
BRANCH   6   7
ATOM      7  C   UNL     1     101.171  22.895 196.426  1.00  0.00     0.053 C 
BRANCH   7   8
ATOM      8  C   UNL     1     101.229  21.999 195.229  1.00  0.00     0.041 C 
ATOM      9  O   UNL     1     101.307  20.751 195.375  1.00  0.00    -0.550 OA
ATOM     10  O   UNL     1     101.245  22.546 193.952  1.00  0.00    -0.550 OA
ENDBRANCH   7   8
ENDBRANCH   6   7
ENDBRANCH   5   6
ENDBRANCH   4   5
ENDBRANCH   3   4
ENDBRANCH   2   3
ENDBRANCH   1   2
BRANCH   1  11
ATOM     11  C   UNL     1     105.421  23.196 199.697  1.00  0.00     0.000 C 
BRANCH  11  12
ATOM     12  C   UNL     1     106.119  22.474 198.535  1.00  0.00    -0.000 C 
BRANCH  12  13
ATOM     13  C   UNL     1     105.190  21.494 197.800  1.00  0.00    -0.000 C 
BRANCH  13  14
ATOM     14  C   UNL     1     104.770  22.007 196.412  1.00  0.00    -0.000 C 
BRANCH  14  15
ATOM     15  C   UNL     1     105.665  23.153 195.912  1.00  0.00    -0.000 C 
BRANCH  15  16
ATOM     16  C   UNL     1     104.862  24.305 195.288  1.00  0.00    -0.000 C 
BRANCH  16  17
ATOM     17  C   UNL     1     104.242  25.192 196.374  1.00  0.00    -0.003 C 
ATOM     18  C   UNL     1     105.318  25.932 197.163  1.00  0.00     0.004 C 
ENDBRANCH  16  17
ENDBRANCH  15  16
ENDBRANCH  14  15
ENDBRANCH  13  14
ENDBRANCH  12  13
ENDBRANCH  11  12
ENDBRANCH   1  11
TORSDOF 14
ENDMDL
MODEL 6
REMARK VINA RESULT:    -5.117      1.786      4.603
REMARK INTER + INTRA:         -11.412
REMARK INTER:                  -9.396
REMARK INTRA:                  -2.015
REMARK UNBOUND:                -2.106
REMARK SMILES CCCCCCCCCCCCCCCC(=O)[O-]
REMARK SMILES IDX 9 1 10 2 11 3 12 4 13 5 14 6 15 7 16 8 17 9 18 10 8 11 7 12
REMARK SMILES IDX 6 13 5 14 4 15 3 16 2 17 1 18
REMARK H PARENT
REMARK Flexibility Score: inf
ROOT
ATOM      1  C   UNL     1     102.930  22.833 199.239  1.00  0.00     0.000 C 
ENDROOT
BRANCH   1   2
ATOM      2  C   UNL     1     104.073  23.345 200.137  1.00  0.00     0.000 C 
BRANCH   2   3
ATOM      3  C   UNL     1     105.480  22.881 199.721  1.00  0.00     0.000 C 
BRANCH   3   4
ATOM      4  C   UNL     1     105.545  22.401 198.261  1.00  0.00     0.000 C 
BRANCH   4   5
ATOM      5  C   UNL     1     106.262  21.048 198.108  1.00  0.00     0.000 C 
BRANCH   5   6
ATOM      6  C   UNL     1     105.667  20.120 197.031  1.00  0.00     0.006 C 
BRANCH   6   7
ATOM      7  C   UNL     1     104.133  20.107 197.031  1.00  0.00     0.053 C 
BRANCH   7   8
ATOM      8  C   UNL     1     103.623  18.712 197.207  1.00  0.00     0.041 C 
ATOM      9  O   UNL     1     104.402  17.731 197.080  1.00  0.00    -0.550 OA
ATOM     10  O   UNL     1     102.276  18.492 197.466  1.00  0.00    -0.550 OA
ENDBRANCH   7   8
ENDBRANCH   6   7
ENDBRANCH   5   6
ENDBRANCH   4   5
ENDBRANCH   3   4
ENDBRANCH   2   3
ENDBRANCH   1   2
BRANCH   1  11
ATOM     11  C   UNL     1     102.062  23.965 198.668  1.00  0.00     0.000 C 
BRANCH  11  12
ATOM     12  C   UNL     1     102.357  24.184 197.176  1.00  0.00    -0.000 C 
BRANCH  12  13
ATOM     13  C   UNL     1     103.199  25.444 196.915  1.00  0.00    -0.000 C 
BRANCH  13  14
ATOM     14  C   UNL     1     104.657  25.114 196.554  1.00  0.00    -0.000 C 
BRANCH  14  15
ATOM     15  C   UNL     1     104.841  24.826 195.055  1.00  0.00    -0.000 C 
BRANCH  15  16
ATOM     16  C   UNL     1     104.943  23.323 194.747  1.00  0.00    -0.000 C 
BRANCH  16  17
ATOM     17  C   UNL     1     104.046  22.946 193.562  1.00  0.00    -0.003 C 
ATOM     18  C   UNL     1     102.738  22.320 194.038  1.00  0.00     0.004 C 
ENDBRANCH  16  17
ENDBRANCH  15  16
ENDBRANCH  14  15
ENDBRANCH  13  14
ENDBRANCH  12  13
ENDBRANCH  11  12
ENDBRANCH   1  11
TORSDOF 14
ENDMDL
MODEL 7
REMARK VINA RESULT:    -5.094      1.578      3.109
REMARK INTER + INTRA:         -11.369
REMARK INTER:                  -9.415
REMARK INTRA:                  -1.954
REMARK UNBOUND:                -2.106
REMARK SMILES CCCCCCCCCCCCCCCC(=O)[O-]
REMARK SMILES IDX 9 1 10 2 11 3 12 4 13 5 14 6 15 7 16 8 17 9 18 10 8 11 7 12
REMARK SMILES IDX 6 13 5 14 4 15 3 16 2 17 1 18
REMARK H PARENT
REMARK Flexibility Score: inf
ROOT
ATOM      1  C   UNL     1     105.763  22.367 194.591  1.00  0.00     0.000 C 
ENDROOT
BRANCH   1   2
ATOM      2  C   UNL     1     104.577  21.818 193.777  1.00  0.00     0.000 C 
BRANCH   2   3
ATOM      3  C   UNL     1     103.516  22.864 193.391  1.00  0.00     0.000 C 
BRANCH   3   4
ATOM      4  C   UNL     1     102.084  22.417 193.730  1.00  0.00     0.000 C 
BRANCH   4   5
ATOM      5  C   UNL     1     101.813  22.373 195.245  1.00  0.00     0.000 C 
BRANCH   5   6
ATOM      6  C   UNL     1     101.511  20.971 195.807  1.00  0.00     0.006 C 
BRANCH   6   7
ATOM      7  C   UNL     1     102.575  20.479 196.797  1.00  0.00     0.053 C 
BRANCH   7   8
ATOM      8  C   UNL     1     102.334  19.046 197.152  1.00  0.00     0.041 C 
ATOM      9  O   UNL     1     103.305  18.277 197.377  1.00  0.00    -0.550 OA
ATOM     10  O   UNL     1     101.037  18.548 197.188  1.00  0.00    -0.550 OA
ENDBRANCH   7   8
ENDBRANCH   6   7
ENDBRANCH   5   6
ENDBRANCH   4   5
ENDBRANCH   3   4
ENDBRANCH   2   3
ENDBRANCH   1   2
BRANCH   1  11
ATOM     11  C   UNL     1     105.397  22.680 196.050  1.00  0.00     0.000 C 
BRANCH  11  12
ATOM     12  C   UNL     1     105.719  24.142 196.397  1.00  0.00    -0.000 C 
BRANCH  12  13
ATOM     13  C   UNL     1     104.967  24.636 197.643  1.00  0.00    -0.000 C 
BRANCH  13  14
ATOM     14  C   UNL     1     105.033  23.634 198.808  1.00  0.00    -0.000 C 
BRANCH  14  15
ATOM     15  C   UNL     1     103.640  23.216 199.305  1.00  0.00    -0.000 C 
BRANCH  15  16
ATOM     16  C   UNL     1     102.502  23.893 198.525  1.00  0.00    -0.000 C 
BRANCH  16  17
ATOM     17  C   UNL     1     101.144  23.605 199.176  1.00  0.00    -0.003 C 
ATOM     18  C   UNL     1     101.191  23.852 200.681  1.00  0.00     0.004 C 
ENDBRANCH  16  17
ENDBRANCH  15  16
ENDBRANCH  14  15
ENDBRANCH  13  14
ENDBRANCH  12  13
ENDBRANCH  11  12
ENDBRANCH   1  11
TORSDOF 14
ENDMDL
MODEL 8
REMARK VINA RESULT:    -5.015      1.402      2.347
REMARK INTER + INTRA:         -11.225
REMARK INTER:                  -9.075
REMARK INTRA:                  -2.150
REMARK UNBOUND:                -2.106
REMARK SMILES CCCCCCCCCCCCCCCC(=O)[O-]
REMARK SMILES IDX 9 1 10 2 11 3 12 4 13 5 14 6 15 7 16 8 17 9 18 10 8 11 7 12
REMARK SMILES IDX 6 13 5 14 4 15 3 16 2 17 1 18
REMARK H PARENT
REMARK Flexibility Score: inf
ROOT
ATOM      1  C   UNL     1     105.045  25.110 197.491  1.00  0.00     0.000 C 
ENDROOT
BRANCH   1   2
ATOM      2  C   UNL     1     105.740  24.796 196.154  1.00  0.00     0.000 C 
BRANCH   2   3
ATOM      3  C   UNL     1     104.821  24.210 195.067  1.00  0.00     0.000 C 
BRANCH   3   4
ATOM      4  C   UNL     1     105.357  22.894 194.477  1.00  0.00     0.000 C 
BRANCH   4   5
ATOM      5  C   UNL     1     104.317  22.159 193.613  1.00  0.00     0.000 C 
BRANCH   5   6
ATOM      6  C   UNL     1     102.999  22.927 193.395  1.00  0.00     0.006 C 
BRANCH   6   7
ATOM      7  C   UNL     1     101.761  22.130 193.828  1.00  0.00     0.053 C 
BRANCH   7   8
ATOM      8  C   UNL     1     101.478  22.355 195.279  1.00  0.00     0.041 C 
ATOM      9  O   UNL     1     102.025  21.630 196.152  1.00  0.00    -0.550 OA
ATOM     10  O   UNL     1     100.573  23.336 195.667  1.00  0.00    -0.550 OA
ENDBRANCH   7   8
ENDBRANCH   6   7
ENDBRANCH   5   6
ENDBRANCH   4   5
ENDBRANCH   3   4
ENDBRANCH   2   3
ENDBRANCH   1   2
BRANCH   1  11
ATOM     11  C   UNL     1     103.826  24.213 197.760  1.00  0.00     0.000 C 
BRANCH  11  12
ATOM     12  C   UNL     1     104.131  23.188 198.863  1.00  0.00    -0.000 C 
BRANCH  12  13
ATOM     13  C   UNL     1     105.342  23.583 199.724  1.00  0.00    -0.000 C 
BRANCH  13  14
ATOM     14  C   UNL     1     106.440  22.507 199.726  1.00  0.00    -0.000 C 
BRANCH  14  15
ATOM     15  C   UNL     1     106.324  21.544 198.533  1.00  0.00    -0.000 C 
BRANCH  15  16
ATOM     16  C   UNL     1     107.439  21.745 197.494  1.00  0.00    -0.000 C 
BRANCH  16  17
ATOM     17  C   UNL     1     107.423  20.624 196.449  1.00  0.00    -0.003 C 
ATOM     18  C   UNL     1     106.081  19.898 196.439  1.00  0.00     0.004 C 
ENDBRANCH  16  17
ENDBRANCH  15  16
ENDBRANCH  14  15
ENDBRANCH  13  14
ENDBRANCH  12  13
ENDBRANCH  11  12
ENDBRANCH   1  11
TORSDOF 14
ENDMDL
MODEL 9
REMARK VINA RESULT:    -5.013      2.167      3.948
REMARK INTER + INTRA:         -11.222
REMARK INTER:                  -9.043
REMARK INTRA:                  -2.179
REMARK UNBOUND:                -2.106
REMARK SMILES CCCCCCCCCCCCCCCC(=O)[O-]
REMARK SMILES IDX 9 1 10 2 11 3 12 4 13 5 14 6 15 7 16 8 17 9 18 10 8 11 7 12
REMARK SMILES IDX 6 13 5 14 4 15 3 16 2 17 1 18
REMARK H PARENT
REMARK Flexibility Score: inf
ROOT
ATOM      1  C   UNL     1     103.880  23.122 193.458  1.00  0.00     0.000 C 
ENDROOT
BRANCH   1   2
ATOM      2  C   UNL     1     102.480  22.480 193.444  1.00  0.00     0.000 C 
BRANCH   2   3
ATOM      3  C   UNL     1     101.763  22.459 194.806  1.00  0.00     0.000 C 
BRANCH   3   4
ATOM      4  C   UNL     1     101.266  21.058 195.198  1.00  0.00     0.000 C 
BRANCH   4   5
ATOM      5  C   UNL     1     101.264  20.827 196.720  1.00  0.00     0.000 C 
BRANCH   5   6
ATOM      6  C   UNL     1     102.306  19.808 197.220  1.00  0.00     0.006 C 
BRANCH   6   7
ATOM      7  C   UNL     1     103.747  20.325 197.122  1.00  0.00     0.053 C 
BRANCH   7   8
ATOM      8  C   UNL     1     104.704  19.182 197.002  1.00  0.00     0.041 C 
ATOM      9  O   UNL     1     105.942  19.396 196.916  1.00  0.00    -0.550 OA
ATOM     10  O   UNL     1     104.225  17.878 196.938  1.00  0.00    -0.550 OA
ENDBRANCH   7   8
ENDBRANCH   6   7
ENDBRANCH   5   6
ENDBRANCH   4   5
ENDBRANCH   3   4
ENDBRANCH   2   3
ENDBRANCH   1   2
BRANCH   1  11
ATOM     11  C   UNL     1     104.873  22.379 194.365  1.00  0.00     0.000 C 
BRANCH  11  12
ATOM     12  C   UNL     1     105.446  23.317 195.439  1.00  0.00    -0.000 C 
BRANCH  12  13
ATOM     13  C   UNL     1     104.971  24.770 195.274  1.00  0.00    -0.000 C 
BRANCH  13  14
ATOM     14  C   UNL     1     104.553  25.409 196.609  1.00  0.00    -0.000 C 
BRANCH  14  15
ATOM     15  C   UNL     1     103.114  25.047 197.010  1.00  0.00    -0.000 C 
BRANCH  15  16
ATOM     16  C   UNL     1     103.049  23.860 197.985  1.00  0.00    -0.000 C 
BRANCH  16  17
ATOM     17  C   UNL     1     101.780  23.925 198.843  1.00  0.00    -0.003 C 
ATOM     18  C   UNL     1     101.922  23.074 200.102  1.00  0.00     0.004 C 
ENDBRANCH  16  17
ENDBRANCH  15  16
ENDBRANCH  14  15
ENDBRANCH  13  14
ENDBRANCH  12  13
ENDBRANCH  11  12
ENDBRANCH   1  11
TORSDOF 14
ENDMDL
