MODEL 1
REMARK VINA RESULT:    -4.348      0.000      0.000
REMARK INTER + INTRA:         -15.763
REMARK INTER:                 -10.957
REMARK INTRA:                  -4.806
REMARK UNBOUND:                -4.806
REMARK SMILES CCCCCCCCCCCCCCCCCCCCCCCCCCCC(=O)[O-]
REMARK SMILES IDX 15 1 16 2 17 3 18 4 19 5 20 6 21 7 22 8 23 9 24 10 25 11
REMARK SMILES IDX 26 12 27 13 28 14 29 15 30 16 14 17 13 18 12 19 11 20 10 21
REMARK SMILES IDX 9 22 8 23 7 24 6 25 5 26 4 27 3 28 2 29 1 30
REMARK H PARENT
REMARK Flexibility Score: inf
ROOT
ATOM      1  C   UNL     1     -12.993  -2.399 -23.399  1.00  0.00     0.000 C 
ENDROOT
BRANCH   1   2
ATOM      2  C   UNL     1     -12.124  -1.469 -22.538  1.00  0.00     0.000 C 
BRANCH   2   3
ATOM      3  C   UNL     1     -10.684  -1.331 -23.064  1.00  0.00     0.000 C 
BRANCH   3   4
ATOM      4  C   UNL     1      -9.705  -2.255 -22.305  1.00  0.00     0.000 C 
BRANCH   4   5
ATOM      5  C   UNL     1     -10.111  -2.530 -20.843  1.00  0.00     0.000 C 
BRANCH   5   6
ATOM      6  C   UNL     1      -9.553  -1.520 -19.816  1.00  0.00     0.000 C 
BRANCH   6   7
ATOM      7  C   UNL     1      -8.297  -0.764 -20.284  1.00  0.00     0.000 C 
BRANCH   7   8
ATOM      8  C   UNL     1      -8.403   0.761 -20.110  1.00  0.00     0.000 C 
BRANCH   8   9
ATOM      9  C   UNL     1      -8.785   1.480 -21.422  1.00  0.00     0.000 C 
BRANCH   9  10
ATOM     10  C   UNL     1     -10.207   2.075 -21.414  1.00  0.00     0.000 C 
BRANCH  10  11
ATOM     11  C   UNL     1     -11.050   1.721 -20.179  1.00  0.00     0.000 C 
BRANCH  11  12
ATOM     12  C   UNL     1     -12.557   1.670 -20.481  1.00  0.00     0.006 C 
BRANCH  12  13
ATOM     13  C   UNL     1     -12.877   2.133 -21.907  1.00  0.00     0.053 C 
BRANCH  13  14
ATOM     14  C   UNL     1     -14.002   3.124 -21.933  1.00  0.00     0.041 C 
ATOM     15  O   UNL     1     -14.761   3.248 -20.936  1.00  0.00    -0.550 OA
ATOM     16  O   UNL     1     -14.229   3.888 -23.071  1.00  0.00    -0.550 OA
ENDBRANCH  13  14
ENDBRANCH  12  13
ENDBRANCH  11  12
ENDBRANCH  10  11
ENDBRANCH   9  10
ENDBRANCH   8   9
ENDBRANCH   7   8
ENDBRANCH   6   7
ENDBRANCH   5   6
ENDBRANCH   4   5
ENDBRANCH   3   4
ENDBRANCH   2   3
ENDBRANCH   1   2
BRANCH   1  17
ATOM     17  C   UNL     1     -13.320  -3.745 -22.718  1.00  0.00     0.000 C 
BRANCH  17  18
ATOM     18  C   UNL     1     -12.372  -4.860 -23.190  1.00  0.00     0.000 C 
BRANCH  18  19
ATOM     19  C   UNL     1     -11.871  -4.636 -24.626  1.00  0.00     0.000 C 
BRANCH  19  20
ATOM     20  C   UNL     1     -11.202  -5.891 -25.215  1.00  0.00     0.000 C 
BRANCH  20  21
ATOM     21  C   UNL     1      -9.837  -5.577 -25.864  1.00  0.00     0.000 C 
BRANCH  21  22
ATOM     22  C   UNL     1      -8.965  -4.600 -25.054  1.00  0.00    -0.000 C 
BRANCH  22  23
ATOM     23  C   UNL     1      -8.353  -3.485 -25.918  1.00  0.00    -0.000 C 
BRANCH  23  24
ATOM     24  C   UNL     1      -9.395  -2.458 -26.388  1.00  0.00    -0.000 C 
BRANCH  24  25
ATOM     25  C   UNL     1      -9.207  -2.066 -27.866  1.00  0.00    -0.000 C 
BRANCH  25  26
ATOM     26  C   UNL     1      -9.376  -3.269 -28.820  1.00  0.00    -0.000 C 
BRANCH  26  27
ATOM     27  C   UNL     1     -10.799  -3.858 -28.832  1.00  0.00    -0.000 C 
BRANCH  27  28
ATOM     28  C   UNL     1     -11.784  -3.140 -29.771  1.00  0.00    -0.000 C 
BRANCH  28  29
ATOM     29  C   UNL     1     -13.044  -2.646 -29.046  1.00  0.00    -0.003 C 
ATOM     30  C   UNL     1     -13.178  -3.296 -27.671  1.00  0.00     0.004 C 
ENDBRANCH  28  29
ENDBRANCH  27  28
ENDBRANCH  26  27
ENDBRANCH  25  26
ENDBRANCH  24  25
ENDBRANCH  23  24
ENDBRANCH  22  23
ENDBRANCH  21  22
ENDBRANCH  20  21
ENDBRANCH  19  20
ENDBRANCH  18  19
ENDBRANCH  17  18
ENDBRANCH   1  17
TORSDOF 26
ENDMDL
MODEL 2
REMARK VINA RESULT:    -4.293      2.762      7.977
REMARK INTER + INTRA:         -15.625
REMARK INTER:                 -11.431
REMARK INTRA:                  -4.195
REMARK UNBOUND:                -4.806
REMARK SMILES CCCCCCCCCCCCCCCCCCCCCCCCCCCC(=O)[O-]
REMARK SMILES IDX 15 1 16 2 17 3 18 4 19 5 20 6 21 7 22 8 23 9 24 10 25 11
REMARK SMILES IDX 26 12 27 13 28 14 29 15 30 16 14 17 13 18 12 19 11 20 10 21
REMARK SMILES IDX 9 22 8 23 7 24 6 25 5 26 4 27 3 28 2 29 1 30
REMARK H PARENT
REMARK Flexibility Score: inf
ROOT
ATOM      1  C   UNL     1     -11.511  -1.918 -21.609  1.00  0.00     0.000 C 
ENDROOT
BRANCH   1   2
ATOM      2  C   UNL     1     -12.630  -1.532 -22.590  1.00  0.00     0.000 C 
BRANCH   2   3
ATOM      3  C   UNL     1     -13.172  -2.731 -23.388  1.00  0.00     0.000 C 
BRANCH   3   4
ATOM      4  C   UNL     1     -13.253  -4.008 -22.522  1.00  0.00     0.000 C 
BRANCH   4   5
ATOM      5  C   UNL     1     -12.417  -5.186 -23.064  1.00  0.00     0.000 C 
BRANCH   5   6
ATOM      6  C   UNL     1     -11.815  -4.960 -24.469  1.00  0.00     0.000 C 
BRANCH   6   7
ATOM      7  C   UNL     1     -10.285  -5.112 -24.538  1.00  0.00     0.000 C 
BRANCH   7   8
ATOM      8  C   UNL     1      -9.542  -3.767 -24.612  1.00  0.00     0.000 C 
BRANCH   8   9
ATOM      9  C   UNL     1     -10.200  -2.782 -25.603  1.00  0.00     0.000 C 
BRANCH   9  10
ATOM     10  C   UNL     1      -9.229  -2.222 -26.662  1.00  0.00     0.000 C 
BRANCH  10  11
ATOM     11  C   UNL     1      -8.849  -3.209 -27.776  1.00  0.00     0.000 C 
BRANCH  11  12
ATOM     12  C   UNL     1     -10.043  -4.046 -28.263  1.00  0.00     0.006 C 
BRANCH  12  13
ATOM     13  C   UNL     1     -10.943  -3.263 -29.226  1.00  0.00     0.053 C 
BRANCH  13  14
ATOM     14  C   UNL     1     -12.352  -3.169 -28.721  1.00  0.00     0.041 C 
ATOM     15  O   UNL     1     -12.745  -3.924 -27.794  1.00  0.00    -0.550 OA
ATOM     16  O   UNL     1     -13.238  -2.267 -29.298  1.00  0.00    -0.550 OA
ENDBRANCH  13  14
ENDBRANCH  12  13
ENDBRANCH  11  12
ENDBRANCH  10  11
ENDBRANCH   9  10
ENDBRANCH   8   9
ENDBRANCH   7   8
ENDBRANCH   6   7
ENDBRANCH   5   6
ENDBRANCH   4   5
ENDBRANCH   3   4
ENDBRANCH   2   3
ENDBRANCH   1   2
BRANCH   1  17
ATOM     17  C   UNL     1     -10.128  -1.352 -21.996  1.00  0.00     0.000 C 
BRANCH  17  18
ATOM     18  C   UNL     1     -10.243  -0.289 -23.101  1.00  0.00     0.000 C 
BRANCH  18  19
ATOM     19  C   UNL     1      -9.474   0.998 -22.761  1.00  0.00     0.000 C 
BRANCH  19  20
ATOM     20  C   UNL     1      -9.291   1.187 -21.244  1.00  0.00     0.000 C 
BRANCH  20  21
ATOM     21  C   UNL     1     -10.297   2.198 -20.654  1.00  0.00     0.000 C 
BRANCH  21  22
ATOM     22  C   UNL     1     -11.503   1.547 -19.949  1.00  0.00    -0.000 C 
BRANCH  22  23
ATOM     23  C   UNL     1     -12.852   2.009 -20.521  1.00  0.00    -0.000 C 
BRANCH  23  24
ATOM     24  C   UNL     1     -12.872   2.031 -22.057  1.00  0.00    -0.000 C 
BRANCH  24  25
ATOM     25  C   UNL     1     -14.071   2.817 -22.619  1.00  0.00    -0.000 C 
BRANCH  25  26
ATOM     26  C   UNL     1     -14.569   3.907 -21.645  1.00  0.00    -0.000 C 
BRANCH  26  27
ATOM     27  C   UNL     1     -14.361   5.343 -22.161  1.00  0.00    -0.000 C 
BRANCH  27  28
ATOM     28  C   UNL     1     -13.962   5.443 -23.643  1.00  0.00    -0.000 C 
BRANCH  28  29
ATOM     29  C   UNL     1     -15.163   5.688 -24.568  1.00  0.00    -0.003 C 
ATOM     30  C   UNL     1     -16.342   6.272 -23.794  1.00  0.00     0.004 C 
ENDBRANCH  28  29
ENDBRANCH  27  28
ENDBRANCH  26  27
ENDBRANCH  25  26
ENDBRANCH  24  25
ENDBRANCH  23  24
ENDBRANCH  22  23
ENDBRANCH  21  22
ENDBRANCH  20  21
ENDBRANCH  19  20
ENDBRANCH  18  19
ENDBRANCH  17  18
ENDBRANCH   1  17
TORSDOF 26
ENDMDL
MODEL 3
REMARK VINA RESULT:    -4.292      2.140      5.024
REMARK INTER + INTRA:         -15.622
REMARK INTER:                 -11.901
REMARK INTRA:                  -3.721
REMARK UNBOUND:                -4.806
REMARK SMILES CCCCCCCCCCCCCCCCCCCCCCCCCCCC(=O)[O-]
REMARK SMILES IDX 15 1 16 2 17 3 18 4 19 5 20 6 21 7 22 8 23 9 24 10 25 11
REMARK SMILES IDX 26 12 27 13 28 14 29 15 30 16 14 17 13 18 12 19 11 20 10 21
REMARK SMILES IDX 9 22 8 23 7 24 6 25 5 26 4 27 3 28 2 29 1 30
REMARK H PARENT
REMARK Flexibility Score: inf
ROOT
ATOM      1  C   UNL     1      -9.469   1.236 -22.588  1.00  0.00     0.000 C 
ENDROOT
BRANCH   1   2
ATOM      2  C   UNL     1      -8.758   1.341 -21.229  1.00  0.00     0.000 C 
BRANCH   2   3
ATOM      3  C   UNL     1      -9.252   2.526 -20.380  1.00  0.00     0.000 C 
BRANCH   3   4
ATOM      4  C   UNL     1      -9.928   2.054 -19.073  1.00  0.00     0.000 C 
BRANCH   4   5
ATOM      5  C   UNL     1     -11.133   1.118 -19.296  1.00  0.00     0.000 C 
BRANCH   5   6
ATOM      6  C   UNL     1     -12.409   1.816 -19.817  1.00  0.00     0.000 C 
BRANCH   6   7
ATOM      7  C   UNL     1     -12.728   1.539 -21.297  1.00  0.00     0.000 C 
BRANCH   7   8
ATOM      8  C   UNL     1     -13.190   2.788 -22.066  1.00  0.00     0.000 C 
BRANCH   8   9
ATOM      9  C   UNL     1     -14.527   3.349 -21.533  1.00  0.00     0.000 C 
BRANCH   9  10
ATOM     10  C   UNL     1     -14.743   4.844 -21.845  1.00  0.00     0.000 C 
BRANCH  10  11
ATOM     11  C   UNL     1     -13.892   5.392 -23.001  1.00  0.00     0.000 C 
BRANCH  11  12
ATOM     12  C   UNL     1     -14.647   5.405 -24.341  1.00  0.00     0.006 C 
BRANCH  12  13
ATOM     13  C   UNL     1     -16.145   5.677 -24.158  1.00  0.00     0.053 C 
BRANCH  13  14
ATOM     14  C   UNL     1     -16.432   7.141 -24.006  1.00  0.00     0.041 C 
ATOM     15  O   UNL     1     -16.022   7.960 -24.869  1.00  0.00    -0.550 OA
ATOM     16  O   UNL     1     -17.127   7.601 -22.895  1.00  0.00    -0.550 OA
ENDBRANCH  13  14
ENDBRANCH  12  13
ENDBRANCH  11  12
ENDBRANCH  10  11
ENDBRANCH   9  10
ENDBRANCH   8   9
ENDBRANCH   7   8
ENDBRANCH   6   7
ENDBRANCH   5   6
ENDBRANCH   4   5
ENDBRANCH   3   4
ENDBRANCH   2   3
ENDBRANCH   1   2
BRANCH   1  17
ATOM     17  C   UNL     1      -9.983  -0.184 -22.909  1.00  0.00     0.000 C 
BRANCH  17  18
ATOM     18  C   UNL     1      -9.730  -1.152 -21.741  1.00  0.00     0.000 C 
BRANCH  18  19
ATOM     19  C   UNL     1      -9.465  -2.590 -22.216  1.00  0.00     0.000 C 
BRANCH  19  20
ATOM     20  C   UNL     1     -10.264  -3.629 -21.409  1.00  0.00     0.000 C 
BRANCH  20  21
ATOM     21  C   UNL     1     -11.586  -3.052 -20.859  1.00  0.00     0.000 C 
BRANCH  21  22
ATOM     22  C   UNL     1     -12.820  -3.931 -21.136  1.00  0.00    -0.000 C 
BRANCH  22  23
ATOM     23  C   UNL     1     -13.164  -4.028 -22.631  1.00  0.00    -0.000 C 
BRANCH  23  24
ATOM     24  C   UNL     1     -13.136  -2.663 -23.337  1.00  0.00    -0.000 C 
BRANCH  24  25
ATOM     25  C   UNL     1     -12.672  -2.768 -24.802  1.00  0.00    -0.000 C 
BRANCH  25  26
ATOM     26  C   UNL     1     -12.245  -4.203 -25.182  1.00  0.00    -0.000 C 
BRANCH  26  27
ATOM     27  C   UNL     1     -11.070  -4.259 -26.177  1.00  0.00    -0.000 C 
BRANCH  27  28
ATOM     28  C   UNL     1      -9.710  -3.846 -25.589  1.00  0.00    -0.000 C 
BRANCH  28  29
ATOM     29  C   UNL     1      -9.323  -2.402 -25.939  1.00  0.00    -0.003 C 
ATOM     30  C   UNL     1      -9.169  -2.224 -27.447  1.00  0.00     0.004 C 
ENDBRANCH  28  29
ENDBRANCH  27  28
ENDBRANCH  26  27
ENDBRANCH  25  26
ENDBRANCH  24  25
ENDBRANCH  23  24
ENDBRANCH  22  23
ENDBRANCH  21  22
ENDBRANCH  20  21
ENDBRANCH  19  20
ENDBRANCH  18  19
ENDBRANCH  17  18
ENDBRANCH   1  17
TORSDOF 26
ENDMDL
MODEL 4
REMARK VINA RESULT:    -4.276      2.759      5.955
REMARK INTER + INTRA:         -15.582
REMARK INTER:                 -11.342
REMARK INTRA:                  -4.240
REMARK UNBOUND:                -4.806
REMARK SMILES CCCCCCCCCCCCCCCCCCCCCCCCCCCC(=O)[O-]
REMARK SMILES IDX 15 1 16 2 17 3 18 4 19 5 20 6 21 7 22 8 23 9 24 10 25 11
REMARK SMILES IDX 26 12 27 13 28 14 29 15 30 16 14 17 13 18 12 19 11 20 10 21
REMARK SMILES IDX 9 22 8 23 7 24 6 25 5 26 4 27 3 28 2 29 1 30
REMARK H PARENT
REMARK Flexibility Score: inf
ROOT
ATOM      1  C   UNL     1      -9.035  -3.007 -29.473  1.00  0.00     0.000 C 
ENDROOT
BRANCH   1   2
ATOM      2  C   UNL     1      -8.200  -2.538 -28.271  1.00  0.00     0.000 C 
BRANCH   2   3
ATOM      3  C   UNL     1      -7.661  -3.702 -27.419  1.00  0.00     0.000 C 
BRANCH   3   4
ATOM      4  C   UNL     1      -7.976  -3.509 -25.919  1.00  0.00     0.000 C 
BRANCH   4   5
ATOM      5  C   UNL     1      -9.300  -2.765 -25.649  1.00  0.00     0.000 C 
BRANCH   5   6
ATOM      6  C   UNL     1     -10.543  -3.675 -25.539  1.00  0.00     0.000 C 
BRANCH   6   7
ATOM      7  C   UNL     1     -11.851  -2.930 -25.214  1.00  0.00     0.000 C 
BRANCH   7   8
ATOM      8  C   UNL     1     -12.752  -3.685 -24.223  1.00  0.00     0.000 C 
BRANCH   8   9
ATOM      9  C   UNL     1     -13.192  -2.802 -23.034  1.00  0.00     0.000 C 
BRANCH   9  10
ATOM     10  C   UNL     1     -12.023  -2.106 -22.309  1.00  0.00     0.000 C 
BRANCH  10  11
ATOM     11  C   UNL     1     -12.213  -0.600 -22.073  1.00  0.00     0.000 C 
BRANCH  11  12
ATOM     12  C   UNL     1     -10.940   0.214 -22.362  1.00  0.00     0.006 C 
BRANCH  12  13
ATOM     13  C   UNL     1     -10.910   1.534 -21.582  1.00  0.00     0.053 C 
BRANCH  13  14
ATOM     14  C   UNL     1      -9.509   1.955 -21.252  1.00  0.00     0.041 C 
ATOM     15  O   UNL     1      -8.572   1.729 -22.061  1.00  0.00    -0.550 OA
ATOM     16  O   UNL     1      -9.237   2.568 -20.036  1.00  0.00    -0.550 OA
ENDBRANCH  13  14
ENDBRANCH  12  13
ENDBRANCH  11  12
ENDBRANCH  10  11
ENDBRANCH   9  10
ENDBRANCH   8   9
ENDBRANCH   7   8
ENDBRANCH   6   7
ENDBRANCH   5   6
ENDBRANCH   4   5
ENDBRANCH   3   4
ENDBRANCH   2   3
ENDBRANCH   1   2
BRANCH   1  17
ATOM     17  C   UNL     1      -9.726  -4.369 -29.251  1.00  0.00     0.000 C 
BRANCH  17  18
ATOM     18  C   UNL     1     -11.258  -4.235 -29.283  1.00  0.00     0.000 C 
BRANCH  18  19
ATOM     19  C   UNL     1     -11.729  -2.800 -28.998  1.00  0.00     0.000 C 
BRANCH  19  20
ATOM     20  C   UNL     1     -13.262  -2.672 -29.022  1.00  0.00     0.000 C 
BRANCH  20  21
ATOM     21  C   UNL     1     -13.967  -4.029 -28.808  1.00  0.00     0.000 C 
BRANCH  21  22
ATOM     22  C   UNL     1     -14.986  -4.390 -29.905  1.00  0.00    -0.000 C 
BRANCH  22  23
ATOM     23  C   UNL     1     -14.508  -4.006 -31.315  1.00  0.00    -0.000 C 
BRANCH  23  24
ATOM     24  C   UNL     1     -13.626  -5.086 -31.959  1.00  0.00    -0.000 C 
BRANCH  24  25
ATOM     25  C   UNL     1     -12.489  -4.487 -32.808  1.00  0.00    -0.000 C 
BRANCH  25  26
ATOM     26  C   UNL     1     -12.487  -2.942 -32.783  1.00  0.00    -0.000 C 
BRANCH  26  27
ATOM     27  C   UNL     1     -11.093  -2.327 -32.555  1.00  0.00    -0.000 C 
BRANCH  27  28
ATOM     28  C   UNL     1      -9.917  -3.275 -32.840  1.00  0.00    -0.000 C 
BRANCH  28  29
ATOM     29  C   UNL     1      -8.960  -2.732 -33.912  1.00  0.00    -0.003 C 
ATOM     30  C   UNL     1      -9.387  -3.179 -35.307  1.00  0.00     0.004 C 
ENDBRANCH  28  29
ENDBRANCH  27  28
ENDBRANCH  26  27
ENDBRANCH  25  26
ENDBRANCH  24  25
ENDBRANCH  23  24
ENDBRANCH  22  23
ENDBRANCH  21  22
ENDBRANCH  20  21
ENDBRANCH  19  20
ENDBRANCH  18  19
ENDBRANCH  17  18
ENDBRANCH   1  17
TORSDOF 26
ENDMDL
MODEL 5
REMARK VINA RESULT:    -4.267      1.955      4.623
REMARK INTER + INTRA:         -15.558
REMARK INTER:                 -10.605
REMARK INTRA:                  -4.952
REMARK UNBOUND:                -4.806
REMARK SMILES CCCCCCCCCCCCCCCCCCCCCCCCCCCC(=O)[O-]
REMARK SMILES IDX 15 1 16 2 17 3 18 4 19 5 20 6 21 7 22 8 23 9 24 10 25 11
REMARK SMILES IDX 26 12 27 13 28 14 29 15 30 16 14 17 13 18 12 19 11 20 10 21
REMARK SMILES IDX 9 22 8 23 7 24 6 25 5 26 4 27 3 28 2 29 1 30
REMARK H PARENT
REMARK Flexibility Score: inf
ROOT
ATOM      1  C   UNL     1      -9.182  -2.883 -25.308  1.00  0.00     0.000 C 
ENDROOT
BRANCH   1   2
ATOM      2  C   UNL     1     -10.356  -2.057 -24.759  1.00  0.00     0.000 C 
BRANCH   2   3
ATOM      3  C   UNL     1     -11.704  -2.796 -24.842  1.00  0.00     0.000 C 
BRANCH   3   4
ATOM      4  C   UNL     1     -12.631  -2.432 -23.661  1.00  0.00     0.000 C 
BRANCH   4   5
ATOM      5  C   UNL     1     -13.302  -3.651 -22.995  1.00  0.00     0.000 C 
BRANCH   5   6
ATOM      6  C   UNL     1     -12.397  -4.895 -22.858  1.00  0.00     0.000 C 
BRANCH   6   7
ATOM      7  C   UNL     1     -11.489  -4.889 -21.615  1.00  0.00     0.000 C 
BRANCH   7   8
ATOM      8  C   UNL     1     -10.040  -4.475 -21.921  1.00  0.00     0.000 C 
BRANCH   8   9
ATOM      9  C   UNL     1      -9.597  -3.234 -21.115  1.00  0.00     0.000 C 
BRANCH   9  10
ATOM     10  C   UNL     1     -10.766  -2.449 -20.488  1.00  0.00     0.000 C 
BRANCH  10  11
ATOM     11  C   UNL     1     -10.712  -0.928 -20.698  1.00  0.00     0.000 C 
BRANCH  11  12
ATOM     12  C   UNL     1      -9.558  -0.495 -21.618  1.00  0.00     0.006 C 
BRANCH  12  13
ATOM     13  C   UNL     1      -9.903   0.762 -22.425  1.00  0.00     0.053 C 
BRANCH  13  14
ATOM     14  C   UNL     1     -10.424   1.862 -21.549  1.00  0.00     0.041 C 
ATOM     15  O   UNL     1     -11.617   2.248 -21.658  1.00  0.00    -0.550 OA
ATOM     16  O   UNL     1      -9.581   2.480 -20.634  1.00  0.00    -0.550 OA
ENDBRANCH  13  14
ENDBRANCH  12  13
ENDBRANCH  11  12
ENDBRANCH  10  11
ENDBRANCH   9  10
ENDBRANCH   8   9
ENDBRANCH   7   8
ENDBRANCH   6   7
ENDBRANCH   5   6
ENDBRANCH   4   5
ENDBRANCH   3   4
ENDBRANCH   2   3
ENDBRANCH   1   2
BRANCH   1  17
ATOM     17  C   UNL     1      -9.410  -3.403 -26.744  1.00  0.00     0.000 C 
BRANCH  17  18
ATOM     18  C   UNL     1      -9.423  -2.253 -27.764  1.00  0.00     0.000 C 
BRANCH  18  19
ATOM     19  C   UNL     1      -8.718  -2.626 -29.078  1.00  0.00     0.000 C 
BRANCH  19  20
ATOM     20  C   UNL     1      -8.911  -4.108 -29.446  1.00  0.00     0.000 C 
BRANCH  20  21
ATOM     21  C   UNL     1      -9.182  -4.307 -30.953  1.00  0.00     0.000 C 
BRANCH  21  22
ATOM     22  C   UNL     1      -9.390  -2.995 -31.733  1.00  0.00    -0.000 C 
BRANCH  22  23
ATOM     23  C   UNL     1     -10.616  -3.037 -32.660  1.00  0.00    -0.000 C 
BRANCH  23  24
ATOM     24  C   UNL     1     -11.900  -3.461 -31.931  1.00  0.00    -0.000 C 
BRANCH  24  25
ATOM     25  C   UNL     1     -12.658  -2.263 -31.330  1.00  0.00    -0.000 C 
BRANCH  25  26
ATOM     26  C   UNL     1     -12.637  -2.268 -29.785  1.00  0.00    -0.000 C 
BRANCH  26  27
ATOM     27  C   UNL     1     -12.602  -3.680 -29.169  1.00  0.00    -0.000 C 
BRANCH  27  28
ATOM     28  C   UNL     1     -13.329  -3.811 -27.820  1.00  0.00    -0.000 C 
BRANCH  28  29
ATOM     29  C   UNL     1     -13.107  -5.177 -27.155  1.00  0.00    -0.003 C 
ATOM     30  C   UNL     1     -11.824  -5.832 -27.660  1.00  0.00     0.004 C 
ENDBRANCH  28  29
ENDBRANCH  27  28
ENDBRANCH  26  27
ENDBRANCH  25  26
ENDBRANCH  24  25
ENDBRANCH  23  24
ENDBRANCH  22  23
ENDBRANCH  21  22
ENDBRANCH  20  21
ENDBRANCH  19  20
ENDBRANCH  18  19
ENDBRANCH  17  18
ENDBRANCH   1  17
TORSDOF 26
ENDMDL
MODEL 6
REMARK VINA RESULT:    -4.192      1.928      4.028
REMARK INTER + INTRA:         -15.371
REMARK INTER:                 -11.129
REMARK INTRA:                  -4.242
REMARK UNBOUND:                -4.806
REMARK SMILES CCCCCCCCCCCCCCCCCCCCCCCCCCCC(=O)[O-]
REMARK SMILES IDX 15 1 16 2 17 3 18 4 19 5 20 6 21 7 22 8 23 9 24 10 25 11
REMARK SMILES IDX 26 12 27 13 28 14 29 15 30 16 14 17 13 18 12 19 11 20 10 21
REMARK SMILES IDX 9 22 8 23 7 24 6 25 5 26 4 27 3 28 2 29 1 30
REMARK H PARENT
REMARK Flexibility Score: inf
ROOT
ATOM      1  C   UNL     1     -10.376  -2.956 -26.323  1.00  0.00     0.000 C 
ENDROOT
BRANCH   1   2
ATOM      2  C   UNL     1     -10.937  -4.336 -25.944  1.00  0.00     0.000 C 
BRANCH   2   3
ATOM      3  C   UNL     1     -12.373  -4.274 -25.394  1.00  0.00     0.000 C 
BRANCH   3   4
ATOM      4  C   UNL     1     -12.680  -2.906 -24.744  1.00  0.00     0.000 C 
BRANCH   4   5
ATOM      5  C   UNL     1     -13.210  -3.004 -23.300  1.00  0.00     0.000 C 
BRANCH   5   6
ATOM      6  C   UNL     1     -12.285  -2.390 -22.227  1.00  0.00     0.000 C 
BRANCH   6   7
ATOM      7  C   UNL     1     -10.966  -3.153 -22.010  1.00  0.00     0.000 C 
BRANCH   7   8
ATOM      8  C   UNL     1      -9.719  -2.334 -22.385  1.00  0.00     0.000 C 
BRANCH   8   9
ATOM      9  C   UNL     1      -8.830  -2.018 -21.161  1.00  0.00     0.000 C 
BRANCH   9  10
ATOM     10  C   UNL     1      -9.626  -1.684 -19.884  1.00  0.00     0.000 C 
BRANCH  10  11
ATOM     11  C   UNL     1      -9.782  -0.183 -19.592  1.00  0.00     0.000 C 
BRANCH  11  12
ATOM     12  C   UNL     1      -8.551   0.636 -20.016  1.00  0.00     0.006 C 
BRANCH  12  13
ATOM     13  C   UNL     1      -8.940   1.954 -20.696  1.00  0.00     0.053 C 
BRANCH  13  14
ATOM     14  C   UNL     1      -9.890   1.735 -21.835  1.00  0.00     0.041 C 
ATOM     15  O   UNL     1      -9.493   1.176 -22.892  1.00  0.00    -0.550 OA
ATOM     16  O   UNL     1     -11.204   2.175 -21.740  1.00  0.00    -0.550 OA
ENDBRANCH  13  14
ENDBRANCH  12  13
ENDBRANCH  11  12
ENDBRANCH  10  11
ENDBRANCH   9  10
ENDBRANCH   8   9
ENDBRANCH   7   8
ENDBRANCH   6   7
ENDBRANCH   5   6
ENDBRANCH   4   5
ENDBRANCH   3   4
ENDBRANCH   2   3
ENDBRANCH   1   2
BRANCH   1  17
ATOM     17  C   UNL     1      -8.850  -2.835 -26.131  1.00  0.00     0.000 C 
BRANCH  17  18
ATOM     18  C   UNL     1      -8.294  -3.997 -25.291  1.00  0.00     0.000 C 
BRANCH  18  19
ATOM     19  C   UNL     1      -7.167  -4.756 -26.011  1.00  0.00     0.000 C 
BRANCH  19  20
ATOM     20  C   UNL     1      -6.238  -3.816 -26.799  1.00  0.00     0.000 C 
BRANCH  20  21
ATOM     21  C   UNL     1      -6.156  -4.191 -28.294  1.00  0.00     0.000 C 
BRANCH  21  22
ATOM     22  C   UNL     1      -7.150  -5.287 -28.723  1.00  0.00    -0.000 C 
BRANCH  22  23
ATOM     23  C   UNL     1      -8.085  -4.837 -29.857  1.00  0.00    -0.000 C 
BRANCH  23  24
ATOM     24  C   UNL     1      -9.514  -4.550 -29.371  1.00  0.00    -0.000 C 
BRANCH  24  25
ATOM     25  C   UNL     1     -10.202  -3.441 -30.190  1.00  0.00    -0.000 C 
BRANCH  25  26
ATOM     26  C   UNL     1     -11.739  -3.597 -30.216  1.00  0.00    -0.000 C 
BRANCH  26  27
ATOM     27  C   UNL     1     -12.493  -2.420 -29.568  1.00  0.00    -0.000 C 
BRANCH  27  28
ATOM     28  C   UNL     1     -13.564  -2.829 -28.543  1.00  0.00    -0.000 C 
BRANCH  28  29
ATOM     29  C   UNL     1     -13.961  -4.308 -28.655  1.00  0.00    -0.003 C 
ATOM     30  C   UNL     1     -15.267  -4.470 -29.430  1.00  0.00     0.004 C 
ENDBRANCH  28  29
ENDBRANCH  27  28
ENDBRANCH  26  27
ENDBRANCH  25  26
ENDBRANCH  24  25
ENDBRANCH  23  24
ENDBRANCH  22  23
ENDBRANCH  21  22
ENDBRANCH  20  21
ENDBRANCH  19  20
ENDBRANCH  18  19
ENDBRANCH  17  18
ENDBRANCH   1  17
TORSDOF 26
ENDMDL
MODEL 7
REMARK VINA RESULT:    -4.174      1.757      4.255
REMARK INTER + INTRA:         -15.325
REMARK INTER:                 -10.956
REMARK INTRA:                  -4.369
REMARK UNBOUND:                -4.806
REMARK SMILES CCCCCCCCCCCCCCCCCCCCCCCCCCCC(=O)[O-]
REMARK SMILES IDX 15 1 16 2 17 3 18 4 19 5 20 6 21 7 22 8 23 9 24 10 25 11
REMARK SMILES IDX 26 12 27 13 28 14 29 15 30 16 14 17 13 18 12 19 11 20 10 21
REMARK SMILES IDX 9 22 8 23 7 24 6 25 5 26 4 27 3 28 2 29 1 30
REMARK H PARENT
REMARK Flexibility Score: inf
ROOT
ATOM      1  C   UNL     1      -9.414  -2.499 -27.127  1.00  0.00     0.000 C 
ENDROOT
BRANCH   1   2
ATOM      2  C   UNL     1      -8.899  -3.279 -25.907  1.00  0.00     0.000 C 
BRANCH   2   3
ATOM      3  C   UNL     1     -10.001  -3.587 -24.878  1.00  0.00     0.000 C 
BRANCH   3   4
ATOM      4  C   UNL     1     -10.940  -2.379 -24.664  1.00  0.00     0.000 C 
BRANCH   4   5
ATOM      5  C   UNL     1     -12.397  -2.768 -24.342  1.00  0.00     0.000 C 
BRANCH   5   6
ATOM      6  C   UNL     1     -12.862  -2.411 -22.913  1.00  0.00     0.000 C 
BRANCH   6   7
ATOM      7  C   UNL     1     -11.908  -2.875 -21.798  1.00  0.00     0.000 C 
BRANCH   7   8
ATOM      8  C   UNL     1     -11.301  -1.713 -20.993  1.00  0.00     0.000 C 
BRANCH   8   9
ATOM      9  C   UNL     1      -9.859  -1.378 -21.435  1.00  0.00     0.000 C 
BRANCH   9  10
ATOM     10  C   UNL     1      -9.647   0.107 -21.790  1.00  0.00     0.000 C 
BRANCH  10  11
ATOM     11  C   UNL     1     -10.824   0.772 -22.520  1.00  0.00     0.000 C 
BRANCH  11  12
ATOM     12  C   UNL     1     -11.403   1.970 -21.748  1.00  0.00     0.006 C 
BRANCH  12  13
ATOM     13  C   UNL     1     -12.914   1.837 -21.523  1.00  0.00     0.053 C 
BRANCH  13  14
ATOM     14  C   UNL     1     -13.691   2.803 -22.368  1.00  0.00     0.041 C 
ATOM     15  O   UNL     1     -13.264   3.973 -22.547  1.00  0.00    -0.550 OA
ATOM     16  O   UNL     1     -14.901   2.416 -22.930  1.00  0.00    -0.550 OA
ENDBRANCH  13  14
ENDBRANCH  12  13
ENDBRANCH  11  12
ENDBRANCH  10  11
ENDBRANCH   9  10
ENDBRANCH   8   9
ENDBRANCH   7   8
ENDBRANCH   6   7
ENDBRANCH   5   6
ENDBRANCH   4   5
ENDBRANCH   3   4
ENDBRANCH   2   3
ENDBRANCH   1   2
BRANCH   1  17
ATOM     17  C   UNL     1      -8.420  -2.470 -28.308  1.00  0.00     0.000 C 
BRANCH  17  18
ATOM     18  C   UNL     1      -9.034  -3.085 -29.576  1.00  0.00     0.000 C 
BRANCH  18  19
ATOM     19  C   UNL     1      -9.105  -4.620 -29.511  1.00  0.00     0.000 C 
BRANCH  19  20
ATOM     20  C   UNL     1     -10.239  -5.191 -30.380  1.00  0.00     0.000 C 
BRANCH  20  21
ATOM     21  C   UNL     1     -11.364  -5.824 -29.533  1.00  0.00     0.000 C 
BRANCH  21  22
ATOM     22  C   UNL     1     -11.447  -5.285 -28.093  1.00  0.00    -0.000 C 
BRANCH  22  23
ATOM     23  C   UNL     1     -12.854  -4.792 -27.718  1.00  0.00    -0.000 C 
BRANCH  23  24
ATOM     24  C   UNL     1     -13.012  -3.271 -27.869  1.00  0.00    -0.000 C 
BRANCH  24  25
ATOM     25  C   UNL     1     -13.634  -2.877 -29.222  1.00  0.00    -0.000 C 
BRANCH  25  26
ATOM     26  C   UNL     1     -12.583  -2.334 -30.216  1.00  0.00    -0.000 C 
BRANCH  26  27
ATOM     27  C   UNL     1     -12.796  -2.809 -31.665  1.00  0.00    -0.000 C 
BRANCH  27  28
ATOM     28  C   UNL     1     -11.957  -2.062 -32.717  1.00  0.00    -0.000 C 
BRANCH  28  29
ATOM     29  C   UNL     1     -10.973  -2.982 -33.454  1.00  0.00    -0.003 C 
ATOM     30  C   UNL     1      -9.528  -2.630 -33.110  1.00  0.00     0.004 C 
ENDBRANCH  28  29
ENDBRANCH  27  28
ENDBRANCH  26  27
ENDBRANCH  25  26
ENDBRANCH  24  25
ENDBRANCH  23  24
ENDBRANCH  22  23
ENDBRANCH  21  22
ENDBRANCH  20  21
ENDBRANCH  19  20
ENDBRANCH  18  19
ENDBRANCH  17  18
ENDBRANCH   1  17
TORSDOF 26
ENDMDL
MODEL 8
REMARK VINA RESULT:    -4.156      4.309      9.769
REMARK INTER + INTRA:         -15.280
REMARK INTER:                 -12.059
REMARK INTRA:                  -3.221
REMARK UNBOUND:                -4.806
REMARK SMILES CCCCCCCCCCCCCCCCCCCCCCCCCCCC(=O)[O-]
REMARK SMILES IDX 15 1 16 2 17 3 18 4 19 5 20 6 21 7 22 8 23 9 24 10 25 11
REMARK SMILES IDX 26 12 27 13 28 14 29 15 30 16 14 17 13 18 12 19 11 20 10 21
REMARK SMILES IDX 9 22 8 23 7 24 6 25 5 26 4 27 3 28 2 29 1 30
REMARK H PARENT
REMARK Flexibility Score: inf
ROOT
ATOM      1  C   UNL     1     -14.620   2.648 -22.851  1.00  0.00     0.000 C 
ENDROOT
BRANCH   1   2
ATOM      2  C   UNL     1     -13.252   2.999 -22.245  1.00  0.00     0.000 C 
BRANCH   2   3
ATOM      3  C   UNL     1     -12.445   1.760 -21.818  1.00  0.00     0.000 C 
BRANCH   3   4
ATOM      4  C   UNL     1     -12.331   1.652 -20.280  1.00  0.00     0.000 C 
BRANCH   4   5
ATOM      5  C   UNL     1     -10.893   1.813 -19.747  1.00  0.00     0.000 C 
BRANCH   5   6
ATOM      6  C   UNL     1      -9.839   2.158 -20.822  1.00  0.00     0.000 C 
BRANCH   6   7
ATOM      7  C   UNL     1      -8.734   1.100 -20.994  1.00  0.00     0.000 C 
BRANCH   7   8
ATOM      8  C   UNL     1      -8.997  -0.191 -20.200  1.00  0.00     0.000 C 
BRANCH   8   9
ATOM      9  C   UNL     1      -9.297  -1.398 -21.116  1.00  0.00     0.000 C 
BRANCH   9  10
ATOM     10  C   UNL     1     -10.737  -1.932 -20.989  1.00  0.00     0.000 C 
BRANCH  10  11
ATOM     11  C   UNL     1     -11.674  -1.545 -22.143  1.00  0.00     0.000 C 
BRANCH  11  12
ATOM     12  C   UNL     1     -11.495  -2.438 -23.383  1.00  0.00     0.006 C 
BRANCH  12  13
ATOM     13  C   UNL     1     -10.564  -1.803 -24.422  1.00  0.00     0.053 C 
BRANCH  13  14
ATOM     14  C   UNL     1      -9.851  -2.838 -25.240  1.00  0.00     0.041 C 
ATOM     15  O   UNL     1      -8.931  -2.499 -26.029  1.00  0.00    -0.550 OA
ATOM     16  O   UNL     1     -10.226  -4.173 -25.151  1.00  0.00    -0.550 OA
ENDBRANCH  13  14
ENDBRANCH  12  13
ENDBRANCH  11  12
ENDBRANCH  10  11
ENDBRANCH   9  10
ENDBRANCH   8   9
ENDBRANCH   7   8
ENDBRANCH   6   7
ENDBRANCH   5   6
ENDBRANCH   4   5
ENDBRANCH   3   4
ENDBRANCH   2   3
ENDBRANCH   1   2
BRANCH   1  17
ATOM     17  C   UNL     1     -15.802   2.885 -21.887  1.00  0.00     0.000 C 
BRANCH  17  18
ATOM     18  C   UNL     1     -15.440   3.899 -20.789  1.00  0.00     0.000 C 
BRANCH  18  19
ATOM     19  C   UNL     1     -16.651   4.289 -19.927  1.00  0.00     0.000 C 
BRANCH  19  20
ATOM     20  C   UNL     1     -17.552   3.084 -19.604  1.00  0.00     0.000 C 
BRANCH  20  21
ATOM     21  C   UNL     1     -18.994   3.508 -19.253  1.00  0.00     0.000 C 
BRANCH  21  22
ATOM     22  C   UNL     1     -19.182   5.029 -19.095  1.00  0.00    -0.000 C 
BRANCH  22  23
ATOM     23  C   UNL     1     -20.362   5.576 -19.914  1.00  0.00    -0.000 C 
BRANCH  23  24
ATOM     24  C   UNL     1     -20.129   7.012 -20.407  1.00  0.00    -0.000 C 
BRANCH  24  25
ATOM     25  C   UNL     1     -18.693   7.233 -20.916  1.00  0.00    -0.000 C 
BRANCH  25  26
ATOM     26  C   UNL     1     -18.653   7.643 -22.405  1.00  0.00    -0.000 C 
BRANCH  26  27
ATOM     27  C   UNL     1     -17.242   7.612 -23.021  1.00  0.00    -0.000 C 
BRANCH  27  28
ATOM     28  C   UNL     1     -16.717   6.206 -23.357  1.00  0.00    -0.000 C 
BRANCH  28  29
ATOM     29  C   UNL     1     -15.918   6.166 -24.668  1.00  0.00    -0.003 C 
ATOM     30  C   UNL     1     -14.454   5.823 -24.409  1.00  0.00     0.004 C 
ENDBRANCH  28  29
ENDBRANCH  27  28
ENDBRANCH  26  27
ENDBRANCH  25  26
ENDBRANCH  24  25
ENDBRANCH  23  24
ENDBRANCH  22  23
ENDBRANCH  21  22
ENDBRANCH  20  21
ENDBRANCH  19  20
ENDBRANCH  18  19
ENDBRANCH  17  18
ENDBRANCH   1  17
TORSDOF 26
ENDMDL
MODEL 9
REMARK VINA RESULT:    -4.123      2.944      7.847
REMARK INTER + INTRA:         -15.195
REMARK INTER:                 -11.391
REMARK INTRA:                  -3.804
REMARK UNBOUND:                -4.806
REMARK SMILES CCCCCCCCCCCCCCCCCCCCCCCCCCCC(=O)[O-]
REMARK SMILES IDX 15 1 16 2 17 3 18 4 19 5 20 6 21 7 22 8 23 9 24 10 25 11
REMARK SMILES IDX 26 12 27 13 28 14 29 15 30 16 14 17 13 18 12 19 11 20 10 21
REMARK SMILES IDX 9 22 8 23 7 24 6 25 5 26 4 27 3 28 2 29 1 30
REMARK H PARENT
REMARK Flexibility Score: inf
ROOT
ATOM      1  C   UNL     1     -12.755  -3.027 -25.042  1.00  0.00     0.000 C 
ENDROOT
BRANCH   1   2
ATOM      2  C   UNL     1     -12.359  -4.293 -25.818  1.00  0.00     0.000 C 
BRANCH   2   3
ATOM      3  C   UNL     1     -11.074  -4.951 -25.284  1.00  0.00     0.000 C 
BRANCH   3   4
ATOM      4  C   UNL     1      -9.954  -4.972 -26.348  1.00  0.00     0.000 C 
BRANCH   4   5
ATOM      5  C   UNL     1      -8.759  -4.056 -26.016  1.00  0.00     0.000 C 
BRANCH   5   6
ATOM      6  C   UNL     1      -9.061  -2.543 -26.092  1.00  0.00     0.000 C 
BRANCH   6   7
ATOM      7  C   UNL     1      -9.438  -2.039 -27.497  1.00  0.00     0.000 C 
BRANCH   7   8
ATOM      8  C   UNL     1      -8.484  -2.532 -28.598  1.00  0.00     0.000 C 
BRANCH   8   9
ATOM      9  C   UNL     1      -9.227  -3.244 -29.750  1.00  0.00     0.000 C 
BRANCH   9  10
ATOM     10  C   UNL     1     -10.758  -3.287 -29.569  1.00  0.00     0.000 C 
BRANCH  10  11
ATOM     11  C   UNL     1     -11.567  -3.069 -30.857  1.00  0.00     0.000 C 
BRANCH  11  12
ATOM     12  C   UNL     1     -13.019  -2.643 -30.583  1.00  0.00     0.006 C 
BRANCH  12  13
ATOM     13  C   UNL     1     -13.463  -2.989 -29.157  1.00  0.00     0.053 C 
BRANCH  13  14
ATOM     14  C   UNL     1     -14.321  -4.219 -29.122  1.00  0.00     0.041 C 
ATOM     15  O   UNL     1     -13.824  -5.329 -28.796  1.00  0.00    -0.550 OA
ATOM     16  O   UNL     1     -15.661  -4.142 -29.479  1.00  0.00    -0.550 OA
ENDBRANCH  13  14
ENDBRANCH  12  13
ENDBRANCH  11  12
ENDBRANCH  10  11
ENDBRANCH   9  10
ENDBRANCH   8   9
ENDBRANCH   7   8
ENDBRANCH   6   7
ENDBRANCH   5   6
ENDBRANCH   4   5
ENDBRANCH   3   4
ENDBRANCH   2   3
ENDBRANCH   1   2
BRANCH   1  17
ATOM     17  C   UNL     1     -12.870  -3.248 -23.518  1.00  0.00     0.000 C 
BRANCH  17  18
ATOM     18  C   UNL     1     -12.389  -2.016 -22.733  1.00  0.00     0.000 C 
BRANCH  18  19
ATOM     19  C   UNL     1     -10.952  -1.611 -23.099  1.00  0.00     0.000 C 
BRANCH  19  20
ATOM     20  C   UNL     1      -9.908  -2.607 -22.562  1.00  0.00     0.000 C 
BRANCH  20  21
ATOM     21  C   UNL     1      -9.787  -2.556 -21.024  1.00  0.00     0.000 C 
BRANCH  21  22
ATOM     22  C   UNL     1      -8.742  -1.549 -20.508  1.00  0.00    -0.000 C 
BRANCH  22  23
ATOM     23  C   UNL     1      -9.373  -0.264 -19.947  1.00  0.00    -0.000 C 
BRANCH  23  24
ATOM     24  C   UNL     1      -8.721   1.011 -20.503  1.00  0.00    -0.000 C 
BRANCH  24  25
ATOM     25  C   UNL     1      -9.745   2.135 -20.749  1.00  0.00    -0.000 C 
BRANCH  25  26
ATOM     26  C   UNL     1     -10.770   1.767 -21.845  1.00  0.00    -0.000 C 
BRANCH  26  27
ATOM     27  C   UNL     1     -12.209   1.606 -21.319  1.00  0.00    -0.000 C 
BRANCH  27  28
ATOM     28  C   UNL     1     -13.272   2.396 -22.102  1.00  0.00    -0.000 C 
BRANCH  28  29
ATOM     29  C   UNL     1     -14.294   3.085 -21.186  1.00  0.00    -0.003 C 
ATOM     30  C   UNL     1     -15.694   3.043 -21.795  1.00  0.00     0.004 C 
ENDBRANCH  28  29
ENDBRANCH  27  28
ENDBRANCH  26  27
ENDBRANCH  25  26
ENDBRANCH  24  25
ENDBRANCH  23  24
ENDBRANCH  22  23
ENDBRANCH  21  22
ENDBRANCH  20  21
ENDBRANCH  19  20
ENDBRANCH  18  19
ENDBRANCH  17  18
ENDBRANCH   1  17
TORSDOF 26
ENDMDL
