MODEL 1
REMARK VINA RESULT:    -3.685      0.000      0.000
REMARK INTER + INTRA:          -8.951
REMARK INTER:                  -6.701
REMARK INTRA:                  -2.250
REMARK UNBOUND:                -2.250
REMARK SMILES CCCCCCCCCCCCCC[C@H](C)C(=O)[O-]
REMARK SMILES IDX 9 1 10 2 11 3 12 4 13 5 14 6 15 7 16 8 17 9 18 10 19 11 8 12
REMARK SMILES IDX 7 13 6 14 5 15 4 16 3 17 2 18 1 19
REMARK H PARENT
REMARK Flexibility Score: inf
ROOT
ATOM      1  C   UNL     1      17.519 134.225  59.652  1.00  0.00     0.000 C 
ENDROOT
BRANCH   1   2
ATOM      2  C   UNL     1      18.190 133.022  60.345  1.00  0.00     0.000 C 
BRANCH   2   3
ATOM      3  C   UNL     1      19.389 133.371  61.250  1.00  0.00     0.000 C 
BRANCH   3   4
ATOM      4  C   UNL     1      19.565 132.457  62.477  1.00  0.00     0.000 C 
BRANCH   4   5
ATOM      5  C   UNL     1      18.461 132.652  63.532  1.00  0.00     0.001 C 
BRANCH   5   6
ATOM      6  C   UNL     1      17.506 131.440  63.621  1.00  0.00     0.009 C 
BRANCH   6   7
ATOM      7  C   UNL     1      17.776 130.468  64.792  1.00  0.00     0.032 C 
ATOM      8  C   UNL     1      18.643 131.085  65.895  1.00  0.00     0.014 C 
BRANCH   7   9
ATOM      9  C   UNL     1      18.340 129.156  64.307  1.00  0.00     0.044 C 
ATOM     10  O   UNL     1      19.551 129.084  63.967  1.00  0.00    -0.550 OA
ATOM     11  O   UNL     1      17.554 128.010  64.272  1.00  0.00    -0.550 OA
ENDBRANCH   7   9
ENDBRANCH   6   7
ENDBRANCH   5   6
ENDBRANCH   4   5
ENDBRANCH   3   4
ENDBRANCH   2   3
ENDBRANCH   1   2
BRANCH   1  12
ATOM     12  C   UNL     1      16.311 134.815  60.399  1.00  0.00     0.000 C 
BRANCH  12  13
ATOM     13  C   UNL     1      15.706 133.839  61.418  1.00  0.00    -0.000 C 
BRANCH  13  14
ATOM     14  C   UNL     1      14.483 133.122  60.834  1.00  0.00    -0.000 C 
BRANCH  14  15
ATOM     15  C   UNL     1      14.784 131.637  60.580  1.00  0.00    -0.000 C 
BRANCH  15  16
ATOM     16  C   UNL     1      14.467 131.215  59.131  1.00  0.00    -0.000 C 
BRANCH  16  17
ATOM     17  C   UNL     1      14.531 132.369  58.113  1.00  0.00    -0.000 C 
BRANCH  17  18
ATOM     18  C   UNL     1      15.612 132.192  57.028  1.00  0.00    -0.003 C 
ATOM     19  C   UNL     1      16.733 131.248  57.461  1.00  0.00     0.004 C 
ENDBRANCH  17  18
ENDBRANCH  16  17
ENDBRANCH  15  16
ENDBRANCH  14  15
ENDBRANCH  13  14
ENDBRANCH  12  13
ENDBRANCH   1  12
TORSDOF 14
ENDMDL
MODEL 2
REMARK VINA RESULT:    -3.663      3.228      6.766
REMARK INTER + INTRA:          -8.910
REMARK INTER:                  -6.799
REMARK INTRA:                  -2.111
REMARK UNBOUND:                -2.250
REMARK SMILES CCCCCCCCCCCCCC[C@H](C)C(=O)[O-]
REMARK SMILES IDX 9 1 10 2 11 3 12 4 13 5 14 6 15 7 16 8 17 9 18 10 19 11 8 12
REMARK SMILES IDX 7 13 6 14 5 15 4 16 3 17 2 18 1 19
REMARK H PARENT
REMARK Flexibility Score: inf
ROOT
ATOM      1  C   UNL     1      14.822 131.548  60.871  1.00  0.00     0.000 C 
ENDROOT
BRANCH   1   2
ATOM      2  C   UNL     1      13.931 132.802  60.762  1.00  0.00     0.000 C 
BRANCH   2   3
ATOM      3  C   UNL     1      13.996 133.537  59.408  1.00  0.00     0.000 C 
BRANCH   3   4
ATOM      4  C   UNL     1      13.585 132.692  58.188  1.00  0.00     0.000 C 
BRANCH   4   5
ATOM      5  C   UNL     1      14.723 132.524  57.165  1.00  0.00     0.001 C 
BRANCH   5   6
ATOM      6  C   UNL     1      15.474 131.182  57.330  1.00  0.00     0.009 C 
BRANCH   6   7
ATOM      7  C   UNL     1      17.012 131.294  57.447  1.00  0.00     0.032 C 
ATOM      8  C   UNL     1      17.460 132.410  58.396  1.00  0.00     0.014 C 
BRANCH   7   9
ATOM      9  C   UNL     1      17.664 131.416  56.093  1.00  0.00     0.044 C 
ATOM     10  O   UNL     1      17.157 130.831  55.100  1.00  0.00    -0.550 OA
ATOM     11  O   UNL     1      18.795 132.205  55.913  1.00  0.00    -0.550 OA
ENDBRANCH   7   9
ENDBRANCH   6   7
ENDBRANCH   5   6
ENDBRANCH   4   5
ENDBRANCH   3   4
ENDBRANCH   2   3
ENDBRANCH   1   2
BRANCH   1  12
ATOM     12  C   UNL     1      15.966 131.649  61.894  1.00  0.00     0.000 C 
BRANCH  12  13
ATOM     13  C   UNL     1      15.938 132.960  62.692  1.00  0.00    -0.000 C 
BRANCH  13  14
ATOM     14  C   UNL     1      17.256 133.727  62.535  1.00  0.00    -0.000 C 
BRANCH  14  15
ATOM     15  C   UNL     1      18.375 132.805  62.028  1.00  0.00    -0.000 C 
BRANCH  15  16
ATOM     16  C   UNL     1      19.397 132.464  63.131  1.00  0.00    -0.000 C 
BRANCH  16  17
ATOM     17  C   UNL     1      19.311 131.013  63.641  1.00  0.00    -0.000 C 
BRANCH  17  18
ATOM     18  C   UNL     1      18.467 130.844  64.920  1.00  0.00    -0.003 C 
ATOM     19  C   UNL     1      18.610 132.024  65.881  1.00  0.00     0.004 C 
ENDBRANCH  17  18
ENDBRANCH  16  17
ENDBRANCH  15  16
ENDBRANCH  14  15
ENDBRANCH  13  14
ENDBRANCH  12  13
ENDBRANCH   1  12
TORSDOF 14
ENDMDL
MODEL 3
REMARK VINA RESULT:    -3.660      3.545      7.115
REMARK INTER + INTRA:          -8.906
REMARK INTER:                  -7.411
REMARK INTRA:                  -1.495
REMARK UNBOUND:                -2.250
REMARK SMILES CCCCCCCCCCCCCC[C@H](C)C(=O)[O-]
REMARK SMILES IDX 9 1 10 2 11 3 12 4 13 5 14 6 15 7 16 8 17 9 18 10 19 11 8 12
REMARK SMILES IDX 7 13 6 14 5 15 4 16 3 17 2 18 1 19
REMARK H PARENT
REMARK Flexibility Score: inf
ROOT
ATOM      1  C   UNL     1      16.390 132.515  62.031  1.00  0.00     0.000 C 
ENDROOT
BRANCH   1   2
ATOM      2  C   UNL     1      15.434 131.749  61.095  1.00  0.00     0.000 C 
BRANCH   2   3
ATOM      3  C   UNL     1      14.029 132.366  60.944  1.00  0.00     0.000 C 
BRANCH   3   4
ATOM      4  C   UNL     1      13.642 132.760  59.506  1.00  0.00     0.000 C 
BRANCH   4   5
ATOM      5  C   UNL     1      14.864 132.992  58.599  1.00  0.00     0.001 C 
BRANCH   5   6
ATOM      6  C   UNL     1      14.652 132.444  57.169  1.00  0.00     0.009 C 
BRANCH   6   7
ATOM      7  C   UNL     1      15.674 131.379  56.709  1.00  0.00     0.032 C 
ATOM      8  C   UNL     1      16.947 131.363  57.563  1.00  0.00     0.014 C 
BRANCH   7   9
ATOM      9  C   UNL     1      15.988 131.510  55.239  1.00  0.00     0.044 C 
ATOM     10  O   UNL     1      16.663 130.617  54.663  1.00  0.00    -0.550 OA
ATOM     11  O   UNL     1      15.504 132.583  54.498  1.00  0.00    -0.550 OA
ENDBRANCH   7   9
ENDBRANCH   6   7
ENDBRANCH   5   6
ENDBRANCH   4   5
ENDBRANCH   3   4
ENDBRANCH   2   3
ENDBRANCH   1   2
BRANCH   1  12
ATOM     12  C   UNL     1      17.806 132.739  61.474  1.00  0.00     0.000 C 
BRANCH  12  13
ATOM     13  C   UNL     1      18.828 133.085  62.566  1.00  0.00    -0.000 C 
BRANCH  13  14
ATOM     14  C   UNL     1      19.304 131.822  63.295  1.00  0.00    -0.000 C 
BRANCH  14  15
ATOM     15  C   UNL     1      18.970 131.890  64.793  1.00  0.00    -0.000 C 
BRANCH  15  16
ATOM     16  C   UNL     1      18.358 130.575  65.316  1.00  0.00    -0.000 C 
BRANCH  16  17
ATOM     17  C   UNL     1      17.563 129.787  64.258  1.00  0.00    -0.000 C 
BRANCH  17  18
ATOM     18  C   UNL     1      18.022 128.325  64.085  1.00  0.00    -0.003 C 
ATOM     19  C   UNL     1      19.540 128.169  64.171  1.00  0.00     0.004 C 
ENDBRANCH  17  18
ENDBRANCH  16  17
ENDBRANCH  15  16
ENDBRANCH  14  15
ENDBRANCH  13  14
ENDBRANCH  12  13
ENDBRANCH   1  12
TORSDOF 14
ENDMDL
MODEL 4
REMARK VINA RESULT:    -3.604      1.453      2.706
REMARK INTER + INTRA:          -8.803
REMARK INTER:                  -7.043
REMARK INTRA:                  -1.760
REMARK UNBOUND:                -2.250
REMARK SMILES CCCCCCCCCCCCCC[C@H](C)C(=O)[O-]
REMARK SMILES IDX 9 1 10 2 11 3 12 4 13 5 14 6 15 7 16 8 17 9 18 10 19 11 8 12
REMARK SMILES IDX 7 13 6 14 5 15 4 16 3 17 2 18 1 19
REMARK H PARENT
REMARK Flexibility Score: inf
ROOT
ATOM      1  C   UNL     1      15.665 131.850  61.523  1.00  0.00     0.000 C 
ENDROOT
BRANCH   1   2
ATOM      2  C   UNL     1      16.574 133.078  61.319  1.00  0.00     0.000 C 
BRANCH   2   3
ATOM      3  C   UNL     1      18.084 132.813  61.491  1.00  0.00     0.000 C 
BRANCH   3   4
ATOM      4  C   UNL     1      18.601 132.905  62.938  1.00  0.00     0.000 C 
BRANCH   4   5
ATOM      5  C   UNL     1      19.492 131.713  63.333  1.00  0.00     0.001 C 
BRANCH   5   6
ATOM      6  C   UNL     1      18.875 130.863  64.467  1.00  0.00     0.009 C 
BRANCH   6   7
ATOM      7  C   UNL     1      17.617 130.052  64.078  1.00  0.00     0.032 C 
ATOM      8  C   UNL     1      16.358 130.503  64.828  1.00  0.00     0.014 C 
BRANCH   7   9
ATOM      9  C   UNL     1      17.849 128.568  64.218  1.00  0.00     0.044 C 
ATOM     10  O   UNL     1      16.940 127.835  64.690  1.00  0.00    -0.550 OA
ATOM     11  O   UNL     1      19.038 127.988  63.789  1.00  0.00    -0.550 OA
ENDBRANCH   7   9
ENDBRANCH   6   7
ENDBRANCH   5   6
ENDBRANCH   4   5
ENDBRANCH   3   4
ENDBRANCH   2   3
ENDBRANCH   1   2
BRANCH   1  12
ATOM     12  C   UNL     1      15.059 131.268  60.234  1.00  0.00     0.000 C 
BRANCH  12  13
ATOM     13  C   UNL     1      14.294 132.314  59.411  1.00  0.00    -0.000 C 
BRANCH  13  14
ATOM     14  C   UNL     1      14.950 132.522  58.040  1.00  0.00    -0.000 C 
BRANCH  14  15
ATOM     15  C   UNL     1      15.646 131.238  57.561  1.00  0.00    -0.000 C 
BRANCH  15  16
ATOM     16  C   UNL     1      17.057 131.512  57.003  1.00  0.00    -0.000 C 
BRANCH  16  17
ATOM     17  C   UNL     1      17.866 132.541  57.814  1.00  0.00    -0.000 C 
BRANCH  17  18
ATOM     18  C   UNL     1      19.373 132.556  57.490  1.00  0.00    -0.003 C 
ATOM     19  C   UNL     1      19.889 133.955  57.151  1.00  0.00     0.004 C 
ENDBRANCH  17  18
ENDBRANCH  16  17
ENDBRANCH  15  16
ENDBRANCH  14  15
ENDBRANCH  13  14
ENDBRANCH  12  13
ENDBRANCH   1  12
TORSDOF 14
ENDMDL
MODEL 5
REMARK VINA RESULT:    -3.580      2.879      6.597
REMARK INTER + INTRA:          -8.760
REMARK INTER:                  -6.987
REMARK INTRA:                  -1.773
REMARK UNBOUND:                -2.250
REMARK SMILES CCCCCCCCCCCCCC[C@H](C)C(=O)[O-]
REMARK SMILES IDX 9 1 10 2 11 3 12 4 13 5 14 6 15 7 16 8 17 9 18 10 19 11 8 12
REMARK SMILES IDX 7 13 6 14 5 15 4 16 3 17 2 18 1 19
REMARK H PARENT
REMARK Flexibility Score: inf
ROOT
ATOM      1  C   UNL     1      15.795 131.732  62.325  1.00  0.00     0.000 C 
ENDROOT
BRANCH   1   2
ATOM      2  C   UNL     1      14.417 132.264  61.885  1.00  0.00     0.000 C 
BRANCH   2   3
ATOM      3  C   UNL     1      14.270 132.534  60.374  1.00  0.00     0.000 C 
BRANCH   3   4
ATOM      4  C   UNL     1      14.542 131.320  59.466  1.00  0.00     0.000 C 
BRANCH   4   5
ATOM      5  C   UNL     1      15.478 131.652  58.289  1.00  0.00     0.001 C 
BRANCH   5   6
ATOM      6  C   UNL     1      16.925 131.945  58.748  1.00  0.00     0.009 C 
BRANCH   6   7
ATOM      7  C   UNL     1      17.655 133.062  57.966  1.00  0.00     0.032 C 
ATOM      8  C   UNL     1      16.750 133.774  56.955  1.00  0.00     0.014 C 
BRANCH   7   9
ATOM      9  C   UNL     1      18.921 132.553  57.323  1.00  0.00     0.044 C 
ATOM     10  O   UNL     1      18.865 131.979  56.203  1.00  0.00    -0.550 OA
ATOM     11  O   UNL     1      20.158 132.750  57.926  1.00  0.00    -0.550 OA
ENDBRANCH   7   9
ENDBRANCH   6   7
ENDBRANCH   5   6
ENDBRANCH   4   5
ENDBRANCH   3   4
ENDBRANCH   2   3
ENDBRANCH   1   2
BRANCH   1  12
ATOM     12  C   UNL     1      16.769 132.802  62.849  1.00  0.00     0.000 C 
BRANCH  12  13
ATOM     13  C   UNL     1      18.134 132.760  62.147  1.00  0.00    -0.000 C 
BRANCH  13  14
ATOM     14  C   UNL     1      19.162 131.996  62.992  1.00  0.00    -0.000 C 
BRANCH  14  15
ATOM     15  C   UNL     1      18.831 132.098  64.488  1.00  0.00    -0.000 C 
BRANCH  15  16
ATOM     16  C   UNL     1      18.851 130.723  65.187  1.00  0.00    -0.000 C 
BRANCH  16  17
ATOM     17  C   UNL     1      17.692 129.795  64.780  1.00  0.00    -0.000 C 
BRANCH  17  18
ATOM     18  C   UNL     1      18.133 128.540  64.000  1.00  0.00    -0.003 C 
ATOM     19  C   UNL     1      19.627 128.252  64.145  1.00  0.00     0.004 C 
ENDBRANCH  17  18
ENDBRANCH  16  17
ENDBRANCH  15  16
ENDBRANCH  14  15
ENDBRANCH  13  14
ENDBRANCH  12  13
ENDBRANCH   1  12
TORSDOF 14
ENDMDL
MODEL 6
REMARK VINA RESULT:    -3.513      1.870      3.615
REMARK INTER + INTRA:          -8.638
REMARK INTER:                  -6.010
REMARK INTRA:                  -2.628
REMARK UNBOUND:                -2.250
REMARK SMILES CCCCCCCCCCCCCC[C@H](C)C(=O)[O-]
REMARK SMILES IDX 9 1 10 2 11 3 12 4 13 5 14 6 15 7 16 8 17 9 18 10 19 11 8 12
REMARK SMILES IDX 7 13 6 14 5 15 4 16 3 17 2 18 1 19
REMARK H PARENT
REMARK Flexibility Score: inf
ROOT
ATOM      1  C   UNL     1      16.312 132.164  59.258  1.00  0.00     0.000 C 
ENDROOT
BRANCH   1   2
ATOM      2  C   UNL     1      16.293 133.588  59.848  1.00  0.00     0.000 C 
BRANCH   2   3
ATOM      3  C   UNL     1      17.675 134.158  60.232  1.00  0.00     0.000 C 
BRANCH   3   4
ATOM      4  C   UNL     1      18.835 133.148  60.169  1.00  0.00     0.000 C 
BRANCH   4   5
ATOM      5  C   UNL     1      19.634 133.071  61.483  1.00  0.00     0.001 C 
BRANCH   5   6
ATOM      6  C   UNL     1      18.722 133.079  62.731  1.00  0.00     0.009 C 
BRANCH   6   7
ATOM      7  C   UNL     1      18.110 131.712  63.113  1.00  0.00     0.032 C 
ATOM      8  C   UNL     1      16.579 131.739  63.181  1.00  0.00     0.014 C 
BRANCH   7   9
ATOM      9  C   UNL     1      18.716 131.168  64.383  1.00  0.00     0.044 C 
ATOM     10  O   UNL     1      18.937 129.932  64.490  1.00  0.00    -0.550 OA
ATOM     11  O   UNL     1      19.078 132.017  65.422  1.00  0.00    -0.550 OA
ENDBRANCH   7   9
ENDBRANCH   6   7
ENDBRANCH   5   6
ENDBRANCH   4   5
ENDBRANCH   3   4
ENDBRANCH   2   3
ENDBRANCH   1   2
BRANCH   1  12
ATOM     12  C   UNL     1      15.139 131.833  58.319  1.00  0.00     0.000 C 
BRANCH  12  13
ATOM     13  C   UNL     1      15.600 131.299  56.956  1.00  0.00    -0.000 C 
BRANCH  13  14
ATOM     14  C   UNL     1      17.056 130.820  57.018  1.00  0.00    -0.000 C 
BRANCH  14  15
ATOM     15  C   UNL     1      17.893 131.454  55.896  1.00  0.00    -0.000 C 
BRANCH  15  16
ATOM     16  C   UNL     1      19.018 132.356  56.444  1.00  0.00    -0.000 C 
BRANCH  16  17
ATOM     17  C   UNL     1      18.621 133.836  56.592  1.00  0.00    -0.000 C 
BRANCH  17  18
ATOM     18  C   UNL     1      17.505 134.288  55.629  1.00  0.00    -0.003 C 
ATOM     19  C   UNL     1      16.354 134.990  56.348  1.00  0.00     0.004 C 
ENDBRANCH  17  18
ENDBRANCH  16  17
ENDBRANCH  15  16
ENDBRANCH  14  15
ENDBRANCH  13  14
ENDBRANCH  12  13
ENDBRANCH   1  12
TORSDOF 14
ENDMDL
MODEL 7
REMARK VINA RESULT:    -3.509      1.270      1.583
REMARK INTER + INTRA:          -8.630
REMARK INTER:                  -6.350
REMARK INTRA:                  -2.280
REMARK UNBOUND:                -2.250
REMARK SMILES CCCCCCCCCCCCCC[C@H](C)C(=O)[O-]
REMARK SMILES IDX 9 1 10 2 11 3 12 4 13 5 14 6 15 7 16 8 17 9 18 10 19 11 8 12
REMARK SMILES IDX 7 13 6 14 5 15 4 16 3 17 2 18 1 19
REMARK H PARENT
REMARK Flexibility Score: inf
ROOT
ATOM      1  C   UNL     1      16.993 134.660  61.109  1.00  0.00     0.000 C 
ENDROOT
BRANCH   1   2
ATOM      2  C   UNL     1      18.235 134.426  61.992  1.00  0.00     0.000 C 
BRANCH   2   3
ATOM      3  C   UNL     1      19.361 133.601  61.335  1.00  0.00     0.000 C 
BRANCH   3   4
ATOM      4  C   UNL     1      19.910 132.449  62.196  1.00  0.00     0.000 C 
BRANCH   4   5
ATOM      5  C   UNL     1      19.277 132.396  63.599  1.00  0.00     0.001 C 
BRANCH   5   6
ATOM      6  C   UNL     1      18.863 130.963  64.007  1.00  0.00     0.009 C 
BRANCH   6   7
ATOM      7  C   UNL     1      17.684 130.873  65.003  1.00  0.00     0.032 C 
ATOM      8  C   UNL     1      18.090 131.208  66.443  1.00  0.00     0.014 C 
BRANCH   7   9
ATOM      9  C   UNL     1      16.984 129.540  64.916  1.00  0.00     0.044 C 
ATOM     10  O   UNL     1      17.470 128.625  64.200  1.00  0.00    -0.550 OA
ATOM     11  O   UNL     1      15.832 129.289  65.652  1.00  0.00    -0.550 OA
ENDBRANCH   7   9
ENDBRANCH   6   7
ENDBRANCH   5   6
ENDBRANCH   4   5
ENDBRANCH   3   4
ENDBRANCH   2   3
ENDBRANCH   1   2
BRANCH   1  12
ATOM     12  C   UNL     1      15.684 134.065  61.656  1.00  0.00     0.000 C 
BRANCH  12  13
ATOM     13  C   UNL     1      15.880 132.685  62.300  1.00  0.00    -0.000 C 
BRANCH  13  14
ATOM     14  C   UNL     1      15.877 131.578  61.239  1.00  0.00    -0.000 C 
BRANCH  14  15
ATOM     15  C   UNL     1      14.592 131.622  60.398  1.00  0.00    -0.000 C 
BRANCH  15  16
ATOM     16  C   UNL     1      14.884 131.760  58.890  1.00  0.00    -0.000 C 
BRANCH  16  17
ATOM     17  C   UNL     1      16.367 131.576  58.518  1.00  0.00    -0.000 C 
BRANCH  17  18
ATOM     18  C   UNL     1      17.005 132.809  57.847  1.00  0.00    -0.003 C 
ATOM     19  C   UNL     1      18.530 132.814  57.954  1.00  0.00     0.004 C 
ENDBRANCH  17  18
ENDBRANCH  16  17
ENDBRANCH  15  16
ENDBRANCH  14  15
ENDBRANCH  13  14
ENDBRANCH  12  13
ENDBRANCH   1  12
TORSDOF 14
ENDMDL
MODEL 8
REMARK VINA RESULT:    -3.503      1.219      2.630
REMARK INTER + INTRA:          -8.620
REMARK INTER:                  -6.802
REMARK INTRA:                  -1.818
REMARK UNBOUND:                -2.250
REMARK SMILES CCCCCCCCCCCCCC[C@H](C)C(=O)[O-]
REMARK SMILES IDX 9 1 10 2 11 3 12 4 13 5 14 6 15 7 16 8 17 9 18 10 19 11 8 12
REMARK SMILES IDX 7 13 6 14 5 15 4 16 3 17 2 18 1 19
REMARK H PARENT
REMARK Flexibility Score: inf
ROOT
ATOM      1  C   UNL     1      17.709 133.733  59.855  1.00  0.00     0.000 C 
ENDROOT
BRANCH   1   2
ATOM      2  C   UNL     1      17.129 132.933  61.038  1.00  0.00     0.000 C 
BRANCH   2   3
ATOM      3  C   UNL     1      17.154 133.662  62.398  1.00  0.00     0.000 C 
BRANCH   3   4
ATOM      4  C   UNL     1      18.483 133.557  63.168  1.00  0.00     0.000 C 
BRANCH   4   5
ATOM      5  C   UNL     1      19.223 132.232  62.909  1.00  0.00     0.001 C 
BRANCH   5   6
ATOM      6  C   UNL     1      19.097 131.244  64.091  1.00  0.00     0.009 C 
BRANCH   6   7
ATOM      7  C   UNL     1      17.864 130.311  64.047  1.00  0.00     0.032 C 
ATOM      8  C   UNL     1      16.761 130.731  65.025  1.00  0.00     0.014 C 
BRANCH   7   9
ATOM      9  C   UNL     1      18.254 128.866  64.232  1.00  0.00     0.044 C 
ATOM     10  O   UNL     1      17.360 127.991  64.373  1.00  0.00    -0.550 OA
ATOM     11  O   UNL     1      19.589 128.477  64.202  1.00  0.00    -0.550 OA
ENDBRANCH   7   9
ENDBRANCH   6   7
ENDBRANCH   5   6
ENDBRANCH   4   5
ENDBRANCH   3   4
ENDBRANCH   2   3
ENDBRANCH   1   2
BRANCH   1  12
ATOM     12  C   UNL     1      18.950 133.109  59.194  1.00  0.00     0.000 C 
BRANCH  12  13
ATOM     13  C   UNL     1      18.969 133.294  57.670  1.00  0.00    -0.000 C 
BRANCH  13  14
ATOM     14  C   UNL     1      17.603 132.956  57.059  1.00  0.00    -0.000 C 
BRANCH  14  15
ATOM     15  C   UNL     1      17.376 131.437  57.021  1.00  0.00    -0.000 C 
BRANCH  15  16
ATOM     16  C   UNL     1      15.878 131.069  57.030  1.00  0.00    -0.000 C 
BRANCH  16  17
ATOM     17  C   UNL     1      14.933 132.284  57.100  1.00  0.00    -0.000 C 
BRANCH  17  18
ATOM     18  C   UNL     1      14.060 132.330  58.370  1.00  0.00    -0.003 C 
ATOM     19  C   UNL     1      14.419 131.233  59.372  1.00  0.00     0.004 C 
ENDBRANCH  17  18
ENDBRANCH  16  17
ENDBRANCH  15  16
ENDBRANCH  14  15
ENDBRANCH  13  14
ENDBRANCH  12  13
ENDBRANCH   1  12
TORSDOF 14
ENDMDL
MODEL 9
REMARK VINA RESULT:    -3.484      1.913      3.947
REMARK INTER + INTRA:          -8.585
REMARK INTER:                  -5.857
REMARK INTRA:                  -2.728
REMARK UNBOUND:                -2.250
REMARK SMILES CCCCCCCCCCCCCC[C@H](C)C(=O)[O-]
REMARK SMILES IDX 9 1 10 2 11 3 12 4 13 5 14 6 15 7 16 8 17 9 18 10 19 11 8 12
REMARK SMILES IDX 7 13 6 14 5 15 4 16 3 17 2 18 1 19
REMARK H PARENT
REMARK Flexibility Score: inf
ROOT
ATOM      1  C   UNL     1      14.446 133.963  58.657  1.00  0.00     0.000 C 
ENDROOT
BRANCH   1   2
ATOM      2  C   UNL     1      13.823 132.577  58.396  1.00  0.00     0.000 C 
BRANCH   2   3
ATOM      3  C   UNL     1      14.385 131.432  59.262  1.00  0.00     0.000 C 
BRANCH   3   4
ATOM      4  C   UNL     1      14.749 131.825  60.706  1.00  0.00     0.000 C 
BRANCH   4   5
ATOM      5  C   UNL     1      16.268 131.895  60.943  1.00  0.00     0.001 C 
BRANCH   5   6
ATOM      6  C   UNL     1      16.654 132.955  62.001  1.00  0.00     0.009 C 
BRANCH   6   7
ATOM      7  C   UNL     1      18.173 133.160  62.209  1.00  0.00     0.032 C 
ATOM      8  C   UNL     1      18.958 133.196  60.893  1.00  0.00     0.014 C 
BRANCH   7   9
ATOM      9  C   UNL     1      18.742 132.150  63.173  1.00  0.00     0.044 C 
ATOM     10  O   UNL     1      19.972 131.879  63.140  1.00  0.00    -0.550 OA
ATOM     11  O   UNL     1      17.937 131.545  64.132  1.00  0.00    -0.550 OA
ENDBRANCH   7   9
ENDBRANCH   6   7
ENDBRANCH   5   6
ENDBRANCH   4   5
ENDBRANCH   3   4
ENDBRANCH   2   3
ENDBRANCH   1   2
BRANCH   1  12
ATOM     12  C   UNL     1      15.462 134.430  57.600  1.00  0.00     0.000 C 
BRANCH  12  13
ATOM     13  C   UNL     1      16.917 134.262  58.059  1.00  0.00    -0.000 C 
BRANCH  13  14
ATOM     14  C   UNL     1      17.696 133.355  57.098  1.00  0.00    -0.000 C 
BRANCH  14  15
ATOM     15  C   UNL     1      17.731 131.908  57.611  1.00  0.00    -0.000 C 
BRANCH  15  16
ATOM     16  C   UNL     1      16.922 130.949  56.714  1.00  0.00    -0.000 C 
BRANCH  16  17
ATOM     17  C   UNL     1      16.625 131.504  55.309  1.00  0.00    -0.000 C 
BRANCH  17  18
ATOM     18  C   UNL     1      15.124 131.672  55.002  1.00  0.00    -0.003 C 
ATOM     19  C   UNL     1      14.811 132.987  54.288  1.00  0.00     0.004 C 
ENDBRANCH  17  18
ENDBRANCH  16  17
ENDBRANCH  15  16
ENDBRANCH  14  15
ENDBRANCH  13  14
ENDBRANCH  12  13
ENDBRANCH   1  12
TORSDOF 14
ENDMDL
