MODEL 1
REMARK VINA RESULT:    -3.842      0.000      0.000
REMARK INTER + INTRA:          -4.193
REMARK INTER:                  -4.179
REMARK INTRA:                  -0.014
REMARK UNBOUND:                -0.014
REMARK SMILES OCc1ccco1
REMARK SMILES IDX 2 1 3 2 5 3 6 4 4 5 7 6 1 7
REMARK H PARENT 1 8
REMARK Flexibility Score: inf
ROOT
ATOM      1  C   UNL     1      79.642 -22.685  43.845  1.00  0.00     0.231 C 
ENDROOT
BRANCH   1   2
ATOM      2  C   UNL     1      79.771 -21.227  44.149  1.00  0.00     0.129 A 
ATOM      3  C   UNL     1      80.178 -19.075  43.981  1.00  0.00     0.042 A 
ATOM      4  C   UNL     1      79.774 -19.407  45.259  1.00  0.00     0.195 A 
ATOM      5  C   UNL     1      80.181 -20.251  43.263  1.00  0.00     0.048 A 
ATOM      6  O   UNL     1      79.542 -20.699  45.329  1.00  0.00    -0.467 OA
ENDBRANCH   1   2
BRANCH   1   7
ATOM      7  O   UNL     1      78.293 -23.059  43.845  1.00  0.00    -0.388 OA
ATOM      8  H   UNL     1      78.176 -23.699  43.095  1.00  0.00     0.211 HD
ENDBRANCH   1   7
TORSDOF 2
ENDMDL
MODEL 2
REMARK VINA RESULT:    -3.779      0.917      1.409
REMARK INTER + INTRA:          -4.125
REMARK INTER:                  -4.111
REMARK INTRA:                  -0.014
REMARK UNBOUND:                -0.014
REMARK SMILES OCc1ccco1
REMARK SMILES IDX 2 1 3 2 5 3 6 4 4 5 7 6 1 7
REMARK H PARENT 1 8
REMARK Flexibility Score: inf
ROOT
ATOM      1  C   UNL     1      79.623 -22.678  44.131  1.00  0.00     0.231 C 
ENDROOT
BRANCH   1   2
ATOM      2  C   UNL     1      79.739 -21.215  44.415  1.00  0.00     0.129 A 
ATOM      3  C   UNL     1      79.661 -19.255  45.404  1.00  0.00     0.042 A 
ATOM      4  C   UNL     1      80.082 -19.135  44.094  1.00  0.00     0.195 A 
ATOM      5  C   UNL     1      79.435 -20.598  45.612  1.00  0.00     0.048 A 
ATOM      6  O   UNL     1      80.115 -20.321  43.530  1.00  0.00    -0.467 OA
ENDBRANCH   1   2
BRANCH   1   7
ATOM      7  O   UNL     1      78.292 -23.009  43.850  1.00  0.00    -0.388 OA
ATOM      8  H   UNL     1      77.959 -22.329  43.207  1.00  0.00     0.211 HD
ENDBRANCH   1   7
TORSDOF 2
ENDMDL
MODEL 3
REMARK VINA RESULT:    -3.729      1.424      2.777
REMARK INTER + INTRA:          -4.070
REMARK INTER:                  -4.053
REMARK INTRA:                  -0.017
REMARK UNBOUND:                -0.014
REMARK SMILES OCc1ccco1
REMARK SMILES IDX 2 1 3 2 5 3 6 4 4 5 7 6 1 7
REMARK H PARENT 1 8
REMARK Flexibility Score: inf
ROOT
ATOM      1  C   UNL     1      79.289 -19.151  45.820  1.00  0.00     0.231 C 
ENDROOT
BRANCH   1   2
ATOM      2  C   UNL     1      79.858 -19.751  44.574  1.00  0.00     0.129 A 
ATOM      3  C   UNL     1      80.861 -20.010  42.637  1.00  0.00     0.042 A 
ATOM      4  C   UNL     1      80.308 -21.198  43.075  1.00  0.00     0.195 A 
ATOM      5  C   UNL     1      80.567 -19.072  43.603  1.00  0.00     0.048 A 
ATOM      6  O   UNL     1      79.714 -21.009  44.231  1.00  0.00    -0.467 OA
ENDBRANCH   1   2
BRANCH   1   7
ATOM      7  O   UNL     1      79.581 -19.965  46.921  1.00  0.00    -0.388 OA
ATOM      8  H   UNL     1      80.569 -20.066  46.946  1.00  0.00     0.211 HD
ENDBRANCH   1   7
TORSDOF 2
ENDMDL
MODEL 4
REMARK VINA RESULT:    -3.557     18.713     18.989
REMARK INTER + INTRA:          -3.883
REMARK INTER:                  -3.869
REMARK INTRA:                  -0.014
REMARK UNBOUND:                -0.014
REMARK SMILES OCc1ccco1
REMARK SMILES IDX 2 1 3 2 5 3 6 4 4 5 7 6 1 7
REMARK H PARENT 1 8
REMARK Flexibility Score: inf
ROOT
ATOM      1  C   UNL     1      63.740 -13.833  39.281  1.00  0.00     0.231 C 
ENDROOT
BRANCH   1   2
ATOM      2  C   UNL     1      63.425 -12.383  39.460  1.00  0.00     0.129 A 
ATOM      3  C   UNL     1      63.171 -10.229  39.106  1.00  0.00     0.042 A 
ATOM      4  C   UNL     1      62.875 -10.557  40.415  1.00  0.00     0.195 A 
ATOM      5  C   UNL     1      63.531 -11.407  38.489  1.00  0.00     0.048 A 
ATOM      6  O   UNL     1      63.039 -11.848  40.595  1.00  0.00    -0.467 OA
ENDBRANCH   1   2
BRANCH   1   7
ATOM      7  O   UNL     1      65.121 -14.040  39.380  1.00  0.00    -0.388 OA
ATOM      8  H   UNL     1      65.251 -15.012  39.543  1.00  0.00     0.211 HD
ENDBRANCH   1   7
TORSDOF 2
ENDMDL
MODEL 5
REMARK VINA RESULT:    -3.446     18.337     18.634
REMARK INTER + INTRA:          -3.763
REMARK INTER:                  -3.745
REMARK INTRA:                  -0.017
REMARK UNBOUND:                -0.014
REMARK SMILES OCc1ccco1
REMARK SMILES IDX 2 1 3 2 5 3 6 4 4 5 7 6 1 7
REMARK H PARENT 1 8
REMARK Flexibility Score: inf
ROOT
ATOM      1  C   UNL     1      64.389 -13.526  38.029  1.00  0.00     0.231 C 
ENDROOT
BRANCH   1   2
ATOM      2  C   UNL     1      64.128 -12.235  38.736  1.00  0.00     0.129 A 
ATOM      3  C   UNL     1      63.187 -10.379  39.439  1.00  0.00     0.042 A 
ATOM      4  C   UNL     1      64.468 -10.508  39.940  1.00  0.00     0.195 A 
ATOM      5  C   UNL     1      62.967 -11.492  38.658  1.00  0.00     0.048 A 
ATOM      6  O   UNL     1      65.004 -11.623  39.499  1.00  0.00    -0.467 OA
ENDBRANCH   1   2
BRANCH   1   7
ATOM      7  O   UNL     1      64.940 -14.457  38.918  1.00  0.00    -0.388 OA
ATOM      8  H   UNL     1      64.648 -15.354  38.606  1.00  0.00     0.211 HD
ENDBRANCH   1   7
TORSDOF 2
ENDMDL
MODEL 6
REMARK VINA RESULT:    -3.389     18.165     18.610
REMARK INTER + INTRA:          -3.700
REMARK INTER:                  -3.686
REMARK INTRA:                  -0.014
REMARK UNBOUND:                -0.014
REMARK SMILES OCc1ccco1
REMARK SMILES IDX 2 1 3 2 5 3 6 4 4 5 7 6 1 7
REMARK H PARENT 1 8
REMARK Flexibility Score: inf
ROOT
ATOM      1  C   UNL     1      64.391 -10.613  39.821  1.00  0.00     0.231 C 
ENDROOT
BRANCH   1   2
ATOM      2  C   UNL     1      64.010 -12.050  39.664  1.00  0.00     0.129 A 
ATOM      3  C   UNL     1      62.956 -13.972  39.814  1.00  0.00     0.042 A 
ATOM      4  C   UNL     1      64.135 -14.104  39.107  1.00  0.00     0.195 A 
ATOM      5  C   UNL     1      62.875 -12.645  40.178  1.00  0.00     0.048 A 
ATOM      6  O   UNL     1      64.743 -12.941  39.038  1.00  0.00    -0.467 OA
ENDBRANCH   1   2
BRANCH   1   7
ATOM      7  O   UNL     1      65.119 -10.436  41.004  1.00  0.00    -0.388 OA
ATOM      8  H   UNL     1      64.587 -10.857  41.730  1.00  0.00     0.211 HD
ENDBRANCH   1   7
TORSDOF 2
ENDMDL
MODEL 7
REMARK VINA RESULT:    -3.373      9.787     10.578
REMARK INTER + INTRA:          -3.683
REMARK INTER:                  -3.667
REMARK INTRA:                  -0.016
REMARK UNBOUND:                -0.014
REMARK SMILES OCc1ccco1
REMARK SMILES IDX 2 1 3 2 5 3 6 4 4 5 7 6 1 7
REMARK H PARENT 1 8
REMARK Flexibility Score: inf
ROOT
ATOM      1  C   UNL     1      74.846 -13.005  42.116  1.00  0.00     0.231 C 
ENDROOT
BRANCH   1   2
ATOM      2  C   UNL     1      75.681 -12.002  41.387  1.00  0.00     0.129 A 
ATOM      3  C   UNL     1      77.388 -10.904  40.547  1.00  0.00     0.042 A 
ATOM      4  C   UNL     1      76.199 -10.254  40.281  1.00  0.00     0.195 A 
ATOM      5  C   UNL     1      77.056 -12.032  41.266  1.00  0.00     0.048 A 
ATOM      6  O   UNL     1      75.199 -10.932  40.798  1.00  0.00    -0.467 OA
ENDBRANCH   1   2
BRANCH   1   7
ATOM      7  O   UNL     1      74.237 -12.407  43.226  1.00  0.00    -0.388 OA
ATOM      8  H   UNL     1      74.577 -12.885  44.028  1.00  0.00     0.211 HD
ENDBRANCH   1   7
TORSDOF 2
ENDMDL
MODEL 8
REMARK VINA RESULT:    -3.262     18.036     18.323
REMARK INTER + INTRA:          -3.562
REMARK INTER:                  -3.542
REMARK INTRA:                  -0.020
REMARK UNBOUND:                -0.014
REMARK SMILES OCc1ccco1
REMARK SMILES IDX 2 1 3 2 5 3 6 4 4 5 7 6 1 7
REMARK H PARENT 1 8
REMARK Flexibility Score: inf
ROOT
ATOM      1  C   UNL     1      64.223 -14.155  38.883  1.00  0.00     0.231 C 
ENDROOT
BRANCH   1   2
ATOM      2  C   UNL     1      64.062 -12.780  39.447  1.00  0.00     0.129 A 
ATOM      3  C   UNL     1      64.389 -10.669  39.959  1.00  0.00     0.042 A 
ATOM      4  C   UNL     1      63.269 -11.168  40.595  1.00  0.00     0.195 A 
ATOM      5  C   UNL     1      64.906 -11.711  39.220  1.00  0.00     0.048 A 
ATOM      6  O   UNL     1      63.103 -12.431  40.272  1.00  0.00    -0.467 OA
ENDBRANCH   1   2
BRANCH   1   7
ATOM      7  O   UNL     1      63.787 -15.109  39.811  1.00  0.00    -0.388 OA
ATOM      8  H   UNL     1      62.901 -14.802  40.139  1.00  0.00     0.211 HD
ENDBRANCH   1   7
TORSDOF 2
ENDMDL
MODEL 9
REMARK VINA RESULT:    -3.211     18.457     18.866
REMARK INTER + INTRA:          -3.507
REMARK INTER:                  -3.491
REMARK INTRA:                  -0.016
REMARK UNBOUND:                -0.014
REMARK SMILES OCc1ccco1
REMARK SMILES IDX 2 1 3 2 5 3 6 4 4 5 7 6 1 7
REMARK H PARENT 1 8
REMARK Flexibility Score: inf
ROOT
ATOM      1  C   UNL     1      67.849 -12.053  33.693  1.00  0.00     0.231 C 
ENDROOT
BRANCH   1   2
ATOM      2  C   UNL     1      66.592 -12.271  34.472  1.00  0.00     0.129 A 
ATOM      3  C   UNL     1      64.483 -12.327  35.081  1.00  0.00     0.042 A 
ATOM      4  C   UNL     1      65.307 -12.761  36.101  1.00  0.00     0.195 A 
ATOM      5  C   UNL     1      65.312 -12.006  34.029  1.00  0.00     0.048 A 
ATOM      6  O   UNL     1      66.560 -12.712  35.708  1.00  0.00    -0.467 OA
ENDBRANCH   1   2
BRANCH   1   7
ATOM      7  O   UNL     1      67.635 -11.097  32.693  1.00  0.00    -0.388 OA
ATOM      8  H   UNL     1      68.356 -10.420  32.789  1.00  0.00     0.211 HD
ENDBRANCH   1   7
TORSDOF 2
ENDMDL
