MODEL 1
REMARK VINA RESULT:     2.610      0.000      0.000
REMARK INTER + INTRA:           3.156
REMARK INTER:                   3.525
REMARK INTRA:                  -0.369
REMARK UNBOUND:                -0.369
REMARK SMILES COc1ccc(-c2cc(=O)c3c(OC)c(OC)c(OC)c(OC)c3o2)cc1
REMARK SMILES IDX 7 1 8 2 9 3 10 4 11 5 24 6 25 7 21 8 18 9 15 10 12 11 6 12
REMARK SMILES IDX 3 13 4 14 27 15 5 16 26 17 2 18 1 19 22 20 23 21 13 22 14 23
REMARK SMILES IDX 19 24 20 25 16 26 17 27
REMARK H PARENT
REMARK Flexibility Score: inf
ROOT
ATOM      1  C   UNL     1       1.864 -14.086 -18.036  1.00  0.00     0.138 A 
ATOM      2  C   UNL     1       2.459 -13.448 -19.133  1.00  0.00     0.100 A 
ATOM      3  C   UNL     1       3.314 -12.368 -18.916  1.00  0.00     0.197 A 
ATOM      4  O   UNL     1       3.819 -11.786 -19.913  1.00  0.00    -0.289 OA
ATOM      5  C   UNL     1       3.576 -11.937 -17.596  1.00  0.00     0.115 A 
ATOM      6  C   UNL     1       2.924 -12.615 -16.546  1.00  0.00     0.188 A 
ATOM      7  O   UNL     1       2.114 -13.639 -16.808  1.00  0.00    -0.452 OA
ATOM      8  C   UNL     1       3.115 -12.235 -15.214  1.00  0.00     0.209 A 
ATOM      9  C   UNL     1       3.951 -11.132 -14.905  1.00  0.00     0.211 A 
ATOM     10  C   UNL     1       4.588 -10.421 -15.958  1.00  0.00     0.208 A 
ATOM     11  C   UNL     1       4.448 -10.870 -17.294  1.00  0.00     0.179 A 
ENDROOT
BRANCH   1  12
ATOM     12  C   UNL     1       0.943 -15.237 -18.202  1.00  0.00     0.018 A 
ATOM     13  C   UNL     1      -0.767 -17.461 -18.539  1.00  0.00     0.118 A 
ATOM     14  C   UNL     1      -1.289 -16.163 -18.513  1.00  0.00     0.047 A 
ATOM     15  C   UNL     1       0.620 -17.644 -18.404  1.00  0.00     0.047 A 
ATOM     16  C   UNL     1      -0.445 -15.060 -18.350  1.00  0.00     0.016 A 
ATOM     17  C   UNL     1       1.466 -16.542 -18.243  1.00  0.00     0.016 A 
BRANCH  13  18
ATOM     18  O   UNL     1      -1.656 -18.533 -18.701  1.00  0.00    -0.497 OA
ATOM     19  C   UNL     1      -1.953 -19.491 -17.690  1.00  0.00     0.278 C 
ENDBRANCH  13  18
ENDBRANCH   1  12
BRANCH   8  20
ATOM     20  O   UNL     1       2.434 -13.000 -14.245  1.00  0.00    -0.490 OA
ATOM     21  C   UNL     1       1.106 -12.804 -13.770  1.00  0.00     0.278 C 
ENDBRANCH   8  20
BRANCH  11  22
ATOM     22  O   UNL     1       5.203 -10.280 -18.309  1.00  0.00    -0.492 OA
ATOM     23  C   UNL     1       6.476 -10.801 -18.674  1.00  0.00     0.278 C 
ENDBRANCH  11  22
BRANCH   9  24
ATOM     24  O   UNL     1       4.107 -10.777 -13.551  1.00  0.00    -0.490 OA
ATOM     25  C   UNL     1       3.170 -10.101 -12.717  1.00  0.00     0.279 C 
ENDBRANCH   9  24
BRANCH  10  26
ATOM     26  O   UNL     1       5.347  -9.280 -15.647  1.00  0.00    -0.490 OA
ATOM     27  C   UNL     1       6.743  -9.259 -15.360  1.00  0.00     0.278 C 
ENDBRANCH  10  26
TORSDOF 6
ENDMDL
MODEL 2
REMARK VINA RESULT:     3.180      4.419      7.577
REMARK INTER + INTRA:           3.926
REMARK INTER:                   3.937
REMARK INTRA:                  -0.011
REMARK UNBOUND:                -0.369
REMARK SMILES COc1ccc(-c2cc(=O)c3c(OC)c(OC)c(OC)c(OC)c3o2)cc1
REMARK SMILES IDX 7 1 8 2 9 3 10 4 11 5 24 6 25 7 21 8 18 9 15 10 12 11 6 12
REMARK SMILES IDX 3 13 4 14 27 15 5 16 26 17 2 18 1 19 22 20 23 21 13 22 14 23
REMARK SMILES IDX 19 24 20 25 16 26 17 27
REMARK H PARENT
REMARK Flexibility Score: inf
ROOT
ATOM      1  C   UNL     1       4.646  -8.998 -20.586  1.00  0.00     0.138 A 
ATOM      2  C   UNL     1       5.666  -9.958 -20.636  1.00  0.00     0.100 A 
ATOM      3  C   UNL     1       5.847 -10.819 -19.555  1.00  0.00     0.197 A 
ATOM      4  O   UNL     1       6.786 -11.659 -19.600  1.00  0.00    -0.289 OA
ATOM      5  C   UNL     1       4.999 -10.718 -18.429  1.00  0.00     0.115 A 
ATOM      6  C   UNL     1       4.011  -9.714 -18.444  1.00  0.00     0.188 A 
ATOM      7  O   UNL     1       3.881  -8.915 -19.501  1.00  0.00    -0.452 OA
ATOM      8  C   UNL     1       3.146  -9.536 -17.359  1.00  0.00     0.209 A 
ATOM      9  C   UNL     1       3.277 -10.354 -16.208  1.00  0.00     0.211 A 
ATOM     10  C   UNL     1       4.291 -11.350 -16.169  1.00  0.00     0.208 A 
ATOM     11  C   UNL     1       5.104 -11.569 -17.308  1.00  0.00     0.179 A 
ENDROOT
BRANCH   1  12
ATOM     12  C   UNL     1       4.405  -8.051 -21.703  1.00  0.00     0.018 A 
ATOM     13  C   UNL     1       4.000  -6.241 -23.835  1.00  0.00     0.118 A 
ATOM     14  C   UNL     1       2.984  -6.477 -22.902  1.00  0.00     0.047 A 
ATOM     15  C   UNL     1       5.228  -6.910 -23.692  1.00  0.00     0.047 A 
ATOM     16  C   UNL     1       3.182  -7.369 -21.844  1.00  0.00     0.016 A 
ATOM     17  C   UNL     1       5.428  -7.801 -22.633  1.00  0.00     0.016 A 
BRANCH  13  18
ATOM     18  O   UNL     1       3.750  -5.340 -24.879  1.00  0.00    -0.497 OA
ATOM     19  C   UNL     1       2.489  -4.724 -25.125  1.00  0.00     0.278 C 
ENDBRANCH  13  18
ENDBRANCH   1  12
BRANCH   8  20
ATOM     20  O   UNL     1       2.180  -8.518 -17.494  1.00  0.00    -0.490 OA
ATOM     21  C   UNL     1       0.812  -8.673 -17.857  1.00  0.00     0.278 C 
ENDBRANCH   8  20
BRANCH  11  22
ATOM     22  O   UNL     1       5.985 -12.652 -17.336  1.00  0.00    -0.492 OA
ATOM     23  C   UNL     1       7.220 -12.611 -16.631  1.00  0.00     0.278 C 
ENDBRANCH  11  22
BRANCH   9  24
ATOM     24  O   UNL     1       2.392 -10.134 -15.135  1.00  0.00    -0.490 OA
ATOM     25  C   UNL     1       2.724  -9.807 -13.788  1.00  0.00     0.279 C 
ENDBRANCH   9  24
BRANCH  10  26
ATOM     26  O   UNL     1       4.465 -12.098 -14.993  1.00  0.00    -0.490 OA
ATOM     27  C   UNL     1       3.535 -13.033 -14.453  1.00  0.00     0.278 C 
ENDBRANCH  10  26
TORSDOF 6
ENDMDL
MODEL 3
REMARK VINA RESULT:     3.537      1.019      3.667
REMARK INTER + INTRA:           4.408
REMARK INTER:                   3.596
REMARK INTRA:                   0.812
REMARK UNBOUND:                -0.369
REMARK SMILES COc1ccc(-c2cc(=O)c3c(OC)c(OC)c(OC)c(OC)c3o2)cc1
REMARK SMILES IDX 7 1 8 2 9 3 10 4 11 5 24 6 25 7 21 8 18 9 15 10 12 11 6 12
REMARK SMILES IDX 3 13 4 14 27 15 5 16 26 17 2 18 1 19 22 20 23 21 13 22 14 23
REMARK SMILES IDX 19 24 20 25 16 26 17 27
REMARK H PARENT
REMARK Flexibility Score: inf
ROOT
ATOM      1  C   UNL     1       1.672 -14.201 -17.175  1.00  0.00     0.138 A 
ATOM      2  C   UNL     1       1.647 -14.083 -15.779  1.00  0.00     0.100 A 
ATOM      3  C   UNL     1       2.447 -13.125 -15.158  1.00  0.00     0.197 A 
ATOM      4  O   UNL     1       2.436 -13.049 -13.900  1.00  0.00    -0.289 OA
ATOM      5  C   UNL     1       3.264 -12.280 -15.943  1.00  0.00     0.115 A 
ATOM      6  C   UNL     1       3.251 -12.473 -17.339  1.00  0.00     0.188 A 
ATOM      7  O   UNL     1       2.470 -13.406 -17.882  1.00  0.00    -0.452 OA
ATOM      8  C   UNL     1       4.048 -11.692 -18.183  1.00  0.00     0.209 A 
ATOM      9  C   UNL     1       4.909 -10.708 -17.632  1.00  0.00     0.211 A 
ATOM     10  C   UNL     1       4.954 -10.527 -16.223  1.00  0.00     0.208 A 
ATOM     11  C   UNL     1       4.081 -11.271 -15.392  1.00  0.00     0.179 A 
ENDROOT
BRANCH   1  12
ATOM     12  C   UNL     1       0.846 -15.203 -17.893  1.00  0.00     0.018 A 
ATOM     13  C   UNL     1      -0.772 -17.082 -19.246  1.00  0.00     0.118 A 
ATOM     14  C   UNL     1       0.500 -17.441 -18.790  1.00  0.00     0.047 A 
ATOM     15  C   UNL     1      -1.239 -15.776 -19.015  1.00  0.00     0.047 A 
ATOM     16  C   UNL     1       1.303 -16.515 -18.117  1.00  0.00     0.016 A 
ATOM     17  C   UNL     1      -0.439 -14.849 -18.340  1.00  0.00     0.016 A 
BRANCH  13  18
ATOM     18  O   UNL     1      -1.536 -18.047 -19.919  1.00  0.00    -0.497 OA
ATOM     19  C   UNL     1      -1.218 -19.435 -19.964  1.00  0.00     0.278 C 
ENDBRANCH  13  18
ENDBRANCH   1  12
BRANCH   8  20
ATOM     20  O   UNL     1       3.935 -11.954 -19.564  1.00  0.00    -0.490 OA
ATOM     21  C   UNL     1       4.229 -11.064 -20.635  1.00  0.00     0.278 C 
ENDBRANCH   8  20
BRANCH  11  22
ATOM     22  O   UNL     1       4.002 -10.979 -14.029  1.00  0.00    -0.492 OA
ATOM     23  C   UNL     1       3.197  -9.905 -13.555  1.00  0.00     0.278 C 
ENDBRANCH  11  22
BRANCH   9  24
ATOM     24  O   UNL     1       5.702  -9.952 -18.518  1.00  0.00    -0.490 OA
ATOM     25  C   UNL     1       6.809 -10.402 -19.293  1.00  0.00     0.279 C 
ENDBRANCH   9  24
BRANCH  10  26
ATOM     26  O   UNL     1       5.871  -9.609 -15.684  1.00  0.00    -0.490 OA
ATOM     27  C   UNL     1       7.286  -9.648 -15.850  1.00  0.00     0.278 C 
ENDBRANCH  10  26
TORSDOF 6
ENDMDL
MODEL 4
REMARK VINA RESULT:     4.202      2.622      7.430
REMARK INTER + INTRA:           5.307
REMARK INTER:                   5.674
REMARK INTRA:                  -0.367
REMARK UNBOUND:                -0.369
REMARK SMILES COc1ccc(-c2cc(=O)c3c(OC)c(OC)c(OC)c(OC)c3o2)cc1
REMARK SMILES IDX 7 1 8 2 9 3 10 4 11 5 24 6 25 7 21 8 18 9 15 10 12 11 6 12
REMARK SMILES IDX 3 13 4 14 27 15 5 16 26 17 2 18 1 19 22 20 23 21 13 22 14 23
REMARK SMILES IDX 19 24 20 25 16 26 17 27
REMARK H PARENT
REMARK Flexibility Score: inf
ROOT
ATOM      1  C   UNL     1       5.160 -10.618 -19.688  1.00  0.00     0.138 A 
ATOM      2  C   UNL     1       4.307 -11.662 -20.069  1.00  0.00     0.100 A 
ATOM      3  C   UNL     1       3.566 -12.330 -19.095  1.00  0.00     0.197 A 
ATOM      4  O   UNL     1       2.824 -13.286 -19.448  1.00  0.00    -0.289 OA
ATOM      5  C   UNL     1       3.677 -11.940 -17.741  1.00  0.00     0.115 A 
ATOM      6  C   UNL     1       4.572 -10.896 -17.433  1.00  0.00     0.188 A 
ATOM      7  O   UNL     1       5.259 -10.293 -18.402  1.00  0.00    -0.452 OA
ATOM      8  C   UNL     1       4.755 -10.467 -16.115  1.00  0.00     0.209 A 
ATOM      9  C   UNL     1       4.056 -11.107 -15.059  1.00  0.00     0.211 A 
ATOM     10  C   UNL     1       3.175 -12.182 -15.354  1.00  0.00     0.208 A 
ATOM     11  C   UNL     1       2.941 -12.550 -16.702  1.00  0.00     0.179 A 
ENDROOT
BRANCH   1  12
ATOM     12  C   UNL     1       5.978  -9.872 -20.677  1.00  0.00     0.018 A 
ATOM     13  C   UNL     1       7.579  -8.459 -22.526  1.00  0.00     0.118 A 
ATOM     14  C   UNL     1       6.196  -8.252 -22.482  1.00  0.00     0.047 A 
ATOM     15  C   UNL     1       8.163  -9.373 -21.632  1.00  0.00     0.047 A 
ATOM     16  C   UNL     1       5.401  -8.947 -21.566  1.00  0.00     0.016 A 
ATOM     17  C   UNL     1       7.369 -10.067 -20.714  1.00  0.00     0.016 A 
BRANCH  13  18
ATOM     18  O   UNL     1       8.331  -7.740 -23.466  1.00  0.00    -0.497 OA
ATOM     19  C   UNL     1       7.780  -6.809 -24.393  1.00  0.00     0.278 C 
ENDBRANCH  13  18
ENDBRANCH   1  12
BRANCH   8  20
ATOM     20  O   UNL     1       5.654  -9.398 -15.927  1.00  0.00    -0.490 OA
ATOM     21  C   UNL     1       7.071  -9.473 -15.818  1.00  0.00     0.278 C 
ENDBRANCH   8  20
BRANCH  11  22
ATOM     22  O   UNL     1       1.955 -13.489 -17.006  1.00  0.00    -0.492 OA
ATOM     23  C   UNL     1       2.173 -14.878 -16.788  1.00  0.00     0.278 C 
ENDBRANCH  11  22
BRANCH   9  24
ATOM     24  O   UNL     1       4.278 -10.650 -13.745  1.00  0.00    -0.490 OA
ATOM     25  C   UNL     1       3.406  -9.861 -12.942  1.00  0.00     0.279 C 
ENDBRANCH   9  24
BRANCH  10  26
ATOM     26  O   UNL     1       2.553 -12.863 -14.294  1.00  0.00    -0.490 OA
ATOM     27  C   UNL     1       1.239 -12.616 -13.801  1.00  0.00     0.278 C 
ENDBRANCH  10  26
TORSDOF 6
ENDMDL
MODEL 5
REMARK VINA RESULT:     4.709      3.484      7.160
REMARK INTER + INTRA:           5.991
REMARK INTER:                   5.717
REMARK INTRA:                   0.274
REMARK UNBOUND:                -0.369
REMARK SMILES COc1ccc(-c2cc(=O)c3c(OC)c(OC)c(OC)c(OC)c3o2)cc1
REMARK SMILES IDX 7 1 8 2 9 3 10 4 11 5 24 6 25 7 21 8 18 9 15 10 12 11 6 12
REMARK SMILES IDX 3 13 4 14 27 15 5 16 26 17 2 18 1 19 22 20 23 21 13 22 14 23
REMARK SMILES IDX 19 24 20 25 16 26 17 27
REMARK H PARENT
REMARK Flexibility Score: inf
ROOT
ATOM      1  C   UNL     1       3.825  -9.669 -19.595  1.00  0.00     0.138 A 
ATOM      2  C   UNL     1       3.737 -11.036 -19.888  1.00  0.00     0.100 A 
ATOM      3  C   UNL     1       3.606 -11.952 -18.845  1.00  0.00     0.197 A 
ATOM      4  O   UNL     1       3.557 -13.181 -19.121  1.00  0.00    -0.289 OA
ATOM      5  C   UNL     1       3.555 -11.491 -17.510  1.00  0.00     0.115 A 
ATOM      6  C   UNL     1       3.671 -10.103 -17.294  1.00  0.00     0.188 A 
ATOM      7  O   UNL     1       3.798  -9.271 -18.325  1.00  0.00    -0.452 OA
ATOM      8  C   UNL     1       3.651  -9.570 -16.001  1.00  0.00     0.209 A 
ATOM      9  C   UNL     1       3.544 -10.434 -14.880  1.00  0.00     0.211 A 
ATOM     10  C   UNL     1       3.457 -11.837 -15.086  1.00  0.00     0.208 A 
ATOM     11  C   UNL     1       3.398 -12.353 -16.403  1.00  0.00     0.179 A 
ENDROOT
BRANCH   1  12
ATOM     12  C   UNL     1       3.970  -8.646 -20.659  1.00  0.00     0.018 A 
ATOM     13  C   UNL     1       4.298  -6.712 -22.693  1.00  0.00     0.118 A 
ATOM     14  C   UNL     1       3.285  -6.572 -21.739  1.00  0.00     0.047 A 
ATOM     15  C   UNL     1       5.157  -7.823 -22.622  1.00  0.00     0.047 A 
ATOM     16  C   UNL     1       3.121  -7.525 -20.729  1.00  0.00     0.016 A 
ATOM     17  C   UNL     1       4.996  -8.776 -21.611  1.00  0.00     0.016 A 
BRANCH  13  18
ATOM     18  O   UNL     1       4.418  -5.731 -23.688  1.00  0.00    -0.497 OA
ATOM     19  C   UNL     1       3.530  -5.594 -24.793  1.00  0.00     0.278 C 
ENDBRANCH  13  18
ENDBRANCH   1  12
BRANCH   8  20
ATOM     20  O   UNL     1       3.748  -8.167 -15.905  1.00  0.00    -0.490 OA
ATOM     21  C   UNL     1       3.465  -7.360 -14.767  1.00  0.00     0.278 C 
ENDBRANCH   8  20
BRANCH  11  22
ATOM     22  O   UNL     1       3.146 -13.710 -16.609  1.00  0.00    -0.492 OA
ATOM     23  C   UNL     1       1.816 -14.219 -16.597  1.00  0.00     0.278 C 
ENDBRANCH  11  22
BRANCH   9  24
ATOM     24  O   UNL     1       3.538  -9.855 -13.596  1.00  0.00    -0.490 OA
ATOM     25  C   UNL     1       2.684 -10.177 -12.502  1.00  0.00     0.279 C 
ENDBRANCH   9  24
BRANCH  10  26
ATOM     26  O   UNL     1       3.435 -12.688 -13.968  1.00  0.00    -0.490 OA
ATOM     27  C   UNL     1       4.578 -13.232 -13.311  1.00  0.00     0.278 C 
ENDBRANCH  10  26
TORSDOF 6
ENDMDL
MODEL 6
REMARK VINA RESULT:     4.721      4.414      7.517
REMARK INTER + INTRA:           6.007
REMARK INTER:                   4.681
REMARK INTRA:                   1.326
REMARK UNBOUND:                -0.369
REMARK SMILES COc1ccc(-c2cc(=O)c3c(OC)c(OC)c(OC)c(OC)c3o2)cc1
REMARK SMILES IDX 7 1 8 2 9 3 10 4 11 5 24 6 25 7 21 8 18 9 15 10 12 11 6 12
REMARK SMILES IDX 3 13 4 14 27 15 5 16 26 17 2 18 1 19 22 20 23 21 13 22 14 23
REMARK SMILES IDX 19 24 20 25 16 26 17 27
REMARK H PARENT
REMARK Flexibility Score: inf
ROOT
ATOM      1  C   UNL     1       5.305 -10.529 -19.560  1.00  0.00     0.138 A 
ATOM      2  C   UNL     1       6.652 -10.824 -19.809  1.00  0.00     0.100 A 
ATOM      3  C   UNL     1       7.339 -10.109 -20.789  1.00  0.00     0.197 A 
ATOM      4  O   UNL     1       8.542 -10.404 -21.023  1.00  0.00    -0.289 OA
ATOM      5  C   UNL     1       6.673  -9.093 -21.510  1.00  0.00     0.115 A 
ATOM      6  C   UNL     1       5.313  -8.868 -21.218  1.00  0.00     0.188 A 
ATOM      7  O   UNL     1       4.702  -9.582 -20.274  1.00  0.00    -0.452 OA
ATOM      8  C   UNL     1       4.578  -7.895 -21.903  1.00  0.00     0.209 A 
ATOM      9  C   UNL     1       5.194  -7.137 -22.932  1.00  0.00     0.211 A 
ATOM     10  C   UNL     1       6.557  -7.377 -23.256  1.00  0.00     0.208 A 
ATOM     11  C   UNL     1       7.307  -8.309 -22.498  1.00  0.00     0.179 A 
ENDROOT
BRANCH   1  12
ATOM     12  C   UNL     1       4.519 -11.257 -18.533  1.00  0.00     0.018 A 
ATOM     13  C   UNL     1       3.069 -12.645 -16.545  1.00  0.00     0.118 A 
ATOM     14  C   UNL     1       2.640 -12.661 -17.876  1.00  0.00     0.047 A 
ATOM     15  C   UNL     1       4.236 -11.937 -16.210  1.00  0.00     0.047 A 
ATOM     16  C   UNL     1       3.356 -11.978 -18.864  1.00  0.00     0.016 A 
ATOM     17  C   UNL     1       4.955 -11.255 -17.197  1.00  0.00     0.016 A 
BRANCH  13  18
ATOM     18  O   UNL     1       2.312 -13.343 -15.593  1.00  0.00    -0.497 OA
ATOM     19  C   UNL     1       2.031 -12.865 -14.282  1.00  0.00     0.278 C 
ENDBRANCH  13  18
ENDBRANCH   1  12
BRANCH   8  20
ATOM     20  O   UNL     1       3.233  -7.739 -21.509  1.00  0.00    -0.490 OA
ATOM     21  C   UNL     1       2.409  -6.594 -21.697  1.00  0.00     0.278 C 
ENDBRANCH   8  20
BRANCH  11  22
ATOM     22  O   UNL     1       8.682  -8.426 -22.702  1.00  0.00    -0.492 OA
ATOM     23  C   UNL     1       9.210  -9.389 -23.607  1.00  0.00     0.278 C 
ENDBRANCH  11  22
BRANCH   9  24
ATOM     24  O   UNL     1       4.415  -6.175 -23.602  1.00  0.00    -0.490 OA
ATOM     25  C   UNL     1       3.934  -6.227 -24.942  1.00  0.00     0.279 C 
ENDBRANCH   9  24
BRANCH  10  26
ATOM     26  O   UNL     1       7.133  -6.679 -24.332  1.00  0.00    -0.490 OA
ATOM     27  C   UNL     1       8.498  -6.283 -24.433  1.00  0.00     0.278 C 
ENDBRANCH  10  26
TORSDOF 6
ENDMDL
MODEL 7
REMARK VINA RESULT:     5.146      4.683      8.025
REMARK INTER + INTRA:           6.581
REMARK INTER:                   6.104
REMARK INTRA:                   0.477
REMARK UNBOUND:                -0.369
REMARK SMILES COc1ccc(-c2cc(=O)c3c(OC)c(OC)c(OC)c(OC)c3o2)cc1
REMARK SMILES IDX 7 1 8 2 9 3 10 4 11 5 24 6 25 7 21 8 18 9 15 10 12 11 6 12
REMARK SMILES IDX 3 13 4 14 27 15 5 16 26 17 2 18 1 19 22 20 23 21 13 22 14 23
REMARK SMILES IDX 19 24 20 25 16 26 17 27
REMARK H PARENT
REMARK Flexibility Score: inf
ROOT
ATOM      1  C   UNL     1       3.562  -8.464 -20.051  1.00  0.00     0.138 A 
ATOM      2  C   UNL     1       2.444  -8.330 -19.217  1.00  0.00     0.100 A 
ATOM      3  C   UNL     1       2.376  -9.074 -18.039  1.00  0.00     0.197 A 
ATOM      4  O   UNL     1       1.352  -8.966 -17.313  1.00  0.00    -0.289 OA
ATOM      5  C   UNL     1       3.436  -9.945 -17.699  1.00  0.00     0.115 A 
ATOM      6  C   UNL     1       4.516 -10.041 -18.599  1.00  0.00     0.188 A 
ATOM      7  O   UNL     1       4.530  -9.310 -19.712  1.00  0.00    -0.452 OA
ATOM      8  C   UNL     1       5.593 -10.896 -18.344  1.00  0.00     0.209 A 
ATOM      9  C   UNL     1       5.594 -11.707 -17.180  1.00  0.00     0.211 A 
ATOM     10  C   UNL     1       4.495 -11.641 -16.282  1.00  0.00     0.208 A 
ATOM     11  C   UNL     1       3.452 -10.711 -16.514  1.00  0.00     0.179 A 
ENDROOT
BRANCH   1  12
ATOM     12  C   UNL     1       3.691  -7.703 -21.318  1.00  0.00     0.018 A 
ATOM     13  C   UNL     1       3.993  -6.252 -23.723  1.00  0.00     0.118 A 
ATOM     14  C   UNL     1       2.787  -6.208 -23.016  1.00  0.00     0.047 A 
ATOM     15  C   UNL     1       5.056  -7.020 -23.217  1.00  0.00     0.047 A 
ATOM     16  C   UNL     1       2.635  -6.922 -21.823  1.00  0.00     0.016 A 
ATOM     17  C   UNL     1       4.906  -7.733 -22.023  1.00  0.00     0.016 A 
BRANCH  13  18
ATOM     18  O   UNL     1       4.093  -5.521 -24.916  1.00  0.00    -0.497 OA
ATOM     19  C   UNL     1       3.506  -4.240 -25.125  1.00  0.00     0.278 C 
ENDBRANCH  13  18
ENDBRANCH   1  12
BRANCH   8  20
ATOM     20  O   UNL     1       6.630 -10.892 -19.300  1.00  0.00    -0.490 OA
ATOM     21  C   UNL     1       6.501 -10.753 -20.710  1.00  0.00     0.278 C 
ENDBRANCH   8  20
BRANCH  11  22
ATOM     22  O   UNL     1       2.459 -10.525 -15.551  1.00  0.00    -0.492 OA
ATOM     23  C   UNL     1       2.780 -10.054 -14.247  1.00  0.00     0.278 C 
ENDBRANCH  11  22
BRANCH   9  24
ATOM     24  O   UNL     1       6.694 -12.560 -16.968  1.00  0.00    -0.490 OA
ATOM     25  C   UNL     1       8.060 -12.192 -16.804  1.00  0.00     0.279 C 
ENDBRANCH   9  24
BRANCH  10  26
ATOM     26  O   UNL     1       4.467 -12.508 -15.176  1.00  0.00    -0.490 OA
ATOM     27  C   UNL     1       5.400 -12.516 -14.099  1.00  0.00     0.278 C 
ENDBRANCH  10  26
TORSDOF 6
ENDMDL
