MODEL 1
REMARK VINA RESULT:    20.330      0.000      0.000
REMARK INTER + INTRA:          56.939
REMARK INTER:                  53.609
REMARK INTRA:                   3.330
REMARK UNBOUND:                 3.330
REMARK SMILES CCCCCCCCCCCCCCCCCCCCCCCCCCCCCC(=O)[O-]
REMARK SMILES IDX 16 1 17 2 18 3 19 4 20 5 21 6 22 7 23 8 24 9 25 10 26 11
REMARK SMILES IDX 27 12 28 13 29 14 30 15 31 16 32 17 15 18 14 19 13 20 12 21
REMARK SMILES IDX 11 22 10 23 9 24 8 25 7 26 6 27 5 28 4 29 3 30 2 31 1 32
REMARK H PARENT
REMARK Flexibility Score: inf
ROOT
ATOM      1  C   UNL     1     -27.883  14.864 -14.929  1.00  0.00     0.000 C 
ENDROOT
BRANCH   1   2
ATOM      2  C   UNL     1     -27.460  13.389 -15.032  1.00  0.00     0.000 C 
BRANCH   2   3
ATOM      3  C   UNL     1     -25.997  13.218 -15.477  1.00  0.00     0.000 C 
BRANCH   3   4
ATOM      4  C   UNL     1     -25.127  12.363 -14.534  1.00  0.00     0.000 C 
BRANCH   4   5
ATOM      5  C   UNL     1     -24.423  11.162 -15.200  1.00  0.00     0.000 C 
BRANCH   5   6
ATOM      6  C   UNL     1     -22.907  11.335 -15.420  1.00  0.00     0.000 C 
BRANCH   6   7
ATOM      7  C   UNL     1     -22.370  10.722 -16.727  1.00  0.00     0.000 C 
BRANCH   7   8
ATOM      8  C   UNL     1     -22.930   9.318 -16.997  1.00  0.00     0.000 C 
BRANCH   8   9
ATOM      9  C   UNL     1     -23.396   9.183 -18.453  1.00  0.00     0.000 C 
BRANCH   9  10
ATOM     10  C   UNL     1     -23.102   7.793 -19.038  1.00  0.00     0.000 C 
BRANCH  10  11
ATOM     11  C   UNL     1     -21.608   7.429 -18.974  1.00  0.00     0.000 C 
BRANCH  11  12
ATOM     12  C   UNL     1     -21.269   6.213 -19.860  1.00  0.00     0.000 C 
BRANCH  12  13
ATOM     13  C   UNL     1     -20.441   5.130 -19.143  1.00  0.00     0.006 C 
BRANCH  13  14
ATOM     14  C   UNL     1     -18.930   5.192 -19.438  1.00  0.00     0.053 C 
BRANCH  14  15
ATOM     15  C   UNL     1     -18.215   3.925 -19.069  1.00  0.00     0.041 C 
ATOM     16  O   UNL     1     -18.295   2.910 -19.810  1.00  0.00    -0.550 OA
ATOM     17  O   UNL     1     -17.419   3.879 -17.931  1.00  0.00    -0.550 OA
ENDBRANCH  14  15
ENDBRANCH  13  14
ENDBRANCH  12  13
ENDBRANCH  11  12
ENDBRANCH  10  11
ENDBRANCH   9  10
ENDBRANCH   8   9
ENDBRANCH   7   8
ENDBRANCH   6   7
ENDBRANCH   5   6
ENDBRANCH   4   5
ENDBRANCH   3   4
ENDBRANCH   2   3
ENDBRANCH   1   2
BRANCH   1  18
ATOM     18  C   UNL     1     -29.320  15.027 -14.408  1.00  0.00     0.000 C 
BRANCH  18  19
ATOM     19  C   UNL     1     -29.457  16.206 -13.427  1.00  0.00     0.000 C 
BRANCH  19  20
ATOM     20  C   UNL     1     -30.224  15.826 -12.152  1.00  0.00     0.000 C 
BRANCH  20  21
ATOM     21  C   UNL     1     -30.783  17.053 -11.412  1.00  0.00     0.000 C 
BRANCH  21  22
ATOM     22  C   UNL     1     -32.072  16.732 -10.637  1.00  0.00     0.000 C 
BRANCH  22  23
ATOM     23  C   UNL     1     -32.601  17.947  -9.851  1.00  0.00     0.000 C 
BRANCH  23  24
ATOM     24  C   UNL     1     -31.670  19.174  -9.947  1.00  0.00    -0.000 C 
BRANCH  24  25
ATOM     25  C   UNL     1     -30.253  18.854 -10.461  1.00  0.00    -0.000 C 
BRANCH  25  26
ATOM     26  C   UNL     1     -29.319  20.068 -10.631  1.00  0.00    -0.000 C 
BRANCH  26  27
ATOM     27  C   UNL     1     -29.717  21.051 -11.749  1.00  0.00    -0.000 C 
BRANCH  27  28
ATOM     28  C   UNL     1     -30.916  21.936 -11.371  1.00  0.00    -0.000 C 
BRANCH  28  29
ATOM     29  C   UNL     1     -30.900  22.347  -9.890  1.00  0.00    -0.000 C 
BRANCH  29  30
ATOM     30  C   UNL     1     -32.159  23.121  -9.474  1.00  0.00    -0.000 C 
BRANCH  30  31
ATOM     31  C   UNL     1     -33.384  22.632 -10.255  1.00  0.00    -0.003 C 
ATOM     32  C   UNL     1     -33.391  21.111 -10.378  1.00  0.00     0.004 C 
ENDBRANCH  30  31
ENDBRANCH  29  30
ENDBRANCH  28  29
ENDBRANCH  27  28
ENDBRANCH  26  27
ENDBRANCH  25  26
ENDBRANCH  24  25
ENDBRANCH  23  24
ENDBRANCH  22  23
ENDBRANCH  21  22
ENDBRANCH  20  21
ENDBRANCH  19  20
ENDBRANCH  18  19
ENDBRANCH   1  18
TORSDOF 28
ENDMDL
MODEL 2
REMARK VINA RESULT:    20.372      3.422      6.503
REMARK INTER + INTRA:          57.048
REMARK INTER:                  58.022
REMARK INTRA:                  -0.974
REMARK UNBOUND:                 3.330
REMARK SMILES CCCCCCCCCCCCCCCCCCCCCCCCCCCCCC(=O)[O-]
REMARK SMILES IDX 16 1 17 2 18 3 19 4 20 5 21 6 22 7 23 8 24 9 25 10 26 11
REMARK SMILES IDX 27 12 28 13 29 14 30 15 31 16 32 17 15 18 14 19 13 20 12 21
REMARK SMILES IDX 11 22 10 23 9 24 8 25 7 26 6 27 5 28 4 29 3 30 2 31 1 32
REMARK H PARENT
REMARK Flexibility Score: inf
ROOT
ATOM      1  C   UNL     1     -31.464  17.896 -11.163  1.00  0.00     0.000 C 
ENDROOT
BRANCH   1   2
ATOM      2  C   UNL     1     -30.167  17.254 -10.642  1.00  0.00     0.000 C 
BRANCH   2   3
ATOM      3  C   UNL     1     -29.573  16.230 -11.625  1.00  0.00     0.000 C 
BRANCH   3   4
ATOM      4  C   UNL     1     -29.227  16.791 -13.019  1.00  0.00     0.000 C 
BRANCH   4   5
ATOM      5  C   UNL     1     -29.554  15.857 -14.202  1.00  0.00     0.000 C 
BRANCH   5   6
ATOM      6  C   UNL     1     -28.381  14.984 -14.688  1.00  0.00     0.000 C 
BRANCH   6   7
ATOM      7  C   UNL     1     -28.537  13.478 -14.409  1.00  0.00     0.000 C 
BRANCH   7   8
ATOM      8  C   UNL     1     -27.376  12.647 -14.975  1.00  0.00     0.000 C 
BRANCH   8   9
ATOM      9  C   UNL     1     -26.090  13.481 -15.051  1.00  0.00     0.000 C 
BRANCH   9  10
ATOM     10  C   UNL     1     -24.840  12.670 -14.671  1.00  0.00     0.000 C 
BRANCH  10  11
ATOM     11  C   UNL     1     -24.452  11.642 -15.749  1.00  0.00     0.000 C 
BRANCH  11  12
ATOM     12  C   UNL     1     -23.048  11.051 -15.506  1.00  0.00     0.000 C 
BRANCH  12  13
ATOM     13  C   UNL     1     -22.941   9.547 -15.824  1.00  0.00     0.006 C 
BRANCH  13  14
ATOM     14  C   UNL     1     -22.504   9.238 -17.269  1.00  0.00     0.053 C 
BRANCH  14  15
ATOM     15  C   UNL     1     -23.619   9.405 -18.260  1.00  0.00     0.041 C 
ATOM     16  O   UNL     1     -24.452   8.479 -18.441  1.00  0.00    -0.550 OA
ATOM     17  O   UNL     1     -23.768  10.603 -18.947  1.00  0.00    -0.550 OA
ENDBRANCH  14  15
ENDBRANCH  13  14
ENDBRANCH  12  13
ENDBRANCH  11  12
ENDBRANCH  10  11
ENDBRANCH   9  10
ENDBRANCH   8   9
ENDBRANCH   7   8
ENDBRANCH   6   7
ENDBRANCH   5   6
ENDBRANCH   4   5
ENDBRANCH   3   4
ENDBRANCH   2   3
ENDBRANCH   1   2
BRANCH   1  18
ATOM     18  C   UNL     1     -32.676  17.570 -10.275  1.00  0.00     0.000 C 
BRANCH  18  19
ATOM     19  C   UNL     1     -33.555  18.806 -10.009  1.00  0.00     0.000 C 
BRANCH  19  20
ATOM     20  C   UNL     1     -32.936  20.100 -10.560  1.00  0.00     0.000 C 
BRANCH  20  21
ATOM     21  C   UNL     1     -33.186  21.310  -9.644  1.00  0.00     0.000 C 
BRANCH  21  22
ATOM     22  C   UNL     1     -32.639  22.618 -10.241  1.00  0.00     0.000 C 
BRANCH  22  23
ATOM     23  C   UNL     1     -31.292  22.416 -10.958  1.00  0.00     0.000 C 
BRANCH  23  24
ATOM     24  C   UNL     1     -30.441  21.292 -10.329  1.00  0.00    -0.000 C 
BRANCH  24  25
ATOM     25  C   UNL     1     -28.965  21.293 -10.774  1.00  0.00    -0.000 C 
BRANCH  25  26
ATOM     26  C   UNL     1     -27.963  21.858  -9.748  1.00  0.00    -0.000 C 
BRANCH  26  27
ATOM     27  C   UNL     1     -26.648  22.399 -10.342  1.00  0.00    -0.000 C 
BRANCH  27  28
ATOM     28  C   UNL     1     -25.451  22.238  -9.392  1.00  0.00    -0.000 C 
BRANCH  28  29
ATOM     29  C   UNL     1     -25.812  21.461  -8.116  1.00  0.00    -0.000 C 
BRANCH  29  30
ATOM     30  C   UNL     1     -24.633  20.648  -7.560  1.00  0.00    -0.000 C 
BRANCH  30  31
ATOM     31  C   UNL     1     -23.587  21.569  -6.921  1.00  0.00    -0.003 C 
ATOM     32  C   UNL     1     -23.961  21.918  -5.484  1.00  0.00     0.004 C 
ENDBRANCH  30  31
ENDBRANCH  29  30
ENDBRANCH  28  29
ENDBRANCH  27  28
ENDBRANCH  26  27
ENDBRANCH  25  26
ENDBRANCH  24  25
ENDBRANCH  23  24
ENDBRANCH  22  23
ENDBRANCH  21  22
ENDBRANCH  20  21
ENDBRANCH  19  20
ENDBRANCH  18  19
ENDBRANCH   1  18
TORSDOF 28
ENDMDL
MODEL 3
REMARK VINA RESULT:    20.939      3.492      5.994
REMARK INTER + INTRA:          58.543
REMARK INTER:                  59.359
REMARK INTRA:                  -0.817
REMARK UNBOUND:                 3.330
REMARK SMILES CCCCCCCCCCCCCCCCCCCCCCCCCCCCCC(=O)[O-]
REMARK SMILES IDX 16 1 17 2 18 3 19 4 20 5 21 6 22 7 23 8 24 9 25 10 26 11
REMARK SMILES IDX 27 12 28 13 29 14 30 15 31 16 32 17 15 18 14 19 13 20 12 21
REMARK SMILES IDX 11 22 10 23 9 24 8 25 7 26 6 27 5 28 4 29 3 30 2 31 1 32
REMARK H PARENT
REMARK Flexibility Score: inf
ROOT
ATOM      1  C   UNL     1     -30.474  17.092 -11.025  1.00  0.00     0.000 C 
ENDROOT
BRANCH   1   2
ATOM      2  C   UNL     1     -29.643  16.144 -11.906  1.00  0.00     0.000 C 
BRANCH   2   3
ATOM      3  C   UNL     1     -29.339  16.735 -13.294  1.00  0.00     0.000 C 
BRANCH   3   4
ATOM      4  C   UNL     1     -29.400  15.725 -14.458  1.00  0.00     0.000 C 
BRANCH   4   5
ATOM      5  C   UNL     1     -28.532  14.463 -14.278  1.00  0.00     0.000 C 
BRANCH   5   6
ATOM      6  C   UNL     1     -27.841  13.957 -15.560  1.00  0.00     0.000 C 
BRANCH   6   7
ATOM      7  C   UNL     1     -26.445  13.345 -15.344  1.00  0.00     0.000 C 
BRANCH   7   8
ATOM      8  C   UNL     1     -25.417  13.835 -16.374  1.00  0.00     0.000 C 
BRANCH   8   9
ATOM      9  C   UNL     1     -25.446  12.963 -17.637  1.00  0.00     0.000 C 
BRANCH   9  10
ATOM     10  C   UNL     1     -24.366  13.366 -18.654  1.00  0.00     0.000 C 
BRANCH  10  11
ATOM     11  C   UNL     1     -23.627  12.152 -19.244  1.00  0.00     0.000 C 
BRANCH  11  12
ATOM     12  C   UNL     1     -24.301  10.819 -18.856  1.00  0.00     0.000 C 
BRANCH  12  13
ATOM     13  C   UNL     1     -23.377   9.852 -18.094  1.00  0.00     0.006 C 
BRANCH  13  14
ATOM     14  C   UNL     1     -23.637   9.796 -16.576  1.00  0.00     0.053 C 
BRANCH  14  15
ATOM     15  C   UNL     1     -22.370   9.724 -15.774  1.00  0.00     0.041 C 
ATOM     16  O   UNL     1     -21.630   8.707 -15.844  1.00  0.00    -0.550 OA
ATOM     17  O   UNL     1     -21.979  10.801 -14.988  1.00  0.00    -0.550 OA
ENDBRANCH  14  15
ENDBRANCH  13  14
ENDBRANCH  12  13
ENDBRANCH  11  12
ENDBRANCH  10  11
ENDBRANCH   9  10
ENDBRANCH   8   9
ENDBRANCH   7   8
ENDBRANCH   6   7
ENDBRANCH   5   6
ENDBRANCH   4   5
ENDBRANCH   3   4
ENDBRANCH   2   3
ENDBRANCH   1   2
BRANCH   1  18
ATOM     18  C   UNL     1     -31.864  16.521 -10.701  1.00  0.00     0.000 C 
BRANCH  18  19
ATOM     19  C   UNL     1     -32.787  17.566 -10.045  1.00  0.00     0.000 C 
BRANCH  19  20
ATOM     20  C   UNL     1     -32.615  18.967 -10.650  1.00  0.00     0.000 C 
BRANCH  20  21
ATOM     21  C   UNL     1     -33.501  20.019  -9.961  1.00  0.00     0.000 C 
BRANCH  21  22
ATOM     22  C   UNL     1     -32.995  21.453 -10.194  1.00  0.00     0.000 C 
BRANCH  22  23
ATOM     23  C   UNL     1     -31.727  21.492 -11.066  1.00  0.00     0.000 C 
BRANCH  23  24
ATOM     24  C   UNL     1     -30.541  20.733 -10.434  1.00  0.00    -0.000 C 
BRANCH  24  25
ATOM     25  C   UNL     1     -29.183  21.447 -10.580  1.00  0.00    -0.000 C 
BRANCH  25  26
ATOM     26  C   UNL     1     -28.061  20.931  -9.659  1.00  0.00    -0.000 C 
BRANCH  26  27
ATOM     27  C   UNL     1     -27.548  21.944  -8.617  1.00  0.00    -0.000 C 
BRANCH  27  28
ATOM     28  C   UNL     1     -26.648  21.301  -7.549  1.00  0.00    -0.000 C 
BRANCH  28  29
ATOM     29  C   UNL     1     -25.180  21.206  -7.995  1.00  0.00    -0.000 C 
BRANCH  29  30
ATOM     30  C   UNL     1     -24.266  20.616  -6.911  1.00  0.00    -0.000 C 
BRANCH  30  31
ATOM     31  C   UNL     1     -24.067  21.612  -5.763  1.00  0.00    -0.003 C 
ATOM     32  C   UNL     1     -22.850  22.500  -6.007  1.00  0.00     0.004 C 
ENDBRANCH  30  31
ENDBRANCH  29  30
ENDBRANCH  28  29
ENDBRANCH  27  28
ENDBRANCH  26  27
ENDBRANCH  25  26
ENDBRANCH  24  25
ENDBRANCH  23  24
ENDBRANCH  22  23
ENDBRANCH  21  22
ENDBRANCH  20  21
ENDBRANCH  19  20
ENDBRANCH  18  19
ENDBRANCH   1  18
TORSDOF 28
ENDMDL
MODEL 4
REMARK VINA RESULT:    21.003      9.552     14.663
REMARK INTER + INTRA:          58.714
REMARK INTER:                  59.706
REMARK INTRA:                  -0.992
REMARK UNBOUND:                 3.330
REMARK SMILES CCCCCCCCCCCCCCCCCCCCCCCCCCCCCC(=O)[O-]
REMARK SMILES IDX 16 1 17 2 18 3 19 4 20 5 21 6 22 7 23 8 24 9 25 10 26 11
REMARK SMILES IDX 27 12 28 13 29 14 30 15 31 16 32 17 15 18 14 19 13 20 12 21
REMARK SMILES IDX 11 22 10 23 9 24 8 25 7 26 6 27 5 28 4 29 3 30 2 31 1 32
REMARK H PARENT
REMARK Flexibility Score: inf
ROOT
ATOM      1  C   UNL     1     -31.688  17.925 -10.058  1.00  0.00     0.000 C 
ENDROOT
BRANCH   1   2
ATOM      2  C   UNL     1     -33.014  18.424 -10.655  1.00  0.00     0.000 C 
BRANCH   2   3
ATOM      3  C   UNL     1     -33.041  19.951 -10.853  1.00  0.00     0.000 C 
BRANCH   3   4
ATOM      4  C   UNL     1     -33.263  20.768  -9.564  1.00  0.00     0.000 C 
BRANCH   4   5
ATOM      5  C   UNL     1     -33.336  22.296  -9.761  1.00  0.00     0.000 C 
BRANCH   5   6
ATOM      6  C   UNL     1     -32.335  22.871 -10.783  1.00  0.00     0.000 C 
BRANCH   6   7
ATOM      7  C   UNL     1     -30.861  22.517 -10.513  1.00  0.00     0.000 C 
BRANCH   7   8
ATOM      8  C   UNL     1     -30.072  22.243 -11.801  1.00  0.00     0.000 C 
BRANCH   8   9
ATOM      9  C   UNL     1     -28.671  21.702 -11.483  1.00  0.00     0.000 C 
BRANCH   9  10
ATOM     10  C   UNL     1     -28.548  21.206 -10.033  1.00  0.00     0.000 C 
BRANCH  10  11
ATOM     11  C   UNL     1     -27.254  21.687  -9.352  1.00  0.00     0.000 C 
BRANCH  11  12
ATOM     12  C   UNL     1     -27.275  21.441  -7.829  1.00  0.00     0.000 C 
BRANCH  12  13
ATOM     13  C   UNL     1     -26.063  20.645  -7.309  1.00  0.00     0.006 C 
BRANCH  13  14
ATOM     14  C   UNL     1     -24.701  21.200  -7.768  1.00  0.00     0.053 C 
BRANCH  14  15
ATOM     15  C   UNL     1     -23.830  21.618  -6.619  1.00  0.00     0.041 C 
ATOM     16  O   UNL     1     -24.177  21.370  -5.434  1.00  0.00    -0.550 OA
ATOM     17  O   UNL     1     -22.609  22.237  -6.858  1.00  0.00    -0.550 OA
ENDBRANCH  14  15
ENDBRANCH  13  14
ENDBRANCH  12  13
ENDBRANCH  11  12
ENDBRANCH  10  11
ENDBRANCH   9  10
ENDBRANCH   8   9
ENDBRANCH   7   8
ENDBRANCH   6   7
ENDBRANCH   5   6
ENDBRANCH   4   5
ENDBRANCH   3   4
ENDBRANCH   2   3
ENDBRANCH   1   2
BRANCH   1  18
ATOM     18  C   UNL     1     -30.464  18.497 -10.792  1.00  0.00     0.000 C 
BRANCH  18  19
ATOM     19  C   UNL     1     -29.441  17.406 -11.162  1.00  0.00     0.000 C 
BRANCH  19  20
ATOM     20  C   UNL     1     -30.066  16.265 -11.979  1.00  0.00     0.000 C 
BRANCH  20  21
ATOM     21  C   UNL     1     -31.138  15.493 -11.192  1.00  0.00     0.000 C 
BRANCH  21  22
ATOM     22  C   UNL     1     -31.030  13.973 -11.392  1.00  0.00     0.000 C 
BRANCH  22  23
ATOM     23  C   UNL     1     -32.260  13.221 -10.849  1.00  0.00     0.000 C 
BRANCH  23  24
ATOM     24  C   UNL     1     -32.164  11.694 -11.045  1.00  0.00    -0.000 C 
BRANCH  24  25
ATOM     25  C   UNL     1     -31.570  10.938  -9.841  1.00  0.00    -0.000 C 
BRANCH  25  26
ATOM     26  C   UNL     1     -32.598  10.339  -8.861  1.00  0.00    -0.000 C 
BRANCH  26  27
ATOM     27  C   UNL     1     -32.119   9.097  -8.084  1.00  0.00    -0.000 C 
BRANCH  27  28
ATOM     28  C   UNL     1     -32.037   7.837  -8.961  1.00  0.00    -0.000 C 
BRANCH  28  29
ATOM     29  C   UNL     1     -32.499   6.572  -8.219  1.00  0.00    -0.000 C 
BRANCH  29  30
ATOM     30  C   UNL     1     -31.339   5.818  -7.551  1.00  0.00    -0.000 C 
BRANCH  30  31
ATOM     31  C   UNL     1     -30.554   5.000  -8.582  1.00  0.00    -0.003 C 
ATOM     32  C   UNL     1     -29.112   4.781  -8.132  1.00  0.00     0.004 C 
ENDBRANCH  30  31
ENDBRANCH  29  30
ENDBRANCH  28  29
ENDBRANCH  27  28
ENDBRANCH  26  27
ENDBRANCH  25  26
ENDBRANCH  24  25
ENDBRANCH  23  24
ENDBRANCH  22  23
ENDBRANCH  21  22
ENDBRANCH  20  21
ENDBRANCH  19  20
ENDBRANCH  18  19
ENDBRANCH   1  18
TORSDOF 28
ENDMDL
MODEL 5
REMARK VINA RESULT:    21.140      8.890     10.376
REMARK INTER + INTRA:          59.074
REMARK INTER:                  57.815
REMARK INTRA:                   1.258
REMARK UNBOUND:                 3.330
REMARK SMILES CCCCCCCCCCCCCCCCCCCCCCCCCCCCCC(=O)[O-]
REMARK SMILES IDX 16 1 17 2 18 3 19 4 20 5 21 6 22 7 23 8 24 9 25 10 26 11
REMARK SMILES IDX 27 12 28 13 29 14 30 15 31 16 32 17 15 18 14 19 13 20 12 21
REMARK SMILES IDX 11 22 10 23 9 24 8 25 7 26 6 27 5 28 4 29 3 30 2 31 1 32
REMARK H PARENT
REMARK Flexibility Score: inf
ROOT
ATOM      1  C   UNL     1     -32.003  17.670 -10.373  1.00  0.00     0.000 C 
ENDROOT
BRANCH   1   2
ATOM      2  C   UNL     1     -30.643  18.294 -10.729  1.00  0.00     0.000 C 
BRANCH   2   3
ATOM      3  C   UNL     1     -29.595  17.243 -11.137  1.00  0.00     0.000 C 
BRANCH   3   4
ATOM      4  C   UNL     1     -30.166  15.996 -11.843  1.00  0.00     0.000 C 
BRANCH   4   5
ATOM      5  C   UNL     1     -31.288  15.265 -11.078  1.00  0.00     0.000 C 
BRANCH   5   6
ATOM      6  C   UNL     1     -31.052  13.758 -10.856  1.00  0.00     0.000 C 
BRANCH   6   7
ATOM      7  C   UNL     1     -32.042  12.834 -11.589  1.00  0.00     0.000 C 
BRANCH   7   8
ATOM      8  C   UNL     1     -32.626  11.747 -10.675  1.00  0.00     0.000 C 
BRANCH   8   9
ATOM      9  C   UNL     1     -31.558  10.708 -10.305  1.00  0.00     0.000 C 
BRANCH   9  10
ATOM     10  C   UNL     1     -31.530  10.406  -8.798  1.00  0.00     0.000 C 
BRANCH  10  11
ATOM     11  C   UNL     1     -32.438   9.223  -8.417  1.00  0.00     0.000 C 
BRANCH  11  12
ATOM     12  C   UNL     1     -31.639   7.917  -8.226  1.00  0.00     0.000 C 
BRANCH  12  13
ATOM     13  C   UNL     1     -32.357   6.663  -8.759  1.00  0.00     0.006 C 
BRANCH  13  14
ATOM     14  C   UNL     1     -31.915   5.349  -8.087  1.00  0.00     0.053 C 
BRANCH  14  15
ATOM     15  C   UNL     1     -30.486   5.386  -7.626  1.00  0.00     0.041 C 
ATOM     16  O   UNL     1     -29.611   4.698  -8.214  1.00  0.00    -0.550 OA
ATOM     17  O   UNL     1     -30.112   6.220  -6.580  1.00  0.00    -0.550 OA
ENDBRANCH  14  15
ENDBRANCH  13  14
ENDBRANCH  12  13
ENDBRANCH  11  12
ENDBRANCH  10  11
ENDBRANCH   9  10
ENDBRANCH   8   9
ENDBRANCH   7   8
ENDBRANCH   6   7
ENDBRANCH   5   6
ENDBRANCH   4   5
ENDBRANCH   3   4
ENDBRANCH   2   3
ENDBRANCH   1   2
BRANCH   1  18
ATOM     18  C   UNL     1     -33.162  18.669 -10.526  1.00  0.00     0.000 C 
BRANCH  18  19
ATOM     19  C   UNL     1     -32.688  20.132 -10.440  1.00  0.00     0.000 C 
BRANCH  19  20
ATOM     20  C   UNL     1     -33.646  21.015  -9.627  1.00  0.00     0.000 C 
BRANCH  20  21
ATOM     21  C   UNL     1     -33.744  22.446 -10.182  1.00  0.00     0.000 C 
BRANCH  21  22
ATOM     22  C   UNL     1     -32.362  23.072 -10.433  1.00  0.00     0.000 C 
BRANCH  22  23
ATOM     23  C   UNL     1     -31.225  22.038 -10.338  1.00  0.00     0.000 C 
BRANCH  23  24
ATOM     24  C   UNL     1     -30.046  22.355 -11.281  1.00  0.00    -0.000 C 
BRANCH  24  25
ATOM     25  C   UNL     1     -28.948  21.274 -11.307  1.00  0.00    -0.000 C 
BRANCH  25  26
ATOM     26  C   UNL     1     -28.314  20.939  -9.944  1.00  0.00    -0.000 C 
BRANCH  26  27
ATOM     27  C   UNL     1     -27.141  21.847  -9.523  1.00  0.00    -0.000 C 
BRANCH  27  28
ATOM     28  C   UNL     1     -26.755  21.680  -8.045  1.00  0.00    -0.000 C 
BRANCH  28  29
ATOM     29  C   UNL     1     -25.266  21.351  -7.858  1.00  0.00    -0.000 C 
BRANCH  29  30
ATOM     30  C   UNL     1     -24.983  20.589  -6.555  1.00  0.00    -0.000 C 
BRANCH  30  31
ATOM     31  C   UNL     1     -23.755  21.166  -5.841  1.00  0.00    -0.003 C 
ATOM     32  C   UNL     1     -23.221  22.398  -6.566  1.00  0.00     0.004 C 
ENDBRANCH  30  31
ENDBRANCH  29  30
ENDBRANCH  28  29
ENDBRANCH  27  28
ENDBRANCH  26  27
ENDBRANCH  25  26
ENDBRANCH  24  25
ENDBRANCH  23  24
ENDBRANCH  22  23
ENDBRANCH  21  22
ENDBRANCH  20  21
ENDBRANCH  19  20
ENDBRANCH  18  19
ENDBRANCH   1  18
TORSDOF 28
ENDMDL
MODEL 6
REMARK VINA RESULT:    21.607      6.316     14.470
REMARK INTER + INTRA:          60.305
REMARK INTER:                  61.077
REMARK INTRA:                  -0.772
REMARK UNBOUND:                 3.330
REMARK SMILES CCCCCCCCCCCCCCCCCCCCCCCCCCCCCC(=O)[O-]
REMARK SMILES IDX 16 1 17 2 18 3 19 4 20 5 21 6 22 7 23 8 24 9 25 10 26 11
REMARK SMILES IDX 27 12 28 13 29 14 30 15 31 16 32 17 15 18 14 19 13 20 12 21
REMARK SMILES IDX 11 22 10 23 9 24 8 25 7 26 6 27 5 28 4 29 3 30 2 31 1 32
REMARK H PARENT
REMARK Flexibility Score: inf
ROOT
ATOM      1  C   UNL     1     -32.416  17.075 -10.145  1.00  0.00     0.000 C 
ENDROOT
BRANCH   1   2
ATOM      2  C   UNL     1     -32.905  18.309 -10.922  1.00  0.00     0.000 C 
BRANCH   2   3
ATOM      3  C   UNL     1     -32.384  19.631 -10.331  1.00  0.00     0.000 C 
BRANCH   3   4
ATOM      4  C   UNL     1     -33.469  20.542  -9.721  1.00  0.00     0.000 C 
BRANCH   4   5
ATOM      5  C   UNL     1     -33.180  22.054  -9.808  1.00  0.00     0.000 C 
BRANCH   5   6
ATOM      6  C   UNL     1     -32.375  22.495 -11.047  1.00  0.00     0.000 C 
BRANCH   6   7
ATOM      7  C   UNL     1     -30.858  22.622 -10.820  1.00  0.00     0.000 C 
BRANCH   7   8
ATOM      8  C   UNL     1     -30.104  21.316 -11.110  1.00  0.00     0.000 C 
BRANCH   8   9
ATOM      9  C   UNL     1     -28.630  21.429 -10.696  1.00  0.00     0.000 C 
BRANCH   9  10
ATOM     10  C   UNL     1     -28.396  21.015  -9.234  1.00  0.00     0.000 C 
BRANCH  10  11
ATOM     11  C   UNL     1     -27.353  21.900  -8.529  1.00  0.00     0.000 C 
BRANCH  11  12
ATOM     12  C   UNL     1     -26.661  21.163  -7.363  1.00  0.00     0.000 C 
BRANCH  12  13
ATOM     13  C   UNL     1     -25.336  20.483  -7.754  1.00  0.00     0.006 C 
BRANCH  13  14
ATOM     14  C   UNL     1     -24.105  21.404  -7.668  1.00  0.00     0.053 C 
BRANCH  14  15
ATOM     15  C   UNL     1     -23.700  21.700  -6.253  1.00  0.00     0.041 C 
ATOM     16  O   UNL     1     -22.966  22.690  -5.996  1.00  0.00    -0.550 OA
ATOM     17  O   UNL     1     -24.175  20.912  -5.212  1.00  0.00    -0.550 OA
ENDBRANCH  14  15
ENDBRANCH  13  14
ENDBRANCH  12  13
ENDBRANCH  11  12
ENDBRANCH  10  11
ENDBRANCH   9  10
ENDBRANCH   8   9
ENDBRANCH   7   8
ENDBRANCH   6   7
ENDBRANCH   5   6
ENDBRANCH   4   5
ENDBRANCH   3   4
ENDBRANCH   2   3
ENDBRANCH   1   2
BRANCH   1  18
ATOM     18  C   UNL     1     -31.365  16.270 -10.926  1.00  0.00     0.000 C 
BRANCH  18  19
ATOM     19  C   UNL     1     -29.949  16.854 -10.775  1.00  0.00     0.000 C 
BRANCH  19  20
ATOM     20  C   UNL     1     -29.694  18.037 -11.722  1.00  0.00     0.000 C 
BRANCH  20  21
ATOM     21  C   UNL     1     -29.290  17.585 -13.135  1.00  0.00     0.000 C 
BRANCH  21  22
ATOM     22  C   UNL     1     -28.936  16.089 -13.193  1.00  0.00     0.000 C 
BRANCH  22  23
ATOM     23  C   UNL     1     -28.904  15.549 -14.634  1.00  0.00     0.000 C 
BRANCH  23  24
ATOM     24  C   UNL     1     -29.128  14.024 -14.708  1.00  0.00    -0.000 C 
BRANCH  24  25
ATOM     25  C   UNL     1     -27.838  13.190 -14.593  1.00  0.00    -0.000 C 
BRANCH  25  26
ATOM     26  C   UNL     1     -26.652  13.680 -15.446  1.00  0.00    -0.000 C 
BRANCH  26  27
ATOM     27  C   UNL     1     -25.442  12.728 -15.499  1.00  0.00    -0.000 C 
BRANCH  27  28
ATOM     28  C   UNL     1     -24.614  12.881 -16.785  1.00  0.00    -0.000 C 
BRANCH  28  29
ATOM     29  C   UNL     1     -23.897  11.581 -17.183  1.00  0.00    -0.000 C 
BRANCH  29  30
ATOM     30  C   UNL     1     -23.366  10.801 -15.972  1.00  0.00    -0.000 C 
BRANCH  30  31
ATOM     31  C   UNL     1     -22.373   9.718 -16.412  1.00  0.00    -0.003 C 
ATOM     32  C   UNL     1     -21.550   9.210 -15.232  1.00  0.00     0.004 C 
ENDBRANCH  30  31
ENDBRANCH  29  30
ENDBRANCH  28  29
ENDBRANCH  27  28
ENDBRANCH  26  27
ENDBRANCH  25  26
ENDBRANCH  24  25
ENDBRANCH  23  24
ENDBRANCH  22  23
ENDBRANCH  21  22
ENDBRANCH  20  21
ENDBRANCH  19  20
ENDBRANCH  18  19
ENDBRANCH   1  18
TORSDOF 28
ENDMDL
MODEL 7
REMARK VINA RESULT:    21.616      6.273     14.985
REMARK INTER + INTRA:          60.329
REMARK INTER:                  61.921
REMARK INTRA:                  -1.592
REMARK UNBOUND:                 3.330
REMARK SMILES CCCCCCCCCCCCCCCCCCCCCCCCCCCCCC(=O)[O-]
REMARK SMILES IDX 16 1 17 2 18 3 19 4 20 5 21 6 22 7 23 8 24 9 25 10 26 11
REMARK SMILES IDX 27 12 28 13 29 14 30 15 31 16 32 17 15 18 14 19 13 20 12 21
REMARK SMILES IDX 11 22 10 23 9 24 8 25 7 26 6 27 5 28 4 29 3 30 2 31 1 32
REMARK H PARENT
REMARK Flexibility Score: inf
ROOT
ATOM      1  C   UNL     1     -29.605  17.066 -11.143  1.00  0.00     0.000 C 
ENDROOT
BRANCH   1   2
ATOM      2  C   UNL     1     -30.581  18.053 -10.481  1.00  0.00     0.000 C 
BRANCH   2   3
ATOM      3  C   UNL     1     -32.019  17.508 -10.404  1.00  0.00     0.000 C 
BRANCH   3   4
ATOM      4  C   UNL     1     -33.113  18.582 -10.235  1.00  0.00     0.000 C 
BRANCH   4   5
ATOM      5  C   UNL     1     -32.808  19.939 -10.902  1.00  0.00     0.000 C 
BRANCH   5   6
ATOM      6  C   UNL     1     -32.679  21.129  -9.931  1.00  0.00     0.000 C 
BRANCH   6   7
ATOM      7  C   UNL     1     -31.403  21.972 -10.108  1.00  0.00     0.000 C 
BRANCH   7   8
ATOM      8  C   UNL     1     -30.383  21.313 -11.047  1.00  0.00     0.000 C 
BRANCH   8   9
ATOM      9  C   UNL     1     -28.952  21.738 -10.689  1.00  0.00     0.000 C 
BRANCH   9  10
ATOM     10  C   UNL     1     -28.501  21.195  -9.323  1.00  0.00     0.000 C 
BRANCH  10  11
ATOM     11  C   UNL     1     -27.153  21.783  -8.869  1.00  0.00     0.000 C 
BRANCH  11  12
ATOM     12  C   UNL     1     -26.696  21.204  -7.514  1.00  0.00     0.000 C 
BRANCH  12  13
ATOM     13  C   UNL     1     -25.221  20.762  -7.490  1.00  0.00     0.006 C 
BRANCH  13  14
ATOM     14  C   UNL     1     -24.461  21.170  -6.213  1.00  0.00     0.053 C 
BRANCH  14  15
ATOM     15  C   UNL     1     -23.372  22.167  -6.481  1.00  0.00     0.041 C 
ATOM     16  O   UNL     1     -23.402  22.878  -7.520  1.00  0.00    -0.550 OA
ATOM     17  O   UNL     1     -22.349  22.348  -5.558  1.00  0.00    -0.550 OA
ENDBRANCH  14  15
ENDBRANCH  13  14
ENDBRANCH  12  13
ENDBRANCH  11  12
ENDBRANCH  10  11
ENDBRANCH   9  10
ENDBRANCH   8   9
ENDBRANCH   7   8
ENDBRANCH   6   7
ENDBRANCH   5   6
ENDBRANCH   4   5
ENDBRANCH   3   4
ENDBRANCH   2   3
ENDBRANCH   1   2
BRANCH   1  18
ATOM     18  C   UNL     1     -29.750  17.036 -12.673  1.00  0.00     0.000 C 
BRANCH  18  19
ATOM     19  C   UNL     1     -29.519  15.630 -13.256  1.00  0.00     0.000 C 
BRANCH  19  20
ATOM     20  C   UNL     1     -28.722  15.659 -14.569  1.00  0.00     0.000 C 
BRANCH  20  21
ATOM     21  C   UNL     1     -28.031  14.318 -14.870  1.00  0.00     0.000 C 
BRANCH  21  22
ATOM     22  C   UNL     1     -26.771  14.490 -15.733  1.00  0.00     0.000 C 
BRANCH  22  23
ATOM     23  C   UNL     1     -25.587  13.651 -15.217  1.00  0.00     0.000 C 
BRANCH  23  24
ATOM     24  C   UNL     1     -25.207  12.500 -16.171  1.00  0.00    -0.000 C 
BRANCH  24  25
ATOM     25  C   UNL     1     -24.906  12.948 -17.614  1.00  0.00    -0.000 C 
BRANCH  25  26
ATOM     26  C   UNL     1     -23.593  12.411 -18.215  1.00  0.00    -0.000 C 
BRANCH  26  27
ATOM     27  C   UNL     1     -23.760  11.452 -19.410  1.00  0.00    -0.000 C 
BRANCH  27  28
ATOM     28  C   UNL     1     -23.663   9.971 -19.008  1.00  0.00    -0.000 C 
BRANCH  28  29
ATOM     29  C   UNL     1     -23.613   9.777 -17.484  1.00  0.00    -0.000 C 
BRANCH  29  30
ATOM     30  C   UNL     1     -22.208   9.423 -16.975  1.00  0.00    -0.000 C 
BRANCH  30  31
ATOM     31  C   UNL     1     -21.996   9.943 -15.549  1.00  0.00    -0.003 C 
ATOM     32  C   UNL     1     -21.740   8.797 -14.574  1.00  0.00     0.004 C 
ENDBRANCH  30  31
ENDBRANCH  29  30
ENDBRANCH  28  29
ENDBRANCH  27  28
ENDBRANCH  26  27
ENDBRANCH  25  26
ENDBRANCH  24  25
ENDBRANCH  23  24
ENDBRANCH  22  23
ENDBRANCH  21  22
ENDBRANCH  20  21
ENDBRANCH  19  20
ENDBRANCH  18  19
ENDBRANCH   1  18
TORSDOF 28
ENDMDL
MODEL 8
REMARK VINA RESULT:    22.096      5.952     14.827
REMARK INTER + INTRA:          61.596
REMARK INTER:                  61.088
REMARK INTRA:                   0.508
REMARK UNBOUND:                 3.330
REMARK SMILES CCCCCCCCCCCCCCCCCCCCCCCCCCCCCC(=O)[O-]
REMARK SMILES IDX 16 1 17 2 18 3 19 4 20 5 21 6 22 7 23 8 24 9 25 10 26 11
REMARK SMILES IDX 27 12 28 13 29 14 30 15 31 16 32 17 15 18 14 19 13 20 12 21
REMARK SMILES IDX 11 22 10 23 9 24 8 25 7 26 6 27 5 28 4 29 3 30 2 31 1 32
REMARK H PARENT
REMARK Flexibility Score: inf
ROOT
ATOM      1  C   UNL     1     -30.261  15.968 -11.424  1.00  0.00     0.000 C 
ENDROOT
BRANCH   1   2
ATOM      2  C   UNL     1     -31.528  16.517 -10.746  1.00  0.00     0.000 C 
BRANCH   2   3
ATOM      3  C   UNL     1     -31.378  17.982 -10.300  1.00  0.00     0.000 C 
BRANCH   3   4
ATOM      4  C   UNL     1     -32.671  18.819 -10.371  1.00  0.00     0.000 C 
BRANCH   4   5
ATOM      5  C   UNL     1     -32.467  20.318 -10.669  1.00  0.00     0.000 C 
BRANCH   5   6
ATOM      6  C   UNL     1     -33.259  21.278  -9.760  1.00  0.00     0.000 C 
BRANCH   6   7
ATOM      7  C   UNL     1     -33.103  22.771 -10.104  1.00  0.00     0.000 C 
BRANCH   7   8
ATOM      8  C   UNL     1     -31.728  23.100 -10.703  1.00  0.00     0.000 C 
BRANCH   8   9
ATOM      9  C   UNL     1     -30.838  21.851 -10.755  1.00  0.00     0.000 C 
BRANCH   9  10
ATOM     10  C   UNL     1     -29.702  21.981 -11.781  1.00  0.00     0.000 C 
BRANCH  10  11
ATOM     11  C   UNL     1     -28.358  21.454 -11.245  1.00  0.00     0.000 C 
BRANCH  11  12
ATOM     12  C   UNL     1     -27.192  22.414 -11.560  1.00  0.00     0.000 C 
BRANCH  12  13
ATOM     13  C   UNL     1     -26.280  22.703 -10.353  1.00  0.00     0.006 C 
BRANCH  13  14
ATOM     14  C   UNL     1     -26.908  22.356  -8.990  1.00  0.00     0.053 C 
BRANCH  14  15
ATOM     15  C   UNL     1     -26.083  21.379  -8.204  1.00  0.00     0.041 C 
ATOM     16  O   UNL     1     -26.616  20.672  -7.309  1.00  0.00    -0.550 OA
ATOM     17  O   UNL     1     -24.734  21.213  -8.494  1.00  0.00    -0.550 OA
ENDBRANCH  14  15
ENDBRANCH  13  14
ENDBRANCH  12  13
ENDBRANCH  11  12
ENDBRANCH  10  11
ENDBRANCH   9  10
ENDBRANCH   8   9
ENDBRANCH   7   8
ENDBRANCH   6   7
ENDBRANCH   5   6
ENDBRANCH   4   5
ENDBRANCH   3   4
ENDBRANCH   2   3
ENDBRANCH   1   2
BRANCH   1  18
ATOM     18  C   UNL     1     -29.507  17.047 -12.217  1.00  0.00     0.000 C 
BRANCH  18  19
ATOM     19  C   UNL     1     -29.303  16.654 -13.692  1.00  0.00     0.000 C 
BRANCH  19  20
ATOM     20  C   UNL     1     -29.159  15.136 -13.882  1.00  0.00     0.000 C 
BRANCH  20  21
ATOM     21  C   UNL     1     -28.313  14.774 -15.115  1.00  0.00     0.000 C 
BRANCH  21  22
ATOM     22  C   UNL     1     -27.508  13.480 -14.912  1.00  0.00     0.000 C 
BRANCH  22  23
ATOM     23  C   UNL     1     -26.097  13.566 -15.523  1.00  0.00     0.000 C 
BRANCH  23  24
ATOM     24  C   UNL     1     -26.077  13.247 -17.033  1.00  0.00    -0.000 C 
BRANCH  24  25
ATOM     25  C   UNL     1     -24.724  13.518 -17.718  1.00  0.00    -0.000 C 
BRANCH  25  26
ATOM     26  C   UNL     1     -24.685  13.257 -19.236  1.00  0.00    -0.000 C 
BRANCH  26  27
ATOM     27  C   UNL     1     -23.732  12.132 -19.686  1.00  0.00    -0.000 C 
BRANCH  27  28
ATOM     28  C   UNL     1     -23.876  10.853 -18.845  1.00  0.00    -0.000 C 
BRANCH  28  29
ATOM     29  C   UNL     1     -23.049  10.903 -17.551  1.00  0.00    -0.000 C 
BRANCH  29  30
ATOM     30  C   UNL     1     -23.301   9.694 -16.637  1.00  0.00    -0.000 C 
BRANCH  30  31
ATOM     31  C   UNL     1     -21.977   9.076 -16.173  1.00  0.00    -0.003 C 
ATOM     32  C   UNL     1     -21.447   9.777 -14.925  1.00  0.00     0.004 C 
ENDBRANCH  30  31
ENDBRANCH  29  30
ENDBRANCH  28  29
ENDBRANCH  27  28
ENDBRANCH  26  27
ENDBRANCH  25  26
ENDBRANCH  24  25
ENDBRANCH  23  24
ENDBRANCH  22  23
ENDBRANCH  21  22
ENDBRANCH  20  21
ENDBRANCH  19  20
ENDBRANCH  18  19
ENDBRANCH   1  18
TORSDOF 28
ENDMDL
MODEL 9
REMARK VINA RESULT:    22.222      8.796     10.692
REMARK INTER + INTRA:          61.926
REMARK INTER:                  62.804
REMARK INTRA:                  -0.878
REMARK UNBOUND:                 3.330
REMARK SMILES CCCCCCCCCCCCCCCCCCCCCCCCCCCCCC(=O)[O-]
REMARK SMILES IDX 16 1 17 2 18 3 19 4 20 5 21 6 22 7 23 8 24 9 25 10 26 11
REMARK SMILES IDX 27 12 28 13 29 14 30 15 31 16 32 17 15 18 14 19 13 20 12 21
REMARK SMILES IDX 11 22 10 23 9 24 8 25 7 26 6 27 5 28 4 29 3 30 2 31 1 32
REMARK H PARENT
REMARK Flexibility Score: inf
ROOT
ATOM      1  C   UNL     1     -32.558  19.720 -10.076  1.00  0.00     0.000 C 
ENDROOT
BRANCH   1   2
ATOM      2  C   UNL     1     -32.919  18.417 -10.808  1.00  0.00     0.000 C 
BRANCH   2   3
ATOM      3  C   UNL     1     -32.078  17.217 -10.338  1.00  0.00     0.000 C 
BRANCH   3   4
ATOM      4  C   UNL     1     -30.590  17.269 -10.741  1.00  0.00     0.000 C 
BRANCH   4   5
ATOM      5  C   UNL     1     -29.990  15.927 -11.209  1.00  0.00     0.000 C 
BRANCH   5   6
ATOM      6  C   UNL     1     -31.022  14.851 -11.601  1.00  0.00     0.000 C 
BRANCH   6   7
ATOM      7  C   UNL     1     -31.325  13.816 -10.502  1.00  0.00     0.000 C 
BRANCH   7   8
ATOM      8  C   UNL     1     -30.584  12.489 -10.718  1.00  0.00     0.000 C 
BRANCH   8   9
ATOM      9  C   UNL     1     -31.533  11.295 -10.540  1.00  0.00     0.000 C 
BRANCH   9  10
ATOM     10  C   UNL     1     -31.263  10.518  -9.241  1.00  0.00     0.000 C 
BRANCH  10  11
ATOM     11  C   UNL     1     -32.359   9.481  -8.935  1.00  0.00     0.000 C 
BRANCH  11  12
ATOM     12  C   UNL     1     -31.786   8.211  -8.273  1.00  0.00     0.000 C 
BRANCH  12  13
ATOM     13  C   UNL     1     -32.769   7.026  -8.243  1.00  0.00     0.006 C 
BRANCH  13  14
ATOM     14  C   UNL     1     -32.226   5.774  -7.528  1.00  0.00     0.053 C 
BRANCH  14  15
ATOM     15  C   UNL     1     -30.812   5.453  -7.916  1.00  0.00     0.041 C 
ATOM     16  O   UNL     1     -30.549   5.038  -9.075  1.00  0.00    -0.550 OA
ATOM     17  O   UNL     1     -29.777   5.660  -7.013  1.00  0.00    -0.550 OA
ENDBRANCH  14  15
ENDBRANCH  13  14
ENDBRANCH  12  13
ENDBRANCH  11  12
ENDBRANCH  10  11
ENDBRANCH   9  10
ENDBRANCH   8   9
ENDBRANCH   7   8
ENDBRANCH   6   7
ENDBRANCH   5   6
ENDBRANCH   4   5
ENDBRANCH   3   4
ENDBRANCH   2   3
ENDBRANCH   1   2
BRANCH   1  18
ATOM     18  C   UNL     1     -32.966  20.971 -10.872  1.00  0.00     0.000 C 
BRANCH  18  19
ATOM     19  C   UNL     1     -32.687  22.273 -10.099  1.00  0.00     0.000 C 
BRANCH  19  20
ATOM     20  C   UNL     1     -31.290  22.842 -10.388  1.00  0.00     0.000 C 
BRANCH  20  21
ATOM     21  C   UNL     1     -30.437  21.902 -11.257  1.00  0.00     0.000 C 
BRANCH  21  22
ATOM     22  C   UNL     1     -29.714  22.649 -12.390  1.00  0.00     0.000 C 
BRANCH  22  23
ATOM     23  C   UNL     1     -28.291  22.110 -12.632  1.00  0.00     0.000 C 
BRANCH  23  24
ATOM     24  C   UNL     1     -27.567  21.725 -11.325  1.00  0.00    -0.000 C 
BRANCH  24  25
ATOM     25  C   UNL     1     -26.326  22.584 -11.013  1.00  0.00    -0.000 C 
BRANCH  25  26
ATOM     26  C   UNL     1     -25.836  22.537  -9.553  1.00  0.00    -0.000 C 
BRANCH  26  27
ATOM     27  C   UNL     1     -26.896  22.118  -8.517  1.00  0.00    -0.000 C 
BRANCH  27  28
ATOM     28  C   UNL     1     -26.532  20.819  -7.778  1.00  0.00    -0.000 C 
BRANCH  28  29
ATOM     29  C   UNL     1     -25.286  20.976  -6.891  1.00  0.00    -0.000 C 
BRANCH  29  30
ATOM     30  C   UNL     1     -24.001  21.189  -7.704  1.00  0.00    -0.000 C 
BRANCH  30  31
ATOM     31  C   UNL     1     -23.120  22.267  -7.061  1.00  0.00    -0.003 C 
ATOM     32  C   UNL     1     -23.108  22.138  -5.540  1.00  0.00     0.004 C 
ENDBRANCH  30  31
ENDBRANCH  29  30
ENDBRANCH  28  29
ENDBRANCH  27  28
ENDBRANCH  26  27
ENDBRANCH  25  26
ENDBRANCH  24  25
ENDBRANCH  23  24
ENDBRANCH  22  23
ENDBRANCH  21  22
ENDBRANCH  20  21
ENDBRANCH  19  20
ENDBRANCH  18  19
ENDBRANCH   1  18
TORSDOF 28
ENDMDL
