MODEL 1
REMARK VINA RESULT:    -3.998      0.000      0.000
REMARK INTER + INTRA:          -5.601
REMARK INTER:                  -5.634
REMARK INTRA:                   0.032
REMARK UNBOUND:                 0.032
REMARK SMILES CCCCCCCCC(=O)[O-]
REMARK SMILES IDX 6 1 7 2 8 3 9 4 10 5 11 6 5 7 4 8 3 9 2 10 1 11
REMARK H PARENT
REMARK Flexibility Score: inf
ROOT
ATOM      1  C   UNL     1       2.177 -21.379   9.058  1.00  0.00     0.000 C 
ENDROOT
BRANCH   1   2
ATOM      2  C   UNL     1       3.342 -20.500   8.565  1.00  0.00     0.006 C 
BRANCH   2   3
ATOM      3  C   UNL     1       4.112 -21.156   7.412  1.00  0.00     0.053 C 
BRANCH   3   4
ATOM      4  C   UNL     1       3.406 -20.985   6.103  1.00  0.00     0.041 C 
ATOM      5  O   UNL     1       2.222 -20.557   6.071  1.00  0.00    -0.550 OA
ATOM      6  O   UNL     1       4.065 -21.270   4.915  1.00  0.00    -0.550 OA
ENDBRANCH   3   4
ENDBRANCH   2   3
ENDBRANCH   1   2
BRANCH   1   7
ATOM      7  C   UNL     1       2.539 -22.196  10.309  1.00  0.00     0.000 C 
BRANCH   7   8
ATOM      8  C   UNL     1       3.959 -22.786  10.239  1.00  0.00    -0.000 C 
BRANCH   8   9
ATOM      9  C   UNL     1       3.963 -24.262   9.808  1.00  0.00    -0.000 C 
BRANCH   9  10
ATOM     10  C   UNL     1       3.203 -24.499   8.495  1.00  0.00    -0.003 C 
ATOM     11  C   UNL     1       4.125 -25.076   7.424  1.00  0.00     0.004 C 
ENDBRANCH   9  10
ENDBRANCH   8   9
ENDBRANCH   7   8
ENDBRANCH   1   7
TORSDOF 7
ENDMDL
MODEL 2
REMARK VINA RESULT:    -3.647     19.295     19.892
REMARK INTER + INTRA:          -5.107
REMARK INTER:                  -4.752
REMARK INTRA:                  -0.355
REMARK UNBOUND:                 0.032
REMARK SMILES CCCCCCCCC(=O)[O-]
REMARK SMILES IDX 6 1 7 2 8 3 9 4 10 5 11 6 5 7 4 8 3 9 2 10 1 11
REMARK H PARENT
REMARK Flexibility Score: inf
ROOT
ATOM      1  C   UNL     1      -2.487  -8.202  19.744  1.00  0.00     0.000 C 
ENDROOT
BRANCH   1   2
ATOM      2  C   UNL     1      -1.481  -7.121  20.180  1.00  0.00     0.006 C 
BRANCH   2   3
ATOM      3  C   UNL     1      -1.723  -5.786  19.464  1.00  0.00     0.053 C 
BRANCH   3   4
ATOM      4  C   UNL     1      -0.443  -5.170  18.988  1.00  0.00     0.041 C 
ATOM      5  O   UNL     1       0.492  -4.942  19.800  1.00  0.00    -0.550 OA
ATOM      6  O   UNL     1      -0.272  -4.875  17.642  1.00  0.00    -0.550 OA
ENDBRANCH   3   4
ENDBRANCH   2   3
ENDBRANCH   1   2
BRANCH   1   7
ATOM      7  C   UNL     1      -3.312  -7.784  18.516  1.00  0.00     0.000 C 
BRANCH   7   8
ATOM      8  C   UNL     1      -4.658  -8.525  18.429  1.00  0.00    -0.000 C 
BRANCH   8   9
ATOM      9  C   UNL     1      -4.882  -9.481  19.611  1.00  0.00    -0.000 C 
BRANCH   9  10
ATOM     10  C   UNL     1      -6.287 -10.101  19.615  1.00  0.00    -0.003 C 
ATOM     11  C   UNL     1      -7.246  -9.291  18.748  1.00  0.00     0.004 C 
ENDBRANCH   9  10
ENDBRANCH   8   9
ENDBRANCH   7   8
ENDBRANCH   1   7
TORSDOF 7
ENDMDL
MODEL 3
REMARK VINA RESULT:    -3.604     19.293     20.232
REMARK INTER + INTRA:          -5.047
REMARK INTER:                  -4.914
REMARK INTRA:                  -0.133
REMARK UNBOUND:                 0.032
REMARK SMILES CCCCCCCCC(=O)[O-]
REMARK SMILES IDX 6 1 7 2 8 3 9 4 10 5 11 6 5 7 4 8 3 9 2 10 1 11
REMARK H PARENT
REMARK Flexibility Score: inf
ROOT
ATOM      1  C   UNL     1      -3.375  -8.064  18.692  1.00  0.00     0.000 C 
ENDROOT
BRANCH   1   2
ATOM      2  C   UNL     1      -4.500  -8.986  19.196  1.00  0.00     0.006 C 
BRANCH   2   3
ATOM      3  C   UNL     1      -5.791  -8.818  18.384  1.00  0.00     0.053 C 
BRANCH   3   4
ATOM      4  C   UNL     1      -6.929  -9.585  18.984  1.00  0.00     0.041 C 
ATOM      5  O   UNL     1      -8.087  -9.484  18.501  1.00  0.00    -0.550 OA
ATOM      6  O   UNL     1      -6.704 -10.435  20.059  1.00  0.00    -0.550 OA
ENDBRANCH   3   4
ENDBRANCH   2   3
ENDBRANCH   1   2
BRANCH   1   7
ATOM      7  C   UNL     1      -2.329  -7.758  19.777  1.00  0.00     0.000 C 
BRANCH   7   8
ATOM      8  C   UNL     1      -1.752  -6.336  19.659  1.00  0.00    -0.000 C 
BRANCH   8   9
ATOM      9  C   UNL     1      -0.795  -5.991  20.811  1.00  0.00    -0.000 C 
BRANCH   9  10
ATOM     10  C   UNL     1       0.329  -5.037  20.381  1.00  0.00    -0.003 C 
ATOM     11  C   UNL     1       1.700  -5.674  20.592  1.00  0.00     0.004 C 
ENDBRANCH   9  10
ENDBRANCH   8   9
ENDBRANCH   7   8
ENDBRANCH   1   7
TORSDOF 7
ENDMDL
MODEL 4
REMARK VINA RESULT:    -3.593     17.142     18.421
REMARK INTER + INTRA:          -5.031
REMARK INTER:                  -4.695
REMARK INTRA:                  -0.336
REMARK UNBOUND:                 0.032
REMARK SMILES CCCCCCCCC(=O)[O-]
REMARK SMILES IDX 6 1 7 2 8 3 9 4 10 5 11 6 5 7 4 8 3 9 2 10 1 11
REMARK H PARENT
REMARK Flexibility Score: inf
ROOT
ATOM      1  C   UNL     1     -15.057 -15.909   5.429  1.00  0.00     0.000 C 
ENDROOT
BRANCH   1   2
ATOM      2  C   UNL     1     -14.245 -14.813   4.714  1.00  0.00     0.006 C 
BRANCH   2   3
ATOM      3  C   UNL     1     -14.484 -13.426   5.324  1.00  0.00     0.053 C 
BRANCH   3   4
ATOM      4  C   UNL     1     -13.219 -12.629   5.405  1.00  0.00     0.041 C 
ATOM      5  O   UNL     1     -12.901 -11.846   4.471  1.00  0.00    -0.550 OA
ATOM      6  O   UNL     1     -12.405 -12.728   6.525  1.00  0.00    -0.550 OA
ENDBRANCH   3   4
ENDBRANCH   2   3
ENDBRANCH   1   2
BRANCH   1   7
ATOM      7  C   UNL     1     -14.705 -17.323   4.939  1.00  0.00     0.000 C 
BRANCH   7   8
ATOM      8  C   UNL     1     -14.349 -18.277   6.092  1.00  0.00    -0.000 C 
BRANCH   8   9
ATOM      9  C   UNL     1     -13.286 -19.314   5.694  1.00  0.00    -0.000 C 
BRANCH   9  10
ATOM     10  C   UNL     1     -12.307 -18.783   4.636  1.00  0.00    -0.003 C 
ATOM     11  C   UNL     1     -10.953 -18.453   5.259  1.00  0.00     0.004 C 
ENDBRANCH   9  10
ENDBRANCH   8   9
ENDBRANCH   7   8
ENDBRANCH   1   7
TORSDOF 7
ENDMDL
MODEL 5
REMARK VINA RESULT:    -3.508     17.521     18.770
REMARK INTER + INTRA:          -4.912
REMARK INTER:                  -4.597
REMARK INTRA:                  -0.314
REMARK UNBOUND:                 0.032
REMARK SMILES CCCCCCCCC(=O)[O-]
REMARK SMILES IDX 6 1 7 2 8 3 9 4 10 5 11 6 5 7 4 8 3 9 2 10 1 11
REMARK H PARENT
REMARK Flexibility Score: inf
ROOT
ATOM      1  C   UNL     1     -15.013 -15.470   5.423  1.00  0.00     0.000 C 
ENDROOT
BRANCH   1   2
ATOM      2  C   UNL     1     -14.207 -14.387   4.683  1.00  0.00     0.006 C 
BRANCH   2   3
ATOM      3  C   UNL     1     -13.853 -13.206   5.596  1.00  0.00     0.053 C 
BRANCH   3   4
ATOM      4  C   UNL     1     -13.570 -11.962   4.812  1.00  0.00     0.041 C 
ATOM      5  O   UNL     1     -14.368 -10.989   4.855  1.00  0.00    -0.550 OA
ATOM      6  O   UNL     1     -12.409 -11.865   4.056  1.00  0.00    -0.550 OA
ENDBRANCH   3   4
ENDBRANCH   2   3
ENDBRANCH   1   2
BRANCH   1   7
ATOM      7  C   UNL     1     -14.752 -16.882   4.872  1.00  0.00     0.000 C 
BRANCH   7   8
ATOM      8  C   UNL     1     -14.775 -17.959   5.971  1.00  0.00    -0.000 C 
BRANCH   8   9
ATOM      9  C   UNL     1     -13.528 -18.857   5.942  1.00  0.00    -0.000 C 
BRANCH   9  10
ATOM     10  C   UNL     1     -12.653 -18.618   4.703  1.00  0.00    -0.003 C 
ATOM     11  C   UNL     1     -11.177 -18.532   5.081  1.00  0.00     0.004 C 
ENDBRANCH   9  10
ENDBRANCH   8   9
ENDBRANCH   7   8
ENDBRANCH   1   7
TORSDOF 7
ENDMDL
MODEL 6
REMARK VINA RESULT:    -3.477     16.825     18.445
REMARK INTER + INTRA:          -4.868
REMARK INTER:                  -4.562
REMARK INTRA:                  -0.307
REMARK UNBOUND:                 0.032
REMARK SMILES CCCCCCCCC(=O)[O-]
REMARK SMILES IDX 6 1 7 2 8 3 9 4 10 5 11 6 5 7 4 8 3 9 2 10 1 11
REMARK H PARENT
REMARK Flexibility Score: inf
ROOT
ATOM      1  C   UNL     1     -13.409 -16.659   2.972  1.00  0.00     0.000 C 
ENDROOT
BRANCH   1   2
ATOM      2  C   UNL     1     -13.460 -18.190   3.121  1.00  0.00     0.006 C 
BRANCH   2   3
ATOM      3  C   UNL     1     -12.085 -18.785   3.448  1.00  0.00     0.053 C 
BRANCH   3   4
ATOM      4  C   UNL     1     -11.783 -18.716   4.913  1.00  0.00     0.041 C 
ATOM      5  O   UNL     1     -10.640 -18.366   5.311  1.00  0.00    -0.550 OA
ATOM      6  O   UNL     1     -12.773 -19.012   5.842  1.00  0.00    -0.550 OA
ENDBRANCH   3   4
ENDBRANCH   2   3
ENDBRANCH   1   2
BRANCH   1   7
ATOM      7  C   UNL     1     -14.106 -15.927   4.131  1.00  0.00     0.000 C 
BRANCH   7   8
ATOM      8  C   UNL     1     -14.077 -14.397   3.967  1.00  0.00    -0.000 C 
BRANCH   8   9
ATOM      9  C   UNL     1     -14.280 -13.657   5.299  1.00  0.00    -0.000 C 
BRANCH   9  10
ATOM     10  C   UNL     1     -13.180 -12.624   5.577  1.00  0.00    -0.003 C 
ATOM     11  C   UNL     1     -12.764 -11.906   4.296  1.00  0.00     0.004 C 
ENDBRANCH   9  10
ENDBRANCH   8   9
ENDBRANCH   7   8
ENDBRANCH   1   7
TORSDOF 7
ENDMDL
MODEL 7
REMARK VINA RESULT:    -3.408     17.059     18.661
REMARK INTER + INTRA:          -4.771
REMARK INTER:                  -4.365
REMARK INTRA:                  -0.406
REMARK UNBOUND:                 0.032
REMARK SMILES CCCCCCCCC(=O)[O-]
REMARK SMILES IDX 6 1 7 2 8 3 9 4 10 5 11 6 5 7 4 8 3 9 2 10 1 11
REMARK H PARENT
REMARK Flexibility Score: inf
ROOT
ATOM      1  C   UNL     1     -15.288 -17.783   5.591  1.00  0.00     0.000 C 
ENDROOT
BRANCH   1   2
ATOM      2  C   UNL     1     -14.181 -18.414   6.455  1.00  0.00     0.006 C 
BRANCH   2   3
ATOM      3  C   UNL     1     -13.462 -19.557   5.727  1.00  0.00     0.053 C 
BRANCH   3   4
ATOM      4  C   UNL     1     -12.426 -19.046   4.775  1.00  0.00     0.041 C 
ATOM      5  O   UNL     1     -12.628 -19.089   3.533  1.00  0.00    -0.550 OA
ATOM      6  O   UNL     1     -11.247 -18.495   5.260  1.00  0.00    -0.550 OA
ENDBRANCH   3   4
ENDBRANCH   2   3
ENDBRANCH   1   2
BRANCH   1   7
ATOM      7  C   UNL     1     -15.154 -16.255   5.480  1.00  0.00     0.000 C 
BRANCH   7   8
ATOM      8  C   UNL     1     -14.162 -15.828   4.383  1.00  0.00    -0.000 C 
BRANCH   8   9
ATOM      9  C   UNL     1     -14.215 -14.319   4.096  1.00  0.00    -0.000 C 
BRANCH   9  10
ATOM     10  C   UNL     1     -14.227 -13.471   5.376  1.00  0.00    -0.003 C 
ATOM     11  C   UNL     1     -13.138 -12.403   5.337  1.00  0.00     0.004 C 
ENDBRANCH   9  10
ENDBRANCH   8   9
ENDBRANCH   7   8
ENDBRANCH   1   7
TORSDOF 7
ENDMDL
