MODEL 1
REMARK VINA RESULT:    -3.859      0.000      0.000
REMARK INTER + INTRA:          -9.006
REMARK INTER:                  -7.243
REMARK INTRA:                  -1.762
REMARK UNBOUND:                -1.762
REMARK SMILES O=C([O-])CCCCCCCCCCCCCCC(=O)[O-]
REMARK SMILES IDX 10 1 9 2 8 3 7 4 6 5 5 6 4 7 2 8 1 9 3 10 11 11 12 12 13 13
REMARK SMILES IDX 14 14 15 15 16 16 17 17 18 18 19 19 20 20
REMARK H PARENT
REMARK Flexibility Score: inf
ROOT
ATOM      1  C   UNL     1      23.685 -15.306  -2.684  1.00  0.00     0.000 C 
ENDROOT
BRANCH   1   2
ATOM      2  C   UNL     1      24.263 -15.828  -4.005  1.00  0.00     0.000 C 
BRANCH   2   3
ATOM      3  C   UNL     1      25.420 -16.807  -3.748  1.00  0.00     0.000 C 
BRANCH   3   4
ATOM      4  C   UNL     1      26.793 -16.116  -3.754  1.00  0.00     0.000 C 
BRANCH   4   5
ATOM      5  C   UNL     1      27.713 -16.617  -2.631  1.00  0.00     0.000 C 
BRANCH   5   6
ATOM      6  C   UNL     1      29.034 -15.839  -2.616  1.00  0.00     0.006 C 
BRANCH   6   7
ATOM      7  C   UNL     1      30.232 -16.788  -2.708  1.00  0.00     0.053 C 
BRANCH   7   8
ATOM      8  C   UNL     1      30.314 -17.650  -1.488  1.00  0.00     0.041 C 
ATOM      9  O   UNL     1      30.376 -17.126  -0.346  1.00  0.00    -0.550 OA
ATOM     10  O   UNL     1      30.373 -19.032  -1.616  1.00  0.00    -0.550 OA
ENDBRANCH   7   8
ENDBRANCH   6   7
ENDBRANCH   5   6
ENDBRANCH   4   5
ENDBRANCH   3   4
ENDBRANCH   2   3
ENDBRANCH   1   2
BRANCH   1  11
ATOM     11  C   UNL     1      24.031 -13.824  -2.479  1.00  0.00     0.000 C 
BRANCH  11  12
ATOM     12  C   UNL     1      24.682 -13.543  -1.113  1.00  0.00     0.000 C 
BRANCH  12  13
ATOM     13  C   UNL     1      26.223 -13.607  -1.095  1.00  0.00     0.000 C 
BRANCH  13  14
ATOM     14  C   UNL     1      26.864 -13.526   0.303  1.00  0.00     0.000 C 
BRANCH  14  15
ATOM     15  C   UNL     1      27.868 -14.650   0.622  1.00  0.00     0.000 C 
BRANCH  15  16
ATOM     16  C   UNL     1      29.301 -14.143   0.891  1.00  0.00     0.006 C 
BRANCH  16  17
ATOM     17  C   UNL     1      29.528 -12.717   0.372  1.00  0.00     0.053 C 
BRANCH  17  18
ATOM     18  C   UNL     1      29.986 -11.824   1.480  1.00  0.00     0.041 C 
ATOM     19  O   UNL     1      29.612 -12.039   2.663  1.00  0.00    -0.550 OA
ATOM     20  O   UNL     1      30.788 -10.725   1.201  1.00  0.00    -0.550 OA
ENDBRANCH  17  18
ENDBRANCH  16  17
ENDBRANCH  15  16
ENDBRANCH  14  15
ENDBRANCH  13  14
ENDBRANCH  12  13
ENDBRANCH  11  12
ENDBRANCH   1  11
TORSDOF 15
ENDMDL
MODEL 2
REMARK VINA RESULT:    -3.835      1.538      2.037
REMARK INTER + INTRA:          -8.960
REMARK INTER:                  -7.363
REMARK INTRA:                  -1.597
REMARK UNBOUND:                -1.762
REMARK SMILES O=C([O-])CCCCCCCCCCCCCCC(=O)[O-]
REMARK SMILES IDX 10 1 9 2 8 3 7 4 6 5 5 6 4 7 2 8 1 9 3 10 11 11 12 12 13 13
REMARK SMILES IDX 14 14 15 15 16 16 17 17 18 18 19 19 20 20
REMARK H PARENT
REMARK Flexibility Score: inf
ROOT
ATOM      1  C   UNL     1      22.898 -15.499  -2.151  1.00  0.00     0.000 C 
ENDROOT
BRANCH   1   2
ATOM      2  C   UNL     1      23.192 -16.825  -2.864  1.00  0.00     0.000 C 
BRANCH   2   3
ATOM      3  C   UNL     1      24.175 -16.617  -4.026  1.00  0.00     0.000 C 
BRANCH   3   4
ATOM      4  C   UNL     1      25.613 -17.022  -3.667  1.00  0.00     0.000 C 
BRANCH   4   5
ATOM      5  C   UNL     1      26.595 -15.843  -3.728  1.00  0.00     0.000 C 
BRANCH   5   6
ATOM      6  C   UNL     1      27.993 -16.268  -3.264  1.00  0.00     0.006 C 
BRANCH   6   7
ATOM      7  C   UNL     1      29.070 -15.356  -3.860  1.00  0.00     0.053 C 
BRANCH   7   8
ATOM      8  C   UNL     1      29.812 -14.642  -2.774  1.00  0.00     0.041 C 
ATOM      9  O   UNL     1      29.865 -13.385  -2.764  1.00  0.00    -0.550 OA
ATOM     10  O   UNL     1      30.488 -15.368  -1.801  1.00  0.00    -0.550 OA
ENDBRANCH   7   8
ENDBRANCH   6   7
ENDBRANCH   5   6
ENDBRANCH   4   5
ENDBRANCH   3   4
ENDBRANCH   2   3
ENDBRANCH   1   2
BRANCH   1  11
ATOM     11  C   UNL     1      23.100 -14.308  -3.099  1.00  0.00     0.000 C 
BRANCH  11  12
ATOM     12  C   UNL     1      24.115 -13.282  -2.565  1.00  0.00     0.000 C 
BRANCH  12  13
ATOM     13  C   UNL     1      24.660 -13.572  -1.152  1.00  0.00     0.000 C 
BRANCH  13  14
ATOM     14  C   UNL     1      26.196 -13.616  -1.040  1.00  0.00     0.000 C 
BRANCH  14  15
ATOM     15  C   UNL     1      26.742 -13.590   0.400  1.00  0.00     0.000 C 
BRANCH  15  16
ATOM     16  C   UNL     1      28.256 -13.876   0.494  1.00  0.00     0.006 C 
BRANCH  16  17
ATOM     17  C   UNL     1      28.800 -13.705   1.918  1.00  0.00     0.053 C 
BRANCH  17  18
ATOM     18  C   UNL     1      29.802 -12.595   1.964  1.00  0.00     0.041 C 
ATOM     19  O   UNL     1      29.702 -11.686   2.829  1.00  0.00    -0.550 OA
ATOM     20  O   UNL     1      30.820 -12.538   1.021  1.00  0.00    -0.550 OA
ENDBRANCH  17  18
ENDBRANCH  16  17
ENDBRANCH  15  16
ENDBRANCH  14  15
ENDBRANCH  13  14
ENDBRANCH  12  13
ENDBRANCH  11  12
ENDBRANCH   1  11
TORSDOF 15
ENDMDL
MODEL 3
REMARK VINA RESULT:    -3.746      2.750      5.970
REMARK INTER + INTRA:          -8.794
REMARK INTER:                  -6.844
REMARK INTRA:                  -1.949
REMARK UNBOUND:                -1.762
REMARK SMILES O=C([O-])CCCCCCCCCCCCCCC(=O)[O-]
REMARK SMILES IDX 10 1 9 2 8 3 7 4 6 5 5 6 4 7 2 8 1 9 3 10 11 11 12 12 13 13
REMARK SMILES IDX 14 14 15 15 16 16 17 17 18 18 19 19 20 20
REMARK H PARENT
REMARK Flexibility Score: inf
ROOT
ATOM      1  C   UNL     1      28.992 -14.248   1.838  1.00  0.00     0.000 C 
ENDROOT
BRANCH   1   2
ATOM      2  C   UNL     1      27.778 -13.463   1.326  1.00  0.00     0.000 C 
BRANCH   2   3
ATOM      3  C   UNL     1      27.269 -14.043  -0.003  1.00  0.00     0.000 C 
BRANCH   3   4
ATOM      4  C   UNL     1      25.990 -13.353  -0.500  1.00  0.00     0.000 C 
BRANCH   4   5
ATOM      5  C   UNL     1      25.532 -13.869  -1.872  1.00  0.00     0.000 C 
BRANCH   5   6
ATOM      6  C   UNL     1      24.002 -13.945  -1.947  1.00  0.00     0.006 C 
BRANCH   6   7
ATOM      7  C   UNL     1      23.549 -14.634  -3.238  1.00  0.00     0.053 C 
BRANCH   7   8
ATOM      8  C   UNL     1      23.608 -16.121  -3.087  1.00  0.00     0.041 C 
ATOM      9  O   UNL     1      22.863 -16.703  -2.256  1.00  0.00    -0.550 OA
ATOM     10  O   UNL     1      24.522 -16.859  -3.829  1.00  0.00    -0.550 OA
ENDBRANCH   7   8
ENDBRANCH   6   7
ENDBRANCH   5   6
ENDBRANCH   4   5
ENDBRANCH   3   4
ENDBRANCH   2   3
ENDBRANCH   1   2
BRANCH   1  11
ATOM     11  C   UNL     1      29.590 -15.123   0.727  1.00  0.00     0.000 C 
BRANCH  11  12
ATOM     12  C   UNL     1      30.953 -14.610   0.228  1.00  0.00     0.000 C 
BRANCH  12  13
ATOM     13  C   UNL     1      31.067 -13.078   0.092  1.00  0.00     0.000 C 
BRANCH  13  14
ATOM     14  C   UNL     1      30.416 -12.484  -1.172  1.00  0.00     0.000 C 
BRANCH  14  15
ATOM     15  C   UNL     1      30.593 -13.326  -2.449  1.00  0.00     0.000 C 
BRANCH  15  16
ATOM     16  C   UNL     1      29.270 -13.903  -2.998  1.00  0.00     0.006 C 
BRANCH  16  17
ATOM     17  C   UNL     1      29.461 -15.263  -3.683  1.00  0.00     0.053 C 
BRANCH  17  18
ATOM     18  C   UNL     1      29.019 -16.369  -2.778  1.00  0.00     0.041 C 
ATOM     19  O   UNL     1      27.796 -16.533  -2.527  1.00  0.00    -0.550 OA
ATOM     20  O   UNL     1      29.961 -17.191  -2.173  1.00  0.00    -0.550 OA
ENDBRANCH  17  18
ENDBRANCH  16  17
ENDBRANCH  15  16
ENDBRANCH  14  15
ENDBRANCH  13  14
ENDBRANCH  12  13
ENDBRANCH  11  12
ENDBRANCH   1  11
TORSDOF 15
ENDMDL
MODEL 4
REMARK VINA RESULT:    -3.640      2.542      5.909
REMARK INTER + INTRA:          -8.594
REMARK INTER:                  -6.859
REMARK INTRA:                  -1.735
REMARK UNBOUND:                -1.762
REMARK SMILES O=C([O-])CCCCCCCCCCCCCCC(=O)[O-]
REMARK SMILES IDX 10 1 9 2 8 3 7 4 6 5 5 6 4 7 2 8 1 9 3 10 11 11 12 12 13 13
REMARK SMILES IDX 14 14 15 15 16 16 17 17 18 18 19 19 20 20
REMARK H PARENT
REMARK Flexibility Score: inf
ROOT
ATOM      1  C   UNL     1      29.405 -14.085   1.489  1.00  0.00     0.000 C 
ENDROOT
BRANCH   1   2
ATOM      2  C   UNL     1      29.641 -12.622   1.094  1.00  0.00     0.000 C 
BRANCH   2   3
ATOM      3  C   UNL     1      30.828 -12.499   0.127  1.00  0.00     0.000 C 
BRANCH   3   4
ATOM      4  C   UNL     1      30.394 -12.490  -1.347  1.00  0.00     0.000 C 
BRANCH   4   5
ATOM      5  C   UNL     1      30.368 -13.896  -1.966  1.00  0.00     0.000 C 
BRANCH   5   6
ATOM      6  C   UNL     1      29.219 -14.031  -2.973  1.00  0.00     0.006 C 
BRANCH   6   7
ATOM      7  C   UNL     1      28.581 -15.421  -2.896  1.00  0.00     0.053 C 
BRANCH   7   8
ATOM      8  C   UNL     1      29.637 -16.482  -2.875  1.00  0.00     0.041 C 
ATOM      9  O   UNL     1      30.291 -16.744  -3.918  1.00  0.00    -0.550 OA
ATOM     10  O   UNL     1      29.863 -17.216  -1.717  1.00  0.00    -0.550 OA
ENDBRANCH   7   8
ENDBRANCH   6   7
ENDBRANCH   5   6
ENDBRANCH   4   5
ENDBRANCH   3   4
ENDBRANCH   2   3
ENDBRANCH   1   2
BRANCH   1  11
ATOM     11  C   UNL     1      28.106 -14.620   0.869  1.00  0.00     0.000 C 
BRANCH  11  12
ATOM     12  C   UNL     1      27.164 -13.501   0.391  1.00  0.00     0.000 C 
BRANCH  12  13
ATOM     13  C   UNL     1      26.260 -13.870  -0.803  1.00  0.00     0.000 C 
BRANCH  13  14
ATOM     14  C   UNL     1      24.834 -13.288  -0.747  1.00  0.00     0.000 C 
BRANCH  14  15
ATOM     15  C   UNL     1      23.992 -13.514  -2.017  1.00  0.00     0.000 C 
BRANCH  15  16
ATOM     16  C   UNL     1      24.783 -14.150  -3.180  1.00  0.00     0.006 C 
BRANCH  16  17
ATOM     17  C   UNL     1      23.936 -15.132  -4.000  1.00  0.00     0.053 C 
BRANCH  17  18
ATOM     18  C   UNL     1      24.010 -16.504  -3.410  1.00  0.00     0.041 C 
ATOM     19  O   UNL     1      24.977 -17.261  -3.686  1.00  0.00    -0.550 OA
ATOM     20  O   UNL     1      22.987 -16.965  -2.592  1.00  0.00    -0.550 OA
ENDBRANCH  17  18
ENDBRANCH  16  17
ENDBRANCH  15  16
ENDBRANCH  14  15
ENDBRANCH  13  14
ENDBRANCH  12  13
ENDBRANCH  11  12
ENDBRANCH   1  11
TORSDOF 15
ENDMDL
MODEL 5
REMARK VINA RESULT:    -3.582      1.686      2.915
REMARK INTER + INTRA:          -8.485
REMARK INTER:                  -6.913
REMARK INTRA:                  -1.573
REMARK UNBOUND:                -1.762
REMARK SMILES O=C([O-])CCCCCCCCCCCCCCC(=O)[O-]
REMARK SMILES IDX 10 1 9 2 8 3 7 4 6 5 5 6 4 7 2 8 1 9 3 10 11 11 12 12 13 13
REMARK SMILES IDX 14 14 15 15 16 16 17 17 18 18 19 19 20 20
REMARK H PARENT
REMARK Flexibility Score: inf
ROOT
ATOM      1  C   UNL     1      24.601 -13.522  -0.840  1.00  0.00     0.000 C 
ENDROOT
BRANCH   1   2
ATOM      2  C   UNL     1      24.010 -13.858  -2.215  1.00  0.00     0.000 C 
BRANCH   2   3
ATOM      3  C   UNL     1      23.322 -15.231  -2.197  1.00  0.00     0.000 C 
BRANCH   3   4
ATOM      4  C   UNL     1      23.724 -16.111  -3.390  1.00  0.00     0.000 C 
BRANCH   4   5
ATOM      5  C   UNL     1      25.067 -15.696  -4.009  1.00  0.00     0.000 C 
BRANCH   5   6
ATOM      6  C   UNL     1      26.128 -16.783  -3.800  1.00  0.00     0.006 C 
BRANCH   6   7
ATOM      7  C   UNL     1      27.155 -16.353  -2.749  1.00  0.00     0.053 C 
BRANCH   7   8
ATOM      8  C   UNL     1      28.336 -15.708  -3.403  1.00  0.00     0.041 C 
ATOM      9  O   UNL     1      29.205 -16.413  -3.979  1.00  0.00    -0.550 OA
ATOM     10  O   UNL     1      28.504 -14.330  -3.332  1.00  0.00    -0.550 OA
ENDBRANCH   7   8
ENDBRANCH   6   7
ENDBRANCH   5   6
ENDBRANCH   4   5
ENDBRANCH   3   4
ENDBRANCH   2   3
ENDBRANCH   1   2
BRANCH   1  11
ATOM     11  C   UNL     1      26.110 -13.254  -0.941  1.00  0.00     0.000 C 
BRANCH  11  12
ATOM     12  C   UNL     1      26.857 -13.528   0.377  1.00  0.00     0.000 C 
BRANCH  12  13
ATOM     13  C   UNL     1      27.868 -14.692   0.329  1.00  0.00     0.000 C 
BRANCH  13  14
ATOM     14  C   UNL     1      29.347 -14.278   0.446  1.00  0.00     0.000 C 
BRANCH  14  15
ATOM     15  C   UNL     1      29.718 -12.983  -0.303  1.00  0.00     0.000 C 
BRANCH  15  16
ATOM     16  C   UNL     1      30.870 -12.195   0.357  1.00  0.00     0.006 C 
BRANCH  16  17
ATOM     17  C   UNL     1      30.397 -10.873   0.978  1.00  0.00     0.053 C 
BRANCH  17  18
ATOM     18  C   UNL     1      30.305 -10.999   2.465  1.00  0.00     0.041 C 
ATOM     19  O   UNL     1      29.593 -11.899   2.982  1.00  0.00    -0.550 OA
ATOM     20  O   UNL     1      30.967 -10.091   3.282  1.00  0.00    -0.550 OA
ENDBRANCH  17  18
ENDBRANCH  16  17
ENDBRANCH  15  16
ENDBRANCH  14  15
ENDBRANCH  13  14
ENDBRANCH  12  13
ENDBRANCH  11  12
ENDBRANCH   1  11
TORSDOF 15
ENDMDL
MODEL 6
REMARK VINA RESULT:    -3.559      2.760      5.860
REMARK INTER + INTRA:          -8.443
REMARK INTER:                  -6.816
REMARK INTRA:                  -1.627
REMARK UNBOUND:                -1.762
REMARK SMILES O=C([O-])CCCCCCCCCCCCCCC(=O)[O-]
REMARK SMILES IDX 10 1 9 2 8 3 7 4 6 5 5 6 4 7 2 8 1 9 3 10 11 11 12 12 13 13
REMARK SMILES IDX 14 14 15 15 16 16 17 17 18 18 19 19 20 20
REMARK H PARENT
REMARK Flexibility Score: inf
ROOT
ATOM      1  C   UNL     1      28.854 -13.515   0.281  1.00  0.00     0.000 C 
ENDROOT
BRANCH   1   2
ATOM      2  C   UNL     1      30.375 -13.346   0.383  1.00  0.00     0.000 C 
BRANCH   2   3
ATOM      3  C   UNL     1      31.091 -14.691   0.187  1.00  0.00     0.000 C 
BRANCH   3   4
ATOM      4  C   UNL     1      30.333 -15.865   0.826  1.00  0.00     0.000 C 
BRANCH   4   5
ATOM      5  C   UNL     1      30.699 -17.219   0.199  1.00  0.00     0.000 C 
BRANCH   5   6
ATOM      6  C   UNL     1      30.986 -17.070  -1.301  1.00  0.00     0.006 C 
BRANCH   6   7
ATOM      7  C   UNL     1      29.704 -17.226  -2.123  1.00  0.00     0.053 C 
BRANCH   7   8
ATOM      8  C   UNL     1      29.667 -16.221  -3.232  1.00  0.00     0.041 C 
ATOM      9  O   UNL     1      30.692 -15.545  -3.508  1.00  0.00    -0.550 OA
ATOM     10  O   UNL     1      28.486 -15.996  -3.927  1.00  0.00    -0.550 OA
ENDBRANCH   7   8
ENDBRANCH   6   7
ENDBRANCH   5   6
ENDBRANCH   4   5
ENDBRANCH   3   4
ENDBRANCH   2   3
ENDBRANCH   1   2
BRANCH   1  11
ATOM     11  C   UNL     1      28.399 -13.532  -1.186  1.00  0.00     0.000 C 
BRANCH  11  12
ATOM     12  C   UNL     1      26.938 -13.984  -1.356  1.00  0.00     0.000 C 
BRANCH  12  13
ATOM     13  C   UNL     1      25.925 -13.292  -0.421  1.00  0.00     0.000 C 
BRANCH  13  14
ATOM     14  C   UNL     1      24.503 -13.144  -0.994  1.00  0.00     0.000 C 
BRANCH  14  15
ATOM     15  C   UNL     1      23.981 -14.375  -1.760  1.00  0.00     0.000 C 
BRANCH  15  16
ATOM     16  C   UNL     1      23.800 -14.132  -3.273  1.00  0.00     0.006 C 
BRANCH  16  17
ATOM     17  C   UNL     1      24.751 -14.985  -4.124  1.00  0.00     0.053 C 
BRANCH  17  18
ATOM     18  C   UNL     1      24.426 -16.436  -3.974  1.00  0.00     0.041 C 
ATOM     19  O   UNL     1      23.242 -16.839  -4.124  1.00  0.00    -0.550 OA
ATOM     20  O   UNL     1      25.421 -17.339  -3.623  1.00  0.00    -0.550 OA
ENDBRANCH  17  18
ENDBRANCH  16  17
ENDBRANCH  15  16
ENDBRANCH  14  15
ENDBRANCH  13  14
ENDBRANCH  12  13
ENDBRANCH  11  12
ENDBRANCH   1  11
TORSDOF 15
ENDMDL
MODEL 7
REMARK VINA RESULT:    -3.545      2.178      5.381
REMARK INTER + INTRA:          -8.416
REMARK INTER:                  -6.795
REMARK INTRA:                  -1.621
REMARK UNBOUND:                -1.762
REMARK SMILES O=C([O-])CCCCCCCCCCCCCCC(=O)[O-]
REMARK SMILES IDX 10 1 9 2 8 3 7 4 6 5 5 6 4 7 2 8 1 9 3 10 11 11 12 12 13 13
REMARK SMILES IDX 14 14 15 15 16 16 17 17 18 18 19 19 20 20
REMARK H PARENT
REMARK Flexibility Score: inf
ROOT
ATOM      1  C   UNL     1      28.285 -16.658  -2.129  1.00  0.00     0.000 C 
ENDROOT
BRANCH   1   2
ATOM      2  C   UNL     1      29.575 -16.346  -1.363  1.00  0.00     0.000 C 
BRANCH   2   3
ATOM      3  C   UNL     1      30.641 -15.754  -2.299  1.00  0.00     0.000 C 
BRANCH   3   4
ATOM      4  C   UNL     1      31.118 -14.364  -1.850  1.00  0.00     0.000 C 
BRANCH   4   5
ATOM      5  C   UNL     1      29.982 -13.330  -1.813  1.00  0.00     0.000 C 
BRANCH   5   6
ATOM      6  C   UNL     1      30.031 -12.508  -0.519  1.00  0.00     0.006 C 
BRANCH   6   7
ATOM      7  C   UNL     1      30.424 -13.384   0.674  1.00  0.00     0.053 C 
BRANCH   7   8
ATOM      8  C   UNL     1      29.294 -13.480   1.649  1.00  0.00     0.041 C 
ATOM      9  O   UNL     1      29.092 -12.554   2.477  1.00  0.00    -0.550 OA
ATOM     10  O   UNL     1      28.495 -14.617   1.678  1.00  0.00    -0.550 OA
ENDBRANCH   7   8
ENDBRANCH   6   7
ENDBRANCH   5   6
ENDBRANCH   4   5
ENDBRANCH   3   4
ENDBRANCH   2   3
ENDBRANCH   1   2
BRANCH   1  11
ATOM     11  C   UNL     1      28.356 -16.124  -3.568  1.00  0.00     0.000 C 
BRANCH  11  12
ATOM     12  C   UNL     1      26.995 -15.632  -4.092  1.00  0.00     0.000 C 
BRANCH  12  13
ATOM     13  C   UNL     1      25.801 -16.562  -3.793  1.00  0.00     0.000 C 
BRANCH  13  14
ATOM     14  C   UNL     1      24.412 -15.929  -4.000  1.00  0.00     0.000 C 
BRANCH  14  15
ATOM     15  C   UNL     1      23.399 -16.209  -2.874  1.00  0.00     0.000 C 
BRANCH  15  16
ATOM     16  C   UNL     1      23.247 -15.043  -1.873  1.00  0.00     0.006 C 
BRANCH  16  17
ATOM     17  C   UNL     1      24.087 -13.819  -2.264  1.00  0.00     0.053 C 
BRANCH  17  18
ATOM     18  C   UNL     1      25.049 -13.477  -1.171  1.00  0.00     0.041 C 
ATOM     19  O   UNL     1      26.241 -13.877  -1.227  1.00  0.00    -0.550 OA
ATOM     20  O   UNL     1      24.617 -12.755  -0.066  1.00  0.00    -0.550 OA
ENDBRANCH  17  18
ENDBRANCH  16  17
ENDBRANCH  15  16
ENDBRANCH  14  15
ENDBRANCH  13  14
ENDBRANCH  12  13
ENDBRANCH  11  12
ENDBRANCH   1  11
TORSDOF 15
ENDMDL
MODEL 8
REMARK VINA RESULT:    -3.517      2.541      4.794
REMARK INTER + INTRA:          -8.363
REMARK INTER:                  -6.750
REMARK INTRA:                  -1.614
REMARK UNBOUND:                -1.762
REMARK SMILES O=C([O-])CCCCCCCCCCCCCCC(=O)[O-]
REMARK SMILES IDX 10 1 9 2 8 3 7 4 6 5 5 6 4 7 2 8 1 9 3 10 11 11 12 12 13 13
REMARK SMILES IDX 14 14 15 15 16 16 17 17 18 18 19 19 20 20
REMARK H PARENT
REMARK Flexibility Score: inf
ROOT
ATOM      1  C   UNL     1      27.592 -15.708  -2.631  1.00  0.00     0.000 C 
ENDROOT
BRANCH   1   2
ATOM      2  C   UNL     1      27.646 -14.232  -2.219  1.00  0.00     0.000 C 
BRANCH   2   3
ATOM      3  C   UNL     1      26.935 -14.009  -0.876  1.00  0.00     0.000 C 
BRANCH   3   4
ATOM      4  C   UNL     1      25.675 -13.139  -1.009  1.00  0.00     0.000 C 
BRANCH   4   5
ATOM      5  C   UNL     1      24.414 -13.963  -1.310  1.00  0.00     0.000 C 
BRANCH   5   6
ATOM      6  C   UNL     1      23.818 -13.578  -2.669  1.00  0.00     0.006 C 
BRANCH   6   7
ATOM      7  C   UNL     1      24.142 -14.633  -3.731  1.00  0.00     0.053 C 
BRANCH   7   8
ATOM      8  C   UNL     1      23.843 -16.005  -3.214  1.00  0.00     0.041 C 
ATOM      9  O   UNL     1      24.543 -16.985  -3.578  1.00  0.00    -0.550 OA
ATOM     10  O   UNL     1      22.758 -16.209  -2.370  1.00  0.00    -0.550 OA
ENDBRANCH   7   8
ENDBRANCH   6   7
ENDBRANCH   5   6
ENDBRANCH   4   5
ENDBRANCH   3   4
ENDBRANCH   2   3
ENDBRANCH   1   2
BRANCH   1  11
ATOM     11  C   UNL     1      28.909 -16.146  -3.286  1.00  0.00     0.000 C 
BRANCH  11  12
ATOM     12  C   UNL     1      30.146 -15.503  -2.634  1.00  0.00     0.000 C 
BRANCH  12  13
ATOM     13  C   UNL     1      31.097 -16.486  -1.920  1.00  0.00     0.000 C 
BRANCH  13  14
ATOM     14  C   UNL     1      30.695 -16.852  -0.478  1.00  0.00     0.000 C 
BRANCH  14  15
ATOM     15  C   UNL     1      29.960 -15.739   0.292  1.00  0.00     0.000 C 
BRANCH  15  16
ATOM     16  C   UNL     1      30.869 -14.558   0.693  1.00  0.00     0.006 C 
BRANCH  16  17
ATOM     17  C   UNL     1      30.299 -13.202   0.257  1.00  0.00     0.053 C 
BRANCH  17  18
ATOM     18  C   UNL     1      29.673 -12.501   1.421  1.00  0.00     0.041 C 
ATOM     19  O   UNL     1      28.928 -13.132   2.215  1.00  0.00    -0.550 OA
ATOM     20  O   UNL     1      29.874 -11.139   1.602  1.00  0.00    -0.550 OA
ENDBRANCH  17  18
ENDBRANCH  16  17
ENDBRANCH  15  16
ENDBRANCH  14  15
ENDBRANCH  13  14
ENDBRANCH  12  13
ENDBRANCH  11  12
ENDBRANCH   1  11
TORSDOF 15
ENDMDL
MODEL 9
REMARK VINA RESULT:    -3.509      3.107      5.085
REMARK INTER + INTRA:          -8.348
REMARK INTER:                  -6.343
REMARK INTRA:                  -2.005
REMARK UNBOUND:                -1.762
REMARK SMILES O=C([O-])CCCCCCCCCCCCCCC(=O)[O-]
REMARK SMILES IDX 10 1 9 2 8 3 7 4 6 5 5 6 4 7 2 8 1 9 3 10 11 11 12 12 13 13
REMARK SMILES IDX 14 14 15 15 16 16 17 17 18 18 19 19 20 20
REMARK H PARENT
REMARK Flexibility Score: inf
ROOT
ATOM      1  C   UNL     1      29.347 -14.903  -3.731  1.00  0.00     0.000 C 
ENDROOT
BRANCH   1   2
ATOM      2  C   UNL     1      29.454 -15.906  -2.576  1.00  0.00     0.000 C 
BRANCH   2   3
ATOM      3  C   UNL     1      28.183 -16.763  -2.474  1.00  0.00     0.000 C 
BRANCH   3   4
ATOM      4  C   UNL     1      27.057 -16.266  -3.393  1.00  0.00     0.000 C 
BRANCH   4   5
ATOM      5  C   UNL     1      25.873 -17.242  -3.463  1.00  0.00     0.000 C 
BRANCH   5   6
ATOM      6  C   UNL     1      24.627 -16.555  -4.036  1.00  0.00     0.006 C 
BRANCH   6   7
ATOM      7  C   UNL     1      24.717 -15.034  -3.877  1.00  0.00     0.053 C 
BRANCH   7   8
ATOM      8  C   UNL     1      23.827 -14.569  -2.767  1.00  0.00     0.041 C 
ATOM      9  O   UNL     1      23.015 -15.367  -2.231  1.00  0.00    -0.550 OA
ATOM     10  O   UNL     1      23.859 -13.242  -2.360  1.00  0.00    -0.550 OA
ENDBRANCH   7   8
ENDBRANCH   6   7
ENDBRANCH   5   6
ENDBRANCH   4   5
ENDBRANCH   3   4
ENDBRANCH   2   3
ENDBRANCH   1   2
BRANCH   1  11
ATOM     11  C   UNL     1      30.013 -13.569  -3.365  1.00  0.00     0.000 C 
BRANCH  11  12
ATOM     12  C   UNL     1      30.566 -13.549  -1.929  1.00  0.00     0.000 C 
BRANCH  12  13
ATOM     13  C   UNL     1      30.654 -12.152  -1.279  1.00  0.00     0.000 C 
BRANCH  13  14
ATOM     14  C   UNL     1      30.085 -12.059   0.149  1.00  0.00     0.000 C 
BRANCH  14  15
ATOM     15  C   UNL     1      30.051 -13.391   0.921  1.00  0.00     0.000 C 
BRANCH  15  16
ATOM     16  C   UNL     1      28.661 -13.740   1.495  1.00  0.00     0.006 C 
BRANCH  16  17
ATOM     17  C   UNL     1      27.829 -14.603   0.537  1.00  0.00     0.053 C 
BRANCH  17  18
ATOM     18  C   UNL     1      26.887 -13.750  -0.251  1.00  0.00     0.041 C 
ATOM     19  O   UNL     1      27.098 -13.535  -1.473  1.00  0.00    -0.550 OA
ATOM     20  O   UNL     1      25.802 -13.152   0.376  1.00  0.00    -0.550 OA
ENDBRANCH  17  18
ENDBRANCH  16  17
ENDBRANCH  15  16
ENDBRANCH  14  15
ENDBRANCH  13  14
ENDBRANCH  12  13
ENDBRANCH  11  12
ENDBRANCH   1  11
TORSDOF 15
ENDMDL
