MODEL 1
REMARK VINA RESULT:    -2.405      0.000      0.000
REMARK INTER + INTRA:          -7.403
REMARK INTER:                  -5.497
REMARK INTRA:                  -1.905
REMARK UNBOUND:                -1.905
REMARK SMILES CCCCCCCCCCCCCCCCCCCCCCCC(=O)[O-]
REMARK SMILES IDX 13 1 14 2 15 3 16 4 17 5 18 6 19 7 20 8 21 9 22 10 23 11
REMARK SMILES IDX 24 12 25 13 26 14 12 15 11 16 10 17 9 18 8 19 7 20 6 21 5 22
REMARK SMILES IDX 4 23 3 24 2 25 1 26
REMARK H PARENT
REMARK Flexibility Score: inf
ROOT
ATOM      1  C   UNL     1      62.135  25.566  24.809  1.00  0.00     0.000 C 
ENDROOT
BRANCH   1   2
ATOM      2  C   UNL     1      63.264  24.536  25.014  1.00  0.00     0.000 C 
BRANCH   2   3
ATOM      3  C   UNL     1      62.916  23.365  25.956  1.00  0.00     0.000 C 
BRANCH   3   4
ATOM      4  C   UNL     1      62.865  21.985  25.278  1.00  0.00     0.000 C 
BRANCH   4   5
ATOM      5  C   UNL     1      62.122  20.934  26.121  1.00  0.00     0.000 C 
BRANCH   5   6
ATOM      6  C   UNL     1      60.592  21.050  26.004  1.00  0.00     0.000 C 
BRANCH   6   7
ATOM      7  C   UNL     1      60.069  22.472  25.716  1.00  0.00     0.000 C 
BRANCH   7   8
ATOM      8  C   UNL     1      58.537  22.590  25.594  1.00  0.00     0.000 C 
BRANCH   8   9
ATOM      9  C   UNL     1      58.039  23.483  24.441  1.00  0.00     0.000 C 
BRANCH   9  10
ATOM     10  C   UNL     1      57.386  22.727  23.269  1.00  0.00     0.006 C 
BRANCH  10  11
ATOM     11  C   UNL     1      56.353  21.690  23.729  1.00  0.00     0.053 C 
BRANCH  11  12
ATOM     12  C   UNL     1      54.986  22.072  23.259  1.00  0.00     0.041 C 
ATOM     13  O   UNL     1      54.832  22.622  22.136  1.00  0.00    -0.550 OA
ATOM     14  O   UNL     1      53.874  21.776  24.039  1.00  0.00    -0.550 OA
ENDBRANCH  11  12
ENDBRANCH  10  11
ENDBRANCH   9  10
ENDBRANCH   8   9
ENDBRANCH   7   8
ENDBRANCH   6   7
ENDBRANCH   5   6
ENDBRANCH   4   5
ENDBRANCH   3   4
ENDBRANCH   2   3
ENDBRANCH   1   2
BRANCH   1  15
ATOM     15  C   UNL     1      61.183  25.267  23.634  1.00  0.00     0.000 C 
BRANCH  15  16
ATOM     16  C   UNL     1      61.743  25.596  22.238  1.00  0.00     0.000 C 
BRANCH  16  17
ATOM     17  C   UNL     1      63.265  25.812  22.239  1.00  0.00     0.000 C 
BRANCH  17  18
ATOM     18  C   UNL     1      64.024  24.637  21.598  1.00  0.00    -0.000 C 
BRANCH  18  19
ATOM     19  C   UNL     1      63.628  23.276  22.199  1.00  0.00    -0.000 C 
BRANCH  19  20
ATOM     20  C   UNL     1      64.007  22.100  21.274  1.00  0.00    -0.000 C 
BRANCH  20  21
ATOM     21  C   UNL     1      64.123  22.488  19.791  1.00  0.00    -0.000 C 
BRANCH  21  22
ATOM     22  C   UNL     1      62.982  21.919  18.931  1.00  0.00    -0.000 C 
BRANCH  22  23
ATOM     23  C   UNL     1      61.796  21.426  19.778  1.00  0.00    -0.000 C 
BRANCH  23  24
ATOM     24  C   UNL     1      60.934  22.583  20.316  1.00  0.00    -0.000 C 
BRANCH  24  25
ATOM     25  C   UNL     1      60.229  22.227  21.635  1.00  0.00    -0.003 C 
ATOM     26  C   UNL     1      60.778  20.951  22.272  1.00  0.00     0.004 C 
ENDBRANCH  24  25
ENDBRANCH  23  24
ENDBRANCH  22  23
ENDBRANCH  21  22
ENDBRANCH  20  21
ENDBRANCH  19  20
ENDBRANCH  18  19
ENDBRANCH  17  18
ENDBRANCH  16  17
ENDBRANCH  15  16
ENDBRANCH   1  15
TORSDOF 22
ENDMDL
MODEL 2
REMARK VINA RESULT:    -1.422      1.721      4.561
REMARK INTER + INTRA:          -5.155
REMARK INTER:                  -4.983
REMARK INTRA:                  -0.172
REMARK UNBOUND:                -1.905
REMARK SMILES CCCCCCCCCCCCCCCCCCCCCCCC(=O)[O-]
REMARK SMILES IDX 13 1 14 2 15 3 16 4 17 5 18 6 19 7 20 8 21 9 22 10 23 11
REMARK SMILES IDX 24 12 25 13 26 14 12 15 11 16 10 17 9 18 8 19 7 20 6 21 5 22
REMARK SMILES IDX 4 23 3 24 2 25 1 26
REMARK H PARENT
REMARK Flexibility Score: inf
ROOT
ATOM      1  C   UNL     1      61.565  24.623  21.748  1.00  0.00     0.000 C 
ENDROOT
BRANCH   1   2
ATOM      2  C   UNL     1      61.969  25.658  22.816  1.00  0.00     0.000 C 
BRANCH   2   3
ATOM      3  C   UNL     1      62.346  25.066  24.190  1.00  0.00     0.000 C 
BRANCH   3   4
ATOM      4  C   UNL     1      63.793  24.555  24.298  1.00  0.00     0.000 C 
BRANCH   4   5
ATOM      5  C   UNL     1      64.120  23.979  25.686  1.00  0.00     0.000 C 
BRANCH   5   6
ATOM      6  C   UNL     1      63.953  22.451  25.752  1.00  0.00     0.000 C 
BRANCH   6   7
ATOM      7  C   UNL     1      63.406  21.801  24.463  1.00  0.00     0.000 C 
BRANCH   7   8
ATOM      8  C   UNL     1      61.962  21.273  24.563  1.00  0.00     0.000 C 
BRANCH   8   9
ATOM      9  C   UNL     1      61.354  21.291  25.979  1.00  0.00     0.000 C 
BRANCH   9  10
ATOM     10  C   UNL     1      60.061  22.116  26.120  1.00  0.00     0.006 C 
BRANCH  10  11
ATOM     11  C   UNL     1      60.142  23.478  25.421  1.00  0.00     0.053 C 
BRANCH  11  12
ATOM     12  C   UNL     1      58.773  24.047  25.227  1.00  0.00     0.041 C 
ATOM     13  O   UNL     1      57.768  23.458  25.706  1.00  0.00    -0.550 OA
ATOM     14  O   UNL     1      58.609  25.255  24.559  1.00  0.00    -0.550 OA
ENDBRANCH  11  12
ENDBRANCH  10  11
ENDBRANCH   9  10
ENDBRANCH   8   9
ENDBRANCH   7   8
ENDBRANCH   6   7
ENDBRANCH   5   6
ENDBRANCH   4   5
ENDBRANCH   3   4
ENDBRANCH   2   3
ENDBRANCH   1   2
BRANCH   1  15
ATOM     15  C   UNL     1      62.518  23.419  21.612  1.00  0.00     0.000 C 
BRANCH  15  16
ATOM     16  C   UNL     1      63.495  23.487  20.424  1.00  0.00     0.000 C 
BRANCH  16  17
ATOM     17  C   UNL     1      63.191  22.442  19.338  1.00  0.00     0.000 C 
BRANCH  17  18
ATOM     18  C   UNL     1      61.860  21.711  19.584  1.00  0.00    -0.000 C 
BRANCH  18  19
ATOM     19  C   UNL     1      61.586  21.464  21.079  1.00  0.00    -0.000 C 
BRANCH  19  20
ATOM     20  C   UNL     1      60.179  20.879  21.323  1.00  0.00    -0.000 C 
BRANCH  20  21
ATOM     21  C   UNL     1      59.144  21.919  21.784  1.00  0.00    -0.000 C 
BRANCH  21  22
ATOM     22  C   UNL     1      58.180  21.373  22.851  1.00  0.00    -0.000 C 
BRANCH  22  23
ATOM     23  C   UNL     1      56.872  22.177  22.930  1.00  0.00    -0.000 C 
BRANCH  23  24
ATOM     24  C   UNL     1      55.667  21.306  23.331  1.00  0.00    -0.000 C 
BRANCH  24  25
ATOM     25  C   UNL     1      54.324  22.017  23.099  1.00  0.00    -0.003 C 
ATOM     26  C   UNL     1      53.347  21.824  24.258  1.00  0.00     0.004 C 
ENDBRANCH  24  25
ENDBRANCH  23  24
ENDBRANCH  22  23
ENDBRANCH  21  22
ENDBRANCH  20  21
ENDBRANCH  19  20
ENDBRANCH  18  19
ENDBRANCH  17  18
ENDBRANCH  16  17
ENDBRANCH  15  16
ENDBRANCH   1  15
TORSDOF 22
ENDMDL
MODEL 3
REMARK VINA RESULT:    -1.062      1.353      5.082
REMARK INTER + INTRA:          -4.333
REMARK INTER:                  -2.896
REMARK INTRA:                  -1.437
REMARK UNBOUND:                -1.905
REMARK SMILES CCCCCCCCCCCCCCCCCCCCCCCC(=O)[O-]
REMARK SMILES IDX 13 1 14 2 15 3 16 4 17 5 18 6 19 7 20 8 21 9 22 10 23 11
REMARK SMILES IDX 24 12 25 13 26 14 12 15 11 16 10 17 9 18 8 19 7 20 6 21 5 22
REMARK SMILES IDX 4 23 3 24 2 25 1 26
REMARK H PARENT
REMARK Flexibility Score: inf
ROOT
ATOM      1  C   UNL     1      63.972  21.656  21.978  1.00  0.00     0.000 C 
ENDROOT
BRANCH   1   2
ATOM      2  C   UNL     1      63.991  23.191  22.122  1.00  0.00     0.000 C 
BRANCH   2   3
ATOM      3  C   UNL     1      63.268  23.960  20.998  1.00  0.00     0.000 C 
BRANCH   3   4
ATOM      4  C   UNL     1      61.743  24.072  21.169  1.00  0.00     0.000 C 
BRANCH   4   5
ATOM      5  C   UNL     1      60.968  23.095  20.267  1.00  0.00     0.000 C 
BRANCH   5   6
ATOM      6  C   UNL     1      60.959  21.658  20.817  1.00  0.00     0.000 C 
BRANCH   6   7
ATOM      7  C   UNL     1      59.654  20.875  20.564  1.00  0.00     0.000 C 
BRANCH   7   8
ATOM      8  C   UNL     1      58.544  21.105  21.608  1.00  0.00     0.000 C 
BRANCH   8   9
ATOM      9  C   UNL     1      58.550  22.495  22.275  1.00  0.00     0.000 C 
BRANCH   9  10
ATOM     10  C   UNL     1      57.262  22.855  23.038  1.00  0.00     0.006 C 
BRANCH  10  11
ATOM     11  C   UNL     1      56.013  22.183  22.453  1.00  0.00     0.053 C 
BRANCH  11  12
ATOM     12  C   UNL     1      54.916  22.146  23.468  1.00  0.00     0.041 C 
ATOM     13  O   UNL     1      54.683  21.087  24.110  1.00  0.00    -0.550 OA
ATOM     14  O   UNL     1      54.183  23.293  23.744  1.00  0.00    -0.550 OA
ENDBRANCH  11  12
ENDBRANCH  10  11
ENDBRANCH   9  10
ENDBRANCH   8   9
ENDBRANCH   7   8
ENDBRANCH   6   7
ENDBRANCH   5   6
ENDBRANCH   4   5
ENDBRANCH   3   4
ENDBRANCH   2   3
ENDBRANCH   1   2
BRANCH   1  15
ATOM     15  C   UNL     1      63.971  20.875  23.307  1.00  0.00     0.000 C 
BRANCH  15  16
ATOM     16  C   UNL     1      63.958  21.744  24.578  1.00  0.00     0.000 C 
BRANCH  16  17
ATOM     17  C   UNL     1      62.688  21.547  25.424  1.00  0.00     0.000 C 
BRANCH  17  18
ATOM     18  C   UNL     1      61.406  21.878  24.642  1.00  0.00    -0.000 C 
BRANCH  18  19
ATOM     19  C   UNL     1      60.142  21.295  25.300  1.00  0.00    -0.000 C 
BRANCH  19  20
ATOM     20  C   UNL     1      59.254  22.390  25.926  1.00  0.00    -0.000 C 
BRANCH  20  21
ATOM     21  C   UNL     1      59.657  23.820  25.528  1.00  0.00    -0.000 C 
BRANCH  21  22
ATOM     22  C   UNL     1      61.009  24.248  26.123  1.00  0.00    -0.000 C 
BRANCH  22  23
ATOM     23  C   UNL     1      61.820  25.136  25.166  1.00  0.00    -0.000 C 
BRANCH  23  24
ATOM     24  C   UNL     1      63.199  25.516  25.736  1.00  0.00    -0.000 C 
BRANCH  24  25
ATOM     25  C   UNL     1      64.007  26.407  24.780  1.00  0.00    -0.003 C 
ATOM     26  C   UNL     1      63.620  26.203  23.315  1.00  0.00     0.004 C 
ENDBRANCH  24  25
ENDBRANCH  23  24
ENDBRANCH  22  23
ENDBRANCH  21  22
ENDBRANCH  20  21
ENDBRANCH  19  20
ENDBRANCH  18  19
ENDBRANCH  17  18
ENDBRANCH  16  17
ENDBRANCH  15  16
ENDBRANCH   1  15
TORSDOF 22
ENDMDL
MODEL 4
REMARK VINA RESULT:    -0.922      2.561      5.040
REMARK INTER + INTRA:          -4.013
REMARK INTER:                  -3.453
REMARK INTRA:                  -0.560
REMARK UNBOUND:                -1.905
REMARK SMILES CCCCCCCCCCCCCCCCCCCCCCCC(=O)[O-]
REMARK SMILES IDX 13 1 14 2 15 3 16 4 17 5 18 6 19 7 20 8 21 9 22 10 23 11
REMARK SMILES IDX 24 12 25 13 26 14 12 15 11 16 10 17 9 18 8 19 7 20 6 21 5 22
REMARK SMILES IDX 4 23 3 24 2 25 1 26
REMARK H PARENT
REMARK Flexibility Score: inf
ROOT
ATOM      1  C   UNL     1      62.830  22.452  23.134  1.00  0.00     0.000 C 
ENDROOT
BRANCH   1   2
ATOM      2  C   UNL     1      63.989  21.455  23.324  1.00  0.00     0.000 C 
BRANCH   2   3
ATOM      3  C   UNL     1      64.125  20.875  24.746  1.00  0.00     0.000 C 
BRANCH   3   4
ATOM      4  C   UNL     1      63.074  21.378  25.752  1.00  0.00     0.000 C 
BRANCH   4   5
ATOM      5  C   UNL     1      63.051  22.911  25.873  1.00  0.00     0.000 C 
BRANCH   5   6
ATOM      6  C   UNL     1      61.639  23.468  26.125  1.00  0.00     0.000 C 
BRANCH   6   7
ATOM      7  C   UNL     1      60.502  22.693  25.427  1.00  0.00     0.000 C 
BRANCH   7   8
ATOM      8  C   UNL     1      59.087  22.988  25.964  1.00  0.00     0.000 C 
BRANCH   8   9
ATOM      9  C   UNL     1      58.431  24.267  25.409  1.00  0.00     0.000 C 
BRANCH   9  10
ATOM     10  C   UNL     1      59.413  25.309  24.843  1.00  0.00     0.006 C 
BRANCH  10  11
ATOM     11  C   UNL     1      59.992  24.906  23.481  1.00  0.00     0.053 C 
BRANCH  11  12
ATOM     12  C   UNL     1      61.125  25.808  23.108  1.00  0.00     0.041 C 
ATOM     13  O   UNL     1      62.054  26.031  23.930  1.00  0.00    -0.550 OA
ATOM     14  O   UNL     1      61.184  26.363  21.836  1.00  0.00    -0.550 OA
ENDBRANCH  11  12
ENDBRANCH  10  11
ENDBRANCH   9  10
ENDBRANCH   8   9
ENDBRANCH   7   8
ENDBRANCH   6   7
ENDBRANCH   5   6
ENDBRANCH   4   5
ENDBRANCH   3   4
ENDBRANCH   2   3
ENDBRANCH   1   2
BRANCH   1  15
ATOM     15  C   UNL     1      62.976  23.403  21.928  1.00  0.00     0.000 C 
BRANCH  15  16
ATOM     16  C   UNL     1      63.402  22.730  20.611  1.00  0.00     0.000 C 
BRANCH  16  17
ATOM     17  C   UNL     1      62.233  22.541  19.630  1.00  0.00     0.000 C 
BRANCH  17  18
ATOM     18  C   UNL     1      60.877  22.438  20.347  1.00  0.00    -0.000 C 
BRANCH  18  19
ATOM     19  C   UNL     1      60.540  20.999  20.777  1.00  0.00    -0.000 C 
BRANCH  19  20
ATOM     20  C   UNL     1      59.840  20.951  22.152  1.00  0.00    -0.000 C 
BRANCH  20  21
ATOM     21  C   UNL     1      58.307  20.875  22.067  1.00  0.00    -0.000 C 
BRANCH  21  22
ATOM     22  C   UNL     1      57.605  21.839  23.039  1.00  0.00    -0.000 C 
BRANCH  22  23
ATOM     23  C   UNL     1      56.230  22.296  22.526  1.00  0.00    -0.000 C 
BRANCH  23  24
ATOM     24  C   UNL     1      55.068  21.536  23.191  1.00  0.00    -0.000 C 
BRANCH  24  25
ATOM     25  C   UNL     1      54.050  22.478  23.852  1.00  0.00    -0.003 C 
ATOM     26  C   UNL     1      52.914  21.727  24.545  1.00  0.00     0.004 C 
ENDBRANCH  24  25
ENDBRANCH  23  24
ENDBRANCH  22  23
ENDBRANCH  21  22
ENDBRANCH  20  21
ENDBRANCH  19  20
ENDBRANCH  18  19
ENDBRANCH  17  18
ENDBRANCH  16  17
ENDBRANCH  15  16
ENDBRANCH   1  15
TORSDOF 22
ENDMDL
MODEL 5
REMARK VINA RESULT:    -0.007      2.988      5.532
REMARK INTER + INTRA:          -1.920
REMARK INTER:                   0.089
REMARK INTRA:                  -2.009
REMARK UNBOUND:                -1.905
REMARK SMILES CCCCCCCCCCCCCCCCCCCCCCCC(=O)[O-]
REMARK SMILES IDX 13 1 14 2 15 3 16 4 17 5 18 6 19 7 20 8 21 9 22 10 23 11
REMARK SMILES IDX 24 12 25 13 26 14 12 15 11 16 10 17 9 18 8 19 7 20 6 21 5 22
REMARK SMILES IDX 4 23 3 24 2 25 1 26
REMARK H PARENT
REMARK Flexibility Score: inf
ROOT
ATOM      1  C   UNL     1      57.306  20.906  23.526  1.00  0.00     0.000 C 
ENDROOT
BRANCH   1   2
ATOM      2  C   UNL     1      58.783  20.900  23.966  1.00  0.00     0.000 C 
BRANCH   2   3
ATOM      3  C   UNL     1      59.016  21.113  25.475  1.00  0.00     0.000 C 
BRANCH   3   4
ATOM      4  C   UNL     1      59.875  22.340  25.829  1.00  0.00     0.000 C 
BRANCH   4   5
ATOM      5  C   UNL     1      59.038  23.613  26.041  1.00  0.00     0.000 C 
BRANCH   5   6
ATOM      6  C   UNL     1      58.822  24.407  24.740  1.00  0.00     0.000 C 
BRANCH   6   7
ATOM      7  C   UNL     1      59.939  25.416  24.403  1.00  0.00     0.000 C 
BRANCH   7   8
ATOM      8  C   UNL     1      61.169  24.814  23.697  1.00  0.00     0.000 C 
BRANCH   8   9
ATOM      9  C   UNL     1      61.979  25.803  22.836  1.00  0.00     0.000 C 
BRANCH   9  10
ATOM     10  C   UNL     1      63.306  26.273  23.462  1.00  0.00     0.006 C 
BRANCH  10  11
ATOM     11  C   UNL     1      64.119  25.124  24.071  1.00  0.00     0.053 C 
BRANCH  11  12
ATOM     12  C   UNL     1      63.701  24.882  25.486  1.00  0.00     0.041 C 
ATOM     13  O   UNL     1      62.997  25.733  26.093  1.00  0.00    -0.550 OA
ATOM     14  O   UNL     1      64.047  23.696  26.121  1.00  0.00    -0.550 OA
ENDBRANCH  11  12
ENDBRANCH  10  11
ENDBRANCH   9  10
ENDBRANCH   8   9
ENDBRANCH   7   8
ENDBRANCH   6   7
ENDBRANCH   5   6
ENDBRANCH   4   5
ENDBRANCH   3   4
ENDBRANCH   2   3
ENDBRANCH   1   2
BRANCH   1  15
ATOM     15  C   UNL     1      57.017  21.659  22.213  1.00  0.00     0.000 C 
BRANCH  15  16
ATOM     16  C   UNL     1      57.548  23.103  22.155  1.00  0.00     0.000 C 
BRANCH  16  17
ATOM     17  C   UNL     1      58.842  23.233  21.336  1.00  0.00     0.000 C 
BRANCH  17  18
ATOM     18  C   UNL     1      59.589  21.894  21.203  1.00  0.00    -0.000 C 
BRANCH  18  19
ATOM     19  C   UNL     1      60.189  21.686  19.801  1.00  0.00    -0.000 C 
BRANCH  19  20
ATOM     20  C   UNL     1      61.664  21.233  19.860  1.00  0.00    -0.000 C 
BRANCH  20  21
ATOM     21  C   UNL     1      62.668  22.334  19.478  1.00  0.00    -0.000 C 
BRANCH  21  22
ATOM     22  C   UNL     1      64.039  22.153  20.152  1.00  0.00    -0.000 C 
BRANCH  22  23
ATOM     23  C   UNL     1      64.117  22.845  21.523  1.00  0.00    -0.000 C 
BRANCH  23  24
ATOM     24  C   UNL     1      64.121  21.843  22.692  1.00  0.00    -0.000 C 
BRANCH  24  25
ATOM     25  C   UNL     1      62.726  21.652  23.308  1.00  0.00    -0.003 C 
ATOM     26  C   UNL     1      62.782  21.248  24.781  1.00  0.00     0.004 C 
ENDBRANCH  24  25
ENDBRANCH  23  24
ENDBRANCH  22  23
ENDBRANCH  21  22
ENDBRANCH  20  21
ENDBRANCH  19  20
ENDBRANCH  18  19
ENDBRANCH  17  18
ENDBRANCH  16  17
ENDBRANCH  15  16
ENDBRANCH   1  15
TORSDOF 22
ENDMDL
MODEL 6
REMARK VINA RESULT:     0.451      3.117      6.236
REMARK INTER + INTRA:          -0.875
REMARK INTER:                   0.440
REMARK INTRA:                  -1.314
REMARK UNBOUND:                -1.905
REMARK SMILES CCCCCCCCCCCCCCCCCCCCCCCC(=O)[O-]
REMARK SMILES IDX 13 1 14 2 15 3 16 4 17 5 18 6 19 7 20 8 21 9 22 10 23 11
REMARK SMILES IDX 24 12 25 13 26 14 12 15 11 16 10 17 9 18 8 19 7 20 6 21 5 22
REMARK SMILES IDX 4 23 3 24 2 25 1 26
REMARK H PARENT
REMARK Flexibility Score: inf
ROOT
ATOM      1  C   UNL     1      58.789  21.206  25.181  1.00  0.00     0.000 C 
ENDROOT
BRANCH   1   2
ATOM      2  C   UNL     1      58.273  22.658  25.245  1.00  0.00     0.000 C 
BRANCH   2   3
ATOM      3  C   UNL     1      56.830  22.860  24.741  1.00  0.00     0.000 C 
BRANCH   3   4
ATOM      4  C   UNL     1      56.468  22.061  23.477  1.00  0.00     0.000 C 
BRANCH   4   5
ATOM      5  C   UNL     1      56.722  22.849  22.181  1.00  0.00     0.000 C 
BRANCH   5   6
ATOM      6  C   UNL     1      57.843  22.236  21.321  1.00  0.00     0.000 C 
BRANCH   6   7
ATOM      7  C   UNL     1      59.231  22.202  21.993  1.00  0.00     0.000 C 
BRANCH   7   8
ATOM      8  C   UNL     1      59.998  20.875  21.835  1.00  0.00     0.000 C 
BRANCH   8   9
ATOM      9  C   UNL     1      61.271  20.953  20.969  1.00  0.00     0.000 C 
BRANCH   9  10
ATOM     10  C   UNL     1      61.165  21.877  19.741  1.00  0.00     0.006 C 
BRANCH  10  11
ATOM     11  C   UNL     1      62.238  21.590  18.683  1.00  0.00     0.053 C 
BRANCH  11  12
ATOM     12  C   UNL     1      63.390  22.530  18.840  1.00  0.00     0.041 C 
ATOM     13  O   UNL     1      64.055  22.543  19.910  1.00  0.00    -0.550 OA
ATOM     14  O   UNL     1      63.761  23.358  17.788  1.00  0.00    -0.550 OA
ENDBRANCH  11  12
ENDBRANCH  10  11
ENDBRANCH   9  10
ENDBRANCH   8   9
ENDBRANCH   7   8
ENDBRANCH   6   7
ENDBRANCH   5   6
ENDBRANCH   4   5
ENDBRANCH   3   4
ENDBRANCH   2   3
ENDBRANCH   1   2
BRANCH   1  15
ATOM     15  C   UNL     1      59.976  20.893  26.113  1.00  0.00     0.000 C 
BRANCH  15  16
ATOM     16  C   UNL     1      61.219  21.779  25.911  1.00  0.00     0.000 C 
BRANCH  16  17
ATOM     17  C   UNL     1      62.534  20.982  25.947  1.00  0.00     0.000 C 
BRANCH  17  18
ATOM     18  C   UNL     1      63.356  21.149  24.658  1.00  0.00    -0.000 C 
BRANCH  18  19
ATOM     19  C   UNL     1      63.044  22.465  23.921  1.00  0.00    -0.000 C 
BRANCH  19  20
ATOM     20  C   UNL     1      64.125  23.539  24.166  1.00  0.00    -0.000 C 
BRANCH  20  21
ATOM     21  C   UNL     1      64.020  24.225  25.538  1.00  0.00    -0.000 C 
BRANCH  21  22
ATOM     22  C   UNL     1      62.566  24.500  25.960  1.00  0.00    -0.000 C 
BRANCH  22  23
ATOM     23  C   UNL     1      61.945  25.683  25.198  1.00  0.00    -0.000 C 
BRANCH  23  24
ATOM     24  C   UNL     1      62.103  25.552  23.672  1.00  0.00    -0.000 C 
BRANCH  24  25
ATOM     25  C   UNL     1      60.899  24.863  23.012  1.00  0.00    -0.003 C 
ATOM     26  C   UNL     1      59.603  25.059  23.799  1.00  0.00     0.004 C 
ENDBRANCH  24  25
ENDBRANCH  23  24
ENDBRANCH  22  23
ENDBRANCH  21  22
ENDBRANCH  20  21
ENDBRANCH  19  20
ENDBRANCH  18  19
ENDBRANCH  17  18
ENDBRANCH  16  17
ENDBRANCH  15  16
ENDBRANCH   1  15
TORSDOF 22
ENDMDL
