MODEL 1
REMARK VINA RESULT:    -3.895      0.000      0.000
REMARK INTER + INTRA:          -4.873
REMARK INTER:                  -4.692
REMARK INTRA:                  -0.181
REMARK UNBOUND:                -0.181
REMARK SMILES NC(=O)C[C@H]([NH3+])C(=O)[O-]
REMARK SMILES IDX 4 1 5 2 6 3 7 7 8 8 9 9 2 10 3 11 1 12
REMARK H PARENT 6 4 6 5 6 6 1 13 1 14
REMARK Flexibility Score: inf
ROOT
ATOM      1  C   UNL     1       2.237  -0.269 -22.126  1.00  0.00     0.171 C 
ENDROOT
BRANCH   1   2
ATOM      2  C   UNL     1       2.140   0.145 -23.608  1.00  0.00     0.237 C 
BRANCH   2   3
ATOM      3  N   UNL     1       3.209   1.082 -23.976  1.00  0.00    -0.350 N 
ATOM      4  H   UNL     1       4.140   0.618 -23.869  1.00  0.00     0.345 HD
ATOM      5  H   UNL     1       3.098   1.402 -24.966  1.00  0.00     0.345 HD
ATOM      6  H   UNL     1       3.192   1.913 -23.343  1.00  0.00     0.345 HD
ENDBRANCH   2   3
BRANCH   2   7
ATOM      7  C   UNL     1       0.794   0.767 -23.873  1.00  0.00     0.100 C 
ATOM      8  O   UNL     1       0.551   1.297 -24.989  1.00  0.00    -0.544 OA
ATOM      9  O   UNL     1      -0.192   0.744 -22.895  1.00  0.00    -0.544 OA
ENDBRANCH   2   7
ENDBRANCH   1   2
BRANCH   1  10
ATOM     10  C   UNL     1       1.709  -1.656 -21.901  1.00  0.00     0.223 C 
ATOM     11  O   UNL     1       2.379  -2.650 -22.289  1.00  0.00    -0.275 OA
ATOM     12  N   UNL     1       0.470  -1.860 -21.223  1.00  0.00    -0.369 N 
ATOM     13  H   UNL     1      -0.088  -1.048 -20.874  1.00  0.00     0.159 HD
ATOM     14  H   UNL     1       0.111  -2.827 -21.059  1.00  0.00     0.159 HD
ENDBRANCH   1  10
TORSDOF 4
ENDMDL
MODEL 2
REMARK VINA RESULT:    -3.758      6.363      7.503
REMARK INTER + INTRA:          -4.708
REMARK INTER:                  -4.575
REMARK INTRA:                  -0.132
REMARK UNBOUND:                -0.181
REMARK SMILES NC(=O)C[C@H]([NH3+])C(=O)[O-]
REMARK SMILES IDX 4 1 5 2 6 3 7 7 8 8 9 9 2 10 3 11 1 12
REMARK H PARENT 6 4 6 5 6 6 1 13 1 14
REMARK Flexibility Score: inf
ROOT
ATOM      1  C   UNL     1      -3.131   2.945 -22.477  1.00  0.00     0.171 C 
ENDROOT
BRANCH   1   2
ATOM      2  C   UNL     1      -4.277   3.299 -21.507  1.00  0.00     0.237 C 
BRANCH   2   3
ATOM      3  N   UNL     1      -3.914   3.003 -20.115  1.00  0.00    -0.350 N 
ATOM      4  H   UNL     1      -3.837   3.893 -19.571  1.00  0.00     0.345 HD
ATOM      5  H   UNL     1      -4.633   2.389 -19.666  1.00  0.00     0.345 HD
ATOM      6  H   UNL     1      -2.985   2.525 -20.080  1.00  0.00     0.345 HD
ENDBRANCH   2   3
BRANCH   2   7
ATOM      7  C   UNL     1      -5.517   2.537 -21.891  1.00  0.00     0.100 C 
ATOM      8  O   UNL     1      -5.808   1.463 -21.300  1.00  0.00    -0.544 OA
ATOM      9  O   UNL     1      -6.357   3.021 -22.885  1.00  0.00    -0.544 OA
ENDBRANCH   2   7
ENDBRANCH   1   2
BRANCH   1  10
ATOM     10  C   UNL     1      -2.811   4.085 -23.399  1.00  0.00     0.223 C 
ATOM     11  O   UNL     1      -3.571   4.332 -24.373  1.00  0.00    -0.275 OA
ATOM     12  N   UNL     1      -1.672   4.912 -23.162  1.00  0.00    -0.369 N 
ATOM     13  H   UNL     1      -1.044   4.736 -22.346  1.00  0.00     0.159 HD
ATOM     14  H   UNL     1      -1.459   5.711 -23.800  1.00  0.00     0.159 HD
ENDBRANCH   1  10
TORSDOF 4
ENDMDL
MODEL 3
REMARK VINA RESULT:    -3.575      7.627      8.688
REMARK INTER + INTRA:          -4.488
REMARK INTER:                  -4.224
REMARK INTRA:                  -0.264
REMARK UNBOUND:                -0.181
REMARK SMILES NC(=O)C[C@H]([NH3+])C(=O)[O-]
REMARK SMILES IDX 4 1 5 2 6 3 7 7 8 8 9 9 2 10 3 11 1 12
REMARK H PARENT 6 4 6 5 6 6 1 13 1 14
REMARK Flexibility Score: inf
ROOT
ATOM      1  C   UNL     1      -5.623   2.510 -21.893  1.00  0.00     0.171 C 
ENDROOT
BRANCH   1   2
ATOM      2  C   UNL     1      -6.402   3.460 -22.826  1.00  0.00     0.237 C 
BRANCH   2   3
ATOM      3  N   UNL     1      -6.567   4.790 -22.224  1.00  0.00    -0.350 N 
ATOM      4  H   UNL     1      -6.589   4.707 -21.182  1.00  0.00     0.345 HD
ATOM      5  H   UNL     1      -5.780   5.422 -22.500  1.00  0.00     0.345 HD
ATOM      6  H   UNL     1      -7.472   5.213 -22.531  1.00  0.00     0.345 HD
ENDBRANCH   2   3
BRANCH   2   7
ATOM      7  C   UNL     1      -7.749   2.866 -23.142  1.00  0.00     0.100 C 
ATOM      8  O   UNL     1      -8.802   3.479 -22.822  1.00  0.00    -0.544 OA
ATOM      9  O   UNL     1      -7.839   1.648 -23.804  1.00  0.00    -0.544 OA
ENDBRANCH   2   7
ENDBRANCH   1   2
BRANCH   1  10
ATOM     10  C   UNL     1      -4.296   3.089 -21.495  1.00  0.00     0.223 C 
ATOM     11  O   UNL     1      -3.591   3.683 -22.354  1.00  0.00    -0.275 OA
ATOM     12  N   UNL     1      -3.842   2.999 -20.145  1.00  0.00    -0.369 N 
ATOM     13  H   UNL     1      -4.423   2.530 -19.416  1.00  0.00     0.159 HD
ATOM     14  H   UNL     1      -2.922   3.412 -19.870  1.00  0.00     0.159 HD
ENDBRANCH   1  10
TORSDOF 4
ENDMDL
MODEL 4
REMARK VINA RESULT:    -3.534      6.396      7.497
REMARK INTER + INTRA:          -4.438
REMARK INTER:                  -4.064
REMARK INTRA:                  -0.374
REMARK UNBOUND:                -0.181
REMARK SMILES NC(=O)C[C@H]([NH3+])C(=O)[O-]
REMARK SMILES IDX 4 1 5 2 6 3 7 7 8 8 9 9 2 10 3 11 1 12
REMARK H PARENT 6 4 6 5 6 6 1 13 1 14
REMARK Flexibility Score: inf
ROOT
ATOM      1  C   UNL     1      -0.925   5.402 -24.905  1.00  0.00     0.171 C 
ENDROOT
BRANCH   1   2
ATOM      2  C   UNL     1      -2.414   5.012 -24.823  1.00  0.00     0.237 C 
BRANCH   2   3
ATOM      3  N   UNL     1      -3.278   6.198 -24.746  1.00  0.00    -0.350 N 
ATOM      4  H   UNL     1      -3.067   6.842 -25.542  1.00  0.00     0.345 HD
ATOM      5  H   UNL     1      -4.287   5.925 -24.785  1.00  0.00     0.345 HD
ATOM      6  H   UNL     1      -3.097   6.717 -23.857  1.00  0.00     0.345 HD
ENDBRANCH   2   3
BRANCH   2   7
ATOM      7  C   UNL     1      -2.641   4.130 -23.625  1.00  0.00     0.100 C 
ATOM      8  O   UNL     1      -1.659   3.656 -22.993  1.00  0.00    -0.544 OA
ATOM      9  O   UNL     1      -3.932   3.847 -23.197  1.00  0.00    -0.544 OA
ENDBRANCH   2   7
ENDBRANCH   1   2
BRANCH   1  10
ATOM     10  C   UNL     1      -0.645   6.682 -24.171  1.00  0.00     0.223 C 
ATOM     11  O   UNL     1      -0.512   7.755 -24.817  1.00  0.00    -0.275 OA
ATOM     12  N   UNL     1      -0.561   6.698 -22.747  1.00  0.00    -0.369 N 
ATOM     13  H   UNL     1      -0.691   5.821 -22.194  1.00  0.00     0.159 HD
ATOM     14  H   UNL     1      -0.377   7.592 -22.240  1.00  0.00     0.159 HD
ENDBRANCH   1  10
TORSDOF 4
ENDMDL
MODEL 5
REMARK VINA RESULT:    -3.465      6.654      7.901
REMARK INTER + INTRA:          -4.355
REMARK INTER:                  -4.160
REMARK INTRA:                  -0.195
REMARK UNBOUND:                -0.181
REMARK SMILES NC(=O)C[C@H]([NH3+])C(=O)[O-]
REMARK SMILES IDX 4 1 5 2 6 3 7 7 8 8 9 9 2 10 3 11 1 12
REMARK H PARENT 6 4 6 5 6 6 1 13 1 14
REMARK Flexibility Score: inf
ROOT
ATOM      1  C   UNL     1      -5.731   3.616 -21.816  1.00  0.00     0.171 C 
ENDROOT
BRANCH   1   2
ATOM      2  C   UNL     1      -4.361   2.924 -21.665  1.00  0.00     0.237 C 
BRANCH   2   3
ATOM      3  N   UNL     1      -3.837   3.060 -20.300  1.00  0.00    -0.350 N 
ATOM      4  H   UNL     1      -2.933   2.541 -20.214  1.00  0.00     0.345 HD
ATOM      5  H   UNL     1      -3.679   4.066 -20.061  1.00  0.00     0.345 HD
ATOM      6  H   UNL     1      -4.510   2.646 -19.615  1.00  0.00     0.345 HD
ENDBRANCH   2   3
BRANCH   2   7
ATOM      7  C   UNL     1      -3.388   3.509 -22.653  1.00  0.00     0.100 C 
ATOM      8  O   UNL     1      -2.169   3.194 -22.603  1.00  0.00    -0.544 OA
ATOM      9  O   UNL     1      -3.829   4.386 -23.636  1.00  0.00    -0.544 OA
ENDBRANCH   2   7
ENDBRANCH   1   2
BRANCH   1  10
ATOM     10  C   UNL     1      -6.597   2.920 -22.825  1.00  0.00     0.223 C 
ATOM     11  O   UNL     1      -7.166   1.839 -22.519  1.00  0.00    -0.275 OA
ATOM     12  N   UNL     1      -6.808   3.489 -24.116  1.00  0.00    -0.369 N 
ATOM     13  H   UNL     1      -6.362   4.397 -24.380  1.00  0.00     0.159 HD
ATOM     14  H   UNL     1      -7.420   3.007 -24.812  1.00  0.00     0.159 HD
ENDBRANCH   1  10
TORSDOF 4
ENDMDL
MODEL 6
REMARK VINA RESULT:    -3.454      7.562      8.491
REMARK INTER + INTRA:          -4.342
REMARK INTER:                  -4.083
REMARK INTRA:                  -0.259
REMARK UNBOUND:                -0.181
REMARK SMILES NC(=O)C[C@H]([NH3+])C(=O)[O-]
REMARK SMILES IDX 4 1 5 2 6 3 7 7 8 8 9 9 2 10 3 11 1 12
REMARK H PARENT 6 4 6 5 6 6 1 13 1 14
REMARK Flexibility Score: inf
ROOT
ATOM      1  C   UNL     1      -5.658   2.666 -22.019  1.00  0.00     0.171 C 
ENDROOT
BRANCH   1   2
ATOM      2  C   UNL     1      -6.084   3.779 -22.997  1.00  0.00     0.237 C 
BRANCH   2   3
ATOM      3  N   UNL     1      -5.065   4.834 -23.088  1.00  0.00    -0.350 N 
ATOM      4  H   UNL     1      -4.734   5.090 -22.130  1.00  0.00     0.345 HD
ATOM      5  H   UNL     1      -4.249   4.514 -23.659  1.00  0.00     0.345 HD
ATOM      6  H   UNL     1      -5.475   5.691 -23.525  1.00  0.00     0.345 HD
ENDBRANCH   2   3
BRANCH   2   7
ATOM      7  C   UNL     1      -7.397   4.366 -22.555  1.00  0.00     0.100 C 
ATOM      8  O   UNL     1      -7.419   5.412 -21.854  1.00  0.00    -0.544 OA
ATOM      9  O   UNL     1      -8.594   3.768 -22.932  1.00  0.00    -0.544 OA
ENDBRANCH   2   7
ENDBRANCH   1   2
BRANCH   1  10
ATOM     10  C   UNL     1      -4.228   2.822 -21.588  1.00  0.00     0.223 C 
ATOM     11  O   UNL     1      -3.306   2.736 -22.442  1.00  0.00    -0.275 OA
ATOM     12  N   UNL     1      -3.907   3.100 -20.226  1.00  0.00    -0.369 N 
ATOM     13  H   UNL     1      -4.660   3.198 -19.508  1.00  0.00     0.159 HD
ATOM     14  H   UNL     1      -2.912   3.219 -19.932  1.00  0.00     0.159 HD
ENDBRANCH   1  10
TORSDOF 4
ENDMDL
MODEL 7
REMARK VINA RESULT:    -3.426      5.267      6.438
REMARK INTER + INTRA:          -4.308
REMARK INTER:                  -4.061
REMARK INTRA:                  -0.247
REMARK UNBOUND:                -0.181
REMARK SMILES NC(=O)C[C@H]([NH3+])C(=O)[O-]
REMARK SMILES IDX 4 1 5 2 6 3 7 7 8 8 9 9 2 10 3 11 1 12
REMARK H PARENT 6 4 6 5 6 6 1 13 1 14
REMARK Flexibility Score: inf
ROOT
ATOM      1  C   UNL     1      -3.820   2.423 -22.054  1.00  0.00     0.171 C 
ENDROOT
BRANCH   1   2
ATOM      2  C   UNL     1      -2.703   3.352 -22.573  1.00  0.00     0.237 C 
BRANCH   2   3
ATOM      3  N   UNL     1      -3.255   4.492 -23.318  1.00  0.00    -0.350 N 
ATOM      4  H   UNL     1      -2.612   4.748 -24.102  1.00  0.00     0.345 HD
ATOM      5  H   UNL     1      -4.197   4.258 -23.709  1.00  0.00     0.345 HD
ATOM      6  H   UNL     1      -3.341   5.323 -22.690  1.00  0.00     0.345 HD
ENDBRANCH   2   3
BRANCH   2   7
ATOM      7  C   UNL     1      -1.761   2.570 -23.449  1.00  0.00     0.100 C 
ATOM      8  O   UNL     1      -1.519   1.360 -23.196  1.00  0.00    -0.544 OA
ATOM      9  O   UNL     1      -1.166   3.173 -24.550  1.00  0.00    -0.544 OA
ENDBRANCH   2   7
ENDBRANCH   1   2
BRANCH   1  10
ATOM     10  C   UNL     1      -4.561   3.036 -20.902  1.00  0.00     0.223 C 
ATOM     11  O   UNL     1      -5.472   3.878 -21.123  1.00  0.00    -0.275 OA
ATOM     12  N   UNL     1      -4.266   2.649 -19.561  1.00  0.00    -0.369 N 
ATOM     13  H   UNL     1      -3.530   1.935 -19.360  1.00  0.00     0.159 HD
ATOM     14  H   UNL     1      -4.792   3.070 -18.763  1.00  0.00     0.159 HD
ENDBRANCH   1  10
TORSDOF 4
ENDMDL
MODEL 8
REMARK VINA RESULT:    -3.194      2.161      2.451
REMARK INTER + INTRA:          -4.029
REMARK INTER:                  -3.798
REMARK INTRA:                  -0.231
REMARK UNBOUND:                -0.181
REMARK SMILES NC(=O)C[C@H]([NH3+])C(=O)[O-]
REMARK SMILES IDX 4 1 5 2 6 3 7 7 8 8 9 9 2 10 3 11 1 12
REMARK H PARENT 6 4 6 5 6 6 1 13 1 14
REMARK Flexibility Score: inf
ROOT
ATOM      1  C   UNL     1       2.500  -1.520 -23.498  1.00  0.00     0.171 C 
ENDROOT
BRANCH   1   2
ATOM      2  C   UNL     1       2.558  -0.039 -23.074  1.00  0.00     0.237 C 
BRANCH   2   3
ATOM      3  N   UNL     1       1.269   0.418 -22.538  1.00  0.00    -0.350 N 
ATOM      4  H   UNL     1       0.679  -0.406 -22.282  1.00  0.00     0.345 HD
ATOM      5  H   UNL     1       1.410   1.015 -21.690  1.00  0.00     0.345 HD
ATOM      6  H   UNL     1       0.754   0.968 -23.263  1.00  0.00     0.345 HD
ENDBRANCH   2   3
BRANCH   2   7
ATOM      7  C   UNL     1       2.958   0.809 -24.251  1.00  0.00     0.100 C 
ATOM      8  O   UNL     1       2.105   1.121 -25.125  1.00  0.00    -0.544 OA
ATOM      9  O   UNL     1       4.264   1.268 -24.373  1.00  0.00    -0.544 OA
ENDBRANCH   2   7
ENDBRANCH   1   2
BRANCH   1  10
ATOM     10  C   UNL     1       2.347  -2.431 -22.314  1.00  0.00     0.223 C 
ATOM     11  O   UNL     1       1.403  -2.244 -21.501  1.00  0.00    -0.275 OA
ATOM     12  N   UNL     1       3.242  -3.526 -22.121  1.00  0.00    -0.369 N 
ATOM     13  H   UNL     1       4.016  -3.709 -22.797  1.00  0.00     0.159 HD
ATOM     14  H   UNL     1       3.125  -4.163 -21.301  1.00  0.00     0.159 HD
ENDBRANCH   1  10
TORSDOF 4
ENDMDL
