MODEL 1
REMARK VINA RESULT:    -3.131      0.000      0.000
REMARK INTER + INTRA:          -3.327
REMARK INTER:                  -3.315
REMARK INTRA:                  -0.012
REMARK UNBOUND:                -0.012
REMARK SMILES O=Cc1ccco1
REMARK SMILES IDX 5 1 6 2 7 3 3 4 4 5 2 6 1 7
REMARK H PARENT
REMARK Flexibility Score: inf
ROOT
ATOM      1  C   UNL     1       3.234  26.636  16.634  1.00  0.00     0.043 A 
ATOM      2  C   UNL     1       4.486  26.164  16.976  1.00  0.00     0.196 A 
ATOM      3  O   UNL     1       4.438  25.600  18.161  1.00  0.00    -0.462 OA
ATOM      4  C   UNL     1       3.207  25.682  18.611  1.00  0.00     0.166 A 
ATOM      5  C   UNL     1       2.406  26.325  17.691  1.00  0.00     0.054 A 
ENDROOT
BRANCH   4   6
ATOM      6  C   UNL     1       2.766  25.161  19.906  1.00  0.00     0.298 C 
ATOM      7  O   UNL     1       1.565  25.282  20.263  1.00  0.00    -0.294 OA
ENDBRANCH   4   6
TORSDOF 1
ENDMDL
MODEL 2
REMARK VINA RESULT:    -3.074      1.337      3.327
REMARK INTER + INTRA:          -3.266
REMARK INTER:                  -3.255
REMARK INTRA:                  -0.011
REMARK UNBOUND:                -0.012
REMARK SMILES O=Cc1ccco1
REMARK SMILES IDX 5 1 6 2 7 3 3 4 4 5 2 6 1 7
REMARK H PARENT
REMARK Flexibility Score: inf
ROOT
ATOM      1  C   UNL     1       1.454  25.157  20.360  1.00  0.00     0.043 A 
ATOM      2  C   UNL     1       0.933  26.244  19.684  1.00  0.00     0.196 A 
ATOM      3  O   UNL     1       1.740  26.583  18.705  1.00  0.00    -0.462 OA
ATOM      4  C   UNL     1       2.767  25.765  18.710  1.00  0.00     0.166 A 
ATOM      5  C   UNL     1       2.640  24.847  19.731  1.00  0.00     0.054 A 
ENDROOT
BRANCH   4   6
ATOM      6  C   UNL     1       3.879  25.833  17.760  1.00  0.00     0.298 C 
ATOM      7  O   UNL     1       5.062  25.663  18.155  1.00  0.00    -0.294 OA
ENDBRANCH   4   6
TORSDOF 1
ENDMDL
MODEL 3
REMARK VINA RESULT:    -2.979      2.377      3.200
REMARK INTER + INTRA:          -3.165
REMARK INTER:                  -3.154
REMARK INTRA:                  -0.011
REMARK UNBOUND:                -0.012
REMARK SMILES O=Cc1ccco1
REMARK SMILES IDX 5 1 6 2 7 3 3 4 4 5 2 6 1 7
REMARK H PARENT
REMARK Flexibility Score: inf
ROOT
ATOM      1  C   UNL     1       2.597  25.763  19.110  1.00  0.00     0.043 A 
ATOM      2  C   UNL     1       1.614  26.728  19.000  1.00  0.00     0.196 A 
ATOM      3  O   UNL     1       0.603  26.419  19.779  1.00  0.00    -0.462 OA
ATOM      4  C   UNL     1       0.879  25.293  20.395  1.00  0.00     0.166 A 
ATOM      5  C   UNL     1       2.122  24.835  20.012  1.00  0.00     0.054 A 
ENDROOT
BRANCH   4   6
ATOM      6  C   UNL     1      -0.015  24.634  21.348  1.00  0.00     0.298 C 
ATOM      7  O   UNL     1       0.431  24.212  22.448  1.00  0.00    -0.294 OA
ENDBRANCH   4   6
TORSDOF 1
ENDMDL
MODEL 4
REMARK VINA RESULT:    -2.921      9.106     10.689
REMARK INTER + INTRA:          -3.104
REMARK INTER:                  -3.093
REMARK INTRA:                  -0.011
REMARK UNBOUND:                -0.012
REMARK SMILES O=Cc1ccco1
REMARK SMILES IDX 5 1 6 2 7 3 3 4 4 5 2 6 1 7
REMARK H PARENT
REMARK Flexibility Score: inf
ROOT
ATOM      1  C   UNL     1      -3.497  21.752  27.446  1.00  0.00     0.043 A 
ATOM      2  C   UNL     1      -3.806  22.628  26.424  1.00  0.00     0.196 A 
ATOM      3  O   UNL     1      -2.708  22.975  25.792  1.00  0.00    -0.462 OA
ATOM      4  C   UNL     1      -1.692  22.365  26.356  1.00  0.00     0.166 A 
ATOM      5  C   UNL     1      -2.130  21.581  27.403  1.00  0.00     0.054 A 
ENDROOT
BRANCH   4   6
ATOM      6  C   UNL     1      -0.301  22.507  25.923  1.00  0.00     0.298 C 
ATOM      7  O   UNL     1       0.408  23.449  26.364  1.00  0.00    -0.294 OA
ENDBRANCH   4   6
TORSDOF 1
ENDMDL
MODEL 5
REMARK VINA RESULT:    -2.881      2.164      3.965
REMARK INTER + INTRA:          -3.061
REMARK INTER:                  -3.050
REMARK INTRA:                  -0.012
REMARK UNBOUND:                -0.012
REMARK SMILES O=Cc1ccco1
REMARK SMILES IDX 5 1 6 2 7 3 3 4 4 5 2 6 1 7
REMARK H PARENT
REMARK Flexibility Score: inf
ROOT
ATOM      1  C   UNL     1      -0.557  25.737  20.461  1.00  0.00     0.043 A 
ATOM      2  C   UNL     1      -0.028  24.831  21.360  1.00  0.00     0.196 A 
ATOM      3  O   UNL     1       1.245  24.640  21.097  1.00  0.00    -0.462 OA
ATOM      4  C   UNL     1       1.573  25.381  20.065  1.00  0.00     0.166 A 
ATOM      5  C   UNL     1       0.478  26.094  19.623  1.00  0.00     0.054 A 
ENDROOT
BRANCH   4   6
ATOM      6  C   UNL     1       2.914  25.433  19.480  1.00  0.00     0.298 C 
ATOM      7  O   UNL     1       3.061  25.661  18.250  1.00  0.00    -0.294 OA
ENDBRANCH   4   6
TORSDOF 1
ENDMDL
MODEL 6
REMARK VINA RESULT:    -2.861      5.967      8.110
REMARK INTER + INTRA:          -3.041
REMARK INTER:                  -3.029
REMARK INTRA:                  -0.012
REMARK UNBOUND:                -0.012
REMARK SMILES O=Cc1ccco1
REMARK SMILES IDX 5 1 6 2 7 3 3 4 4 5 2 6 1 7
REMARK H PARENT
REMARK Flexibility Score: inf
ROOT
ATOM      1  C   UNL     1      -0.404  22.507  25.975  1.00  0.00     0.043 A 
ATOM      2  C   UNL     1      -0.795  21.322  25.383  1.00  0.00     0.196 A 
ATOM      3  O   UNL     1      -0.760  21.448  24.076  1.00  0.00    -0.462 OA
ATOM      4  C   UNL     1      -0.363  22.665  23.785  1.00  0.00     0.166 A 
ATOM      5  C   UNL     1      -0.124  23.377  24.942  1.00  0.00     0.054 A 
ENDROOT
BRANCH   4   6
ATOM      6  C   UNL     1      -0.203  23.177  22.423  1.00  0.00     0.298 C 
ATOM      7  O   UNL     1       0.403  24.262  22.221  1.00  0.00    -0.294 OA
ENDBRANCH   4   6
TORSDOF 1
ENDMDL
MODEL 7
REMARK VINA RESULT:    -2.835      8.151      9.453
REMARK INTER + INTRA:          -3.012
REMARK INTER:                  -3.002
REMARK INTRA:                  -0.011
REMARK UNBOUND:                -0.012
REMARK SMILES O=Cc1ccco1
REMARK SMILES IDX 5 1 6 2 7 3 3 4 4 5 2 6 1 7
REMARK H PARENT
REMARK Flexibility Score: inf
ROOT
ATOM      1  C   UNL     1       0.086  23.053  24.797  1.00  0.00     0.043 A 
ATOM      2  C   UNL     1      -0.390  22.080  23.939  1.00  0.00     0.196 A 
ATOM      3  O   UNL     1      -1.062  21.180  24.620  1.00  0.00    -0.462 OA
ATOM      4  C   UNL     1      -1.048  21.522  25.888  1.00  0.00     0.166 A 
ATOM      5  C   UNL     1      -0.340  22.693  26.057  1.00  0.00     0.054 A 
ENDROOT
BRANCH   4   6
ATOM      6  C   UNL     1      -1.697  20.758  26.955  1.00  0.00     0.298 C 
ATOM      7  O   UNL     1      -2.749  21.190  27.495  1.00  0.00    -0.294 OA
ENDBRANCH   4   6
TORSDOF 1
ENDMDL
MODEL 8
REMARK VINA RESULT:    -2.758     17.346     18.124
REMARK INTER + INTRA:          -2.932
REMARK INTER:                  -2.921
REMARK INTRA:                  -0.011
REMARK UNBOUND:                -0.012
REMARK SMILES O=Cc1ccco1
REMARK SMILES IDX 5 1 6 2 7 3 3 4 4 5 2 6 1 7
REMARK H PARENT
REMARK Flexibility Score: inf
ROOT
ATOM      1  C   UNL     1      -3.996  12.440  28.965  1.00  0.00     0.043 A 
ATOM      2  C   UNL     1      -4.125  13.353  27.936  1.00  0.00     0.196 A 
ATOM      3  O   UNL     1      -3.674  12.827  26.820  1.00  0.00    -0.462 OA
ATOM      4  C   UNL     1      -3.254  11.609  27.073  1.00  0.00     0.166 A 
ATOM      5  C   UNL     1      -3.432  11.312  28.408  1.00  0.00     0.054 A 
ENDROOT
BRANCH   4   6
ATOM      6  C   UNL     1      -2.682  10.709  26.071  1.00  0.00     0.298 C 
ATOM      7  O   UNL     1      -1.497  10.300  26.188  1.00  0.00    -0.294 OA
ENDBRANCH   4   6
TORSDOF 1
ENDMDL
MODEL 9
REMARK VINA RESULT:    -2.724      7.465      8.675
REMARK INTER + INTRA:          -2.895
REMARK INTER:                  -2.879
REMARK INTRA:                  -0.016
REMARK UNBOUND:                -0.012
REMARK SMILES O=Cc1ccco1
REMARK SMILES IDX 5 1 6 2 7 3 3 4 4 5 2 6 1 7
REMARK H PARENT
REMARK Flexibility Score: inf
ROOT
ATOM      1  C   UNL     1       0.062  22.708  25.656  1.00  0.00     0.043 A 
ATOM      2  C   UNL     1       0.272  23.003  24.323  1.00  0.00     0.196 A 
ATOM      3  O   UNL     1      -0.361  22.130  23.572  1.00  0.00    -0.462 OA
ATOM      4  C   UNL     1      -0.978  21.276  24.356  1.00  0.00     0.166 A 
ATOM      5  C   UNL     1      -0.746  21.592  25.679  1.00  0.00     0.054 A 
ENDROOT
BRANCH   4   6
ATOM      6  C   UNL     1      -1.790  20.157  23.878  1.00  0.00     0.298 C 
ATOM      7  O   UNL     1      -1.962  19.980  22.643  1.00  0.00    -0.294 OA
ENDBRANCH   4   6
TORSDOF 1
ENDMDL
