MODEL 1
REMARK VINA RESULT:     1.705      0.000      0.000
REMARK INTER + INTRA:           1.708
REMARK INTER:                   4.297
REMARK INTRA:                  -2.590
REMARK UNBOUND:                -2.590
REMARK SMILES CCCCCCCCCCCCCCCCCCCCCCCCCCCC(=O)[O-]
REMARK SMILES IDX 15 1 16 2 17 3 18 4 19 5 20 6 21 7 22 8 23 9 24 10 25 11
REMARK SMILES IDX 26 12 27 13 28 14 29 15 30 16 14 17 13 18 12 19 11 20 10 21
REMARK SMILES IDX 9 22 8 23 7 24 6 25 5 26 4 27 3 28 2 29 1 30
REMARK H PARENT
REMARK Flexibility Score: inf
ROOT
ATOM      1  C   UNL     1     -10.125   9.258   3.653  1.00  0.00     0.000 C 
ENDROOT
BRANCH   1   2
ATOM      2  C   UNL     1      -8.745   9.882   3.898  1.00  0.00     0.000 C 
BRANCH   2   3
ATOM      3  C   UNL     1      -7.767   9.501   2.777  1.00  0.00     0.000 C 
BRANCH   3   4
ATOM      4  C   UNL     1      -6.386   9.076   3.309  1.00  0.00     0.000 C 
BRANCH   4   5
ATOM      5  C   UNL     1      -5.400   8.576   2.234  1.00  0.00     0.000 C 
BRANCH   5   6
ATOM      6  C   UNL     1      -4.811   7.175   2.487  1.00  0.00     0.000 C 
BRANCH   6   7
ATOM      7  C   UNL     1      -3.838   6.727   1.386  1.00  0.00     0.000 C 
BRANCH   7   8
ATOM      8  C   UNL     1      -2.874   5.648   1.908  1.00  0.00     0.000 C 
BRANCH   8   9
ATOM      9  C   UNL     1      -2.189   4.864   0.768  1.00  0.00     0.000 C 
BRANCH   9  10
ATOM     10  C   UNL     1      -1.627   3.495   1.197  1.00  0.00     0.000 C 
BRANCH  10  11
ATOM     11  C   UNL     1      -0.112   3.318   1.003  1.00  0.00     0.000 C 
BRANCH  11  12
ATOM     12  C   UNL     1       0.699   4.527   1.503  1.00  0.00     0.006 C 
BRANCH  12  13
ATOM     13  C   UNL     1       1.153   4.358   2.959  1.00  0.00     0.053 C 
BRANCH  13  14
ATOM     14  C   UNL     1       1.495   5.671   3.592  1.00  0.00     0.041 C 
ATOM     15  O   UNL     1       0.997   5.985   4.706  1.00  0.00    -0.550 OA
ATOM     16  O   UNL     1       2.335   6.564   2.937  1.00  0.00    -0.550 OA
ENDBRANCH  13  14
ENDBRANCH  12  13
ENDBRANCH  11  12
ENDBRANCH  10  11
ENDBRANCH   9  10
ENDBRANCH   8   9
ENDBRANCH   7   8
ENDBRANCH   6   7
ENDBRANCH   5   6
ENDBRANCH   4   5
ENDBRANCH   3   4
ENDBRANCH   2   3
ENDBRANCH   1   2
BRANCH   1  17
ATOM     17  C   UNL     1     -10.032   7.727   3.562  1.00  0.00     0.000 C 
BRANCH  17  18
ATOM     18  C   UNL     1      -9.005   7.140   4.544  1.00  0.00     0.000 C 
BRANCH  18  19
ATOM     19  C   UNL     1      -9.657   6.265   5.629  1.00  0.00     0.000 C 
BRANCH  19  20
ATOM     20  C   UNL     1      -9.356   6.770   7.048  1.00  0.00     0.000 C 
BRANCH  20  21
ATOM     21  C   UNL     1      -9.805   8.225   7.270  1.00  0.00     0.000 C 
BRANCH  21  22
ATOM     22  C   UNL     1      -8.653   9.131   7.730  1.00  0.00    -0.000 C 
BRANCH  22  23
ATOM     23  C   UNL     1      -7.280   8.618   7.259  1.00  0.00    -0.000 C 
BRANCH  23  24
ATOM     24  C   UNL     1      -6.117   9.474   7.783  1.00  0.00    -0.000 C 
BRANCH  24  25
ATOM     25  C   UNL     1      -5.914   9.329   9.299  1.00  0.00    -0.000 C 
BRANCH  25  26
ATOM     26  C   UNL     1      -4.549   8.696   9.613  1.00  0.00    -0.000 C 
BRANCH  26  27
ATOM     27  C   UNL     1      -4.554   7.167   9.453  1.00  0.00    -0.000 C 
BRANCH  27  28
ATOM     28  C   UNL     1      -5.774   6.507  10.119  1.00  0.00    -0.000 C 
BRANCH  28  29
ATOM     29  C   UNL     1      -6.465   5.488   9.201  1.00  0.00    -0.003 C 
ATOM     30  C   UNL     1      -7.815   5.019   9.745  1.00  0.00     0.004 C 
ENDBRANCH  28  29
ENDBRANCH  27  28
ENDBRANCH  26  27
ENDBRANCH  25  26
ENDBRANCH  24  25
ENDBRANCH  23  24
ENDBRANCH  22  23
ENDBRANCH  21  22
ENDBRANCH  20  21
ENDBRANCH  19  20
ENDBRANCH  18  19
ENDBRANCH  17  18
ENDBRANCH   1  17
TORSDOF 26
ENDMDL
MODEL 2
REMARK VINA RESULT:     3.324      2.990      9.807
REMARK INTER + INTRA:           5.787
REMARK INTER:                   7.590
REMARK INTRA:                  -1.803
REMARK UNBOUND:                -2.590
REMARK SMILES CCCCCCCCCCCCCCCCCCCCCCCCCCCC(=O)[O-]
REMARK SMILES IDX 15 1 16 2 17 3 18 4 19 5 20 6 21 7 22 8 23 9 24 10 25 11
REMARK SMILES IDX 26 12 27 13 28 14 29 15 30 16 14 17 13 18 12 19 11 20 10 21
REMARK SMILES IDX 9 22 8 23 7 24 6 25 5 26 4 27 3 28 2 29 1 30
REMARK H PARENT
REMARK Flexibility Score: inf
ROOT
ATOM      1  C   UNL     1      -6.819   9.227   3.655  1.00  0.00     0.000 C 
ENDROOT
BRANCH   1   2
ATOM      2  C   UNL     1      -8.142   8.450   3.680  1.00  0.00     0.000 C 
BRANCH   2   3
ATOM      3  C   UNL     1      -8.827   8.582   5.048  1.00  0.00     0.000 C 
BRANCH   3   4
ATOM      4  C   UNL     1      -9.970   7.570   5.244  1.00  0.00     0.000 C 
BRANCH   4   5
ATOM      5  C   UNL     1      -9.845   6.681   6.498  1.00  0.00     0.000 C 
BRANCH   5   6
ATOM      6  C   UNL     1      -8.453   6.062   6.726  1.00  0.00     0.000 C 
BRANCH   6   7
ATOM      7  C   UNL     1      -7.853   6.426   8.093  1.00  0.00     0.000 C 
BRANCH   7   8
ATOM      8  C   UNL     1      -8.576   7.635   8.709  1.00  0.00     0.000 C 
BRANCH   8   9
ATOM      9  C   UNL     1      -7.597   8.705   9.236  1.00  0.00     0.000 C 
BRANCH   9  10
ATOM     10  C   UNL     1      -6.526   9.135   8.214  1.00  0.00     0.000 C 
BRANCH  10  11
ATOM     11  C   UNL     1      -5.071   8.895   8.648  1.00  0.00     0.000 C 
BRANCH  11  12
ATOM     12  C   UNL     1      -4.963   8.228  10.031  1.00  0.00     0.006 C 
BRANCH  12  13
ATOM     13  C   UNL     1      -3.781   7.253  10.113  1.00  0.00     0.053 C 
BRANCH  13  14
ATOM     14  C   UNL     1      -4.065   5.969   9.396  1.00  0.00     0.041 C 
ATOM     15  O   UNL     1      -5.213   5.453   9.454  1.00  0.00    -0.550 OA
ATOM     16  O   UNL     1      -3.054   5.324   8.693  1.00  0.00    -0.550 OA
ENDBRANCH  13  14
ENDBRANCH  12  13
ENDBRANCH  11  12
ENDBRANCH  10  11
ENDBRANCH   9  10
ENDBRANCH   8   9
ENDBRANCH   7   8
ENDBRANCH   6   7
ENDBRANCH   5   6
ENDBRANCH   4   5
ENDBRANCH   3   4
ENDBRANCH   2   3
ENDBRANCH   1   2
BRANCH   1  17
ATOM     17  C   UNL     1      -6.029   8.935   2.370  1.00  0.00     0.000 C 
BRANCH  17  18
ATOM     18  C   UNL     1      -5.636   7.454   2.243  1.00  0.00     0.000 C 
BRANCH  18  19
ATOM     19  C   UNL     1      -4.112   7.242   2.258  1.00  0.00     0.000 C 
BRANCH  19  20
ATOM     20  C   UNL     1      -3.690   5.965   1.516  1.00  0.00     0.000 C 
BRANCH  20  21
ATOM     21  C   UNL     1      -2.177   5.701   1.598  1.00  0.00     0.000 C 
BRANCH  21  22
ATOM     22  C   UNL     1      -1.801   4.289   1.121  1.00  0.00    -0.000 C 
BRANCH  22  23
ATOM     23  C   UNL     1      -0.465   3.807   1.714  1.00  0.00    -0.000 C 
BRANCH  23  24
ATOM     24  C   UNL     1       0.522   3.331   0.636  1.00  0.00    -0.000 C 
BRANCH  24  25
ATOM     25  C   UNL     1       1.474   2.239   1.149  1.00  0.00    -0.000 C 
BRANCH  25  26
ATOM     26  C   UNL     1       1.905   1.306   0.006  1.00  0.00    -0.000 C 
BRANCH  26  27
ATOM     27  C   UNL     1       2.593   0.028   0.513  1.00  0.00    -0.000 C 
BRANCH  27  28
ATOM     28  C   UNL     1       3.666  -0.492  -0.460  1.00  0.00    -0.000 C 
BRANCH  28  29
ATOM     29  C   UNL     1       3.121  -1.560  -1.419  1.00  0.00    -0.003 C 
ATOM     30  C   UNL     1       2.240  -2.595  -0.719  1.00  0.00     0.004 C 
ENDBRANCH  28  29
ENDBRANCH  27  28
ENDBRANCH  26  27
ENDBRANCH  25  26
ENDBRANCH  24  25
ENDBRANCH  23  24
ENDBRANCH  22  23
ENDBRANCH  21  22
ENDBRANCH  20  21
ENDBRANCH  19  20
ENDBRANCH  18  19
ENDBRANCH  17  18
ENDBRANCH   1  17
TORSDOF 26
ENDMDL
MODEL 3
REMARK VINA RESULT:     3.352      3.128      4.143
REMARK INTER + INTRA:           5.856
REMARK INTER:                   7.976
REMARK INTRA:                  -2.120
REMARK UNBOUND:                -2.590
REMARK SMILES CCCCCCCCCCCCCCCCCCCCCCCCCCCC(=O)[O-]
REMARK SMILES IDX 15 1 16 2 17 3 18 4 19 5 20 6 21 7 22 8 23 9 24 10 25 11
REMARK SMILES IDX 26 12 27 13 28 14 29 15 30 16 14 17 13 18 12 19 11 20 10 21
REMARK SMILES IDX 9 22 8 23 7 24 6 25 5 26 4 27 3 28 2 29 1 30
REMARK H PARENT
REMARK Flexibility Score: inf
ROOT
ATOM      1  C   UNL     1      -7.659   8.641   3.128  1.00  0.00     0.000 C 
ENDROOT
BRANCH   1   2
ATOM      2  C   UNL     1      -6.175   8.710   2.748  1.00  0.00     0.000 C 
BRANCH   2   3
ATOM      3  C   UNL     1      -5.669   7.342   2.269  1.00  0.00     0.000 C 
BRANCH   3   4
ATOM      4  C   UNL     1      -4.133   7.250   2.236  1.00  0.00     0.000 C 
BRANCH   4   5
ATOM      5  C   UNL     1      -3.568   6.067   1.425  1.00  0.00     0.000 C 
BRANCH   5   6
ATOM      6  C   UNL     1      -2.041   5.886   1.509  1.00  0.00     0.000 C 
BRANCH   6   7
ATOM      7  C   UNL     1      -1.615   4.411   1.564  1.00  0.00     0.000 C 
BRANCH   7   8
ATOM      8  C   UNL     1      -0.083   4.278   1.519  1.00  0.00     0.000 C 
BRANCH   8   9
ATOM      9  C   UNL     1       0.380   3.031   0.736  1.00  0.00     0.000 C 
BRANCH   9  10
ATOM     10  C   UNL     1       1.308   3.345  -0.454  1.00  0.00     0.000 C 
BRANCH  10  11
ATOM     11  C   UNL     1       1.887   2.118  -1.177  1.00  0.00     0.000 C 
BRANCH  11  12
ATOM     12  C   UNL     1       2.220   0.962  -0.217  1.00  0.00     0.006 C 
BRANCH  12  13
ATOM     13  C   UNL     1       3.279   0.015  -0.796  1.00  0.00     0.053 C 
BRANCH  13  14
ATOM     14  C   UNL     1       2.932  -1.422  -0.558  1.00  0.00     0.041 C 
ATOM     15  O   UNL     1       3.555  -2.333  -1.167  1.00  0.00    -0.550 OA
ATOM     16  O   UNL     1       1.899  -1.756   0.310  1.00  0.00    -0.550 OA
ENDBRANCH  13  14
ENDBRANCH  12  13
ENDBRANCH  11  12
ENDBRANCH  10  11
ENDBRANCH   9  10
ENDBRANCH   8   9
ENDBRANCH   7   8
ENDBRANCH   6   7
ENDBRANCH   5   6
ENDBRANCH   4   5
ENDBRANCH   3   4
ENDBRANCH   2   3
ENDBRANCH   1   2
BRANCH   1  17
ATOM     17  C   UNL     1      -7.874   9.031   4.599  1.00  0.00     0.000 C 
BRANCH  17  18
ATOM     18  C   UNL     1      -9.318   8.792   5.068  1.00  0.00     0.000 C 
BRANCH  18  19
ATOM     19  C   UNL     1      -9.703   7.302   5.064  1.00  0.00     0.000 C 
BRANCH  19  20
ATOM     20  C   UNL     1      -8.679   6.431   5.805  1.00  0.00     0.000 C 
BRANCH  20  21
ATOM     21  C   UNL     1      -9.276   5.725   7.035  1.00  0.00     0.000 C 
BRANCH  21  22
ATOM     22  C   UNL     1      -8.496   6.030   8.323  1.00  0.00    -0.000 C 
BRANCH  22  23
ATOM     23  C   UNL     1      -9.295   6.918   9.294  1.00  0.00    -0.000 C 
BRANCH  23  24
ATOM     24  C   UNL     1      -8.537   8.197   9.684  1.00  0.00    -0.000 C 
BRANCH  24  25
ATOM     25  C   UNL     1      -8.021   8.972   8.462  1.00  0.00    -0.000 C 
BRANCH  25  26
ATOM     26  C   UNL     1      -6.757   9.774   8.814  1.00  0.00    -0.000 C 
BRANCH  26  27
ATOM     27  C   UNL     1      -5.797   8.995   9.728  1.00  0.00    -0.000 C 
BRANCH  27  28
ATOM     28  C   UNL     1      -4.778   8.156   8.937  1.00  0.00    -0.000 C 
BRANCH  28  29
ATOM     29  C   UNL     1      -5.020   6.647   9.084  1.00  0.00    -0.003 C 
ATOM     30  C   UNL     1      -3.735   5.826   8.968  1.00  0.00     0.004 C 
ENDBRANCH  28  29
ENDBRANCH  27  28
ENDBRANCH  26  27
ENDBRANCH  25  26
ENDBRANCH  24  25
ENDBRANCH  23  24
ENDBRANCH  22  23
ENDBRANCH  21  22
ENDBRANCH  20  21
ENDBRANCH  19  20
ENDBRANCH  18  19
ENDBRANCH  17  18
ENDBRANCH   1  17
TORSDOF 26
ENDMDL
MODEL 4
REMARK VINA RESULT:     3.403      3.510      5.022
REMARK INTER + INTRA:           5.985
REMARK INTER:                   7.370
REMARK INTRA:                  -1.385
REMARK UNBOUND:                -2.590
REMARK SMILES CCCCCCCCCCCCCCCCCCCCCCCCCCCC(=O)[O-]
REMARK SMILES IDX 15 1 16 2 17 3 18 4 19 5 20 6 21 7 22 8 23 9 24 10 25 11
REMARK SMILES IDX 26 12 27 13 28 14 29 15 30 16 14 17 13 18 12 19 11 20 10 21
REMARK SMILES IDX 9 22 8 23 7 24 6 25 5 26 4 27 3 28 2 29 1 30
REMARK H PARENT
REMARK Flexibility Score: inf
ROOT
ATOM      1  C   UNL     1      -6.135   7.648   2.326  1.00  0.00     0.000 C 
ENDROOT
BRANCH   1   2
ATOM      2  C   UNL     1      -4.601   7.661   2.312  1.00  0.00     0.000 C 
BRANCH   2   3
ATOM      3  C   UNL     1      -4.056   6.654   1.289  1.00  0.00     0.000 C 
BRANCH   3   4
ATOM      4  C   UNL     1      -3.164   5.575   1.929  1.00  0.00     0.000 C 
BRANCH   4   5
ATOM      5  C   UNL     1      -1.887   5.229   1.135  1.00  0.00     0.000 C 
BRANCH   5   6
ATOM      6  C   UNL     1      -1.377   3.787   1.315  1.00  0.00     0.000 C 
BRANCH   6   7
ATOM      7  C   UNL     1       0.122   3.719   1.648  1.00  0.00     0.000 C 
BRANCH   7   8
ATOM      8  C   UNL     1       0.972   3.739   0.367  1.00  0.00     0.000 C 
BRANCH   8   9
ATOM      9  C   UNL     1       0.899   2.409  -0.413  1.00  0.00     0.000 C 
BRANCH   9  10
ATOM     10  C   UNL     1       2.275   1.798  -0.745  1.00  0.00     0.000 C 
BRANCH  10  11
ATOM     11  C   UNL     1       2.523   0.391  -0.178  1.00  0.00     0.000 C 
BRANCH  11  12
ATOM     12  C   UNL     1       3.746  -0.298  -0.806  1.00  0.00     0.006 C 
BRANCH  12  13
ATOM     13  C   UNL     1       3.643  -1.828  -0.749  1.00  0.00     0.053 C 
BRANCH  13  14
ATOM     14  C   UNL     1       2.244  -2.303  -0.995  1.00  0.00     0.041 C 
ATOM     15  O   UNL     1       1.415  -2.348  -0.047  1.00  0.00    -0.550 OA
ATOM     16  O   UNL     1       1.865  -2.728  -2.263  1.00  0.00    -0.550 OA
ENDBRANCH  13  14
ENDBRANCH  12  13
ENDBRANCH  11  12
ENDBRANCH  10  11
ENDBRANCH   9  10
ENDBRANCH   8   9
ENDBRANCH   7   8
ENDBRANCH   6   7
ENDBRANCH   5   6
ENDBRANCH   4   5
ENDBRANCH   3   4
ENDBRANCH   2   3
ENDBRANCH   1   2
BRANCH   1  17
ATOM     17  C   UNL     1      -6.694   8.911   2.998  1.00  0.00     0.000 C 
BRANCH  17  18
ATOM     18  C   UNL     1      -7.707   9.653   2.110  1.00  0.00     0.000 C 
BRANCH  18  19
ATOM     19  C   UNL     1      -8.999   8.847   1.887  1.00  0.00     0.000 C 
BRANCH  19  20
ATOM     20  C   UNL     1      -9.869   8.773   3.151  1.00  0.00     0.000 C 
BRANCH  20  21
ATOM     21  C   UNL     1     -10.056   7.334   3.661  1.00  0.00     0.000 C 
BRANCH  21  22
ATOM     22  C   UNL     1      -9.495   7.136   5.078  1.00  0.00    -0.000 C 
BRANCH  22  23
ATOM     23  C   UNL     1      -9.652   8.395   5.950  1.00  0.00    -0.000 C 
BRANCH  23  24
ATOM     24  C   UNL     1      -8.305   8.938   6.452  1.00  0.00    -0.000 C 
BRANCH  24  25
ATOM     25  C   UNL     1      -7.821   8.228   7.725  1.00  0.00    -0.000 C 
BRANCH  25  26
ATOM     26  C   UNL     1      -6.305   8.404   7.909  1.00  0.00    -0.000 C 
BRANCH  26  27
ATOM     27  C   UNL     1      -5.824   7.976   9.305  1.00  0.00    -0.000 C 
BRANCH  27  28
ATOM     28  C   UNL     1      -5.204   6.568   9.312  1.00  0.00    -0.000 C 
BRANCH  28  29
ATOM     29  C   UNL     1      -6.094   5.538  10.023  1.00  0.00    -0.003 C 
ATOM     30  C   UNL     1      -7.237   5.032   9.143  1.00  0.00     0.004 C 
ENDBRANCH  28  29
ENDBRANCH  27  28
ENDBRANCH  26  27
ENDBRANCH  25  26
ENDBRANCH  24  25
ENDBRANCH  23  24
ENDBRANCH  22  23
ENDBRANCH  21  22
ENDBRANCH  20  21
ENDBRANCH  19  20
ENDBRANCH  18  19
ENDBRANCH  17  18
ENDBRANCH   1  17
TORSDOF 26
ENDMDL
MODEL 5
REMARK VINA RESULT:     3.454      3.467      5.034
REMARK INTER + INTRA:           6.115
REMARK INTER:                   7.882
REMARK INTRA:                  -1.768
REMARK UNBOUND:                -2.590
REMARK SMILES CCCCCCCCCCCCCCCCCCCCCCCCCCCC(=O)[O-]
REMARK SMILES IDX 15 1 16 2 17 3 18 4 19 5 20 6 21 7 22 8 23 9 24 10 25 11
REMARK SMILES IDX 26 12 27 13 28 14 29 15 30 16 14 17 13 18 12 19 11 20 10 21
REMARK SMILES IDX 9 22 8 23 7 24 6 25 5 26 4 27 3 28 2 29 1 30
REMARK H PARENT
REMARK Flexibility Score: inf
ROOT
ATOM      1  C   UNL     1      -6.071   7.500   2.901  1.00  0.00     0.000 C 
ENDROOT
BRANCH   1   2
ATOM      2  C   UNL     1      -4.926   7.495   1.879  1.00  0.00     0.000 C 
BRANCH   2   3
ATOM      3  C   UNL     1      -3.915   6.383   2.196  1.00  0.00     0.000 C 
BRANCH   3   4
ATOM      4  C   UNL     1      -2.971   6.080   1.019  1.00  0.00     0.000 C 
BRANCH   4   5
ATOM      5  C   UNL     1      -1.961   4.942   1.271  1.00  0.00     0.000 C 
BRANCH   5   6
ATOM      6  C   UNL     1      -0.546   5.401   1.670  1.00  0.00     0.000 C 
BRANCH   6   7
ATOM      7  C   UNL     1       0.428   4.231   1.874  1.00  0.00     0.000 C 
BRANCH   7   8
ATOM      8  C   UNL     1       0.183   3.123   0.836  1.00  0.00     0.000 C 
BRANCH   8   9
ATOM      9  C   UNL     1       1.184   3.179  -0.338  1.00  0.00     0.000 C 
BRANCH   9  10
ATOM     10  C   UNL     1       1.890   1.840  -0.627  1.00  0.00     0.000 C 
BRANCH  10  11
ATOM     11  C   UNL     1       2.127   0.945   0.601  1.00  0.00     0.000 C 
BRANCH  11  12
ATOM     12  C   UNL     1       3.242  -0.092   0.377  1.00  0.00     0.006 C 
BRANCH  12  13
ATOM     13  C   UNL     1       3.281  -0.598  -1.071  1.00  0.00     0.053 C 
BRANCH  13  14
ATOM     14  C   UNL     1       2.995  -2.065  -1.157  1.00  0.00     0.041 C 
ATOM     15  O   UNL     1       3.595  -2.872  -0.398  1.00  0.00    -0.550 OA
ATOM     16  O   UNL     1       2.094  -2.546  -2.100  1.00  0.00    -0.550 OA
ENDBRANCH  13  14
ENDBRANCH  12  13
ENDBRANCH  11  12
ENDBRANCH  10  11
ENDBRANCH   9  10
ENDBRANCH   8   9
ENDBRANCH   7   8
ENDBRANCH   6   7
ENDBRANCH   5   6
ENDBRANCH   4   5
ENDBRANCH   3   4
ENDBRANCH   2   3
ENDBRANCH   1   2
BRANCH   1  17
ATOM     17  C   UNL     1      -7.076   8.622   2.601  1.00  0.00     0.000 C 
BRANCH  17  18
ATOM     18  C   UNL     1      -8.520   8.230   2.954  1.00  0.00     0.000 C 
BRANCH  18  19
ATOM     19  C   UNL     1      -8.623   7.510   4.311  1.00  0.00     0.000 C 
BRANCH  19  20
ATOM     20  C   UNL     1      -9.826   7.988   5.138  1.00  0.00     0.000 C 
BRANCH  20  21
ATOM     21  C   UNL     1      -9.828   7.422   6.568  1.00  0.00     0.000 C 
BRANCH  21  22
ATOM     22  C   UNL     1      -8.931   6.181   6.709  1.00  0.00    -0.000 C 
BRANCH  22  23
ATOM     23  C   UNL     1      -9.117   5.476   8.065  1.00  0.00    -0.000 C 
BRANCH  23  24
ATOM     24  C   UNL     1      -7.798   4.925   8.630  1.00  0.00    -0.000 C 
BRANCH  24  25
ATOM     25  C   UNL     1      -7.135   5.888   9.626  1.00  0.00    -0.000 C 
BRANCH  25  26
ATOM     26  C   UNL     1      -8.045   7.092   9.915  1.00  0.00    -0.000 C 
BRANCH  26  27
ATOM     27  C   UNL     1      -7.338   8.438   9.686  1.00  0.00    -0.000 C 
BRANCH  27  28
ATOM     28  C   UNL     1      -6.564   8.481   8.357  1.00  0.00    -0.000 C 
BRANCH  28  29
ATOM     29  C   UNL     1      -5.043   8.431   8.561  1.00  0.00    -0.003 C 
ATOM     30  C   UNL     1      -4.638   8.513  10.034  1.00  0.00     0.004 C 
ENDBRANCH  28  29
ENDBRANCH  27  28
ENDBRANCH  26  27
ENDBRANCH  25  26
ENDBRANCH  24  25
ENDBRANCH  23  24
ENDBRANCH  22  23
ENDBRANCH  21  22
ENDBRANCH  20  21
ENDBRANCH  19  20
ENDBRANCH  18  19
ENDBRANCH  17  18
ENDBRANCH   1  17
TORSDOF 26
ENDMDL
MODEL 6
REMARK VINA RESULT:     3.489      2.427      8.720
REMARK INTER + INTRA:           6.202
REMARK INTER:                   8.080
REMARK INTRA:                  -1.878
REMARK UNBOUND:                -2.590
REMARK SMILES CCCCCCCCCCCCCCCCCCCCCCCCCCCC(=O)[O-]
REMARK SMILES IDX 15 1 16 2 17 3 18 4 19 5 20 6 21 7 22 8 23 9 24 10 25 11
REMARK SMILES IDX 26 12 27 13 28 14 29 15 30 16 14 17 13 18 12 19 11 20 10 21
REMARK SMILES IDX 9 22 8 23 7 24 6 25 5 26 4 27 3 28 2 29 1 30
REMARK H PARENT
REMARK Flexibility Score: inf
ROOT
ATOM      1  C   UNL     1      -8.087  10.069   3.667  1.00  0.00     0.000 C 
ENDROOT
BRANCH   1   2
ATOM      2  C   UNL     1      -9.007   9.334   2.684  1.00  0.00     0.000 C 
BRANCH   2   3
ATOM      3  C   UNL     1      -9.903   8.329   3.421  1.00  0.00     0.000 C 
BRANCH   3   4
ATOM      4  C   UNL     1      -9.121   7.122   3.970  1.00  0.00     0.000 C 
BRANCH   4   5
ATOM      5  C   UNL     1      -9.387   6.793   5.453  1.00  0.00     0.000 C 
BRANCH   5   6
ATOM      6  C   UNL     1      -9.898   7.971   6.303  1.00  0.00     0.000 C 
BRANCH   6   7
ATOM      7  C   UNL     1      -9.329   7.970   7.731  1.00  0.00     0.000 C 
BRANCH   7   8
ATOM      8  C   UNL     1     -10.125   7.019   8.640  1.00  0.00     0.000 C 
BRANCH   8   9
ATOM      9  C   UNL     1      -9.266   6.434   9.781  1.00  0.00     0.000 C 
BRANCH   9  10
ATOM     10  C   UNL     1      -9.557   4.952  10.090  1.00  0.00     0.000 C 
BRANCH  10  11
ATOM     11  C   UNL     1      -8.443   3.968   9.697  1.00  0.00     0.000 C 
BRANCH  11  12
ATOM     12  C   UNL     1      -7.257   4.658   8.999  1.00  0.00     0.006 C 
BRANCH  12  13
ATOM     13  C   UNL     1      -6.325   5.358   9.996  1.00  0.00     0.053 C 
BRANCH  13  14
ATOM     14  C   UNL     1      -5.580   6.492   9.362  1.00  0.00     0.041 C 
ATOM     15  O   UNL     1      -6.144   7.607   9.200  1.00  0.00    -0.550 OA
ATOM     16  O   UNL     1      -4.276   6.309   8.917  1.00  0.00    -0.550 OA
ENDBRANCH  13  14
ENDBRANCH  12  13
ENDBRANCH  11  12
ENDBRANCH  10  11
ENDBRANCH   9  10
ENDBRANCH   8   9
ENDBRANCH   7   8
ENDBRANCH   6   7
ENDBRANCH   5   6
ENDBRANCH   4   5
ENDBRANCH   3   4
ENDBRANCH   2   3
ENDBRANCH   1   2
BRANCH   1  17
ATOM     17  C   UNL     1      -6.608   9.820   3.334  1.00  0.00     0.000 C 
BRANCH  17  18
ATOM     18  C   UNL     1      -6.408   8.613   2.403  1.00  0.00     0.000 C 
BRANCH  18  19
ATOM     19  C   UNL     1      -5.363   7.619   2.939  1.00  0.00     0.000 C 
BRANCH  19  20
ATOM     20  C   UNL     1      -4.322   7.234   1.878  1.00  0.00     0.000 C 
BRANCH  20  21
ATOM     21  C   UNL     1      -3.652   5.879   2.165  1.00  0.00     0.000 C 
BRANCH  21  22
ATOM     22  C   UNL     1      -2.748   5.415   1.011  1.00  0.00    -0.000 C 
BRANCH  22  23
ATOM     23  C   UNL     1      -1.938   4.157   1.372  1.00  0.00    -0.000 C 
BRANCH  23  24
ATOM     24  C   UNL     1      -0.581   4.101   0.652  1.00  0.00    -0.000 C 
BRANCH  24  25
ATOM     25  C   UNL     1       0.326   2.984   1.189  1.00  0.00    -0.000 C 
BRANCH  25  26
ATOM     26  C   UNL     1       0.252   2.906   2.723  1.00  0.00    -0.000 C 
BRANCH  26  27
ATOM     27  C   UNL     1       1.458   3.570   3.408  1.00  0.00    -0.000 C 
BRANCH  27  28
ATOM     28  C   UNL     1       1.049   4.741   4.318  1.00  0.00    -0.000 C 
BRANCH  28  29
ATOM     29  C   UNL     1       1.627   6.083   3.846  1.00  0.00    -0.003 C 
ATOM     30  C   UNL     1       1.800   6.153   2.328  1.00  0.00     0.004 C 
ENDBRANCH  28  29
ENDBRANCH  27  28
ENDBRANCH  26  27
ENDBRANCH  25  26
ENDBRANCH  24  25
ENDBRANCH  23  24
ENDBRANCH  22  23
ENDBRANCH  21  22
ENDBRANCH  20  21
ENDBRANCH  19  20
ENDBRANCH  18  19
ENDBRANCH  17  18
ENDBRANCH   1  17
TORSDOF 26
ENDMDL
MODEL 7
REMARK VINA RESULT:     3.550      3.514      9.694
REMARK INTER + INTRA:           6.356
REMARK INTER:                   8.667
REMARK INTRA:                  -2.311
REMARK UNBOUND:                -2.590
REMARK SMILES CCCCCCCCCCCCCCCCCCCCCCCCCCCC(=O)[O-]
REMARK SMILES IDX 15 1 16 2 17 3 18 4 19 5 20 6 21 7 22 8 23 9 24 10 25 11
REMARK SMILES IDX 26 12 27 13 28 14 29 15 30 16 14 17 13 18 12 19 11 20 10 21
REMARK SMILES IDX 9 22 8 23 7 24 6 25 5 26 4 27 3 28 2 29 1 30
REMARK H PARENT
REMARK Flexibility Score: inf
ROOT
ATOM      1  C   UNL     1      -7.335  10.013   3.299  1.00  0.00     0.000 C 
ENDROOT
BRANCH   1   2
ATOM      2  C   UNL     1      -8.473   9.402   2.470  1.00  0.00     0.000 C 
BRANCH   2   3
ATOM      3  C   UNL     1      -9.669   9.045   3.364  1.00  0.00     0.000 C 
BRANCH   3   4
ATOM      4  C   UNL     1      -9.674   7.567   3.794  1.00  0.00     0.000 C 
BRANCH   4   5
ATOM      5  C   UNL     1      -8.744   7.228   4.977  1.00  0.00     0.000 C 
BRANCH   5   6
ATOM      6  C   UNL     1      -9.000   8.039   6.262  1.00  0.00     0.000 C 
BRANCH   6   7
ATOM      7  C   UNL     1      -7.814   8.936   6.649  1.00  0.00     0.000 C 
BRANCH   7   8
ATOM      8  C   UNL     1      -7.391   8.691   8.107  1.00  0.00     0.000 C 
BRANCH   8   9
ATOM      9  C   UNL     1      -5.858   8.652   8.280  1.00  0.00     0.000 C 
BRANCH   9  10
ATOM     10  C   UNL     1      -5.377   7.726   9.414  1.00  0.00     0.000 C 
BRANCH  10  11
ATOM     11  C   UNL     1      -5.202   6.249   9.025  1.00  0.00     0.000 C 
BRANCH  11  12
ATOM     12  C   UNL     1      -6.315   5.348   9.588  1.00  0.00     0.006 C 
BRANCH  12  13
ATOM     13  C   UNL     1      -7.447   5.125   8.577  1.00  0.00     0.053 C 
BRANCH  13  14
ATOM     14  C   UNL     1      -8.797   5.243   9.215  1.00  0.00     0.041 C 
ATOM     15  O   UNL     1      -9.085   6.258   9.904  1.00  0.00    -0.550 OA
ATOM     16  O   UNL     1      -9.724   4.216   9.080  1.00  0.00    -0.550 OA
ENDBRANCH  13  14
ENDBRANCH  12  13
ENDBRANCH  11  12
ENDBRANCH  10  11
ENDBRANCH   9  10
ENDBRANCH   8   9
ENDBRANCH   7   8
ENDBRANCH   6   7
ENDBRANCH   5   6
ENDBRANCH   4   5
ENDBRANCH   3   4
ENDBRANCH   2   3
ENDBRANCH   1   2
BRANCH   1  17
ATOM     17  C   UNL     1      -5.999   9.313   3.005  1.00  0.00     0.000 C 
BRANCH  17  18
ATOM     18  C   UNL     1      -6.171   8.050   2.146  1.00  0.00     0.000 C 
BRANCH  18  19
ATOM     19  C   UNL     1      -5.282   6.886   2.621  1.00  0.00     0.000 C 
BRANCH  19  20
ATOM     20  C   UNL     1      -3.967   6.794   1.832  1.00  0.00     0.000 C 
BRANCH  20  21
ATOM     21  C   UNL     1      -3.287   5.421   1.967  1.00  0.00     0.000 C 
BRANCH  21  22
ATOM     22  C   UNL     1      -2.018   5.308   1.108  1.00  0.00    -0.000 C 
BRANCH  22  23
ATOM     23  C   UNL     1      -1.386   3.906   1.178  1.00  0.00    -0.000 C 
BRANCH  23  24
ATOM     24  C   UNL     1      -0.063   3.892   1.960  1.00  0.00    -0.000 C 
BRANCH  24  25
ATOM     25  C   UNL     1       1.164   4.011   1.044  1.00  0.00    -0.000 C 
BRANCH  25  26
ATOM     26  C   UNL     1       1.103   2.979  -0.094  1.00  0.00    -0.000 C 
BRANCH  26  27
ATOM     27  C   UNL     1       1.548   1.577   0.353  1.00  0.00    -0.000 C 
BRANCH  27  28
ATOM     28  C   UNL     1       2.394   0.858  -0.712  1.00  0.00    -0.000 C 
BRANCH  28  29
ATOM     29  C   UNL     1       3.351  -0.176  -0.101  1.00  0.00    -0.003 C 
ATOM     30  C   UNL     1       3.346  -1.508  -0.853  1.00  0.00     0.004 C 
ENDBRANCH  28  29
ENDBRANCH  27  28
ENDBRANCH  26  27
ENDBRANCH  25  26
ENDBRANCH  24  25
ENDBRANCH  23  24
ENDBRANCH  22  23
ENDBRANCH  21  22
ENDBRANCH  20  21
ENDBRANCH  19  20
ENDBRANCH  18  19
ENDBRANCH  17  18
ENDBRANCH   1  17
TORSDOF 26
ENDMDL
MODEL 8
REMARK VINA RESULT:     4.537      1.147      2.609
REMARK INTER + INTRA:           8.844
REMARK INTER:                   9.788
REMARK INTRA:                  -0.943
REMARK UNBOUND:                -2.590
REMARK SMILES CCCCCCCCCCCCCCCCCCCCCCCCCCCC(=O)[O-]
REMARK SMILES IDX 15 1 16 2 17 3 18 4 19 5 20 6 21 7 22 8 23 9 24 10 25 11
REMARK SMILES IDX 26 12 27 13 28 14 29 15 30 16 14 17 13 18 12 19 11 20 10 21
REMARK SMILES IDX 9 22 8 23 7 24 6 25 5 26 4 27 3 28 2 29 1 30
REMARK H PARENT
REMARK Flexibility Score: inf
ROOT
ATOM      1  C   UNL     1      -9.043   8.774   4.001  1.00  0.00     0.000 C 
ENDROOT
BRANCH   1   2
ATOM      2  C   UNL     1      -8.946   8.987   2.484  1.00  0.00     0.000 C 
BRANCH   2   3
ATOM      3  C   UNL     1      -7.537   9.448   2.086  1.00  0.00     0.000 C 
BRANCH   3   4
ATOM      4  C   UNL     1      -6.447   8.936   3.046  1.00  0.00     0.000 C 
BRANCH   4   5
ATOM      5  C   UNL     1      -6.213   7.412   3.014  1.00  0.00     0.000 C 
BRANCH   5   6
ATOM      6  C   UNL     1      -5.428   6.897   1.793  1.00  0.00     0.000 C 
BRANCH   6   7
ATOM      7  C   UNL     1      -3.919   7.170   1.892  1.00  0.00     0.000 C 
BRANCH   7   8
ATOM      8  C   UNL     1      -3.128   6.236   0.962  1.00  0.00     0.000 C 
BRANCH   8   9
ATOM      9  C   UNL     1      -2.585   4.990   1.695  1.00  0.00     0.000 C 
BRANCH   9  10
ATOM     10  C   UNL     1      -1.529   4.202   0.896  1.00  0.00     0.000 C 
BRANCH  10  11
ATOM     11  C   UNL     1      -0.083   4.350   1.397  1.00  0.00     0.000 C 
BRANCH  11  12
ATOM     12  C   UNL     1       0.252   3.383   2.546  1.00  0.00     0.006 C 
BRANCH  12  13
ATOM     13  C   UNL     1       1.438   3.872   3.389  1.00  0.00     0.053 C 
BRANCH  13  14
ATOM     14  C   UNL     1       1.544   5.366   3.387  1.00  0.00     0.041 C 
ATOM     15  O   UNL     1       2.057   5.962   2.403  1.00  0.00    -0.550 OA
ATOM     16  O   UNL     1       1.110   6.097   4.486  1.00  0.00    -0.550 OA
ENDBRANCH  13  14
ENDBRANCH  12  13
ENDBRANCH  11  12
ENDBRANCH  10  11
ENDBRANCH   9  10
ENDBRANCH   8   9
ENDBRANCH   7   8
ENDBRANCH   6   7
ENDBRANCH   5   6
ENDBRANCH   4   5
ENDBRANCH   3   4
ENDBRANCH   2   3
ENDBRANCH   1   2
BRANCH   1  17
ATOM     17  C   UNL     1      -9.099  10.116   4.746  1.00  0.00     0.000 C 
BRANCH  17  18
ATOM     18  C   UNL     1     -10.040  10.076   5.962  1.00  0.00     0.000 C 
BRANCH  18  19
ATOM     19  C   UNL     1      -9.655   8.981   6.972  1.00  0.00     0.000 C 
BRANCH  19  20
ATOM     20  C   UNL     1      -9.241   9.559   8.334  1.00  0.00     0.000 C 
BRANCH  20  21
ATOM     21  C   UNL     1      -7.811  10.125   8.331  1.00  0.00     0.000 C 
BRANCH  21  22
ATOM     22  C   UNL     1      -6.743   9.020   8.332  1.00  0.00    -0.000 C 
BRANCH  22  23
ATOM     23  C   UNL     1      -7.147   7.816   9.202  1.00  0.00    -0.000 C 
BRANCH  23  24
ATOM     24  C   UNL     1      -6.016   6.785   9.347  1.00  0.00    -0.000 C 
BRANCH  24  25
ATOM     25  C   UNL     1      -6.455   5.534  10.122  1.00  0.00    -0.000 C 
BRANCH  25  26
ATOM     26  C   UNL     1      -7.292   4.601   9.232  1.00  0.00    -0.000 C 
BRANCH  26  27
ATOM     27  C   UNL     1      -8.772   4.559   9.645  1.00  0.00    -0.000 C 
BRANCH  27  28
ATOM     28  C   UNL     1      -9.696   5.217   8.606  1.00  0.00    -0.000 C 
BRANCH  28  29
ATOM     29  C   UNL     1      -9.141   5.114   7.178  1.00  0.00    -0.003 C 
ATOM     30  C   UNL     1      -9.645   6.230   6.262  1.00  0.00     0.004 C 
ENDBRANCH  28  29
ENDBRANCH  27  28
ENDBRANCH  26  27
ENDBRANCH  25  26
ENDBRANCH  24  25
ENDBRANCH  23  24
ENDBRANCH  22  23
ENDBRANCH  21  22
ENDBRANCH  20  21
ENDBRANCH  19  20
ENDBRANCH  18  19
ENDBRANCH  17  18
ENDBRANCH   1  17
TORSDOF 26
ENDMDL
