MODEL 1
REMARK VINA RESULT:    -5.518      0.000      0.000
REMARK INTER + INTRA:          -6.739
REMARK INTER:                  -6.486
REMARK INTRA:                  -0.253
REMARK UNBOUND:                -0.253
REMARK SMILES O=c1c(O)c(-c2ccc(O)cc2)oc2cc(O)cc(O)c12
REMARK SMILES IDX 5 1 3 2 2 3 1 4 21 5 19 6 18 7 16 8 15 9 14 10 13 11 6 12
REMARK SMILES IDX 7 13 8 14 9 15 12 16 11 17 10 18 4 20 20 22 17 24
REMARK H PARENT 10 19 4 21 20 23 17 25
REMARK Flexibility Score: inf
ROOT
ATOM      1  C   UNL     1      18.429   5.192   9.437  1.00  0.00     0.180 A 
ATOM      2  C   UNL     1      18.648   5.738   8.161  1.00  0.00     0.208 A 
ATOM      3  C   UNL     1      19.656   5.193   7.350  1.00  0.00     0.238 A 
ATOM      4  O   UNL     1      19.796   5.638   6.181  1.00  0.00    -0.285 OA
ATOM      5  C   UNL     1      20.470   4.146   7.845  1.00  0.00     0.111 A 
ATOM      6  C   UNL     1      21.550   3.547   7.126  1.00  0.00     0.134 A 
ATOM      7  C   UNL     1      22.218   2.446   7.676  1.00  0.00     0.093 A 
ATOM      8  C   UNL     1      21.891   1.961   8.941  1.00  0.00     0.123 A 
ATOM      9  C   UNL     1      20.873   2.573   9.675  1.00  0.00     0.094 A 
ATOM     10  C   UNL     1      20.162   3.649   9.138  1.00  0.00     0.146 A 
ATOM     11  O   UNL     1      19.188   4.188   9.862  1.00  0.00    -0.452 OA
ENDROOT
BRANCH   1  12
ATOM     12  C   UNL     1      17.377   5.702  10.345  1.00  0.00     0.021 A 
ATOM     13  C   UNL     1      17.612   6.871  11.087  1.00  0.00     0.016 A 
ATOM     14  C   UNL     1      16.641   7.359  11.967  1.00  0.00     0.047 A 
ATOM     15  C   UNL     1      15.432   6.677  12.128  1.00  0.00     0.115 A 
ATOM     16  C   UNL     1      16.166   5.009  10.527  1.00  0.00     0.016 A 
ATOM     17  C   UNL     1      15.197   5.498  11.409  1.00  0.00     0.047 A 
BRANCH  15  18
ATOM     18  O   UNL     1      14.473   7.174  13.009  1.00  0.00    -0.508 OA
ATOM     19  H   UNL     1      14.519   6.985  14.002  1.00  0.00     0.293 HD
ENDBRANCH  15  18
ENDBRANCH   1  12
BRANCH   2  20
ATOM     20  O   UNL     1      17.884   6.823   7.720  1.00  0.00    -0.502 OA
ATOM     21  H   UNL     1      17.487   6.866   6.790  1.00  0.00     0.293 HD
ENDBRANCH   2  20
BRANCH   6  22
ATOM     22  O   UNL     1      22.020   4.008   5.893  1.00  0.00    -0.507 OA
ATOM     23  H   UNL     1      22.976   3.942   5.577  1.00  0.00     0.293 HD
ENDBRANCH   6  22
BRANCH   8  24
ATOM     24  O   UNL     1      22.589   0.875   9.463  1.00  0.00    -0.508 OA
ATOM     25  H   UNL     1      22.184  -0.053   9.488  1.00  0.00     0.293 HD
ENDBRANCH   8  24
TORSDOF 5
ENDMDL
MODEL 2
REMARK VINA RESULT:    -5.431      3.643      7.053
REMARK INTER + INTRA:          -6.637
REMARK INTER:                  -6.414
REMARK INTRA:                  -0.223
REMARK UNBOUND:                -0.253
REMARK SMILES O=c1c(O)c(-c2ccc(O)cc2)oc2cc(O)cc(O)c12
REMARK SMILES IDX 5 1 3 2 2 3 1 4 21 5 19 6 18 7 16 8 15 9 14 10 13 11 6 12
REMARK SMILES IDX 7 13 8 14 9 15 12 16 11 17 10 18 4 20 20 22 17 24
REMARK H PARENT 10 19 4 21 20 23 17 25
REMARK Flexibility Score: inf
ROOT
ATOM      1  C   UNL     1      21.539   6.472   5.694  1.00  0.00     0.180 A 
ATOM      2  C   UNL     1      20.240   6.937   5.957  1.00  0.00     0.208 A 
ATOM      3  C   UNL     1      19.461   6.276   6.920  1.00  0.00     0.238 A 
ATOM      4  O   UNL     1      18.327   6.742   7.203  1.00  0.00    -0.285 OA
ATOM      5  C   UNL     1      19.969   5.124   7.567  1.00  0.00     0.111 A 
ATOM      6  C   UNL     1      19.250   4.348   8.528  1.00  0.00     0.134 A 
ATOM      7  C   UNL     1      19.894   3.290   9.181  1.00  0.00     0.093 A 
ATOM      8  C   UNL     1      21.206   2.939   8.867  1.00  0.00     0.123 A 
ATOM      9  C   UNL     1      21.899   3.657   7.891  1.00  0.00     0.094 A 
ATOM     10  C   UNL     1      21.298   4.741   7.248  1.00  0.00     0.146 A 
ATOM     11  O   UNL     1      22.001   5.409   6.341  1.00  0.00    -0.452 OA
ENDROOT
BRANCH   1  12
ATOM     12  C   UNL     1      22.426   7.125   4.704  1.00  0.00     0.021 A 
ATOM     13  C   UNL     1      22.733   6.458   3.506  1.00  0.00     0.016 A 
ATOM     14  C   UNL     1      23.586   7.046   2.567  1.00  0.00     0.047 A 
ATOM     15  C   UNL     1      24.155   8.298   2.820  1.00  0.00     0.115 A 
ATOM     16  C   UNL     1      23.018   8.375   4.962  1.00  0.00     0.016 A 
ATOM     17  C   UNL     1      23.872   8.960   4.022  1.00  0.00     0.047 A 
BRANCH  15  18
ATOM     18  O   UNL     1      25.003   8.872   1.875  1.00  0.00    -0.508 OA
ATOM     19  H   UNL     1      26.010   8.847   1.984  1.00  0.00     0.293 HD
ENDBRANCH  15  18
ENDBRANCH   1  12
BRANCH   2  20
ATOM     20  O   UNL     1      19.727   8.030   5.251  1.00  0.00    -0.502 OA
ATOM     21  H   UNL     1      20.313   8.785   4.919  1.00  0.00     0.293 HD
ENDBRANCH   2  20
BRANCH   6  22
ATOM     22  O   UNL     1      17.907   4.555   8.854  1.00  0.00    -0.507 OA
ATOM     23  H   UNL     1      17.452   4.203   9.683  1.00  0.00     0.293 HD
ENDBRANCH   6  22
BRANCH   8  24
ATOM     24  O   UNL     1      21.809   1.870   9.525  1.00  0.00    -0.508 OA
ATOM     25  H   UNL     1      22.523   2.015  10.229  1.00  0.00     0.293 HD
ENDBRANCH   8  24
TORSDOF 5
ENDMDL
MODEL 3
REMARK VINA RESULT:    -5.276      3.064      5.811
REMARK INTER + INTRA:          -6.454
REMARK INTER:                  -6.330
REMARK INTRA:                  -0.124
REMARK UNBOUND:                -0.253
REMARK SMILES O=c1c(O)c(-c2ccc(O)cc2)oc2cc(O)cc(O)c12
REMARK SMILES IDX 5 1 3 2 2 3 1 4 21 5 19 6 18 7 16 8 15 9 14 10 13 11 6 12
REMARK SMILES IDX 7 13 8 14 9 15 12 16 11 17 10 18 4 20 20 22 17 24
REMARK H PARENT 10 19 4 21 20 23 17 25
REMARK Flexibility Score: inf
ROOT
ATOM      1  C   UNL     1      19.188   4.618   7.151  1.00  0.00     0.180 A 
ATOM      2  C   UNL     1      18.998   3.717   6.090  1.00  0.00     0.208 A 
ATOM      3  C   UNL     1      18.562   4.208   4.849  1.00  0.00     0.238 A 
ATOM      4  O   UNL     1      18.465   3.406   3.884  1.00  0.00    -0.285 OA
ATOM      5  C   UNL     1      18.267   5.585   4.700  1.00  0.00     0.111 A 
ATOM      6  C   UNL     1      17.776   6.185   3.500  1.00  0.00     0.134 A 
ATOM      7  C   UNL     1      17.622   7.575   3.437  1.00  0.00     0.093 A 
ATOM      8  C   UNL     1      17.878   8.381   4.545  1.00  0.00     0.123 A 
ATOM      9  C   UNL     1      18.306   7.798   5.740  1.00  0.00     0.094 A 
ATOM     10  C   UNL     1      18.507   6.418   5.823  1.00  0.00     0.146 A 
ATOM     11  O   UNL     1      18.935   5.909   6.972  1.00  0.00    -0.452 OA
ENDROOT
BRANCH   1  12
ATOM     12  C   UNL     1      19.659   4.179   8.484  1.00  0.00     0.021 A 
ATOM     13  C   UNL     1      18.862   4.426   9.615  1.00  0.00     0.016 A 
ATOM     14  C   UNL     1      19.298   4.041  10.886  1.00  0.00     0.047 A 
ATOM     15  C   UNL     1      20.539   3.419  11.046  1.00  0.00     0.115 A 
ATOM     16  C   UNL     1      20.917   3.572   8.654  1.00  0.00     0.016 A 
ATOM     17  C   UNL     1      21.351   3.189   9.927  1.00  0.00     0.047 A 
BRANCH  15  18
ATOM     18  O   UNL     1      20.961   3.040  12.319  1.00  0.00    -0.508 OA
ATOM     19  H   UNL     1      21.461   3.681  12.923  1.00  0.00     0.293 HD
ENDBRANCH  15  18
ENDBRANCH   1  12
BRANCH   2  20
ATOM     20  O   UNL     1      19.220   2.350   6.280  1.00  0.00    -0.502 OA
ATOM     21  H   UNL     1      18.885   1.853   7.096  1.00  0.00     0.293 HD
ENDBRANCH   2  20
BRANCH   6  22
ATOM     22  O   UNL     1      17.403   5.466   2.361  1.00  0.00    -0.507 OA
ATOM     23  H   UNL     1      17.574   5.758   1.410  1.00  0.00     0.293 HD
ENDBRANCH   6  22
BRANCH   8  24
ATOM     24  O   UNL     1      17.697   9.758   4.452  1.00  0.00    -0.508 OA
ATOM     25  H   UNL     1      16.897  10.217   4.871  1.00  0.00     0.293 HD
ENDBRANCH   8  24
TORSDOF 5
ENDMDL
MODEL 4
REMARK VINA RESULT:    -5.215      4.769      8.382
REMARK INTER + INTRA:          -6.383
REMARK INTER:                  -6.639
REMARK INTRA:                   0.256
REMARK UNBOUND:                -0.253
REMARK SMILES O=c1c(O)c(-c2ccc(O)cc2)oc2cc(O)cc(O)c12
REMARK SMILES IDX 5 1 3 2 2 3 1 4 21 5 19 6 18 7 16 8 15 9 14 10 13 11 6 12
REMARK SMILES IDX 7 13 8 14 9 15 12 16 11 17 10 18 4 20 20 22 17 24
REMARK H PARENT 10 19 4 21 20 23 17 25
REMARK Flexibility Score: inf
ROOT
ATOM      1  C   UNL     1      22.476   6.982   4.401  1.00  0.00     0.180 A 
ATOM      2  C   UNL     1      22.555   5.596   4.183  1.00  0.00     0.208 A 
ATOM      3  C   UNL     1      21.630   4.752   4.818  1.00  0.00     0.238 A 
ATOM      4  O   UNL     1      21.661   3.521   4.560  1.00  0.00    -0.285 OA
ATOM      5  C   UNL     1      20.673   5.298   5.707  1.00  0.00     0.111 A 
ATOM      6  C   UNL     1      19.716   4.532   6.440  1.00  0.00     0.134 A 
ATOM      7  C   UNL     1      18.749   5.191   7.210  1.00  0.00     0.093 A 
ATOM      8  C   UNL     1      18.741   6.580   7.324  1.00  0.00     0.123 A 
ATOM      9  C   UNL     1      19.705   7.335   6.656  1.00  0.00     0.094 A 
ATOM     10  C   UNL     1      20.660   6.710   5.849  1.00  0.00     0.146 A 
ATOM     11  O   UNL     1      21.547   7.468   5.215  1.00  0.00    -0.452 OA
ENDROOT
BRANCH   1  12
ATOM     12  C   UNL     1      23.405   7.937   3.756  1.00  0.00     0.021 A 
ATOM     13  C   UNL     1      23.717   9.144   4.405  1.00  0.00     0.016 A 
ATOM     14  C   UNL     1      24.575  10.070   3.804  1.00  0.00     0.047 A 
ATOM     15  C   UNL     1      25.118   9.811   2.543  1.00  0.00     0.115 A 
ATOM     16  C   UNL     1      23.939   7.691   2.477  1.00  0.00     0.016 A 
ATOM     17  C   UNL     1      24.796   8.620   1.878  1.00  0.00     0.047 A 
BRANCH  15  18
ATOM     18  O   UNL     1      25.972  10.743   1.956  1.00  0.00    -0.508 OA
ATOM     19  H   UNL     1      26.930  10.851   2.265  1.00  0.00     0.293 HD
ENDBRANCH  15  18
ENDBRANCH   1  12
BRANCH   2  20
ATOM     20  O   UNL     1      23.557   5.070   3.361  1.00  0.00    -0.502 OA
ATOM     21  H   UNL     1      24.219   5.655   2.868  1.00  0.00     0.293 HD
ENDBRANCH   2  20
BRANCH   6  22
ATOM     22  O   UNL     1      19.688   3.135   6.469  1.00  0.00    -0.507 OA
ATOM     23  H   UNL     1      20.445   2.534   6.179  1.00  0.00     0.293 HD
ENDBRANCH   6  22
BRANCH   8  24
ATOM     24  O   UNL     1      17.774   7.199   8.112  1.00  0.00    -0.508 OA
ATOM     25  H   UNL     1      18.008   7.625   9.001  1.00  0.00     0.293 HD
ENDBRANCH   8  24
TORSDOF 5
ENDMDL
MODEL 5
REMARK VINA RESULT:    -5.155      1.242      3.002
REMARK INTER + INTRA:          -6.313
REMARK INTER:                  -6.028
REMARK INTRA:                  -0.285
REMARK UNBOUND:                -0.253
REMARK SMILES O=c1c(O)c(-c2ccc(O)cc2)oc2cc(O)cc(O)c12
REMARK SMILES IDX 5 1 3 2 2 3 1 4 21 5 19 6 18 7 16 8 15 9 14 10 13 11 6 12
REMARK SMILES IDX 7 13 8 14 9 15 12 16 11 17 10 18 4 20 20 22 17 24
REMARK H PARENT 10 19 4 21 20 23 17 25
REMARK Flexibility Score: inf
ROOT
ATOM      1  C   UNL     1      18.536   4.924   9.488  1.00  0.00     0.180 A 
ATOM      2  C   UNL     1      19.469   3.995   9.979  1.00  0.00     0.208 A 
ATOM      3  C   UNL     1      20.482   3.531   9.124  1.00  0.00     0.238 A 
ATOM      4  O   UNL     1      21.358   2.758   9.591  1.00  0.00    -0.285 OA
ATOM      5  C   UNL     1      20.516   3.958   7.775  1.00  0.00     0.111 A 
ATOM      6  C   UNL     1      21.471   3.518   6.807  1.00  0.00     0.134 A 
ATOM      7  C   UNL     1      21.472   4.090   5.529  1.00  0.00     0.093 A 
ATOM      8  C   UNL     1      20.517   5.037   5.161  1.00  0.00     0.123 A 
ATOM      9  C   UNL     1      19.546   5.433   6.082  1.00  0.00     0.094 A 
ATOM     10  C   UNL     1      19.542   4.910   7.377  1.00  0.00     0.146 A 
ATOM     11  O   UNL     1      18.613   5.331   8.227  1.00  0.00    -0.452 OA
ENDROOT
BRANCH   1  12
ATOM     12  C   UNL     1      17.448   5.470  10.331  1.00  0.00     0.021 A 
ATOM     13  C   UNL     1      17.658   6.663  11.043  1.00  0.00     0.016 A 
ATOM     14  C   UNL     1      16.654   7.185  11.863  1.00  0.00     0.047 A 
ATOM     15  C   UNL     1      15.434   6.515  11.995  1.00  0.00     0.115 A 
ATOM     16  C   UNL     1      16.227   4.789  10.484  1.00  0.00     0.016 A 
ATOM     17  C   UNL     1      15.223   5.313  11.306  1.00  0.00     0.047 A 
BRANCH  15  18
ATOM     18  O   UNL     1      14.441   7.047  12.815  1.00  0.00    -0.508 OA
ATOM     19  H   UNL     1      13.491   6.698  12.789  1.00  0.00     0.293 HD
ENDBRANCH  15  18
ENDBRANCH   1  12
BRANCH   2  20
ATOM     20  O   UNL     1      19.372   3.527  11.292  1.00  0.00    -0.502 OA
ATOM     21  H   UNL     1      18.566   3.709  11.876  1.00  0.00     0.293 HD
ENDBRANCH   2  20
BRANCH   6  22
ATOM     22  O   UNL     1      22.415   2.513   7.039  1.00  0.00    -0.507 OA
ATOM     23  H   UNL     1      22.998   2.445   7.859  1.00  0.00     0.293 HD
ENDBRANCH   6  22
BRANCH   8  24
ATOM     24  O   UNL     1      20.538   5.571   3.875  1.00  0.00    -0.508 OA
ATOM     25  H   UNL     1      21.176   5.226   3.168  1.00  0.00     0.293 HD
ENDBRANCH   8  24
TORSDOF 5
ENDMDL
MODEL 6
REMARK VINA RESULT:    -5.064      2.867      4.348
REMARK INTER + INTRA:          -6.206
REMARK INTER:                  -5.944
REMARK INTRA:                  -0.262
REMARK UNBOUND:                -0.253
REMARK SMILES O=c1c(O)c(-c2ccc(O)cc2)oc2cc(O)cc(O)c12
REMARK SMILES IDX 5 1 3 2 2 3 1 4 21 5 19 6 18 7 16 8 15 9 14 10 13 11 6 12
REMARK SMILES IDX 7 13 8 14 9 15 12 16 11 17 10 18 4 20 20 22 17 24
REMARK H PARENT 10 19 4 21 20 23 17 25
REMARK Flexibility Score: inf
ROOT
ATOM      1  C   UNL     1      19.373   4.583   8.759  1.00  0.00     0.180 A 
ATOM      2  C   UNL     1      18.514   5.684   8.601  1.00  0.00     0.208 A 
ATOM      3  C   UNL     1      18.706   6.545   7.509  1.00  0.00     0.238 A 
ATOM      4  O   UNL     1      17.888   7.486   7.332  1.00  0.00    -0.285 OA
ATOM      5  C   UNL     1      19.786   6.328   6.620  1.00  0.00     0.111 A 
ATOM      6  C   UNL     1      20.102   7.164   5.505  1.00  0.00     0.134 A 
ATOM      7  C   UNL     1      21.132   6.791   4.633  1.00  0.00     0.093 A 
ATOM      8  C   UNL     1      21.898   5.650   4.867  1.00  0.00     0.123 A 
ATOM      9  C   UNL     1      21.634   4.856   5.984  1.00  0.00     0.094 A 
ATOM     10  C   UNL     1      20.588   5.180   6.852  1.00  0.00     0.146 A 
ATOM     11  O   UNL     1      20.358   4.386   7.891  1.00  0.00    -0.452 OA
ENDROOT
BRANCH   1  12
ATOM     12  C   UNL     1      19.226   3.622   9.876  1.00  0.00     0.021 A 
ATOM     13  C   UNL     1      20.131   3.667  10.950  1.00  0.00     0.016 A 
ATOM     14  C   UNL     1      20.025   2.755  12.004  1.00  0.00     0.047 A 
ATOM     15  C   UNL     1      19.026   1.778  11.991  1.00  0.00     0.115 A 
ATOM     16  C   UNL     1      18.236   2.623   9.858  1.00  0.00     0.016 A 
ATOM     17  C   UNL     1      18.133   1.710  10.914  1.00  0.00     0.047 A 
BRANCH  15  18
ATOM     18  O   UNL     1      18.932   0.875  13.049  1.00  0.00    -0.508 OA
ATOM     19  H   UNL     1      19.686   0.235  13.266  1.00  0.00     0.293 HD
ENDBRANCH  15  18
ENDBRANCH   1  12
BRANCH   2  20
ATOM     20  O   UNL     1      17.500   5.925   9.533  1.00  0.00    -0.502 OA
ATOM     21  H   UNL     1      17.633   5.789  10.527  1.00  0.00     0.293 HD
ENDBRANCH   2  20
BRANCH   6  22
ATOM     22  O   UNL     1      19.459   8.374   5.227  1.00  0.00    -0.507 OA
ATOM     23  H   UNL     1      18.489   8.572   5.421  1.00  0.00     0.293 HD
ENDBRANCH   6  22
BRANCH   8  24
ATOM     24  O   UNL     1      22.926   5.319   3.988  1.00  0.00    -0.508 OA
ATOM     25  H   UNL     1      23.840   5.750   4.055  1.00  0.00     0.293 HD
ENDBRANCH   8  24
TORSDOF 5
ENDMDL
MODEL 7
REMARK VINA RESULT:    -5.036      8.411     10.826
REMARK INTER + INTRA:          -6.173
REMARK INTER:                  -6.063
REMARK INTRA:                  -0.109
REMARK UNBOUND:                -0.253
REMARK SMILES O=c1c(O)c(-c2ccc(O)cc2)oc2cc(O)cc(O)c12
REMARK SMILES IDX 5 1 3 2 2 3 1 4 21 5 19 6 18 7 16 8 15 9 14 10 13 11 6 12
REMARK SMILES IDX 7 13 8 14 9 15 12 16 11 17 10 18 4 20 20 22 17 24
REMARK H PARENT 10 19 4 21 20 23 17 25
REMARK Flexibility Score: inf
ROOT
ATOM      1  C   UNL     1      24.967   8.818   3.045  1.00  0.00     0.180 A 
ATOM      2  C   UNL     1      24.772  10.173   3.361  1.00  0.00     0.208 A 
ATOM      3  C   UNL     1      25.871  11.047   3.324  1.00  0.00     0.238 A 
ATOM      4  O   UNL     1      25.675  12.272   3.536  1.00  0.00    -0.285 OA
ATOM      5  C   UNL     1      27.160  10.545   3.027  1.00  0.00     0.111 A 
ATOM      6  C   UNL     1      28.353  11.331   3.005  1.00  0.00     0.134 A 
ATOM      7  C   UNL     1      29.557  10.747   2.594  1.00  0.00     0.093 A 
ATOM      8  C   UNL     1      29.628   9.394   2.264  1.00  0.00     0.123 A 
ATOM      9  C   UNL     1      28.479   8.604   2.334  1.00  0.00     0.094 A 
ATOM     10  C   UNL     1      27.255   9.166   2.704  1.00  0.00     0.146 A 
ATOM     11  O   UNL     1      26.183   8.383   2.738  1.00  0.00    -0.452 OA
ENDROOT
BRANCH   1  12
ATOM     12  C   UNL     1      23.857   7.840   3.047  1.00  0.00     0.021 A 
ATOM     13  C   UNL     1      23.197   7.546   4.253  1.00  0.00     0.016 A 
ATOM     14  C   UNL     1      22.160   6.608   4.283  1.00  0.00     0.047 A 
ATOM     15  C   UNL     1      21.781   5.942   3.114  1.00  0.00     0.115 A 
ATOM     16  C   UNL     1      23.484   7.150   1.879  1.00  0.00     0.016 A 
ATOM     17  C   UNL     1      22.448   6.211   1.912  1.00  0.00     0.047 A 
BRANCH  15  18
ATOM     18  O   UNL     1      20.746   5.009   3.158  1.00  0.00    -0.508 OA
ATOM     19  H   UNL     1      20.853   4.122   3.635  1.00  0.00     0.293 HD
ENDBRANCH  15  18
ENDBRANCH   1  12
BRANCH   2  20
ATOM     20  O   UNL     1      23.504  10.635   3.728  1.00  0.00    -0.502 OA
ATOM     21  H   UNL     1      22.940  10.173   4.430  1.00  0.00     0.293 HD
ENDBRANCH   2  20
BRANCH   6  22
ATOM     22  O   UNL     1      28.415  12.670   3.401  1.00  0.00    -0.507 OA
ATOM     23  H   UNL     1      27.631  13.305   3.422  1.00  0.00     0.293 HD
ENDBRANCH   6  22
BRANCH   8  24
ATOM     24  O   UNL     1      30.846   8.843   1.875  1.00  0.00    -0.508 OA
ATOM     25  H   UNL     1      30.954   8.367   0.988  1.00  0.00     0.293 HD
ENDBRANCH   8  24
TORSDOF 5
ENDMDL
MODEL 8
REMARK VINA RESULT:    -4.999      4.334      7.476
REMARK INTER + INTRA:          -6.129
REMARK INTER:                  -6.138
REMARK INTRA:                   0.009
REMARK UNBOUND:                -0.253
REMARK SMILES O=c1c(O)c(-c2ccc(O)cc2)oc2cc(O)cc(O)c12
REMARK SMILES IDX 5 1 3 2 2 3 1 4 21 5 19 6 18 7 16 8 15 9 14 10 13 11 6 12
REMARK SMILES IDX 7 13 8 14 9 15 12 16 11 17 10 18 4 20 20 22 17 24
REMARK H PARENT 10 19 4 21 20 23 17 25
REMARK Flexibility Score: inf
ROOT
ATOM      1  C   UNL     1      21.178   5.254   5.181  1.00  0.00     0.180 A 
ATOM      2  C   UNL     1      21.412   4.789   6.486  1.00  0.00     0.208 A 
ATOM      3  C   UNL     1      20.538   3.840   7.040  1.00  0.00     0.238 A 
ATOM      4  O   UNL     1      20.796   3.374   8.180  1.00  0.00    -0.285 OA
ATOM      5  C   UNL     1      19.408   3.410   6.303  1.00  0.00     0.111 A 
ATOM      6  C   UNL     1      18.430   2.485   6.783  1.00  0.00     0.134 A 
ATOM      7  C   UNL     1      17.411   2.052   5.926  1.00  0.00     0.093 A 
ATOM      8  C   UNL     1      17.296   2.553   4.630  1.00  0.00     0.123 A 
ATOM      9  C   UNL     1      18.214   3.498   4.170  1.00  0.00     0.094 A 
ATOM     10  C   UNL     1      19.264   3.922   4.988  1.00  0.00     0.146 A 
ATOM     11  O   UNL     1      20.127   4.807   4.503  1.00  0.00    -0.452 OA
ENDROOT
BRANCH   1  12
ATOM     12  C   UNL     1      22.062   6.242   4.524  1.00  0.00     0.021 A 
ATOM     13  C   UNL     1      22.640   5.933   3.281  1.00  0.00     0.016 A 
ATOM     14  C   UNL     1      23.497   6.842   2.653  1.00  0.00     0.047 A 
ATOM     15  C   UNL     1      23.799   8.062   3.264  1.00  0.00     0.115 A 
ATOM     16  C   UNL     1      22.387   7.462   5.144  1.00  0.00     0.016 A 
ATOM     17  C   UNL     1      23.245   8.369   4.514  1.00  0.00     0.047 A 
BRANCH  15  18
ATOM     18  O   UNL     1      24.654   8.958   2.627  1.00  0.00    -0.508 OA
ATOM     19  H   UNL     1      24.435   9.945   2.564  1.00  0.00     0.293 HD
ENDBRANCH  15  18
ENDBRANCH   1  12
BRANCH   2  20
ATOM     20  O   UNL     1      22.491   5.285   7.226  1.00  0.00    -0.502 OA
ATOM     21  H   UNL     1      23.405   4.852   7.209  1.00  0.00     0.293 HD
ENDBRANCH   2  20
BRANCH   6  22
ATOM     22  O   UNL     1      18.397   1.988   8.089  1.00  0.00    -0.507 OA
ATOM     23  H   UNL     1      17.677   2.188   8.767  1.00  0.00     0.293 HD
ENDBRANCH   6  22
BRANCH   8  24
ATOM     24  O   UNL     1      16.260   2.112   3.811  1.00  0.00    -0.508 OA
ATOM     25  H   UNL     1      15.410   1.717   4.197  1.00  0.00     0.293 HD
ENDBRANCH   8  24
TORSDOF 5
ENDMDL
MODEL 9
REMARK VINA RESULT:    -4.838      5.577      8.605
REMARK INTER + INTRA:          -5.939
REMARK INTER:                  -6.424
REMARK INTRA:                   0.485
REMARK UNBOUND:                -0.253
REMARK SMILES O=c1c(O)c(-c2ccc(O)cc2)oc2cc(O)cc(O)c12
REMARK SMILES IDX 5 1 3 2 2 3 1 4 21 5 19 6 18 7 16 8 15 9 14 10 13 11 6 12
REMARK SMILES IDX 7 13 8 14 9 15 12 16 11 17 10 18 4 20 20 22 17 24
REMARK H PARENT 10 19 4 21 20 23 17 25
REMARK Flexibility Score: inf
ROOT
ATOM      1  C   UNL     1      23.121   7.118   3.936  1.00  0.00     0.180 A 
ATOM      2  C   UNL     1      22.206   7.174   5.001  1.00  0.00     0.208 A 
ATOM      3  C   UNL     1      21.552   5.997   5.400  1.00  0.00     0.238 A 
ATOM      4  O   UNL     1      20.791   6.039   6.401  1.00  0.00    -0.285 OA
ATOM      5  C   UNL     1      21.779   4.791   4.694  1.00  0.00     0.111 A 
ATOM      6  C   UNL     1      21.136   3.548   4.983  1.00  0.00     0.134 A 
ATOM      7  C   UNL     1      21.519   2.395   4.285  1.00  0.00     0.093 A 
ATOM      8  C   UNL     1      22.470   2.449   3.268  1.00  0.00     0.123 A 
ATOM      9  C   UNL     1      23.064   3.670   2.941  1.00  0.00     0.094 A 
ATOM     10  C   UNL     1      22.733   4.830   3.644  1.00  0.00     0.146 A 
ATOM     11  O   UNL     1      23.337   5.965   3.314  1.00  0.00    -0.452 OA
ENDROOT
BRANCH   1  12
ATOM     12  C   UNL     1      23.860   8.312   3.467  1.00  0.00     0.021 A 
ATOM     13  C   UNL     1      24.686   8.213   2.335  1.00  0.00     0.016 A 
ATOM     14  C   UNL     1      25.410   9.322   1.888  1.00  0.00     0.047 A 
ATOM     15  C   UNL     1      25.331  10.537   2.574  1.00  0.00     0.115 A 
ATOM     16  C   UNL     1      23.801   9.532   4.166  1.00  0.00     0.016 A 
ATOM     17  C   UNL     1      24.528  10.639   3.717  1.00  0.00     0.047 A 
BRANCH  15  18
ATOM     18  O   UNL     1      26.059  11.634   2.117  1.00  0.00    -0.508 OA
ATOM     19  H   UNL     1      25.683  12.574   2.161  1.00  0.00     0.293 HD
ENDBRANCH  15  18
ENDBRANCH   1  12
BRANCH   2  20
ATOM     20  O   UNL     1      21.938   8.390   5.636  1.00  0.00    -0.502 OA
ATOM     21  H   UNL     1      21.950   9.274   5.143  1.00  0.00     0.293 HD
ENDBRANCH   2  20
BRANCH   6  22
ATOM     22  O   UNL     1      20.108   3.396   5.918  1.00  0.00    -0.507 OA
ATOM     23  H   UNL     1      19.411   2.666   5.898  1.00  0.00     0.293 HD
ENDBRANCH   6  22
BRANCH   8  24
ATOM     24  O   UNL     1      22.813   1.286   2.584  1.00  0.00    -0.508 OA
ATOM     25  H   UNL     1      22.912   1.274   1.576  1.00  0.00     0.293 HD
ENDBRANCH   8  24
TORSDOF 5
ENDMDL
