MODEL 1
REMARK VINA RESULT:    -2.583      0.000      0.000
REMARK INTER + INTRA:          -3.398
REMARK INTER:                  -3.338
REMARK INTRA:                  -0.061
REMARK UNBOUND:                -0.061
REMARK SMILES CCCCCCC(=O)[O-]
REMARK SMILES IDX 5 1 6 2 7 3 8 4 9 5 4 6 3 7 2 8 1 9
REMARK H PARENT
REMARK Flexibility Score: inf
ROOT
ATOM      1  C   UNL     1      -4.019 -14.017   6.321  1.00  0.00     0.006 C 
ENDROOT
BRANCH   1   2
ATOM      2  C   UNL     1      -2.545 -14.396   6.510  1.00  0.00     0.053 C 
BRANCH   2   3
ATOM      3  C   UNL     1      -1.969 -13.780   7.750  1.00  0.00     0.041 C 
ATOM      4  O   UNL     1      -2.685 -13.054   8.489  1.00  0.00    -0.550 OA
ATOM      5  O   UNL     1      -0.633 -13.984   8.071  1.00  0.00    -0.550 OA
ENDBRANCH   2   3
ENDBRANCH   1   2
BRANCH   1   6
ATOM      6  C   UNL     1      -4.965 -14.962   7.078  1.00  0.00     0.000 C 
BRANCH   6   7
ATOM      7  C   UNL     1      -6.374 -14.366   7.174  1.00  0.00    -0.000 C 
BRANCH   7   8
ATOM      8  C   UNL     1      -6.757 -13.648   5.875  1.00  0.00    -0.003 C 
ATOM      9  C   UNL     1      -7.039 -12.169   6.126  1.00  0.00     0.004 C 
ENDBRANCH   7   8
ENDBRANCH   6   7
ENDBRANCH   1   6
TORSDOF 5
ENDMDL
MODEL 2
REMARK VINA RESULT:    -2.570      2.625      4.684
REMARK INTER + INTRA:          -3.382
REMARK INTER:                  -3.170
REMARK INTRA:                  -0.211
REMARK UNBOUND:                -0.061
REMARK SMILES CCCCCCC(=O)[O-]
REMARK SMILES IDX 5 1 6 2 7 3 8 4 9 5 4 6 3 7 2 8 1 9
REMARK H PARENT
REMARK Flexibility Score: inf
ROOT
ATOM      1  C   UNL     1      -4.127 -13.279   6.877  1.00  0.00     0.006 C 
ENDROOT
BRANCH   1   2
ATOM      2  C   UNL     1      -5.488 -13.618   6.255  1.00  0.00     0.053 C 
BRANCH   2   3
ATOM      3  C   UNL     1      -6.155 -14.754   6.968  1.00  0.00     0.041 C 
ATOM      4  O   UNL     1      -7.125 -14.537   7.741  1.00  0.00    -0.550 OA
ATOM      5  O   UNL     1      -5.685 -16.051   6.802  1.00  0.00    -0.550 OA
ENDBRANCH   2   3
ENDBRANCH   1   2
BRANCH   1   6
ATOM      6  C   UNL     1      -2.957 -13.858   6.068  1.00  0.00     0.000 C 
BRANCH   6   7
ATOM      7  C   UNL     1      -2.089 -14.775   6.937  1.00  0.00    -0.000 C 
BRANCH   7   8
ATOM      8  C   UNL     1      -1.533 -14.019   8.149  1.00  0.00    -0.003 C 
ATOM      9  C   UNL     1      -0.007 -13.994   8.131  1.00  0.00     0.004 C 
ENDBRANCH   7   8
ENDBRANCH   6   7
ENDBRANCH   1   6
TORSDOF 5
ENDMDL
MODEL 3
REMARK VINA RESULT:    -0.433      1.269      1.530
REMARK INTER + INTRA:          -0.620
REMARK INTER:                  -0.422
REMARK INTRA:                  -0.198
REMARK UNBOUND:                -0.061
REMARK SMILES CCCCCCC(=O)[O-]
REMARK SMILES IDX 5 1 6 2 7 3 8 4 9 5 4 6 3 7 2 8 1 9
REMARK H PARENT
REMARK Flexibility Score: inf
ROOT
ATOM      1  C   UNL     1      -3.179 -13.924   6.825  1.00  0.00     0.006 C 
ENDROOT
BRANCH   1   2
ATOM      2  C   UNL     1      -2.284 -13.652   8.041  1.00  0.00     0.053 C 
BRANCH   2   3
ATOM      3  C   UNL     1      -0.872 -14.092   7.800  1.00  0.00     0.041 C 
ATOM      4  O   UNL     1      -0.580 -14.752   6.769  1.00  0.00    -0.550 OA
ATOM      5  O   UNL     1       0.115 -13.799   8.733  1.00  0.00    -0.550 OA
ENDBRANCH   2   3
ENDBRANCH   1   2
BRANCH   1   6
ATOM      6  C   UNL     1      -4.056 -15.171   7.015  1.00  0.00     0.000 C 
BRANCH   6   7
ATOM      7  C   UNL     1      -5.515 -14.876   6.652  1.00  0.00    -0.000 C 
BRANCH   7   8
ATOM      8  C   UNL     1      -5.742 -13.371   6.468  1.00  0.00    -0.003 C 
ATOM      9  C   UNL     1      -7.121 -13.090   5.875  1.00  0.00     0.004 C 
ENDBRANCH   7   8
ENDBRANCH   6   7
ENDBRANCH   1   6
TORSDOF 5
ENDMDL
