MODEL 1
REMARK VINA RESULT:    -3.710      0.000      0.000
REMARK INTER + INTRA:          -4.913
REMARK INTER:                  -4.794
REMARK INTRA:                  -0.119
REMARK UNBOUND:                -0.119
REMARK SMILES CO[C@@]1(CO)O[C@H](CO)[C@H](O)[C@H]1O
REMARK SMILES IDX 3 1 12 2 10 3 7 4 6 5 2 6 1 7 4 8 5 9 13 11 11 13 8 15 9 16
REMARK H PARENT 5 10 13 12 11 14 9 17
REMARK Flexibility Score: inf
ROOT
ATOM      1  C   UNL     1      28.801   2.668   5.016  1.00  0.00     0.221 C 
ATOM      2  C   UNL     1      27.748   3.777   4.880  1.00  0.00     0.207 C 
ATOM      3  C   UNL     1      28.603   4.990   4.638  1.00  0.00     0.180 C 
ATOM      4  C   UNL     1      29.873   4.661   5.431  1.00  0.00     0.179 C 
ATOM      5  O   UNL     1      29.965   3.258   5.579  1.00  0.00    -0.337 OA
ENDROOT
BRANCH   1   6
ATOM      6  O   UNL     1      29.059   2.132   3.718  1.00  0.00    -0.349 OA
ATOM      7  C   UNL     1      28.773   0.750   3.623  1.00  0.00     0.198 C 
ENDBRANCH   1   6
BRANCH   1   8
ATOM      8  C   UNL     1      28.280   1.544   5.942  1.00  0.00     0.224 C 
BRANCH   8   9
ATOM      9  O   UNL     1      26.877   1.506   5.958  1.00  0.00    -0.391 OA
ATOM     10  H   UNL     1      26.591   1.863   6.839  1.00  0.00     0.210 HD
ENDBRANCH   8   9
ENDBRANCH   1   8
BRANCH   2  11
ATOM     11  O   UNL     1      26.875   3.536   3.806  1.00  0.00    -0.385 OA
ATOM     12  H   UNL     1      27.088   4.212   3.111  1.00  0.00     0.211 HD
ENDBRANCH   2  11
BRANCH   3  13
ATOM     13  O   UNL     1      27.972   6.166   5.080  1.00  0.00    -0.387 OA
ATOM     14  H   UNL     1      27.099   6.211   4.611  1.00  0.00     0.211 HD
ENDBRANCH   3  13
BRANCH   4  15
ATOM     15  C   UNL     1      29.912   5.308   6.825  1.00  0.00     0.191 C 
BRANCH  15  16
ATOM     16  O   UNL     1      28.796   4.898   7.565  1.00  0.00    -0.394 OA
ATOM     17  H   UNL     1      29.079   4.901   8.515  1.00  0.00     0.210 HD
ENDBRANCH  15  16
ENDBRANCH   4  15
TORSDOF 7
ENDMDL
MODEL 2
REMARK VINA RESULT:    -3.663     15.079     16.699
REMARK INTER + INTRA:          -4.852
REMARK INTER:                  -4.408
REMARK INTRA:                  -0.444
REMARK UNBOUND:                -0.119
REMARK SMILES CO[C@@]1(CO)O[C@H](CO)[C@H](O)[C@H]1O
REMARK SMILES IDX 3 1 12 2 10 3 7 4 6 5 2 6 1 7 4 8 5 9 13 11 11 13 8 15 9 16
REMARK H PARENT 5 10 13 12 11 14 9 17
REMARK Flexibility Score: inf
ROOT
ATOM      1  C   UNL     1      29.885  16.127  16.570  1.00  0.00     0.221 C 
ATOM      2  C   UNL     1      30.347  14.776  16.005  1.00  0.00     0.207 C 
ATOM      3  C   UNL     1      31.470  15.188  15.094  1.00  0.00     0.180 C 
ATOM      4  C   UNL     1      31.015  16.572  14.616  1.00  0.00     0.179 C 
ATOM      5  O   UNL     1      30.112  17.105  15.565  1.00  0.00    -0.337 OA
ENDROOT
BRANCH   1   6
ATOM      6  O   UNL     1      30.640  16.401  17.751  1.00  0.00    -0.349 OA
ATOM      7  C   UNL     1      29.847  16.893  18.814  1.00  0.00     0.198 C 
ENDBRANCH   1   6
BRANCH   1   8
ATOM      8  C   UNL     1      28.380  16.073  16.924  1.00  0.00     0.224 C 
BRANCH   8   9
ATOM      9  O   UNL     1      27.597  15.833  15.784  1.00  0.00    -0.391 OA
ATOM     10  H   UNL     1      27.776  16.576  15.151  1.00  0.00     0.210 HD
ENDBRANCH   8   9
ENDBRANCH   1   8
BRANCH   2  11
ATOM     11  O   UNL     1      30.794  13.913  17.020  1.00  0.00    -0.385 OA
ATOM     12  H   UNL     1      30.079  13.236  17.152  1.00  0.00     0.211 HD
ENDBRANCH   2  11
BRANCH   3  13
ATOM     13  O   UNL     1      31.642  14.275  14.038  1.00  0.00    -0.387 OA
ATOM     14  H   UNL     1      30.742  13.914  13.827  1.00  0.00     0.211 HD
ENDBRANCH   3  13
BRANCH   4  15
ATOM     15  C   UNL     1      30.332  16.553  13.240  1.00  0.00     0.191 C 
BRANCH  15  16
ATOM     16  O   UNL     1      31.305  16.510  12.233  1.00  0.00    -0.394 OA
ATOM     17  H   UNL     1      31.272  17.392  11.780  1.00  0.00     0.210 HD
ENDBRANCH  15  16
ENDBRANCH   4  15
TORSDOF 7
ENDMDL
MODEL 3
REMARK VINA RESULT:    -3.336      1.542      4.011
REMARK INTER + INTRA:          -4.430
REMARK INTER:                  -4.055
REMARK INTRA:                  -0.375
REMARK UNBOUND:                -0.119
REMARK SMILES CO[C@@]1(CO)O[C@H](CO)[C@H](O)[C@H]1O
REMARK SMILES IDX 3 1 12 2 10 3 7 4 6 5 2 6 1 7 4 8 5 9 13 11 11 13 8 15 9 16
REMARK H PARENT 5 10 13 12 11 14 9 17
REMARK Flexibility Score: inf
ROOT
ATOM      1  C   UNL     1      28.986   3.672   5.565  1.00  0.00     0.221 C 
ATOM      2  C   UNL     1      28.113   3.251   4.374  1.00  0.00     0.207 C 
ATOM      3  C   UNL     1      27.406   2.041   4.919  1.00  0.00     0.180 C 
ATOM      4  C   UNL     1      28.446   1.458   5.883  1.00  0.00     0.179 C 
ATOM      5  O   UNL     1      29.329   2.491   6.275  1.00  0.00    -0.337 OA
ENDROOT
BRANCH   1   6
ATOM      6  O   UNL     1      28.233   4.574   6.377  1.00  0.00    -0.349 OA
ATOM      7  C   UNL     1      28.868   4.875   7.605  1.00  0.00     0.198 C 
ENDBRANCH   1   6
BRANCH   1   8
ATOM      8  C   UNL     1      30.269   4.378   5.066  1.00  0.00     0.224 C 
BRANCH   8   9
ATOM      9  O   UNL     1      30.017   5.718   4.734  1.00  0.00    -0.391 OA
ATOM     10  H   UNL     1      29.880   5.750   3.751  1.00  0.00     0.210 HD
ENDBRANCH   8   9
ENDBRANCH   1   8
BRANCH   2  11
ATOM     11  O   UNL     1      27.206   4.261   4.011  1.00  0.00    -0.385 OA
ATOM     12  H   UNL     1      27.075   4.186   3.030  1.00  0.00     0.211 HD
ENDBRANCH   2  11
BRANCH   3  13
ATOM     13  O   UNL     1      27.046   1.146   3.897  1.00  0.00    -0.387 OA
ATOM     14  H   UNL     1      27.571   0.318   4.049  1.00  0.00     0.211 HD
ENDBRANCH   3  13
BRANCH   4  15
ATOM     15  C   UNL     1      29.267   0.308   5.278  1.00  0.00     0.191 C 
BRANCH  15  16
ATOM     16  O   UNL     1      28.500  -0.864   5.270  1.00  0.00    -0.394 OA
ATOM     17  H   UNL     1      28.832  -1.405   4.508  1.00  0.00     0.210 HD
ENDBRANCH  15  16
ENDBRANCH   4  15
TORSDOF 7
ENDMDL
MODEL 4
REMARK VINA RESULT:    -3.294     17.218     19.226
REMARK INTER + INTRA:          -4.375
REMARK INTER:                  -3.968
REMARK INTRA:                  -0.407
REMARK UNBOUND:                -0.119
REMARK SMILES CO[C@@]1(CO)O[C@H](CO)[C@H](O)[C@H]1O
REMARK SMILES IDX 3 1 12 2 10 3 7 4 6 5 2 6 1 7 4 8 5 9 13 11 11 13 8 15 9 16
REMARK H PARENT 5 10 13 12 11 14 9 17
REMARK Flexibility Score: inf
ROOT
ATOM      1  C   UNL     1      30.643  14.205  20.008  1.00  0.00     0.221 C 
ATOM      2  C   UNL     1      31.820  13.371  20.537  1.00  0.00     0.207 C 
ATOM      3  C   UNL     1      32.283  14.194  21.707  1.00  0.00     0.180 C 
ATOM      4  C   UNL     1      31.960  15.622  21.254  1.00  0.00     0.179 C 
ATOM      5  O   UNL     1      30.937  15.568  20.279  1.00  0.00    -0.337 OA
ENDROOT
BRANCH   1   6
ATOM      6  O   UNL     1      29.456  13.780  20.678  1.00  0.00    -0.349 OA
ATOM      7  C   UNL     1      28.433  13.377  19.789  1.00  0.00     0.198 C 
ENDBRANCH   1   6
BRANCH   1   8
ATOM      8  C   UNL     1      30.478  13.993  18.485  1.00  0.00     0.224 C 
BRANCH   8   9
ATOM      9  O   UNL     1      31.337  14.831  17.757  1.00  0.00    -0.391 OA
ATOM     10  H   UNL     1      32.263  14.585  18.014  1.00  0.00     0.210 HD
ENDBRANCH   8   9
ENDBRANCH   1   8
BRANCH   2  11
ATOM     11  O   UNL     1      31.410  12.087  20.936  1.00  0.00    -0.385 OA
ATOM     12  H   UNL     1      30.788  11.758  20.236  1.00  0.00     0.211 HD
ENDBRANCH   2  11
BRANCH   3  13
ATOM     13  O   UNL     1      33.650  14.000  21.969  1.00  0.00    -0.387 OA
ATOM     14  H   UNL     1      34.014  13.483  21.204  1.00  0.00     0.211 HD
ENDBRANCH   3  13
BRANCH   4  15
ATOM     15  C   UNL     1      33.167  16.367  20.663  1.00  0.00     0.191 C 
BRANCH  15  16
ATOM     16  O   UNL     1      33.995  16.818  21.699  1.00  0.00    -0.394 OA
ATOM     17  H   UNL     1      33.939  16.133  22.414  1.00  0.00     0.210 HD
ENDBRANCH  15  16
ENDBRANCH   4  15
TORSDOF 7
ENDMDL
MODEL 5
REMARK VINA RESULT:    -3.285     17.543     18.699
REMARK INTER + INTRA:          -4.364
REMARK INTER:                  -3.775
REMARK INTRA:                  -0.589
REMARK UNBOUND:                -0.119
REMARK SMILES CO[C@@]1(CO)O[C@H](CO)[C@H](O)[C@H]1O
REMARK SMILES IDX 3 1 12 2 10 3 7 4 6 5 2 6 1 7 4 8 5 9 13 11 11 13 8 15 9 16
REMARK H PARENT 5 10 13 12 11 14 9 17
REMARK Flexibility Score: inf
ROOT
ATOM      1  C   UNL     1      29.381  12.394  21.575  1.00  0.00     0.221 C 
ATOM      2  C   UNL     1      29.683  13.302  20.375  1.00  0.00     0.207 C 
ATOM      3  C   UNL     1      31.143  13.031  20.139  1.00  0.00     0.180 C 
ATOM      4  C   UNL     1      31.656  12.736  21.553  1.00  0.00     0.179 C 
ATOM      5  O   UNL     1      30.568  12.309  22.350  1.00  0.00    -0.337 OA
ENDROOT
BRANCH   1   6
ATOM      6  O   UNL     1      28.984  11.114  21.080  1.00  0.00    -0.349 OA
ATOM      7  C   UNL     1      29.192  10.071  22.013  1.00  0.00     0.198 C 
ENDBRANCH   1   6
BRANCH   1   8
ATOM      8  C   UNL     1      28.237  12.993  22.427  1.00  0.00     0.224 C 
BRANCH   8   9
ATOM      9  O   UNL     1      27.059  13.130  21.676  1.00  0.00    -0.391 OA
ATOM     10  H   UNL     1      27.279  12.860  20.746  1.00  0.00     0.210 HD
ENDBRANCH   8   9
ENDBRANCH   1   8
BRANCH   2  11
ATOM     11  O   UNL     1      28.905  12.961  19.255  1.00  0.00    -0.385 OA
ATOM     12  H   UNL     1      29.103  12.010  19.051  1.00  0.00     0.211 HD
ENDBRANCH   2  11
BRANCH   3  13
ATOM     13  O   UNL     1      31.785  14.130  19.542  1.00  0.00    -0.387 OA
ATOM     14  H   UNL     1      32.673  13.808  19.240  1.00  0.00     0.211 HD
ENDBRANCH   3  13
BRANCH   4  15
ATOM     15  C   UNL     1      32.319  13.946  22.230  1.00  0.00     0.191 C 
BRANCH  15  16
ATOM     16  O   UNL     1      33.641  14.069  21.782  1.00  0.00    -0.394 OA
ATOM     17  H   UNL     1      34.216  13.906  22.574  1.00  0.00     0.210 HD
ENDBRANCH  15  16
ENDBRANCH   4  15
TORSDOF 7
ENDMDL
MODEL 6
REMARK VINA RESULT:    -3.207     15.636     18.303
REMARK INTER + INTRA:          -4.262
REMARK INTER:                  -3.685
REMARK INTRA:                  -0.578
REMARK UNBOUND:                -0.119
REMARK SMILES CO[C@@]1(CO)O[C@H](CO)[C@H](O)[C@H]1O
REMARK SMILES IDX 3 1 12 2 10 3 7 4 6 5 2 6 1 7 4 8 5 9 13 11 11 13 8 15 9 16
REMARK H PARENT 5 10 13 12 11 14 9 17
REMARK Flexibility Score: inf
ROOT
ATOM      1  C   UNL     1      30.432  13.579  20.469  1.00  0.00     0.221 C 
ATOM      2  C   UNL     1      31.559  14.468  19.923  1.00  0.00     0.207 C 
ATOM      3  C   UNL     1      30.853  15.232  18.837  1.00  0.00     0.180 C 
ATOM      4  C   UNL     1      29.807  14.223  18.350  1.00  0.00     0.179 C 
ATOM      5  O   UNL     1      29.558  13.293  19.386  1.00  0.00    -0.337 OA
ENDROOT
BRANCH   1   6
ATOM      6  O   UNL     1      29.763  14.291  21.511  1.00  0.00    -0.349 OA
ATOM      7  C   UNL     1      28.510  13.729  21.848  1.00  0.00     0.198 C 
ENDBRANCH   1   6
BRANCH   1   8
ATOM      8  C   UNL     1      31.015  12.263  21.037  1.00  0.00     0.224 C 
BRANCH   8   9
ATOM      9  O   UNL     1      32.043  12.517  21.958  1.00  0.00    -0.391 OA
ATOM     10  H   UNL     1      31.761  12.114  22.821  1.00  0.00     0.210 HD
ENDBRANCH   8   9
ENDBRANCH   1   8
BRANCH   2  11
ATOM     11  O   UNL     1      32.070  15.326  20.912  1.00  0.00    -0.385 OA
ATOM     12  H   UNL     1      32.652  15.981  20.445  1.00  0.00     0.211 HD
ENDBRANCH   2  11
BRANCH   3  13
ATOM     13  O   UNL     1      31.741  15.631  17.823  1.00  0.00    -0.387 OA
ATOM     14  H   UNL     1      32.153  16.481  18.126  1.00  0.00     0.211 HD
ENDBRANCH   3  13
BRANCH   4  15
ATOM     15  C   UNL     1      30.235  13.455  17.089  1.00  0.00     0.191 C 
BRANCH  15  16
ATOM     16  O   UNL     1      30.235  14.321  15.989  1.00  0.00    -0.394 OA
ATOM     17  H   UNL     1      30.239  15.240  16.362  1.00  0.00     0.210 HD
ENDBRANCH  15  16
ENDBRANCH   4  15
TORSDOF 7
ENDMDL
MODEL 7
REMARK VINA RESULT:    -3.173     17.472     18.732
REMARK INTER + INTRA:          -4.219
REMARK INTER:                  -3.753
REMARK INTRA:                  -0.465
REMARK UNBOUND:                -0.119
REMARK SMILES CO[C@@]1(CO)O[C@H](CO)[C@H](O)[C@H]1O
REMARK SMILES IDX 3 1 12 2 10 3 7 4 6 5 2 6 1 7 4 8 5 9 13 11 11 13 8 15 9 16
REMARK H PARENT 5 10 13 12 11 14 9 17
REMARK Flexibility Score: inf
ROOT
ATOM      1  C   UNL     1      30.166  13.291  21.148  1.00  0.00     0.221 C 
ATOM      2  C   UNL     1      29.109  12.914  20.101  1.00  0.00     0.207 C 
ATOM      3  C   UNL     1      28.018  12.330  20.956  1.00  0.00     0.180 C 
ATOM      4  C   UNL     1      28.806  11.706  22.114  1.00  0.00     0.179 C 
ATOM      5  O   UNL     1      30.057  12.357  22.213  1.00  0.00    -0.337 OA
ENDROOT
BRANCH   1   6
ATOM      6  O   UNL     1      29.904  14.624  21.590  1.00  0.00    -0.349 OA
ATOM      7  C   UNL     1      30.730  15.023  22.667  1.00  0.00     0.198 C 
ENDBRANCH   1   6
BRANCH   1   8
ATOM      8  C   UNL     1      31.582  13.223  20.530  1.00  0.00     0.224 C 
BRANCH   8   9
ATOM      9  O   UNL     1      31.622  13.854  19.277  1.00  0.00    -0.391 OA
ATOM     10  H   UNL     1      32.245  14.622  19.362  1.00  0.00     0.210 HD
ENDBRANCH   8   9
ENDBRANCH   1   8
BRANCH   2  11
ATOM     11  O   UNL     1      28.661  14.037  19.385  1.00  0.00    -0.385 OA
ATOM     12  H   UNL     1      28.017  14.510  19.975  1.00  0.00     0.211 HD
ENDBRANCH   2  11
BRANCH   3  13
ATOM     13  O   UNL     1      27.251  11.389  20.247  1.00  0.00    -0.387 OA
ATOM     14  H   UNL     1      26.306  11.679  20.324  1.00  0.00     0.211 HD
ENDBRANCH   3  13
BRANCH   4  15
ATOM     15  C   UNL     1      29.045  10.197  21.951  1.00  0.00     0.191 C 
BRANCH  15  16
ATOM     16  O   UNL     1      30.421   9.940  21.918  1.00  0.00    -0.394 OA
ATOM     17  H   UNL     1      30.751  10.311  21.059  1.00  0.00     0.210 HD
ENDBRANCH  15  16
ENDBRANCH   4  15
TORSDOF 7
ENDMDL
MODEL 8
REMARK VINA RESULT:    -3.165     15.915     17.520
REMARK INTER + INTRA:          -4.209
REMARK INTER:                  -3.601
REMARK INTRA:                  -0.607
REMARK UNBOUND:                -0.119
REMARK SMILES CO[C@@]1(CO)O[C@H](CO)[C@H](O)[C@H]1O
REMARK SMILES IDX 3 1 12 2 10 3 7 4 6 5 2 6 1 7 4 8 5 9 13 11 11 13 8 15 9 16
REMARK H PARENT 5 10 13 12 11 14 9 17
REMARK Flexibility Score: inf
ROOT
ATOM      1  C   UNL     1      29.880  15.785  16.643  1.00  0.00     0.221 C 
ATOM      2  C   UNL     1      30.719  14.567  17.055  1.00  0.00     0.207 C 
ATOM      3  C   UNL     1      30.572  14.579  18.551  1.00  0.00     0.180 C 
ATOM      4  C   UNL     1      30.438  16.075  18.856  1.00  0.00     0.179 C 
ATOM      5  O   UNL     1      29.970  16.735  17.696  1.00  0.00    -0.337 OA
ENDROOT
BRANCH   1   6
ATOM      6  O   UNL     1      28.533  15.355  16.437  1.00  0.00    -0.349 OA
ATOM      7  C   UNL     1      27.679  16.396  16.006  1.00  0.00     0.198 C 
ENDBRANCH   1   6
BRANCH   1   8
ATOM      8  C   UNL     1      30.430  16.397  15.333  1.00  0.00     0.224 C 
BRANCH   8   9
ATOM      9  O   UNL     1      30.995  15.412  14.508  1.00  0.00    -0.391 OA
ATOM     10  H   UNL     1      31.323  15.875  13.693  1.00  0.00     0.210 HD
ENDBRANCH   8   9
ENDBRANCH   1   8
BRANCH   2  11
ATOM     11  O   UNL     1      30.219  13.378  16.495  1.00  0.00    -0.385 OA
ATOM     12  H   UNL     1      30.107  13.548  15.523  1.00  0.00     0.211 HD
ENDBRANCH   2  11
BRANCH   3  13
ATOM     13  O   UNL     1      31.679  13.989  19.186  1.00  0.00    -0.387 OA
ATOM     14  H   UNL     1      31.334  13.202  19.681  1.00  0.00     0.211 HD
ENDBRANCH   3  13
BRANCH   4  15
ATOM     15  C   UNL     1      31.754  16.732  19.301  1.00  0.00     0.191 C 
BRANCH  15  16
ATOM     16  O   UNL     1      31.999  16.429  20.646  1.00  0.00    -0.394 OA
ATOM     17  H   UNL     1      32.909  16.034  20.678  1.00  0.00     0.210 HD
ENDBRANCH  15  16
ENDBRANCH   4  15
TORSDOF 7
ENDMDL
MODEL 9
REMARK VINA RESULT:    -3.124     15.912     17.125
REMARK INTER + INTRA:          -4.156
REMARK INTER:                  -3.659
REMARK INTRA:                  -0.497
REMARK UNBOUND:                -0.119
REMARK SMILES CO[C@@]1(CO)O[C@H](CO)[C@H](O)[C@H]1O
REMARK SMILES IDX 3 1 12 2 10 3 7 4 6 5 2 6 1 7 4 8 5 9 13 11 11 13 8 15 9 16
REMARK H PARENT 5 10 13 12 11 14 9 17
REMARK Flexibility Score: inf
ROOT
ATOM      1  C   UNL     1      30.548  15.438  17.477  1.00  0.00     0.221 C 
ATOM      2  C   UNL     1      30.760  15.304  15.963  1.00  0.00     0.207 C 
ATOM      3  C   UNL     1      30.114  16.559  15.445  1.00  0.00     0.180 C 
ATOM      4  C   UNL     1      28.990  16.794  16.462  1.00  0.00     0.179 C 
ATOM      5  O   UNL     1      29.331  16.146  17.672  1.00  0.00    -0.337 OA
ENDROOT
BRANCH   1   6
ATOM      6  O   UNL     1      31.661  16.146  18.025  1.00  0.00    -0.349 OA
ATOM      7  C   UNL     1      31.748  16.034  19.433  1.00  0.00     0.198 C 
ENDBRANCH   1   6
BRANCH   1   8
ATOM      8  C   UNL     1      30.454  14.040  18.132  1.00  0.00     0.224 C 
BRANCH   8   9
ATOM      9  O   UNL     1      30.263  13.037  17.168  1.00  0.00    -0.391 OA
ATOM     10  H   UNL     1      30.399  13.462  16.281  1.00  0.00     0.210 HD
ENDBRANCH   8   9
ENDBRANCH   1   8
BRANCH   2  11
ATOM     11  O   UNL     1      32.124  15.250  15.631  1.00  0.00    -0.385 OA
ATOM     12  H   UNL     1      32.613  15.701  16.368  1.00  0.00     0.211 HD
ENDBRANCH   2  11
BRANCH   3  13
ATOM     13  O   UNL     1      29.637  16.394  14.133  1.00  0.00    -0.387 OA
ATOM     14  H   UNL     1      30.314  15.851  13.653  1.00  0.00     0.211 HD
ENDBRANCH   3  13
BRANCH   4  15
ATOM     15  C   UNL     1      27.620  16.279  15.994  1.00  0.00     0.191 C 
BRANCH  15  16
ATOM     16  O   UNL     1      27.114  17.125  14.999  1.00  0.00    -0.394 OA
ATOM     17  H   UNL     1      27.313  18.050  15.298  1.00  0.00     0.210 HD
ENDBRANCH  15  16
ENDBRANCH   4  15
TORSDOF 7
ENDMDL
