MODEL 1
REMARK VINA RESULT:    -2.148      0.000      0.000
REMARK INTER + INTRA:          -2.433
REMARK INTER:                  -2.399
REMARK INTRA:                  -0.034
REMARK UNBOUND:                -0.034
REMARK SMILES CCCC(=O)[O-]
REMARK SMILES IDX 3 1 4 2 5 3 6 4 2 5 1 6
REMARK H PARENT
REMARK Flexibility Score: inf
ROOT
ATOM      1  C   UNL     1       9.245 -18.590  18.208  1.00  0.00     0.052 C 
ENDROOT
BRANCH   1   2
ATOM      2  C   UNL     1       8.076 -19.452  18.576  1.00  0.00     0.041 C 
ATOM      3  O   UNL     1       6.907 -18.985  18.542  1.00  0.00    -0.550 OA
ATOM      4  O   UNL     1       8.282 -20.762  18.989  1.00  0.00    -0.550 OA
ENDBRANCH   1   2
BRANCH   1   5
ATOM      5  C   UNL     1      10.569 -19.357  18.306  1.00  0.00     0.003 C 
ATOM      6  C   UNL     1      11.485 -18.800  19.395  1.00  0.00     0.004 C 
ENDBRANCH   1   5
TORSDOF 2
ENDMDL
MODEL 2
REMARK VINA RESULT:    -2.052      2.391      3.175
REMARK INTER + INTRA:          -2.326
REMARK INTER:                  -2.255
REMARK INTRA:                  -0.071
REMARK UNBOUND:                -0.034
REMARK SMILES CCCC(=O)[O-]
REMARK SMILES IDX 3 1 4 2 5 3 6 4 2 5 1 6
REMARK H PARENT
REMARK Flexibility Score: inf
ROOT
ATOM      1  C   UNL     1       9.203 -19.343  19.979  1.00  0.00     0.052 C 
ENDROOT
BRANCH   1   2
ATOM      2  C   UNL     1      10.386 -18.607  19.425  1.00  0.00     0.041 C 
ATOM      3  O   UNL     1      10.499 -17.365  19.601  1.00  0.00    -0.550 OA
ATOM      4  O   UNL     1      11.344 -19.288  18.686  1.00  0.00    -0.550 OA
ENDBRANCH   1   2
BRANCH   1   5
ATOM      5  C   UNL     1       8.365 -19.987  18.868  1.00  0.00     0.003 C 
ATOM      6  C   UNL     1       7.749 -18.951  17.929  1.00  0.00     0.004 C 
ENDBRANCH   1   5
TORSDOF 2
ENDMDL
MODEL 3
REMARK VINA RESULT:    -2.044      2.036      3.283
REMARK INTER + INTRA:          -2.318
REMARK INTER:                  -2.279
REMARK INTRA:                  -0.038
REMARK UNBOUND:                -0.034
REMARK SMILES CCCC(=O)[O-]
REMARK SMILES IDX 3 1 4 2 5 3 6 4 2 5 1 6
REMARK H PARENT
REMARK Flexibility Score: inf
ROOT
ATOM      1  C   UNL     1       9.169 -18.817  18.055  1.00  0.00     0.052 C 
ENDROOT
BRANCH   1   2
ATOM      2  C   UNL     1      10.266 -18.953  19.067  1.00  0.00     0.041 C 
ATOM      3  O   UNL     1      11.423 -19.296  18.706  1.00  0.00    -0.550 OA
ATOM      4  O   UNL     1      10.003 -18.733  20.412  1.00  0.00    -0.550 OA
ENDBRANCH   1   2
BRANCH   1   5
ATOM      5  C   UNL     1       7.941 -19.654  18.435  1.00  0.00     0.003 C 
ATOM      6  C   UNL     1       6.754 -18.789  18.857  1.00  0.00     0.004 C 
ENDBRANCH   1   5
TORSDOF 2
ENDMDL
MODEL 4
REMARK VINA RESULT:    -2.039      2.420      3.403
REMARK INTER + INTRA:          -2.312
REMARK INTER:                  -2.241
REMARK INTRA:                  -0.071
REMARK UNBOUND:                -0.034
REMARK SMILES CCCC(=O)[O-]
REMARK SMILES IDX 3 1 4 2 5 3 6 4 2 5 1 6
REMARK H PARENT
REMARK Flexibility Score: inf
ROOT
ATOM      1  C   UNL     1       9.240 -19.302  20.020  1.00  0.00     0.052 C 
ENDROOT
BRANCH   1   2
ATOM      2  C   UNL     1      10.426 -18.595  19.437  1.00  0.00     0.041 C 
ATOM      3  O   UNL     1      11.291 -19.237  18.786  1.00  0.00    -0.550 OA
ATOM      4  O   UNL     1      10.592 -17.231  19.642  1.00  0.00    -0.550 OA
ENDBRANCH   1   2
BRANCH   1   5
ATOM      5  C   UNL     1       8.392 -19.975  18.935  1.00  0.00     0.003 C 
ATOM      6  C   UNL     1       7.821 -18.969  17.935  1.00  0.00     0.004 C 
ENDBRANCH   1   5
TORSDOF 2
ENDMDL
MODEL 5
REMARK VINA RESULT:    -1.998     19.843     20.248
REMARK INTER + INTRA:          -2.266
REMARK INTER:                  -2.246
REMARK INTRA:                  -0.020
REMARK UNBOUND:                -0.034
REMARK SMILES CCCC(=O)[O-]
REMARK SMILES IDX 3 1 4 2 5 3 6 4 2 5 1 6
REMARK H PARENT
REMARK Flexibility Score: inf
ROOT
ATOM      1  C   UNL     1      -2.686 -19.069  34.099  1.00  0.00     0.052 C 
ENDROOT
BRANCH   1   2
ATOM      2  C   UNL     1      -2.950 -20.332  34.861  1.00  0.00     0.041 C 
ATOM      3  O   UNL     1      -3.912 -21.078  34.540  1.00  0.00    -0.550 OA
ATOM      4  O   UNL     1      -2.152 -20.669  35.947  1.00  0.00    -0.550 OA
ENDBRANCH   1   2
BRANCH   1   5
ATOM      5  C   UNL     1      -3.962 -18.525  33.445  1.00  0.00     0.003 C 
ATOM      6  C   UNL     1      -4.293 -17.106  33.907  1.00  0.00     0.004 C 
ENDBRANCH   1   5
TORSDOF 2
ENDMDL
MODEL 6
REMARK VINA RESULT:    -1.994      8.450      9.758
REMARK INTER + INTRA:          -2.262
REMARK INTER:                  -2.225
REMARK INTRA:                  -0.037
REMARK UNBOUND:                -0.034
REMARK SMILES CCCC(=O)[O-]
REMARK SMILES IDX 3 1 4 2 5 3 6 4 2 5 1 6
REMARK H PARENT
REMARK Flexibility Score: inf
ROOT
ATOM      1  C   UNL     1      -0.222 -20.738  19.699  1.00  0.00     0.052 C 
ENDROOT
BRANCH   1   2
ATOM      2  C   UNL     1      -1.549 -20.236  19.215  1.00  0.00     0.041 C 
ATOM      3  O   UNL     1      -1.605 -19.356  18.316  1.00  0.00    -0.550 OA
ATOM      4  O   UNL     1      -2.723 -20.717  19.781  1.00  0.00    -0.550 OA
ENDBRANCH   1   2
BRANCH   1   5
ATOM      5  C   UNL     1       0.852 -20.643  18.608  1.00  0.00     0.003 C 
ATOM      6  C   UNL     1       2.018 -19.743  19.017  1.00  0.00     0.004 C 
ENDBRANCH   1   5
TORSDOF 2
ENDMDL
MODEL 7
REMARK VINA RESULT:    -1.974      1.615      2.031
REMARK INTER + INTRA:          -2.239
REMARK INTER:                  -2.226
REMARK INTRA:                  -0.013
REMARK UNBOUND:                -0.034
REMARK SMILES CCCC(=O)[O-]
REMARK SMILES IDX 3 1 4 2 5 3 6 4 2 5 1 6
REMARK H PARENT
REMARK Flexibility Score: inf
ROOT
ATOM      1  C   UNL     1       7.883 -19.326  18.227  1.00  0.00     0.052 C 
ENDROOT
BRANCH   1   2
ATOM      2  C   UNL     1       6.764 -18.358  18.466  1.00  0.00     0.041 C 
ATOM      3  O   UNL     1       6.850 -17.173  18.049  1.00  0.00    -0.550 OA
ATOM      4  O   UNL     1       5.641 -18.756  19.180  1.00  0.00    -0.550 OA
ENDBRANCH   1   2
BRANCH   1   5
ATOM      5  C   UNL     1       9.190 -18.606  17.876  1.00  0.00     0.003 C 
ATOM      6  C   UNL     1      10.413 -19.285  18.494  1.00  0.00     0.004 C 
ENDBRANCH   1   5
TORSDOF 2
ENDMDL
MODEL 8
REMARK VINA RESULT:    -1.955     17.415     18.096
REMARK INTER + INTRA:          -2.218
REMARK INTER:                  -2.178
REMARK INTRA:                  -0.040
REMARK UNBOUND:                -0.034
REMARK SMILES CCCC(=O)[O-]
REMARK SMILES IDX 3 1 4 2 5 3 6 4 2 5 1 6
REMARK H PARENT
REMARK Flexibility Score: inf
ROOT
ATOM      1  C   UNL     1      13.598  -1.623  22.000  1.00  0.00     0.052 C 
ENDROOT
BRANCH   1   2
ATOM      2  C   UNL     1      12.731  -1.245  20.838  1.00  0.00     0.041 C 
ATOM      3  O   UNL     1      13.251  -0.875  19.752  1.00  0.00    -0.550 OA
ATOM      4  O   UNL     1      11.348  -1.270  20.964  1.00  0.00    -0.550 OA
ENDBRANCH   1   2
BRANCH   1   5
ATOM      5  C   UNL     1      13.921  -3.122  22.002  1.00  0.00     0.003 C 
ATOM      6  C   UNL     1      12.869  -3.943  22.748  1.00  0.00     0.004 C 
ENDBRANCH   1   5
TORSDOF 2
ENDMDL
MODEL 9
REMARK VINA RESULT:    -1.930      2.521      3.073
REMARK INTER + INTRA:          -2.190
REMARK INTER:                  -2.130
REMARK INTRA:                  -0.060
REMARK UNBOUND:                -0.034
REMARK SMILES CCCC(=O)[O-]
REMARK SMILES IDX 3 1 4 2 5 3 6 4 2 5 1 6
REMARK H PARENT
REMARK Flexibility Score: inf
ROOT
ATOM      1  C   UNL     1       8.274 -20.341  18.949  1.00  0.00     0.052 C 
ENDROOT
BRANCH   1   2
ATOM      2  C   UNL     1       8.269 -20.090  20.427  1.00  0.00     0.041 C 
ATOM      3  O   UNL     1       9.148 -19.355  20.949  1.00  0.00    -0.550 OA
ATOM      4  O   UNL     1       7.312 -20.695  21.231  1.00  0.00    -0.550 OA
ENDBRANCH   1   2
BRANCH   1   5
ATOM      5  C   UNL     1       7.929 -19.073  18.159  1.00  0.00     0.003 C 
ATOM      6  C   UNL     1       6.636 -18.417  18.645  1.00  0.00     0.004 C 
ENDBRANCH   1   5
TORSDOF 2
ENDMDL
