MODEL 1
REMARK VINA RESULT:    -2.409      0.000      0.000
REMARK INTER + INTRA:          -3.211
REMARK INTER:                  -2.972
REMARK INTRA:                  -0.239
REMARK UNBOUND:                -0.239
REMARK SMILES CCCCCC(C)=O
REMARK SMILES IDX 4 1 3 2 2 3 1 4 5 5 6 6 8 7 7 8
REMARK H PARENT
REMARK Flexibility Score: inf
ROOT
ATOM      1  C   UNL     1     231.247 238.995 233.774  1.00  0.00     0.008 C 
ENDROOT
BRANCH   1   2
ATOM      2  C   UNL     1     231.926 237.876 232.976  1.00  0.00     0.000 C 
BRANCH   2   3
ATOM      3  C   UNL     1     233.072 238.427 232.119  1.00  0.00    -0.003 C 
ATOM      4  C   UNL     1     234.139 237.365 231.875  1.00  0.00     0.004 C 
ENDBRANCH   2   3
ENDBRANCH   1   2
BRANCH   1   5
ATOM      5  C   UNL     1     232.068 240.292 233.711  1.00  0.00     0.075 C 
BRANCH   5   6
ATOM      6  C   UNL     1     232.466 240.846 235.061  1.00  0.00     0.129 C 
ATOM      7  O   UNL     1     232.139 241.989 235.338  1.00  0.00    -0.300 OA
ATOM      8  C   UNL     1     233.248 240.053 236.074  1.00  0.00     0.087 C 
ENDBRANCH   5   6
ENDBRANCH   1   5
TORSDOF 4
ENDMDL
MODEL 2
REMARK VINA RESULT:    -2.394      8.009      9.467
REMARK INTER + INTRA:          -3.193
REMARK INTER:                  -3.116
REMARK INTRA:                  -0.077
REMARK UNBOUND:                -0.239
REMARK SMILES CCCCCC(C)=O
REMARK SMILES IDX 4 1 3 2 2 3 1 4 5 5 6 6 8 7 7 8
REMARK H PARENT
REMARK Flexibility Score: inf
ROOT
ATOM      1  C   UNL     1     241.172 237.971 234.082  1.00  0.00     0.008 C 
ENDROOT
BRANCH   1   2
ATOM      2  C   UNL     1     242.557 238.461 233.644  1.00  0.00     0.000 C 
BRANCH   2   3
ATOM      3  C   UNL     1     242.614 239.994 233.612  1.00  0.00    -0.003 C 
ATOM      4  C   UNL     1     243.030 240.501 232.235  1.00  0.00     0.004 C 
ENDBRANCH   2   3
ENDBRANCH   1   2
BRANCH   1   5
ATOM      5  C   UNL     1     240.974 236.490 233.722  1.00  0.00     0.075 C 
BRANCH   5   6
ATOM      6  C   UNL     1     239.590 236.149 233.218  1.00  0.00     0.129 C 
ATOM      7  O   UNL     1     239.491 235.459 232.216  1.00  0.00    -0.300 OA
ATOM      8  C   UNL     1     238.332 236.623 233.895  1.00  0.00     0.087 C 
ENDBRANCH   5   6
ENDBRANCH   1   5
TORSDOF 4
ENDMDL
MODEL 3
REMARK VINA RESULT:    -2.392      2.323      4.193
REMARK INTER + INTRA:          -3.190
REMARK INTER:                  -2.925
REMARK INTRA:                  -0.265
REMARK UNBOUND:                -0.239
REMARK SMILES CCCCCC(C)=O
REMARK SMILES IDX 4 1 3 2 2 3 1 4 5 5 6 6 8 7 7 8
REMARK H PARENT
REMARK Flexibility Score: inf
ROOT
ATOM      1  C   UNL     1     231.778 241.338 233.771  1.00  0.00     0.008 C 
ENDROOT
BRANCH   1   2
ATOM      2  C   UNL     1     230.295 241.396 234.157  1.00  0.00     0.000 C 
BRANCH   2   3
ATOM      3  C   UNL     1     230.044 240.679 235.489  1.00  0.00    -0.003 C 
ATOM      4  C   UNL     1     228.886 239.693 235.375  1.00  0.00     0.004 C 
ENDBRANCH   2   3
ENDBRANCH   1   2
BRANCH   1   5
ATOM      5  C   UNL     1     232.394 239.983 234.153  1.00  0.00     0.075 C 
BRANCH   5   6
ATOM      6  C   UNL     1     232.330 238.938 233.062  1.00  0.00     0.129 C 
ATOM      7  O   UNL     1     231.489 238.056 233.153  1.00  0.00    -0.300 OA
ATOM      8  C   UNL     1     233.255 238.934 231.876  1.00  0.00     0.087 C 
ENDBRANCH   5   6
ENDBRANCH   1   5
TORSDOF 4
ENDMDL
MODEL 4
REMARK VINA RESULT:    -2.391     10.079     11.460
REMARK INTER + INTRA:          -3.190
REMARK INTER:                  -3.120
REMARK INTRA:                  -0.070
REMARK UNBOUND:                -0.239
REMARK SMILES CCCCCC(C)=O
REMARK SMILES IDX 4 1 3 2 2 3 1 4 5 5 6 6 8 7 7 8
REMARK H PARENT
REMARK Flexibility Score: inf
ROOT
ATOM      1  C   UNL     1     226.818 230.796 233.915  1.00  0.00     0.008 C 
ENDROOT
BRANCH   1   2
ATOM      2  C   UNL     1     228.330 230.945 234.123  1.00  0.00     0.000 C 
BRANCH   2   3
ATOM      3  C   UNL     1     228.852 232.230 233.469  1.00  0.00    -0.003 C 
ATOM      4  C   UNL     1     230.299 232.068 233.014  1.00  0.00     0.004 C 
ENDBRANCH   2   3
ENDBRANCH   1   2
BRANCH   1   5
ATOM      5  C   UNL     1     226.385 229.329 234.060  1.00  0.00     0.075 C 
BRANCH   5   6
ATOM      6  C   UNL     1     225.514 228.820 232.933  1.00  0.00     0.129 C 
ATOM      7  O   UNL     1     224.700 229.585 232.439  1.00  0.00    -0.300 OA
ATOM      8  C   UNL     1     225.604 227.416 232.398  1.00  0.00     0.087 C 
ENDBRANCH   5   6
ENDBRANCH   1   5
TORSDOF 4
ENDMDL
MODEL 5
REMARK VINA RESULT:    -2.391      3.159      4.717
REMARK INTER + INTRA:          -3.190
REMARK INTER:                  -3.111
REMARK INTRA:                  -0.079
REMARK UNBOUND:                -0.239
REMARK SMILES CCCCCC(C)=O
REMARK SMILES IDX 4 1 3 2 2 3 1 4 5 5 6 6 8 7 7 8
REMARK H PARENT
REMARK Flexibility Score: inf
ROOT
ATOM      1  C   UNL     1     230.406 241.450 234.126  1.00  0.00     0.008 C 
ENDROOT
BRANCH   1   2
ATOM      2  C   UNL     1     229.919 242.757 233.489  1.00  0.00     0.000 C 
BRANCH   2   3
ATOM      3  C   UNL     1     228.404 242.724 233.253  1.00  0.00    -0.003 C 
ATOM      4  C   UNL     1     228.047 243.298 231.884  1.00  0.00     0.004 C 
ENDBRANCH   2   3
ENDBRANCH   1   2
BRANCH   1   5
ATOM      5  C   UNL     1     231.874 241.177 233.767  1.00  0.00     0.075 C 
BRANCH   5   6
ATOM      6  C   UNL     1     232.163 239.750 233.357  1.00  0.00     0.129 C 
ATOM      7  O   UNL     1     232.908 239.560 232.408  1.00  0.00    -0.300 OA
ATOM      8  C   UNL     1     231.574 238.560 234.064  1.00  0.00     0.087 C 
ENDBRANCH   5   6
ENDBRANCH   1   5
TORSDOF 4
ENDMDL
MODEL 6
REMARK VINA RESULT:    -2.370      8.093      9.240
REMARK INTER + INTRA:          -3.164
REMARK INTER:                  -2.986
REMARK INTRA:                  -0.178
REMARK UNBOUND:                -0.239
REMARK SMILES CCCCCC(C)=O
REMARK SMILES IDX 4 1 3 2 2 3 1 4 5 5 6 6 8 7 7 8
REMARK H PARENT
REMARK Flexibility Score: inf
ROOT
ATOM      1  C   UNL     1     228.926 232.498 233.583  1.00  0.00     0.008 C 
ENDROOT
BRANCH   1   2
ATOM      2  C   UNL     1     229.235 232.987 232.163  1.00  0.00     0.000 C 
BRANCH   2   3
ATOM      3  C   UNL     1     230.740 232.931 231.876  1.00  0.00    -0.003 C 
ATOM      4  C   UNL     1     231.465 232.062 232.899  1.00  0.00     0.004 C 
ENDBRANCH   2   3
ENDBRANCH   1   2
BRANCH   1   5
ATOM      5  C   UNL     1     227.451 232.088 233.715  1.00  0.00     0.075 C 
BRANCH   5   6
ATOM      6  C   UNL     1     227.236 230.637 234.083  1.00  0.00     0.129 C 
ATOM      7  O   UNL     1     226.242 230.072 233.655  1.00  0.00    -0.300 OA
ATOM      8  C   UNL     1     228.191 229.862 234.950  1.00  0.00     0.087 C 
ENDBRANCH   5   6
ENDBRANCH   1   5
TORSDOF 4
ENDMDL
MODEL 7
REMARK VINA RESULT:    -2.348      6.759      7.982
REMARK INTER + INTRA:          -3.136
REMARK INTER:                  -2.994
REMARK INTRA:                  -0.142
REMARK UNBOUND:                -0.239
REMARK SMILES CCCCCC(C)=O
REMARK SMILES IDX 4 1 3 2 2 3 1 4 5 5 6 6 8 7 7 8
REMARK H PARENT
REMARK Flexibility Score: inf
ROOT
ATOM      1  C   UNL     1     238.573 236.948 233.732  1.00  0.00     0.008 C 
ENDROOT
BRANCH   1   2
ATOM      2  C   UNL     1     237.429 236.482 232.824  1.00  0.00     0.000 C 
BRANCH   2   3
ATOM      3  C   UNL     1     237.896 235.371 231.875  1.00  0.00    -0.003 C 
ATOM      4  C   UNL     1     236.951 234.174 231.919  1.00  0.00     0.004 C 
ENDBRANCH   2   3
ENDBRANCH   1   2
BRANCH   1   5
ATOM      5  C   UNL     1     239.890 236.250 233.360  1.00  0.00     0.075 C 
BRANCH   5   6
ATOM      6  C   UNL     1     241.070 236.641 234.221  1.00  0.00     0.129 C 
ATOM      7  O   UNL     1     241.892 237.419 233.760  1.00  0.00    -0.300 OA
ATOM      8  C   UNL     1     241.277 236.114 235.615  1.00  0.00     0.087 C 
ENDBRANCH   5   6
ENDBRANCH   1   5
TORSDOF 4
ENDMDL
MODEL 8
REMARK VINA RESULT:    -2.320      1.606      2.289
REMARK INTER + INTRA:          -3.102
REMARK INTER:                  -2.907
REMARK INTRA:                  -0.196
REMARK UNBOUND:                -0.239
REMARK SMILES CCCCCC(C)=O
REMARK SMILES IDX 4 1 3 2 2 3 1 4 5 5 6 6 8 7 7 8
REMARK H PARENT
REMARK Flexibility Score: inf
ROOT
ATOM      1  C   UNL     1     232.461 239.995 234.544  1.00  0.00     0.008 C 
ENDROOT
BRANCH   1   2
ATOM      2  C   UNL     1     231.566 239.078 233.704  1.00  0.00     0.000 C 
BRANCH   2   3
ATOM      3  C   UNL     1     232.397 238.018 232.971  1.00  0.00    -0.003 C 
ATOM      4  C   UNL     1     233.252 238.648 231.875  1.00  0.00     0.004 C 
ENDBRANCH   2   3
ENDBRANCH   1   2
BRANCH   1   5
ATOM      5  C   UNL     1     232.125 241.473 234.291  1.00  0.00     0.075 C 
BRANCH   5   6
ATOM      6  C   UNL     1     230.735 241.882 234.725  1.00  0.00     0.129 C 
ATOM      7  O   UNL     1     230.396 241.652 235.875  1.00  0.00    -0.300 OA
ATOM      8  C   UNL     1     229.755 242.555 233.803  1.00  0.00     0.087 C 
ENDBRANCH   5   6
ENDBRANCH   1   5
TORSDOF 4
ENDMDL
