MODEL 1
REMARK VINA RESULT:    -3.583      0.000      0.000
REMARK INTER + INTRA:          -4.260
REMARK INTER:                  -4.212
REMARK INTRA:                  -0.048
REMARK UNBOUND:                -0.048
REMARK SMILES CCCCC(=O)[O-]
REMARK SMILES IDX 4 1 5 2 6 3 7 4 3 5 2 6 1 7
REMARK H PARENT
REMARK Flexibility Score: inf
ROOT
ATOM      1  C   UNL     1      44.570 -46.573 162.725  1.00  0.00     0.053 C 
ENDROOT
BRANCH   1   2
ATOM      2  C   UNL     1      44.675 -47.836 161.930  1.00  0.00     0.041 C 
ATOM      3  O   UNL     1      45.457 -48.753 162.297  1.00  0.00    -0.550 OA
ATOM      4  O   UNL     1      43.949 -47.981 160.756  1.00  0.00    -0.550 OA
ENDBRANCH   1   2
BRANCH   1   5
ATOM      5  C   UNL     1      45.775 -46.430 163.664  1.00  0.00     0.006 C 
BRANCH   5   6
ATOM      6  C   UNL     1      45.370 -46.432 165.147  1.00  0.00    -0.003 C 
ATOM      7  C   UNL     1      46.178 -45.439 165.981  1.00  0.00     0.004 C 
ENDBRANCH   5   6
ENDBRANCH   1   5
TORSDOF 3
ENDMDL
MODEL 2
REMARK VINA RESULT:    -3.567      2.340      4.166
REMARK INTER + INTRA:          -4.241
REMARK INTER:                  -4.194
REMARK INTRA:                  -0.047
REMARK UNBOUND:                -0.048
REMARK SMILES CCCCC(=O)[O-]
REMARK SMILES IDX 4 1 5 2 6 3 7 4 3 5 2 6 1 7
REMARK H PARENT
REMARK Flexibility Score: inf
ROOT
ATOM      1  C   UNL     1      45.282 -46.223 163.337  1.00  0.00     0.053 C 
ENDROOT
BRANCH   1   2
ATOM      2  C   UNL     1      45.133 -46.400 164.815  1.00  0.00     0.041 C 
ATOM      3  O   UNL     1      44.273 -47.197 165.275  1.00  0.00    -0.550 OA
ATOM      4  O   UNL     1      45.909 -45.648 165.687  1.00  0.00    -0.550 OA
ENDBRANCH   1   2
BRANCH   1   5
ATOM      5  C   UNL     1      44.123 -46.904 162.597  1.00  0.00     0.006 C 
BRANCH   5   6
ATOM      6  C   UNL     1      44.599 -48.027 161.663  1.00  0.00    -0.003 C 
ATOM      7  C   UNL     1      43.805 -48.086 160.358  1.00  0.00     0.004 C 
ENDBRANCH   5   6
ENDBRANCH   1   5
TORSDOF 3
ENDMDL
MODEL 3
REMARK VINA RESULT:    -3.515      1.212      1.391
REMARK INTER + INTRA:          -4.180
REMARK INTER:                  -4.132
REMARK INTRA:                  -0.048
REMARK UNBOUND:                -0.048
REMARK SMILES CCCCC(=O)[O-]
REMARK SMILES IDX 4 1 5 2 6 3 7 4 3 5 2 6 1 7
REMARK H PARENT
REMARK Flexibility Score: inf
ROOT
ATOM      1  C   UNL     1      45.046 -47.802 162.401  1.00  0.00     0.053 C 
ENDROOT
BRANCH   1   2
ATOM      2  C   UNL     1      43.828 -47.867 161.535  1.00  0.00     0.041 C 
ATOM      3  O   UNL     1      42.680 -47.801 162.051  1.00  0.00    -0.550 OA
ATOM      4  O   UNL     1      43.957 -48.050 160.165  1.00  0.00    -0.550 OA
ENDBRANCH   1   2
BRANCH   1   5
ATOM      5  C   UNL     1      45.117 -46.453 163.126  1.00  0.00     0.006 C 
BRANCH   5   6
ATOM      6  C   UNL     1      44.826 -46.576 164.630  1.00  0.00    -0.003 C 
ATOM      7  C   UNL     1      45.813 -45.787 165.490  1.00  0.00     0.004 C 
ENDBRANCH   5   6
ENDBRANCH   1   5
TORSDOF 3
ENDMDL
MODEL 4
REMARK VINA RESULT:    -3.509      2.272      2.873
REMARK INTER + INTRA:          -4.173
REMARK INTER:                  -4.058
REMARK INTRA:                  -0.115
REMARK UNBOUND:                -0.048
REMARK SMILES CCCCC(=O)[O-]
REMARK SMILES IDX 4 1 5 2 6 3 7 4 3 5 2 6 1 7
REMARK H PARENT
REMARK Flexibility Score: inf
ROOT
ATOM      1  C   UNL     1      45.461 -48.991 163.323  1.00  0.00     0.053 C 
ENDROOT
BRANCH   1   2
ATOM      2  C   UNL     1      44.931 -47.847 162.518  1.00  0.00     0.041 C 
ATOM      3  O   UNL     1      44.113 -48.055 161.583  1.00  0.00    -0.550 OA
ATOM      4  O   UNL     1      45.378 -46.556 162.767  1.00  0.00    -0.550 OA
ENDBRANCH   1   2
BRANCH   1   5
ATOM      5  C   UNL     1      44.375 -49.533 164.262  1.00  0.00     0.006 C 
BRANCH   5   6
ATOM      6  C   UNL     1      44.055 -48.567 165.413  1.00  0.00    -0.003 C 
ATOM      7  C   UNL     1      42.565 -48.243 165.515  1.00  0.00     0.004 C 
ENDBRANCH   5   6
ENDBRANCH   1   5
TORSDOF 3
ENDMDL
MODEL 5
REMARK VINA RESULT:    -3.484      1.664      2.080
REMARK INTER + INTRA:          -4.143
REMARK INTER:                  -4.011
REMARK INTRA:                  -0.132
REMARK UNBOUND:                -0.048
REMARK SMILES CCCCC(=O)[O-]
REMARK SMILES IDX 4 1 5 2 6 3 7 4 3 5 2 6 1 7
REMARK H PARENT
REMARK Flexibility Score: inf
ROOT
ATOM      1  C   UNL     1      45.000 -48.114 162.106  1.00  0.00     0.053 C 
ENDROOT
BRANCH   1   2
ATOM      2  C   UNL     1      45.634 -49.146 162.984  1.00  0.00     0.041 C 
ATOM      3  O   UNL     1      46.793 -49.570 162.729  1.00  0.00    -0.550 OA
ATOM      4  O   UNL     1      44.927 -49.678 164.054  1.00  0.00    -0.550 OA
ENDBRANCH   1   2
BRANCH   1   5
ATOM      5  C   UNL     1      44.523 -46.920 162.942  1.00  0.00     0.006 C 
BRANCH   5   6
ATOM      6  C   UNL     1      45.666 -46.249 163.719  1.00  0.00    -0.003 C 
ATOM      7  C   UNL     1      45.413 -46.207 165.225  1.00  0.00     0.004 C 
ENDBRANCH   5   6
ENDBRANCH   1   5
TORSDOF 3
ENDMDL
MODEL 6
REMARK VINA RESULT:    -3.464      2.646      3.990
REMARK INTER + INTRA:          -4.120
REMARK INTER:                  -4.015
REMARK INTRA:                  -0.105
REMARK UNBOUND:                -0.048
REMARK SMILES CCCCC(=O)[O-]
REMARK SMILES IDX 4 1 5 2 6 3 7 4 3 5 2 6 1 7
REMARK H PARENT
REMARK Flexibility Score: inf
ROOT
ATOM      1  C   UNL     1      44.981 -46.561 164.498  1.00  0.00     0.053 C 
ENDROOT
BRANCH   1   2
ATOM      2  C   UNL     1      46.209 -46.153 165.249  1.00  0.00     0.041 C 
ATOM      3  O   UNL     1      46.120 -45.374 166.234  1.00  0.00    -0.550 OA
ATOM      4  O   UNL     1      47.458 -46.593 164.830  1.00  0.00    -0.550 OA
ENDBRANCH   1   2
BRANCH   1   5
ATOM      5  C   UNL     1      45.235 -46.508 162.986  1.00  0.00     0.006 C 
BRANCH   5   6
ATOM      6  C   UNL     1      44.925 -47.842 162.289  1.00  0.00    -0.003 C 
ATOM      7  C   UNL     1      45.712 -49.013 162.876  1.00  0.00     0.004 C 
ENDBRANCH   5   6
ENDBRANCH   1   5
TORSDOF 3
ENDMDL
MODEL 7
REMARK VINA RESULT:    -3.434      2.077      2.498
REMARK INTER + INTRA:          -4.084
REMARK INTER:                  -3.977
REMARK INTRA:                  -0.107
REMARK UNBOUND:                -0.048
REMARK SMILES CCCCC(=O)[O-]
REMARK SMILES IDX 4 1 5 2 6 3 7 4 3 5 2 6 1 7
REMARK H PARENT
REMARK Flexibility Score: inf
ROOT
ATOM      1  C   UNL     1      44.944 -47.643 162.324  1.00  0.00     0.053 C 
ENDROOT
BRANCH   1   2
ATOM      2  C   UNL     1      43.752 -47.909 161.460  1.00  0.00     0.041 C 
ATOM      3  O   UNL     1      43.903 -48.174 160.237  1.00  0.00    -0.550 OA
ATOM      4  O   UNL     1      42.473 -47.816 161.991  1.00  0.00    -0.550 OA
ENDBRANCH   1   2
BRANCH   1   5
ATOM      5  C   UNL     1      45.521 -48.960 162.861  1.00  0.00     0.006 C 
BRANCH   5   6
ATOM      6  C   UNL     1      44.757 -49.480 164.089  1.00  0.00    -0.003 C 
ATOM      7  C   UNL     1      44.410 -48.372 165.082  1.00  0.00     0.004 C 
ENDBRANCH   5   6
ENDBRANCH   1   5
TORSDOF 3
ENDMDL
MODEL 8
REMARK VINA RESULT:    -3.427      2.232      3.542
REMARK INTER + INTRA:          -4.076
REMARK INTER:                  -3.952
REMARK INTRA:                  -0.124
REMARK UNBOUND:                -0.048
REMARK SMILES CCCCC(=O)[O-]
REMARK SMILES IDX 4 1 5 2 6 3 7 4 3 5 2 6 1 7
REMARK H PARENT
REMARK Flexibility Score: inf
ROOT
ATOM      1  C   UNL     1      44.843 -46.834 164.365  1.00  0.00     0.053 C 
ENDROOT
BRANCH   1   2
ATOM      2  C   UNL     1      44.097 -48.068 164.761  1.00  0.00     0.041 C 
ATOM      3  O   UNL     1      44.724 -49.110 165.089  1.00  0.00    -0.550 OA
ATOM      4  O   UNL     1      42.709 -48.085 164.721  1.00  0.00    -0.550 OA
ENDBRANCH   1   2
BRANCH   1   5
ATOM      5  C   UNL     1      44.559 -46.484 162.898  1.00  0.00     0.006 C 
BRANCH   5   6
ATOM      6  C   UNL     1      45.043 -47.572 161.928  1.00  0.00    -0.003 C 
ATOM      7  C   UNL     1      43.985 -47.955 160.893  1.00  0.00     0.004 C 
ENDBRANCH   5   6
ENDBRANCH   1   5
TORSDOF 3
ENDMDL
MODEL 9
REMARK VINA RESULT:    -3.400      2.730      3.827
REMARK INTER + INTRA:          -4.044
REMARK INTER:                  -3.953
REMARK INTRA:                  -0.091
REMARK UNBOUND:                -0.048
REMARK SMILES CCCCC(=O)[O-]
REMARK SMILES IDX 4 1 5 2 6 3 7 4 3 5 2 6 1 7
REMARK H PARENT
REMARK Flexibility Score: inf
ROOT
ATOM      1  C   UNL     1      44.250 -47.876 164.841  1.00  0.00     0.053 C 
ENDROOT
BRANCH   1   2
ATOM      2  C   UNL     1      45.028 -46.618 164.622  1.00  0.00     0.041 C 
ATOM      3  O   UNL     1      45.043 -46.072 163.488  1.00  0.00    -0.550 OA
ATOM      4  O   UNL     1      45.778 -46.075 165.657  1.00  0.00    -0.550 OA
ENDBRANCH   1   2
BRANCH   1   5
ATOM      5  C   UNL     1      45.166 -49.101 164.725  1.00  0.00     0.006 C 
BRANCH   5   6
ATOM      6  C   UNL     1      45.433 -49.501 163.265  1.00  0.00    -0.003 C 
ATOM      7  C   UNL     1      46.914 -49.436 162.895  1.00  0.00     0.004 C 
ENDBRANCH   5   6
ENDBRANCH   1   5
TORSDOF 3
ENDMDL
