MODEL 1
REMARK VINA RESULT:    -3.787      0.000      0.000
REMARK INTER + INTRA:          -6.513
REMARK INTER:                  -5.336
REMARK INTRA:                  -1.176
REMARK UNBOUND:                -1.176
REMARK SMILES COc1c(O[C@@H]2O[C@@H](C(=O)[O-])[C@H](O)[C@@H](O)[C@H]2O)cc(O)c2c(=O)cc(-c3ccccc3)oc12
REMARK SMILES IDX 5 1 6 2 8 3 12 4 7 5 14 6 16 7 9 8 10 9 11 10 13 11 15 13
REMARK SMILES IDX 17 15 4 17 3 18 18 19 33 20 19 21 21 22 32 23 22 24 25 25
REMARK SMILES IDX 24 26 23 27 2 28 1 29 20 30 26 32 27 33 31 34 28 35 30 36
REMARK SMILES IDX 29 37
REMARK H PARENT 13 12 15 14 17 16 20 31
REMARK Flexibility Score: inf
ROOT
ATOM      1  O   UNL     1      -0.232  53.431  59.056  1.00  0.00    -0.458 OA
ENDROOT
BRANCH   1   2
ATOM      2  C   UNL     1       0.736  54.418  59.430  1.00  0.00     0.339 C 
ATOM      3  C   UNL     1      -0.822  56.162  59.186  1.00  0.00     0.199 C 
ATOM      4  C   UNL     1      -0.101  56.757  57.954  1.00  0.00     0.180 C 
ATOM      5  O   UNL     1       0.098  55.520  60.056  1.00  0.00    -0.328 OA
ATOM      6  C   UNL     1       0.672  55.645  57.226  1.00  0.00     0.181 C 
ATOM      7  C   UNL     1       1.570  54.886  58.218  1.00  0.00     0.214 C 
BRANCH   3   8
ATOM      8  C   UNL     1      -1.510  57.251  59.953  1.00  0.00     0.073 C 
ATOM      9  O   UNL     1      -1.301  57.388  61.187  1.00  0.00    -0.547 OA
ATOM     10  O   UNL     1      -2.415  58.090  59.314  1.00  0.00    -0.547 OA
ENDBRANCH   3   8
BRANCH   4  11
ATOM     11  O   UNL     1      -1.037  57.318  57.068  1.00  0.00    -0.387 OA
ATOM     12  H   UNL     1      -1.796  56.681  57.004  1.00  0.00     0.211 HD
ENDBRANCH   4  11
BRANCH   6  13
ATOM     13  O   UNL     1       1.461  56.192  56.201  1.00  0.00    -0.387 OA
ATOM     14  H   UNL     1       0.955  56.962  55.828  1.00  0.00     0.211 HD
ENDBRANCH   6  13
BRANCH   7  15
ATOM     15  O   UNL     1       2.607  55.718  58.674  1.00  0.00    -0.384 OA
ATOM     16  H   UNL     1       3.439  55.174  58.667  1.00  0.00     0.211 HD
ENDBRANCH   7  15
ENDBRANCH   1   2
BRANCH   1  17
ATOM     17  C   UNL     1      -0.145  52.047  59.280  1.00  0.00     0.172 A 
ATOM     18  C   UNL     1       0.583  51.265  58.370  1.00  0.00     0.205 A 
ATOM     19  C   UNL     1      -0.747  51.427  60.386  1.00  0.00     0.097 A 
ATOM     20  C   UNL     1       0.764  49.898  58.605  1.00  0.00     0.188 A 
ATOM     21  C   UNL     1      -0.612  50.055  60.617  1.00  0.00     0.134 A 
ATOM     22  C   UNL     1       0.191  49.269  59.740  1.00  0.00     0.111 A 
ATOM     23  O   UNL     1       1.484  49.198  57.735  1.00  0.00    -0.452 OA
ATOM     24  C   UNL     1       0.484  47.896  59.929  1.00  0.00     0.197 A 
ATOM     25  C   UNL     1       1.731  47.898  57.859  1.00  0.00     0.138 A 
ATOM     26  C   UNL     1       1.245  47.213  58.980  1.00  0.00     0.100 A 
ATOM     27  O   UNL     1       0.101  47.264  60.947  1.00  0.00    -0.289 OA
BRANCH  18  28
ATOM     28  O   UNL     1       1.182  51.834  57.239  1.00  0.00    -0.490 OA
ATOM     29  C   UNL     1       0.497  52.017  56.003  1.00  0.00     0.278 C 
ENDBRANCH  18  28
BRANCH  21  30
ATOM     30  O   UNL     1      -1.309  49.539  61.714  1.00  0.00    -0.507 OA
ATOM     31  H   UNL     1      -1.033  48.733  62.253  1.00  0.00     0.293 HD
ENDBRANCH  21  30
BRANCH  25  32
ATOM     32  C   UNL     1       2.533  47.222  56.809  1.00  0.00     0.017 A 
ATOM     33  C   UNL     1       3.271  47.951  55.855  1.00  0.00     0.012 A 
ATOM     34  C   UNL     1       2.598  45.816  56.785  1.00  0.00     0.012 A 
ATOM     35  C   UNL     1       4.040  47.285  54.895  1.00  0.00     0.001 A 
ATOM     36  C   UNL     1       3.367  45.156  55.822  1.00  0.00     0.001 A 
ATOM     37  C   UNL     1       4.086  45.891  54.875  1.00  0.00     0.000 A 
ENDBRANCH  25  32
ENDBRANCH   1  17
TORSDOF 9
ENDMDL
MODEL 2
REMARK VINA RESULT:    -3.729      2.338      8.990
REMARK INTER + INTRA:          -6.431
REMARK INTER:                  -5.107
REMARK INTRA:                  -1.325
REMARK UNBOUND:                -1.176
REMARK SMILES COc1c(O[C@@H]2O[C@@H](C(=O)[O-])[C@H](O)[C@@H](O)[C@H]2O)cc(O)c2c(=O)cc(-c3ccccc3)oc12
REMARK SMILES IDX 5 1 6 2 8 3 12 4 7 5 14 6 16 7 9 8 10 9 11 10 13 11 15 13
REMARK SMILES IDX 17 15 4 17 3 18 18 19 33 20 19 21 21 22 32 23 22 24 25 25
REMARK SMILES IDX 24 26 23 27 2 28 1 29 20 30 26 32 27 33 31 34 28 35 30 36
REMARK SMILES IDX 29 37
REMARK H PARENT 13 12 15 14 17 16 20 31
REMARK Flexibility Score: inf
ROOT
ATOM      1  O   UNL     1       1.715  51.618  57.942  1.00  0.00    -0.458 OA
ENDROOT
BRANCH   1   2
ATOM      2  C   UNL     1       1.086  50.710  57.031  1.00  0.00     0.339 C 
ATOM      3  C   UNL     1       0.482  49.249  58.770  1.00  0.00     0.199 C 
ATOM      4  C   UNL     1       1.452  48.141  58.300  1.00  0.00     0.180 C 
ATOM      5  O   UNL     1       0.023  50.026  57.674  1.00  0.00    -0.328 OA
ATOM      6  C   UNL     1       2.625  48.777  57.537  1.00  0.00     0.181 C 
ATOM      7  C   UNL     1       2.098  49.709  56.433  1.00  0.00     0.214 C 
BRANCH   3   8
ATOM      8  C   UNL     1      -0.710  48.636  59.442  1.00  0.00     0.073 C 
ATOM      9  O   UNL     1      -1.814  48.571  58.840  1.00  0.00    -0.547 OA
ATOM     10  O   UNL     1      -0.615  48.174  60.750  1.00  0.00    -0.547 OA
ENDBRANCH   3   8
BRANCH   4  11
ATOM     11  O   UNL     1       1.955  47.434  59.406  1.00  0.00    -0.387 OA
ATOM     12  H   UNL     1       2.491  48.075  59.943  1.00  0.00     0.211 HD
ENDBRANCH   4  11
BRANCH   6  13
ATOM     13  O   UNL     1       3.431  47.779  56.965  1.00  0.00    -0.387 OA
ATOM     14  H   UNL     1       2.899  46.940  56.972  1.00  0.00     0.211 HD
ENDBRANCH   6  13
BRANCH   7  15
ATOM     15  O   UNL     1       1.460  48.964  55.427  1.00  0.00    -0.384 OA
ATOM     16  H   UNL     1       1.473  48.014  55.718  1.00  0.00     0.211 HD
ENDBRANCH   7  15
ENDBRANCH   1   2
BRANCH   1  17
ATOM     17  C   UNL     1       1.455  52.994  58.065  1.00  0.00     0.172 A 
ATOM     18  C   UNL     1       1.095  53.497  59.325  1.00  0.00     0.205 A 
ATOM     19  C   UNL     1       1.557  53.877  56.979  1.00  0.00     0.097 A 
ATOM     20  C   UNL     1       0.912  54.872  59.506  1.00  0.00     0.188 A 
ATOM     21  C   UNL     1       1.338  55.249  57.131  1.00  0.00     0.134 A 
ATOM     22  C   UNL     1       1.049  55.777  58.423  1.00  0.00     0.111 A 
ATOM     23  O   UNL     1       0.599  55.312  60.721  1.00  0.00    -0.452 OA
ATOM     24  C   UNL     1       0.910  57.156  58.717  1.00  0.00     0.197 A 
ATOM     25  C   UNL     1       0.411  56.594  61.014  1.00  0.00     0.138 A 
ATOM     26  C   UNL     1       0.580  57.558  60.011  1.00  0.00     0.100 A 
ATOM     27  O   UNL     1       1.100  58.047  57.850  1.00  0.00    -0.289 OA
BRANCH  18  28
ATOM     28  O   UNL     1       0.958  52.652  60.434  1.00  0.00    -0.490 OA
ATOM     29  C   UNL     1      -0.291  52.100  60.842  1.00  0.00     0.278 C 
ENDBRANCH  18  28
BRANCH  21  30
ATOM     30  O   UNL     1       1.404  56.020  55.966  1.00  0.00    -0.507 OA
ATOM     31  H   UNL     1       1.607  55.667  55.045  1.00  0.00     0.293 HD
ENDBRANCH  21  30
BRANCH  25  32
ATOM     32  C   UNL     1       0.046  56.960  62.405  1.00  0.00     0.017 A 
ATOM     33  C   UNL     1      -0.109  58.304  62.803  1.00  0.00     0.012 A 
ATOM     34  C   UNL     1      -0.198  55.943  63.347  1.00  0.00     0.012 A 
ATOM     35  C   UNL     1      -0.482  58.615  64.114  1.00  0.00     0.001 A 
ATOM     36  C   UNL     1      -0.569  56.261  64.657  1.00  0.00     0.001 A 
ATOM     37  C   UNL     1      -0.709  57.597  65.041  1.00  0.00     0.000 A 
ENDBRANCH  25  32
ENDBRANCH   1  17
TORSDOF 9
ENDMDL
MODEL 3
REMARK VINA RESULT:    -3.697     17.551     20.814
REMARK INTER + INTRA:          -6.387
REMARK INTER:                  -5.038
REMARK INTRA:                  -1.349
REMARK UNBOUND:                -1.176
REMARK SMILES COc1c(O[C@@H]2O[C@@H](C(=O)[O-])[C@H](O)[C@@H](O)[C@H]2O)cc(O)c2c(=O)cc(-c3ccccc3)oc12
REMARK SMILES IDX 5 1 6 2 8 3 12 4 7 5 14 6 16 7 9 8 10 9 11 10 13 11 15 13
REMARK SMILES IDX 17 15 4 17 3 18 18 19 33 20 19 21 21 22 32 23 22 24 25 25
REMARK SMILES IDX 24 26 23 27 2 28 1 29 20 30 26 32 27 33 31 34 28 35 30 36
REMARK SMILES IDX 29 37
REMARK H PARENT 13 12 15 14 17 16 20 31
REMARK Flexibility Score: inf
ROOT
ATOM      1  O   UNL     1     -12.952  56.694  73.078  1.00  0.00    -0.458 OA
ENDROOT
BRANCH   1   2
ATOM      2  C   UNL     1     -13.528  55.671  73.898  1.00  0.00     0.339 C 
ATOM      3  C   UNL     1     -12.436  53.972  72.695  1.00  0.00     0.199 C 
ATOM      4  C   UNL     1     -13.752  53.426  72.094  1.00  0.00     0.180 C 
ATOM      5  O   UNL     1     -12.659  54.552  73.972  1.00  0.00    -0.328 OA
ATOM      6  C   UNL     1     -14.790  54.557  72.019  1.00  0.00     0.181 C 
ATOM      7  C   UNL     1     -14.922  55.249  73.387  1.00  0.00     0.214 C 
BRANCH   3   8
ATOM      8  C   UNL     1     -11.443  52.859  72.854  1.00  0.00     0.073 C 
ATOM      9  O   UNL     1     -11.235  52.351  73.987  1.00  0.00    -0.547 OA
ATOM     10  O   UNL     1     -10.715  52.412  71.757  1.00  0.00    -0.547 OA
ENDBRANCH   3   8
BRANCH   4  11
ATOM     11  O   UNL     1     -13.523  52.927  70.800  1.00  0.00    -0.387 OA
ATOM     12  H   UNL     1     -13.641  53.686  70.170  1.00  0.00     0.211 HD
ENDBRANCH   4  11
BRANCH   6  13
ATOM     13  O   UNL     1     -16.038  54.047  71.627  1.00  0.00    -0.387 OA
ATOM     14  H   UNL     1     -16.724  54.698  71.931  1.00  0.00     0.211 HD
ENDBRANCH   6  13
BRANCH   7  15
ATOM     15  O   UNL     1     -15.503  54.375  74.321  1.00  0.00    -0.384 OA
ATOM     16  H   UNL     1     -14.776  53.793  74.665  1.00  0.00     0.211 HD
ENDBRANCH   7  15
ENDBRANCH   1   2
BRANCH   1  17
ATOM     17  C   UNL     1     -12.125  57.745  73.510  1.00  0.00     0.172 A 
ATOM     18  C   UNL     1     -10.739  57.627  73.326  1.00  0.00     0.205 A 
ATOM     19  C   UNL     1     -12.639  58.909  74.103  1.00  0.00     0.097 A 
ATOM     20  C   UNL     1      -9.892  58.687  73.664  1.00  0.00     0.188 A 
ATOM     21  C   UNL     1     -11.805  59.963  74.485  1.00  0.00     0.134 A 
ATOM     22  C   UNL     1     -10.406  59.882  74.229  1.00  0.00     0.111 A 
ATOM     23  O   UNL     1      -8.587  58.547  73.448  1.00  0.00    -0.452 OA
ATOM     24  C   UNL     1      -9.480  60.925  74.477  1.00  0.00     0.197 A 
ATOM     25  C   UNL     1      -7.690  59.488  73.720  1.00  0.00     0.138 A 
ATOM     26  C   UNL     1      -8.122  60.718  74.232  1.00  0.00     0.100 A 
ATOM     27  O   UNL     1      -9.841  62.056  74.893  1.00  0.00    -0.289 OA
BRANCH  18  28
ATOM     28  O   UNL     1     -10.176  56.475  72.760  1.00  0.00    -0.490 OA
ATOM     29  C   UNL     1     -10.057  56.277  71.354  1.00  0.00     0.278 C 
ENDBRANCH  18  28
BRANCH  21  30
ATOM     30  O   UNL     1     -12.423  61.043  75.125  1.00  0.00    -0.507 OA
ATOM     31  H   UNL     1     -13.417  61.208  75.158  1.00  0.00     0.293 HD
ENDBRANCH  21  30
BRANCH  25  32
ATOM     32  C   UNL     1      -6.258  59.205  73.452  1.00  0.00     0.017 A 
ATOM     33  C   UNL     1      -5.246  60.133  73.770  1.00  0.00     0.012 A 
ATOM     34  C   UNL     1      -5.889  57.961  72.906  1.00  0.00     0.012 A 
ATOM     35  C   UNL     1      -3.903  59.825  73.531  1.00  0.00     0.001 A 
ATOM     36  C   UNL     1      -4.544  57.660  72.669  1.00  0.00     0.001 A 
ATOM     37  C   UNL     1      -3.552  58.592  72.979  1.00  0.00     0.000 A 
ENDBRANCH  25  32
ENDBRANCH   1  17
TORSDOF 9
ENDMDL
MODEL 4
REMARK VINA RESULT:    -3.653      3.019      8.728
REMARK INTER + INTRA:          -6.324
REMARK INTER:                  -5.120
REMARK INTRA:                  -1.204
REMARK UNBOUND:                -1.176
REMARK SMILES COc1c(O[C@@H]2O[C@@H](C(=O)[O-])[C@H](O)[C@@H](O)[C@H]2O)cc(O)c2c(=O)cc(-c3ccccc3)oc12
REMARK SMILES IDX 5 1 6 2 8 3 12 4 7 5 14 6 16 7 9 8 10 9 11 10 13 11 15 13
REMARK SMILES IDX 17 15 4 17 3 18 18 19 33 20 19 21 21 22 32 23 22 24 25 25
REMARK SMILES IDX 24 26 23 27 2 28 1 29 20 30 26 32 27 33 31 34 28 35 30 36
REMARK SMILES IDX 29 37
REMARK H PARENT 13 12 15 14 17 16 20 31
REMARK Flexibility Score: inf
ROOT
ATOM      1  O   UNL     1       0.538  50.681  57.404  1.00  0.00    -0.458 OA
ENDROOT
BRANCH   1   2
ATOM      2  C   UNL     1       1.557  49.807  56.902  1.00  0.00     0.339 C 
ATOM      3  C   UNL     1       0.007  48.083  56.514  1.00  0.00     0.199 C 
ATOM      4  C   UNL     1       0.592  47.182  57.626  1.00  0.00     0.180 C 
ATOM      5  O   UNL     1       1.010  48.912  55.947  1.00  0.00    -0.328 OA
ATOM      6  C   UNL     1       1.261  48.059  58.697  1.00  0.00     0.181 C 
ATOM      7  C   UNL     1       2.255  49.033  58.041  1.00  0.00     0.214 C 
BRANCH   3   8
ATOM      8  C   UNL     1      -0.574  47.237  55.421  1.00  0.00     0.073 C 
ATOM      9  O   UNL     1       0.073  46.257  54.964  1.00  0.00    -0.547 OA
ATOM     10  O   UNL     1      -1.812  47.554  54.875  1.00  0.00    -0.547 OA
ENDBRANCH   3   8
BRANCH   4  11
ATOM     11  O   UNL     1      -0.430  46.427  58.227  1.00  0.00    -0.387 OA
ATOM     12  H   UNL     1      -0.970  47.052  58.778  1.00  0.00     0.211 HD
ENDBRANCH   4  11
BRANCH   6  13
ATOM     13  O   UNL     1       1.936  47.256  59.631  1.00  0.00    -0.387 OA
ATOM     14  H   UNL     1       2.421  46.559  59.114  1.00  0.00     0.211 HD
ENDBRANCH   6  13
BRANCH   7  15
ATOM     15  O   UNL     1       3.348  48.330  57.508  1.00  0.00    -0.384 OA
ATOM     16  H   UNL     1       3.888  48.983  56.989  1.00  0.00     0.211 HD
ENDBRANCH   7  15
ENDBRANCH   1   2
BRANCH   1  17
ATOM     17  C   UNL     1       0.726  51.970  57.929  1.00  0.00     0.172 A 
ATOM     18  C   UNL     1       0.660  52.144  59.320  1.00  0.00     0.205 A 
ATOM     19  C   UNL     1       0.990  53.081  57.113  1.00  0.00     0.097 A 
ATOM     20  C   UNL     1       0.926  53.395  59.886  1.00  0.00     0.188 A 
ATOM     21  C   UNL     1       1.218  54.349  57.656  1.00  0.00     0.134 A 
ATOM     22  C   UNL     1       1.230  54.516  59.071  1.00  0.00     0.111 A 
ATOM     23  O   UNL     1       0.882  53.512  61.209  1.00  0.00    -0.452 OA
ATOM     24  C   UNL     1       1.550  55.725  59.737  1.00  0.00     0.197 A 
ATOM     25  C   UNL     1       1.125  54.646  61.857  1.00  0.00     0.138 A 
ATOM     26  C   UNL     1       1.484  55.787  61.129  1.00  0.00     0.100 A 
ATOM     27  O   UNL     1       1.920  56.753  59.115  1.00  0.00    -0.289 OA
BRANCH  18  28
ATOM     28  O   UNL     1       0.377  51.070  60.174  1.00  0.00    -0.490 OA
ATOM     29  C   UNL     1      -0.949  50.656  60.492  1.00  0.00     0.278 C 
ENDBRANCH  18  28
BRANCH  21  30
ATOM     30  O   UNL     1       1.405  55.391  56.743  1.00  0.00    -0.507 OA
ATOM     31  H   UNL     1       1.323  56.372  56.955  1.00  0.00     0.293 HD
ENDBRANCH  21  30
BRANCH  25  32
ATOM     32  C   UNL     1       1.025  54.655  63.338  1.00  0.00     0.017 A 
ATOM     33  C   UNL     1      -0.059  54.056  64.012  1.00  0.00     0.012 A 
ATOM     34  C   UNL     1       2.057  55.236  64.098  1.00  0.00     0.012 A 
ATOM     35  C   UNL     1      -0.112  54.057  65.409  1.00  0.00     0.001 A 
ATOM     36  C   UNL     1       1.998  55.234  65.496  1.00  0.00     0.001 A 
ATOM     37  C   UNL     1       0.913  54.646  66.151  1.00  0.00     0.000 A 
ENDBRANCH  25  32
ENDBRANCH   1  17
TORSDOF 9
ENDMDL
MODEL 5
REMARK VINA RESULT:    -3.617      2.796      8.795
REMARK INTER + INTRA:          -6.273
REMARK INTER:                  -5.066
REMARK INTRA:                  -1.207
REMARK UNBOUND:                -1.176
REMARK SMILES COc1c(O[C@@H]2O[C@@H](C(=O)[O-])[C@H](O)[C@@H](O)[C@H]2O)cc(O)c2c(=O)cc(-c3ccccc3)oc12
REMARK SMILES IDX 5 1 6 2 8 3 12 4 7 5 14 6 16 7 9 8 10 9 11 10 13 11 15 13
REMARK SMILES IDX 17 15 4 17 3 18 18 19 33 20 19 21 21 22 32 23 22 24 25 25
REMARK SMILES IDX 24 26 23 27 2 28 1 29 20 30 26 32 27 33 31 34 28 35 30 36
REMARK SMILES IDX 29 37
REMARK H PARENT 13 12 15 14 17 16 20 31
REMARK Flexibility Score: inf
ROOT
ATOM      1  O   UNL     1       0.440  50.411  56.950  1.00  0.00    -0.458 OA
ENDROOT
BRANCH   1   2
ATOM      2  C   UNL     1       1.519  49.524  56.634  1.00  0.00     0.339 C 
ATOM      3  C   UNL     1       0.072  47.677  56.496  1.00  0.00     0.199 C 
ATOM      4  C   UNL     1       0.658  47.007  57.762  1.00  0.00     0.180 C 
ATOM      5  O   UNL     1       1.055  48.453  55.828  1.00  0.00    -0.328 OA
ATOM      6  C   UNL     1       1.241  48.087  58.688  1.00  0.00     0.181 C 
ATOM      7  C   UNL     1       2.210  48.991  57.907  1.00  0.00     0.214 C 
BRANCH   3   8
ATOM      8  C   UNL     1      -0.423  46.629  55.545  1.00  0.00     0.073 C 
ATOM      9  O   UNL     1      -1.472  46.824  54.875  1.00  0.00    -0.547 OA
ATOM     10  O   UNL     1       0.249  45.418  55.428  1.00  0.00    -0.547 OA
ENDBRANCH   3   8
BRANCH   4  11
ATOM     11  O   UNL     1      -0.348  46.308  58.450  1.00  0.00    -0.387 OA
ATOM     12  H   UNL     1       0.019  45.413  58.674  1.00  0.00     0.211 HD
ENDBRANCH   4  11
BRANCH   6  13
ATOM     13  O   UNL     1       1.918  47.489  59.764  1.00  0.00    -0.387 OA
ATOM     14  H   UNL     1       2.355  46.670  59.410  1.00  0.00     0.211 HD
ENDBRANCH   6  13
BRANCH   7  15
ATOM     15  O   UNL     1       3.357  48.270  57.533  1.00  0.00    -0.384 OA
ATOM     16  H   UNL     1       4.061  48.937  57.319  1.00  0.00     0.211 HD
ENDBRANCH   7  15
ENDBRANCH   1   2
BRANCH   1  17
ATOM     17  C   UNL     1       0.523  51.594  57.705  1.00  0.00     0.172 A 
ATOM     18  C   UNL     1      -0.453  51.833  58.684  1.00  0.00     0.205 A 
ATOM     19  C   UNL     1       1.552  52.530  57.521  1.00  0.00     0.097 A 
ATOM     20  C   UNL     1      -0.357  52.956  59.513  1.00  0.00     0.188 A 
ATOM     21  C   UNL     1       1.643  53.679  58.312  1.00  0.00     0.134 A 
ATOM     22  C   UNL     1       0.700  53.889  59.360  1.00  0.00     0.111 A 
ATOM     23  O   UNL     1      -1.285  53.132  60.449  1.00  0.00    -0.452 OA
ATOM     24  C   UNL     1       0.752  54.958  60.288  1.00  0.00     0.197 A 
ATOM     25  C   UNL     1      -1.291  54.154  61.298  1.00  0.00     0.138 A 
ATOM     26  C   UNL     1      -0.252  55.092  61.247  1.00  0.00     0.100 A 
ATOM     27  O   UNL     1       1.695  55.791  60.298  1.00  0.00    -0.289 OA
BRANCH  18  28
ATOM     28  O   UNL     1      -1.513  50.940  58.890  1.00  0.00    -0.490 OA
ATOM     29  C   UNL     1      -2.700  50.945  58.102  1.00  0.00     0.278 C 
ENDBRANCH  18  28
BRANCH  21  30
ATOM     30  O   UNL     1       2.672  54.571  57.994  1.00  0.00    -0.507 OA
ATOM     31  H   UNL     1       2.558  55.560  57.837  1.00  0.00     0.293 HD
ENDBRANCH  21  30
BRANCH  25  32
ATOM     32  C   UNL     1      -2.394  54.252  62.285  1.00  0.00     0.017 A 
ATOM     33  C   UNL     1      -2.968  55.491  62.637  1.00  0.00     0.012 A 
ATOM     34  C   UNL     1      -2.917  53.077  62.858  1.00  0.00     0.012 A 
ATOM     35  C   UNL     1      -4.026  55.548  63.549  1.00  0.00     0.001 A 
ATOM     36  C   UNL     1      -3.974  53.141  63.771  1.00  0.00     0.001 A 
ATOM     37  C   UNL     1      -4.527  54.377  64.119  1.00  0.00     0.000 A 
ENDBRANCH  25  32
ENDBRANCH   1  17
TORSDOF 9
ENDMDL
MODEL 6
REMARK VINA RESULT:    -3.596      2.889      5.618
REMARK INTER + INTRA:          -6.244
REMARK INTER:                  -4.911
REMARK INTRA:                  -1.333
REMARK UNBOUND:                -1.176
REMARK SMILES COc1c(O[C@@H]2O[C@@H](C(=O)[O-])[C@H](O)[C@@H](O)[C@H]2O)cc(O)c2c(=O)cc(-c3ccccc3)oc12
REMARK SMILES IDX 5 1 6 2 8 3 12 4 7 5 14 6 16 7 9 8 10 9 11 10 13 11 15 13
REMARK SMILES IDX 17 15 4 17 3 18 18 19 33 20 19 21 21 22 32 23 22 24 25 25
REMARK SMILES IDX 24 26 23 27 2 28 1 29 20 30 26 32 27 33 31 34 28 35 30 36
REMARK SMILES IDX 29 37
REMARK H PARENT 13 12 15 14 17 16 20 31
REMARK Flexibility Score: inf
ROOT
ATOM      1  O   UNL     1       0.529  55.337  61.254  1.00  0.00    -0.458 OA
ENDROOT
BRANCH   1   2
ATOM      2  C   UNL     1       1.441  55.731  62.286  1.00  0.00     0.339 C 
ATOM      3  C   UNL     1       0.374  54.362  63.870  1.00  0.00     0.199 C 
ATOM      4  C   UNL     1      -0.162  55.563  64.684  1.00  0.00     0.180 C 
ATOM      5  O   UNL     1       1.599  54.684  63.229  1.00  0.00    -0.328 OA
ATOM      6  C   UNL     1      -0.320  56.780  63.756  1.00  0.00     0.181 C 
ATOM      7  C   UNL     1       0.985  57.031  62.982  1.00  0.00     0.214 C 
BRANCH   3   8
ATOM      8  C   UNL     1       0.614  53.193  64.779  1.00  0.00     0.073 C 
ATOM      9  O   UNL     1       1.018  53.379  65.958  1.00  0.00    -0.547 OA
ATOM     10  O   UNL     1       0.432  51.897  64.312  1.00  0.00    -0.547 OA
ENDBRANCH   3   8
BRANCH   4  11
ATOM     11  O   UNL     1      -1.411  55.250  65.246  1.00  0.00    -0.387 OA
ATOM     12  H   UNL     1      -1.674  56.018  65.818  1.00  0.00     0.211 HD
ENDBRANCH   4  11
BRANCH   6  13
ATOM     13  O   UNL     1      -0.651  57.921  64.505  1.00  0.00    -0.387 OA
ATOM     14  H   UNL     1       0.205  58.337  64.790  1.00  0.00     0.211 HD
ENDBRANCH   6  13
BRANCH   7  15
ATOM     15  O   UNL     1       1.999  57.456  63.858  1.00  0.00    -0.384 OA
ATOM     16  H   UNL     1       1.576  57.588  64.747  1.00  0.00     0.211 HD
ENDBRANCH   7  15
ENDBRANCH   1   2
BRANCH   1  17
ATOM     17  C   UNL     1       0.853  55.043  59.919  1.00  0.00     0.172 A 
ATOM     18  C   UNL     1       1.129  53.711  59.573  1.00  0.00     0.205 A 
ATOM     19  C   UNL     1       0.896  56.031  58.923  1.00  0.00     0.097 A 
ATOM     20  C   UNL     1       1.371  53.366  58.239  1.00  0.00     0.188 A 
ATOM     21  C   UNL     1       1.177  55.713  57.591  1.00  0.00     0.134 A 
ATOM     22  C   UNL     1       1.380  54.352  57.220  1.00  0.00     0.111 A 
ATOM     23  O   UNL     1       1.599  52.089  57.948  1.00  0.00    -0.452 OA
ATOM     24  C   UNL     1       1.568  53.899  55.891  1.00  0.00     0.197 A 
ATOM     25  C   UNL     1       1.831  51.644  56.718  1.00  0.00     0.138 A 
ATOM     26  C   UNL     1       1.805  52.546  55.647  1.00  0.00     0.100 A 
ATOM     27  O   UNL     1       1.506  54.676  54.903  1.00  0.00    -0.289 OA
BRANCH  18  28
ATOM     28  O   UNL     1       1.120  52.693  60.536  1.00  0.00    -0.490 OA
ATOM     29  C   UNL     1      -0.051  51.960  60.884  1.00  0.00     0.278 C 
ENDBRANCH  18  28
BRANCH  21  30
ATOM     30  O   UNL     1       1.257  56.788  56.700  1.00  0.00    -0.507 OA
ATOM     31  H   UNL     1       1.673  56.754  55.783  1.00  0.00     0.293 HD
ENDBRANCH  21  30
BRANCH  25  32
ATOM     32  C   UNL     1       2.092  50.196  56.524  1.00  0.00     0.017 A 
ATOM     33  C   UNL     1       2.150  49.299  57.610  1.00  0.00     0.012 A 
ATOM     34  C   UNL     1       2.245  49.690  55.219  1.00  0.00     0.012 A 
ATOM     35  C   UNL     1       2.370  47.936  57.392  1.00  0.00     0.001 A 
ATOM     36  C   UNL     1       2.465  48.325  55.008  1.00  0.00     0.001 A 
ATOM     37  C   UNL     1       2.530  47.449  56.094  1.00  0.00     0.000 A 
ENDBRANCH  25  32
ENDBRANCH   1  17
TORSDOF 9
ENDMDL
MODEL 7
REMARK VINA RESULT:    -3.578      2.362      8.660
REMARK INTER + INTRA:          -6.218
REMARK INTER:                  -4.873
REMARK INTRA:                  -1.345
REMARK UNBOUND:                -1.176
REMARK SMILES COc1c(O[C@@H]2O[C@@H](C(=O)[O-])[C@H](O)[C@@H](O)[C@H]2O)cc(O)c2c(=O)cc(-c3ccccc3)oc12
REMARK SMILES IDX 5 1 6 2 8 3 12 4 7 5 14 6 16 7 9 8 10 9 11 10 13 11 15 13
REMARK SMILES IDX 17 15 4 17 3 18 18 19 33 20 19 21 21 22 32 23 22 24 25 25
REMARK SMILES IDX 24 26 23 27 2 28 1 29 20 30 26 32 27 33 31 34 28 35 30 36
REMARK SMILES IDX 29 37
REMARK H PARENT 13 12 15 14 17 16 20 31
REMARK Flexibility Score: inf
ROOT
ATOM      1  O   UNL     1      -0.770  50.047  57.656  1.00  0.00    -0.458 OA
ENDROOT
BRANCH   1   2
ATOM      2  C   UNL     1      -0.258  49.013  56.808  1.00  0.00     0.339 C 
ATOM      3  C   UNL     1      -0.189  47.473  58.583  1.00  0.00     0.199 C 
ATOM      4  C   UNL     1       1.356  47.425  58.602  1.00  0.00     0.180 C 
ATOM      5  O   UNL     1      -0.676  47.741  57.276  1.00  0.00    -0.328 OA
ATOM      6  C   UNL     1       1.917  48.749  58.058  1.00  0.00     0.181 C 
ATOM      7  C   UNL     1       1.280  49.077  56.696  1.00  0.00     0.214 C 
BRANCH   3   8
ATOM      8  C   UNL     1      -0.749  46.156  59.030  1.00  0.00     0.073 C 
ATOM      9  O   UNL     1      -0.047  45.113  58.965  1.00  0.00    -0.547 OA
ATOM     10  O   UNL     1      -2.062  46.072  59.481  1.00  0.00    -0.547 OA
ENDBRANCH   3   8
BRANCH   4  11
ATOM     11  O   UNL     1       1.819  47.237  59.915  1.00  0.00    -0.387 OA
ATOM     12  H   UNL     1       1.573  48.049  60.431  1.00  0.00     0.211 HD
ENDBRANCH   4  11
BRANCH   6  13
ATOM     13  O   UNL     1       3.312  48.665  57.917  1.00  0.00    -0.387 OA
ATOM     14  H   UNL     1       3.590  47.800  58.320  1.00  0.00     0.211 HD
ENDBRANCH   6  13
BRANCH   7  15
ATOM     15  O   UNL     1       1.703  48.154  55.725  1.00  0.00    -0.384 OA
ATOM     16  H   UNL     1       2.174  47.423  56.205  1.00  0.00     0.211 HD
ENDBRANCH   7  15
ENDBRANCH   1   2
BRANCH   1  17
ATOM     17  C   UNL     1      -0.614  51.432  57.475  1.00  0.00     0.172 A 
ATOM     18  C   UNL     1      -0.097  52.192  58.536  1.00  0.00     0.205 A 
ATOM     19  C   UNL     1      -0.942  52.073  56.271  1.00  0.00     0.097 A 
ATOM     20  C   UNL     1       0.153  53.558  58.366  1.00  0.00     0.188 A 
ATOM     21  C   UNL     1      -0.738  53.444  56.095  1.00  0.00     0.134 A 
ATOM     22  C   UNL     1      -0.141  54.207  57.140  1.00  0.00     0.111 A 
ATOM     23  O   UNL     1       0.670  54.237  59.385  1.00  0.00    -0.452 OA
ATOM     24  C   UNL     1       0.209  55.576  57.039  1.00  0.00     0.197 A 
ATOM     25  C   UNL     1       0.958  55.533  59.336  1.00  0.00     0.138 A 
ATOM     26  C   UNL     1       0.747  56.237  58.144  1.00  0.00     0.100 A 
ATOM     27  O   UNL     1       0.074  56.225  55.969  1.00  0.00    -0.289 OA
BRANCH  18  28
ATOM     28  O   UNL     1       0.224  51.602  59.765  1.00  0.00    -0.490 OA
ATOM     29  C   UNL     1      -0.720  51.434  60.819  1.00  0.00     0.278 C 
ENDBRANCH  18  28
BRANCH  21  30
ATOM     30  O   UNL     1      -1.163  53.983  54.876  1.00  0.00    -0.507 OA
ATOM     31  H   UNL     1      -1.283  53.465  54.020  1.00  0.00     0.293 HD
ENDBRANCH  21  30
BRANCH  25  32
ATOM     32  C   UNL     1       1.514  56.185  60.548  1.00  0.00     0.017 A 
ATOM     33  C   UNL     1       1.437  55.577  61.818  1.00  0.00     0.012 A 
ATOM     34  C   UNL     1       2.175  57.421  60.428  1.00  0.00     0.012 A 
ATOM     35  C   UNL     1       1.995  56.204  62.937  1.00  0.00     0.001 A 
ATOM     36  C   UNL     1       2.730  58.043  61.551  1.00  0.00     0.001 A 
ATOM     37  C   UNL     1       2.638  57.435  62.805  1.00  0.00     0.000 A 
ENDBRANCH  25  32
ENDBRANCH   1  17
TORSDOF 9
ENDMDL
MODEL 8
REMARK VINA RESULT:    -3.555      2.038      4.575
REMARK INTER + INTRA:          -6.186
REMARK INTER:                  -4.928
REMARK INTRA:                  -1.258
REMARK UNBOUND:                -1.176
REMARK SMILES COc1c(O[C@@H]2O[C@@H](C(=O)[O-])[C@H](O)[C@@H](O)[C@H]2O)cc(O)c2c(=O)cc(-c3ccccc3)oc12
REMARK SMILES IDX 5 1 6 2 8 3 12 4 7 5 14 6 16 7 9 8 10 9 11 10 13 11 15 13
REMARK SMILES IDX 17 15 4 17 3 18 18 19 33 20 19 21 21 22 32 23 22 24 25 25
REMARK SMILES IDX 24 26 23 27 2 28 1 29 20 30 26 32 27 33 31 34 28 35 30 36
REMARK SMILES IDX 29 37
REMARK H PARENT 13 12 15 14 17 16 20 31
REMARK Flexibility Score: inf
ROOT
ATOM      1  O   UNL     1       0.942  52.948  57.113  1.00  0.00    -0.458 OA
ENDROOT
BRANCH   1   2
ATOM      2  C   UNL     1       1.879  53.943  56.683  1.00  0.00     0.339 C 
ATOM      3  C   UNL     1       1.134  55.469  58.308  1.00  0.00     0.199 C 
ATOM      4  C   UNL     1       0.519  56.425  57.261  1.00  0.00     0.180 C 
ATOM      5  O   UNL     1       2.249  54.773  57.773  1.00  0.00    -0.328 OA
ATOM      6  C   UNL     1       0.128  55.627  56.006  1.00  0.00     0.181 C 
ATOM      7  C   UNL     1       1.320  54.787  55.518  1.00  0.00     0.214 C 
BRANCH   3   8
ATOM      8  C   UNL     1       1.598  56.248  59.504  1.00  0.00     0.073 C 
ATOM      9  O   UNL     1       1.566  55.728  60.650  1.00  0.00    -0.547 OA
ATOM     10  O   UNL     1       2.026  57.562  59.357  1.00  0.00    -0.547 OA
ENDBRANCH   3   8
BRANCH   4  11
ATOM     11  O   UNL     1      -0.628  57.046  57.784  1.00  0.00    -0.387 OA
ATOM     12  H   UNL     1      -1.324  57.018  57.076  1.00  0.00     0.211 HD
ENDBRANCH   4  11
BRANCH   6  13
ATOM     13  O   UNL     1      -0.283  56.499  54.984  1.00  0.00    -0.387 OA
ATOM     14  H   UNL     1       0.254  56.273  54.179  1.00  0.00     0.211 HD
ENDBRANCH   6  13
BRANCH   7  15
ATOM     15  O   UNL     1       2.341  55.622  55.032  1.00  0.00    -0.384 OA
ATOM     16  H   UNL     1       2.704  55.190  54.215  1.00  0.00     0.211 HD
ENDBRANCH   7  15
ENDBRANCH   1   2
BRANCH   1  17
ATOM     17  C   UNL     1       1.212  51.589  57.343  1.00  0.00     0.172 A 
ATOM     18  C   UNL     1       0.673  50.983  58.488  1.00  0.00     0.205 A 
ATOM     19  C   UNL     1       1.988  50.819  56.463  1.00  0.00     0.097 A 
ATOM     20  C   UNL     1       0.848  49.612  58.707  1.00  0.00     0.188 A 
ATOM     21  C   UNL     1       2.209  49.456  56.685  1.00  0.00     0.134 A 
ATOM     22  C   UNL     1       1.599  48.818  57.803  1.00  0.00     0.111 A 
ATOM     23  O   UNL     1       0.296  49.070  59.788  1.00  0.00    -0.452 OA
ATOM     24  C   UNL     1       1.665  47.429  58.072  1.00  0.00     0.197 A 
ATOM     25  C   UNL     1       0.387  47.780  60.093  1.00  0.00     0.138 A 
ATOM     26  C   UNL     1       1.068  46.917  59.225  1.00  0.00     0.100 A 
ATOM     27  O   UNL     1       2.229  46.621  57.290  1.00  0.00    -0.289 OA
BRANCH  18  28
ATOM     28  O   UNL     1      -0.089  51.715  59.408  1.00  0.00    -0.490 OA
ATOM     29  C   UNL     1       0.484  52.430  60.500  1.00  0.00     0.278 C 
ENDBRANCH  18  28
BRANCH  21  30
ATOM     30  O   UNL     1       3.051  48.808  55.776  1.00  0.00    -0.507 OA
ATOM     31  H   UNL     1       3.811  49.241  55.276  1.00  0.00     0.293 HD
ENDBRANCH  21  30
BRANCH  25  32
ATOM     32  C   UNL     1      -0.256  47.297  61.341  1.00  0.00     0.017 A 
ATOM     33  C   UNL     1      -0.826  46.011  61.432  1.00  0.00     0.012 A 
ATOM     34  C   UNL     1      -0.261  48.123  62.481  1.00  0.00     0.012 A 
ATOM     35  C   UNL     1      -1.400  45.575  62.630  1.00  0.00     0.001 A 
ATOM     36  C   UNL     1      -0.837  47.680  63.676  1.00  0.00     0.001 A 
ATOM     37  C   UNL     1      -1.408  46.408  63.750  1.00  0.00     0.000 A 
ENDBRANCH  25  32
ENDBRANCH   1  17
TORSDOF 9
ENDMDL
MODEL 9
REMARK VINA RESULT:    -3.544     16.552     19.091
REMARK INTER + INTRA:          -6.171
REMARK INTER:                  -4.846
REMARK INTRA:                  -1.325
REMARK UNBOUND:                -1.176
REMARK SMILES COc1c(O[C@@H]2O[C@@H](C(=O)[O-])[C@H](O)[C@@H](O)[C@H]2O)cc(O)c2c(=O)cc(-c3ccccc3)oc12
REMARK SMILES IDX 5 1 6 2 8 3 12 4 7 5 14 6 16 7 9 8 10 9 11 10 13 11 15 13
REMARK SMILES IDX 17 15 4 17 3 18 18 19 33 20 19 21 21 22 32 23 22 24 25 25
REMARK SMILES IDX 24 26 23 27 2 28 1 29 20 30 26 32 27 33 31 34 28 35 30 36
REMARK SMILES IDX 29 37
REMARK H PARENT 13 12 15 14 17 16 20 31
REMARK Flexibility Score: inf
ROOT
ATOM      1  O   UNL     1     -10.454  59.420  72.037  1.00  0.00    -0.458 OA
ENDROOT
BRANCH   1   2
ATOM      2  C   UNL     1     -10.037  60.464  72.924  1.00  0.00     0.339 C 
ATOM      3  C   UNL     1      -7.936  60.626  71.883  1.00  0.00     0.199 C 
ATOM      4  C   UNL     1      -7.181  60.069  73.112  1.00  0.00     0.180 C 
ATOM      5  O   UNL     1      -9.110  61.320  72.275  1.00  0.00    -0.328 OA
ATOM      6  C   UNL     1      -8.121  59.162  73.923  1.00  0.00     0.181 C 
ATOM      7  C   UNL     1      -9.437  59.897  74.229  1.00  0.00     0.214 C 
BRANCH   3   8
ATOM      8  C   UNL     1      -7.057  61.581  71.131  1.00  0.00     0.073 C 
ATOM      9  O   UNL     1      -6.044  62.083  71.686  1.00  0.00    -0.547 OA
ATOM     10  O   UNL     1      -7.380  61.950  69.830  1.00  0.00    -0.547 OA
ENDBRANCH   3   8
BRANCH   4  11
ATOM     11  O   UNL     1      -6.066  59.321  72.699  1.00  0.00    -0.387 OA
ATOM     12  H   UNL     1      -6.316  58.869  71.851  1.00  0.00     0.211 HD
ENDBRANCH   4  11
BRANCH   6  13
ATOM     13  O   UNL     1      -7.507  58.776  75.125  1.00  0.00    -0.387 OA
ATOM     14  H   UNL     1      -6.879  59.504  75.375  1.00  0.00     0.211 HD
ENDBRANCH   6  13
BRANCH   7  15
ATOM     15  O   UNL     1      -9.208  60.958  75.121  1.00  0.00    -0.384 OA
ATOM     16  H   UNL     1      -8.631  60.604  75.849  1.00  0.00     0.211 HD
ENDBRANCH   7  15
ENDBRANCH   1   2
BRANCH   1  17
ATOM     17  C   UNL     1     -11.224  58.294  72.373  1.00  0.00     0.172 A 
ATOM     18  C   UNL     1     -10.647  57.022  72.234  1.00  0.00     0.205 A 
ATOM     19  C   UNL     1     -12.538  58.400  72.854  1.00  0.00     0.097 A 
ATOM     20  C   UNL     1     -11.351  55.883  72.639  1.00  0.00     0.188 A 
ATOM     21  C   UNL     1     -13.273  57.270  73.225  1.00  0.00     0.134 A 
ATOM     22  C   UNL     1     -12.665  55.983  73.161  1.00  0.00     0.111 A 
ATOM     23  O   UNL     1     -10.758  54.699  72.519  1.00  0.00    -0.452 OA
ATOM     24  C   UNL     1     -13.272  54.783  73.606  1.00  0.00     0.197 A 
ATOM     25  C   UNL     1     -11.324  53.552  72.879  1.00  0.00     0.138 A 
ATOM     26  C   UNL     1     -12.602  53.569  73.452  1.00  0.00     0.100 A 
ATOM     27  O   UNL     1     -14.399  54.770  74.166  1.00  0.00    -0.289 OA
BRANCH  18  28
ATOM     28  O   UNL     1      -9.347  56.863  71.737  1.00  0.00    -0.490 OA
ATOM     29  C   UNL     1      -9.047  56.805  70.345  1.00  0.00     0.278 C 
ENDBRANCH  18  28
BRANCH  21  30
ATOM     30  O   UNL     1     -14.594  57.494  73.628  1.00  0.00    -0.507 OA
ATOM     31  H   UNL     1     -15.339  57.809  73.028  1.00  0.00     0.293 HD
ENDBRANCH  21  30
BRANCH  25  32
ATOM     32  C   UNL     1     -10.568  52.291  72.676  1.00  0.00     0.017 A 
ATOM     33  C   UNL     1      -9.850  52.039  71.489  1.00  0.00     0.012 A 
ATOM     34  C   UNL     1     -10.526  51.335  73.708  1.00  0.00     0.012 A 
ATOM     35  C   UNL     1      -9.124  50.853  71.338  1.00  0.00     0.001 A 
ATOM     36  C   UNL     1      -9.798  50.151  73.551  1.00  0.00     0.001 A 
ATOM     37  C   UNL     1      -9.100  49.909  72.366  1.00  0.00     0.000 A 
ENDBRANCH  25  32
ENDBRANCH   1  17
TORSDOF 9
ENDMDL
