MODEL 1
REMARK VINA RESULT:    -4.864      0.000      0.000
REMARK INTER + INTRA:          -5.214
REMARK INTER:                  -5.148
REMARK INTRA:                  -0.065
REMARK UNBOUND:                -0.065
REMARK SMILES CC(=O)c1ccccc1
REMARK SMILES IDX 4 1 5 2 6 3 7 4 8 5 9 6 2 7 1 8 3 9
REMARK H PARENT
REMARK Flexibility Score: inf
ROOT
ATOM      1  C   UNL     1     146.481 146.810 143.855  1.00  0.00     0.017 A 
ATOM      2  C   UNL     1     147.655 147.412 143.361  1.00  0.00     0.012 A 
ATOM      3  C   UNL     1     148.706 146.628 142.875  1.00  0.00     0.001 A 
ATOM      4  C   UNL     1     148.601 145.236 142.876  1.00  0.00     0.000 A 
ATOM      5  C   UNL     1     147.444 144.625 143.362  1.00  0.00     0.001 A 
ATOM      6  C   UNL     1     146.389 145.403 143.849  1.00  0.00     0.012 A 
ENDROOT
BRANCH   1   7
ATOM      7  C   UNL     1     145.370 147.656 144.369  1.00  0.00     0.159 C 
ATOM      8  C   UNL     1     144.546 147.248 145.554  1.00  0.00     0.093 C 
ATOM      9  O   UNL     1     145.102 148.749 143.801  1.00  0.00    -0.295 OA
ENDBRANCH   1   7
TORSDOF 1
ENDMDL
MODEL 2
REMARK VINA RESULT:    -4.820      1.060      1.458
REMARK INTER + INTRA:          -5.167
REMARK INTER:                  -5.108
REMARK INTRA:                  -0.059
REMARK UNBOUND:                -0.065
REMARK SMILES CC(=O)c1ccccc1
REMARK SMILES IDX 4 1 5 2 6 3 7 4 8 5 9 6 2 7 1 8 3 9
REMARK H PARENT
REMARK Flexibility Score: inf
ROOT
ATOM      1  C   UNL     1     146.240 146.780 144.372  1.00  0.00     0.017 A 
ATOM      2  C   UNL     1     146.203 146.008 143.195  1.00  0.00     0.012 A 
ATOM      3  C   UNL     1     147.260 145.148 142.875  1.00  0.00     0.001 A 
ATOM      4  C   UNL     1     148.363 145.047 143.724  1.00  0.00     0.000 A 
ATOM      5  C   UNL     1     148.414 145.805 144.894  1.00  0.00     0.001 A 
ATOM      6  C   UNL     1     147.362 146.668 145.220  1.00  0.00     0.012 A 
ENDROOT
BRANCH   1   7
ATOM      7  C   UNL     1     145.110 147.691 144.701  1.00  0.00     0.159 C 
ATOM      8  C   UNL     1     144.157 147.401 145.822  1.00  0.00     0.093 C 
ATOM      9  O   UNL     1     144.938 148.742 144.026  1.00  0.00    -0.295 OA
ENDBRANCH   1   7
TORSDOF 1
ENDMDL
MODEL 3
REMARK VINA RESULT:    -4.348     21.106     21.635
REMARK INTER + INTRA:          -4.667
REMARK INTER:                  -4.598
REMARK INTRA:                  -0.069
REMARK UNBOUND:                -0.065
REMARK SMILES CC(=O)c1ccccc1
REMARK SMILES IDX 4 1 5 2 6 3 7 4 8 5 9 6 2 7 1 8 3 9
REMARK H PARENT
REMARK Flexibility Score: inf
ROOT
ATOM      1  C   UNL     1     157.264 138.420 160.763  1.00  0.00     0.017 A 
ATOM      2  C   UNL     1     156.969 137.042 160.756  1.00  0.00     0.012 A 
ATOM      3  C   UNL     1     156.839 136.349 159.548  1.00  0.00     0.001 A 
ATOM      4  C   UNL     1     157.003 137.018 158.334  1.00  0.00     0.000 A 
ATOM      5  C   UNL     1     157.296 138.382 158.325  1.00  0.00     0.001 A 
ATOM      6  C   UNL     1     157.427 139.082 159.528  1.00  0.00     0.012 A 
ENDROOT
BRANCH   1   7
ATOM      7  C   UNL     1     157.400 139.146 162.054  1.00  0.00     0.159 C 
ATOM      8  C   UNL     1     157.976 140.529 162.130  1.00  0.00     0.093 C 
ATOM      9  O   UNL     1     157.023 138.595 163.123  1.00  0.00    -0.295 OA
ENDBRANCH   1   7
TORSDOF 1
ENDMDL
MODEL 4
REMARK VINA RESULT:    -4.216     20.653     21.312
REMARK INTER + INTRA:          -4.527
REMARK INTER:                  -4.457
REMARK INTRA:                  -0.071
REMARK UNBOUND:                -0.065
REMARK SMILES CC(=O)c1ccccc1
REMARK SMILES IDX 4 1 5 2 6 3 7 4 8 5 9 6 2 7 1 8 3 9
REMARK H PARENT
REMARK Flexibility Score: inf
ROOT
ATOM      1  C   UNL     1     157.018 137.246 159.483  1.00  0.00     0.017 A 
ATOM      2  C   UNL     1     156.996 137.431 160.880  1.00  0.00     0.012 A 
ATOM      3  C   UNL     1     157.334 138.668 161.438  1.00  0.00     0.001 A 
ATOM      4  C   UNL     1     157.696 139.735 160.614  1.00  0.00     0.000 A 
ATOM      5  C   UNL     1     157.721 139.567 159.229  1.00  0.00     0.001 A 
ATOM      6  C   UNL     1     157.386 138.334 158.663  1.00  0.00     0.012 A 
ENDROOT
BRANCH   1   7
ATOM      7  C   UNL     1     156.657 135.926 158.901  1.00  0.00     0.159 C 
ATOM      8  C   UNL     1     155.943 134.875 159.698  1.00  0.00     0.093 C 
ATOM      9  O   UNL     1     156.954 135.669 157.703  1.00  0.00    -0.295 OA
ENDBRANCH   1   7
TORSDOF 1
ENDMDL
MODEL 5
REMARK VINA RESULT:    -4.204     20.626     21.253
REMARK INTER + INTRA:          -4.515
REMARK INTER:                  -4.446
REMARK INTRA:                  -0.069
REMARK UNBOUND:                -0.065
REMARK SMILES CC(=O)c1ccccc1
REMARK SMILES IDX 4 1 5 2 6 3 7 4 8 5 9 6 2 7 1 8 3 9
REMARK H PARENT
REMARK Flexibility Score: inf
ROOT
ATOM      1  C   UNL     1     157.047 137.241 159.448  1.00  0.00     0.017 A 
ATOM      2  C   UNL     1     157.373 138.319 158.602  1.00  0.00     0.012 A 
ATOM      3  C   UNL     1     157.727 139.562 159.138  1.00  0.00     0.001 A 
ATOM      4  C   UNL     1     157.761 139.745 160.521  1.00  0.00     0.000 A 
ATOM      5  C   UNL     1     157.440 138.687 161.372  1.00  0.00     0.001 A 
ATOM      6  C   UNL     1     157.085 137.442 160.844  1.00  0.00     0.012 A 
ENDROOT
BRANCH   1   7
ATOM      7  C   UNL     1     156.672 135.924 158.866  1.00  0.00     0.159 C 
ATOM      8  C   UNL     1     155.961 134.875 159.669  1.00  0.00     0.093 C 
ATOM      9  O   UNL     1     156.954 135.669 157.664  1.00  0.00    -0.295 OA
ENDBRANCH   1   7
TORSDOF 1
ENDMDL
MODEL 6
REMARK VINA RESULT:    -3.707      9.528     10.452
REMARK INTER + INTRA:          -3.989
REMARK INTER:                  -3.920
REMARK INTRA:                  -0.069
REMARK UNBOUND:                -0.065
REMARK SMILES CC(=O)c1ccccc1
REMARK SMILES IDX 4 1 5 2 6 3 7 4 8 5 9 6 2 7 1 8 3 9
REMARK H PARENT
REMARK Flexibility Score: inf
ROOT
ATOM      1  C   UNL     1     153.013 141.656 149.241  1.00  0.00     0.017 A 
ATOM      2  C   UNL     1     151.797 140.951 149.152  1.00  0.00     0.012 A 
ATOM      3  C   UNL     1     150.939 140.870 150.254  1.00  0.00     0.001 A 
ATOM      4  C   UNL     1     151.282 141.491 151.456  1.00  0.00     0.000 A 
ATOM      5  C   UNL     1     152.482 142.194 151.560  1.00  0.00     0.001 A 
ATOM      6  C   UNL     1     153.346 142.279 150.463  1.00  0.00     0.012 A 
ENDROOT
BRANCH   1   7
ATOM      7  C   UNL     1     153.917 141.735 148.062  1.00  0.00     0.159 C 
ATOM      8  C   UNL     1     155.361 142.120 148.193  1.00  0.00     0.093 C 
ATOM      9  O   UNL     1     153.470 141.472 146.913  1.00  0.00    -0.295 OA
ENDBRANCH   1   7
TORSDOF 1
ENDMDL
MODEL 7
REMARK VINA RESULT:    -3.706      9.514     10.354
REMARK INTER + INTRA:          -3.988
REMARK INTER:                  -3.918
REMARK INTRA:                  -0.070
REMARK UNBOUND:                -0.065
REMARK SMILES CC(=O)c1ccccc1
REMARK SMILES IDX 4 1 5 2 6 3 7 4 8 5 9 6 2 7 1 8 3 9
REMARK H PARENT
REMARK Flexibility Score: inf
ROOT
ATOM      1  C   UNL     1     153.010 141.649 149.201  1.00  0.00     0.017 A 
ATOM      2  C   UNL     1     153.363 142.273 150.414  1.00  0.00     0.012 A 
ATOM      3  C   UNL     1     152.520 142.193 151.527  1.00  0.00     0.001 A 
ATOM      4  C   UNL     1     151.316 141.491 151.446  1.00  0.00     0.000 A 
ATOM      5  C   UNL     1     150.952 140.867 150.252  1.00  0.00     0.001 A 
ATOM      6  C   UNL     1     151.790 140.943 149.134  1.00  0.00     0.012 A 
ENDROOT
BRANCH   1   7
ATOM      7  C   UNL     1     153.915 141.742 148.024  1.00  0.00     0.159 C 
ATOM      8  C   UNL     1     155.360 142.116 148.162  1.00  0.00     0.093 C 
ATOM      9  O   UNL     1     153.466 141.501 146.871  1.00  0.00    -0.295 OA
ENDBRANCH   1   7
TORSDOF 1
ENDMDL
MODEL 8
REMARK VINA RESULT:    -3.465      1.763      3.900
REMARK INTER + INTRA:          -3.733
REMARK INTER:                  -3.666
REMARK INTRA:                  -0.068
REMARK UNBOUND:                -0.065
REMARK SMILES CC(=O)c1ccccc1
REMARK SMILES IDX 4 1 5 2 6 3 7 4 8 5 9 6 2 7 1 8 3 9
REMARK H PARENT
REMARK Flexibility Score: inf
ROOT
ATOM      1  C   UNL     1     145.946 146.790 144.150  1.00  0.00     0.017 A 
ATOM      2  C   UNL     1     145.613 148.148 143.978  1.00  0.00     0.012 A 
ATOM      3  C   UNL     1     144.594 148.732 144.739  1.00  0.00     0.001 A 
ATOM      4  C   UNL     1     143.897 147.971 145.679  1.00  0.00     0.000 A 
ATOM      5  C   UNL     1     144.217 146.625 145.861  1.00  0.00     0.001 A 
ATOM      6  C   UNL     1     145.233 146.034 145.104  1.00  0.00     0.012 A 
ENDROOT
BRANCH   1   7
ATOM      7  C   UNL     1     147.032 146.180 143.335  1.00  0.00     0.159 C 
ATOM      8  C   UNL     1     148.220 146.972 142.875  1.00  0.00     0.093 C 
ATOM      9  O   UNL     1     146.963 144.963 143.014  1.00  0.00    -0.295 OA
ENDBRANCH   1   7
TORSDOF 1
ENDMDL
