MODEL 1
REMARK VINA RESULT:    -3.552      0.000      0.000
REMARK INTER + INTRA:          -5.961
REMARK INTER:                  -5.213
REMARK INTRA:                  -0.748
REMARK UNBOUND:                -0.748
REMARK SMILES O=C([O-])CCCCCCCC(=O)[O-]
REMARK SMILES IDX 7 1 6 2 5 3 4 4 2 5 1 6 3 7 8 8 9 9 10 10 11 11 12 12 13 13
REMARK H PARENT
REMARK Flexibility Score: inf
ROOT
ATOM      1  C   UNL     1      -2.089 -10.161 -42.423  1.00  0.00     0.000 C 
ENDROOT
BRANCH   1   2
ATOM      2  C   UNL     1      -2.070  -8.694 -41.968  1.00  0.00     0.000 C 
BRANCH   2   3
ATOM      3  C   UNL     1      -2.438  -8.576 -40.484  1.00  0.00     0.006 C 
BRANCH   3   4
ATOM      4  C   UNL     1      -1.195  -8.321 -39.627  1.00  0.00     0.053 C 
BRANCH   4   5
ATOM      5  C   UNL     1      -1.077  -9.356 -38.553  1.00  0.00     0.041 C 
ATOM      6  O   UNL     1      -0.872 -10.561 -38.854  1.00  0.00    -0.550 OA
ATOM      7  O   UNL     1      -1.145  -8.983 -37.216  1.00  0.00    -0.550 OA
ENDBRANCH   4   5
ENDBRANCH   3   4
ENDBRANCH   2   3
ENDBRANCH   1   2
BRANCH   1   8
ATOM      8  C   UNL     1      -0.711 -10.833 -42.315  1.00  0.00     0.000 C 
BRANCH   8   9
ATOM      9  C   UNL     1       0.447  -9.864 -42.612  1.00  0.00     0.006 C 
BRANCH   9  10
ATOM     10  C   UNL     1       1.597 -10.012 -41.608  1.00  0.00     0.053 C 
BRANCH  10  11
ATOM     11  C   UNL     1       2.778 -10.708 -42.211  1.00  0.00     0.041 C 
ATOM     12  O   UNL     1       3.812 -10.917 -41.522  1.00  0.00    -0.550 OA
ATOM     13  O   UNL     1       2.750 -11.099 -43.545  1.00  0.00    -0.550 OA
ENDBRANCH  10  11
ENDBRANCH   9  10
ENDBRANCH   8   9
ENDBRANCH   1   8
TORSDOF 8
ENDMDL
MODEL 2
REMARK VINA RESULT:    -3.531      1.544      5.249
REMARK INTER + INTRA:          -5.930
REMARK INTER:                  -5.404
REMARK INTRA:                  -0.526
REMARK UNBOUND:                -0.748
REMARK SMILES O=C([O-])CCCCCCCC(=O)[O-]
REMARK SMILES IDX 7 1 6 2 5 3 4 4 2 5 1 6 3 7 8 8 9 9 10 10 11 11 12 12 13 13
REMARK H PARENT
REMARK Flexibility Score: inf
ROOT
ATOM      1  C   UNL     1      -1.170  -9.686 -40.989  1.00  0.00     0.000 C 
ENDROOT
BRANCH   1   2
ATOM      2  C   UNL     1      -0.719  -9.300 -42.406  1.00  0.00     0.000 C 
BRANCH   2   3
ATOM      3  C   UNL     1       0.808  -9.357 -42.530  1.00  0.00     0.006 C 
BRANCH   3   4
ATOM      4  C   UNL     1       1.408 -10.325 -41.505  1.00  0.00     0.053 C 
BRANCH   4   5
ATOM      5  C   UNL     1       1.873 -11.578 -42.178  1.00  0.00     0.041 C 
ATOM      6  O   UNL     1       2.398 -12.502 -41.504  1.00  0.00    -0.550 OA
ATOM      7  O   UNL     1       1.683 -11.745 -43.544  1.00  0.00    -0.550 OA
ENDBRANCH   4   5
ENDBRANCH   3   4
ENDBRANCH   2   3
ENDBRANCH   1   2
BRANCH   1   8
ATOM      8  C   UNL     1      -1.796  -8.508 -40.225  1.00  0.00     0.000 C 
BRANCH   8   9
ATOM      9  C   UNL     1      -0.988  -8.114 -38.977  1.00  0.00     0.006 C 
BRANCH   9  10
ATOM     10  C   UNL     1      -0.731  -9.310 -38.052  1.00  0.00     0.053 C 
BRANCH  10  11
ATOM     11  C   UNL     1      -0.454  -8.879 -36.645  1.00  0.00     0.041 C 
ATOM     12  O   UNL     1      -0.230  -9.737 -35.750  1.00  0.00    -0.550 OA
ATOM     13  O   UNL     1      -0.474  -7.529 -36.314  1.00  0.00    -0.550 OA
ENDBRANCH  10  11
ENDBRANCH   9  10
ENDBRANCH   8   9
ENDBRANCH   1   8
TORSDOF 8
ENDMDL
MODEL 3
REMARK VINA RESULT:    -3.495      1.985      5.762
REMARK INTER + INTRA:          -5.877
REMARK INTER:                  -5.536
REMARK INTRA:                  -0.342
REMARK UNBOUND:                -0.748
REMARK SMILES O=C([O-])CCCCCCCC(=O)[O-]
REMARK SMILES IDX 7 1 6 2 5 3 4 4 2 5 1 6 3 7 8 8 9 9 10 10 11 11 12 12 13 13
REMARK H PARENT
REMARK Flexibility Score: inf
ROOT
ATOM      1  C   UNL     1      -1.077  -8.665 -39.758  1.00  0.00     0.000 C 
ENDROOT
BRANCH   1   2
ATOM      2  C   UNL     1      -2.143  -8.660 -40.863  1.00  0.00     0.000 C 
BRANCH   2   3
ATOM      3  C   UNL     1      -1.521  -8.988 -42.226  1.00  0.00     0.006 C 
BRANCH   3   4
ATOM      4  C   UNL     1      -0.983 -10.422 -42.255  1.00  0.00     0.053 C 
BRANCH   4   5
ATOM      5  C   UNL     1       0.468 -10.430 -42.621  1.00  0.00     0.041 C 
ATOM      6  O   UNL     1       1.001 -11.477 -43.072  1.00  0.00    -0.550 OA
ATOM      7  O   UNL     1       1.219  -9.267 -42.511  1.00  0.00    -0.550 OA
ENDBRANCH   4   5
ENDBRANCH   3   4
ENDBRANCH   2   3
ENDBRANCH   1   2
BRANCH   1   8
ATOM      8  C   UNL     1      -1.242  -7.499 -38.769  1.00  0.00     0.000 C 
BRANCH   8   9
ATOM      9  C   UNL     1      -0.378  -7.665 -37.507  1.00  0.00     0.006 C 
BRANCH   9  10
ATOM     10  C   UNL     1      -0.619  -9.012 -36.814  1.00  0.00     0.053 C 
BRANCH  10  11
ATOM     11  C   UNL     1      -1.299  -8.845 -35.490  1.00  0.00     0.041 C 
ATOM     12  O   UNL     1      -1.436  -9.831 -34.718  1.00  0.00    -0.550 OA
ATOM     13  O   UNL     1      -1.809  -7.606 -35.121  1.00  0.00    -0.550 OA
ENDBRANCH  10  11
ENDBRANCH   9  10
ENDBRANCH   8   9
ENDBRANCH   1   8
TORSDOF 8
ENDMDL
MODEL 4
REMARK VINA RESULT:    -3.475      1.426      2.157
REMARK INTER + INTRA:          -5.848
REMARK INTER:                  -5.484
REMARK INTRA:                  -0.363
REMARK UNBOUND:                -0.748
REMARK SMILES O=C([O-])CCCCCCCC(=O)[O-]
REMARK SMILES IDX 7 1 6 2 5 3 4 4 2 5 1 6 3 7 8 8 9 9 10 10 11 11 12 12 13 13
REMARK H PARENT
REMARK Flexibility Score: inf
ROOT
ATOM      1  C   UNL     1      -2.231  -8.630 -40.862  1.00  0.00     0.000 C 
ENDROOT
BRANCH   1   2
ATOM      2  C   UNL     1      -1.405  -8.657 -39.567  1.00  0.00     0.000 C 
BRANCH   2   3
ATOM      3  C   UNL     1      -1.562  -7.345 -38.789  1.00  0.00     0.006 C 
BRANCH   3   4
ATOM      4  C   UNL     1      -0.437  -7.175 -37.764  1.00  0.00     0.053 C 
BRANCH   4   5
ATOM      5  C   UNL     1      -0.782  -7.874 -36.486  1.00  0.00     0.041 C 
ATOM      6  O   UNL     1      -1.629  -7.374 -35.700  1.00  0.00    -0.550 OA
ATOM      7  O   UNL     1      -0.205  -9.101 -36.187  1.00  0.00    -0.550 OA
ENDBRANCH   4   5
ENDBRANCH   3   4
ENDBRANCH   2   3
ENDBRANCH   1   2
BRANCH   1   8
ATOM      8  C   UNL     1      -1.418  -9.061 -42.093  1.00  0.00     0.000 C 
BRANCH   8   9
ATOM      9  C   UNL     1      -0.048  -9.654 -41.721  1.00  0.00     0.006 C 
BRANCH   9  10
ATOM     10  C   UNL     1       1.050  -9.236 -42.708  1.00  0.00     0.053 C 
BRANCH  10  11
ATOM     11  C   UNL     1       2.086 -10.304 -42.875  1.00  0.00     0.041 C 
ATOM     12  O   UNL     1       2.844 -10.609 -41.916  1.00  0.00    -0.550 OA
ATOM     13  O   UNL     1       2.236 -10.943 -44.100  1.00  0.00    -0.550 OA
ENDBRANCH  10  11
ENDBRANCH   9  10
ENDBRANCH   8   9
ENDBRANCH   1   8
TORSDOF 8
ENDMDL
MODEL 5
REMARK VINA RESULT:    -3.460      1.043      4.887
REMARK INTER + INTRA:          -5.826
REMARK INTER:                  -5.318
REMARK INTRA:                  -0.508
REMARK UNBOUND:                -0.748
REMARK SMILES O=C([O-])CCCCCCCC(=O)[O-]
REMARK SMILES IDX 7 1 6 2 5 3 4 4 2 5 1 6 3 7 8 8 9 9 10 10 11 11 12 12 13 13
REMARK H PARENT
REMARK Flexibility Score: inf
ROOT
ATOM      1  C   UNL     1      -0.843  -9.874 -42.259  1.00  0.00     0.000 C 
ENDROOT
BRANCH   1   2
ATOM      2  C   UNL     1       0.593  -9.478 -41.883  1.00  0.00     0.000 C 
BRANCH   2   3
ATOM      3  C   UNL     1       1.523  -9.572 -43.097  1.00  0.00     0.006 C 
BRANCH   3   4
ATOM      4  C   UNL     1       2.034 -11.004 -43.289  1.00  0.00     0.053 C 
BRANCH   4   5
ATOM      5  C   UNL     1       2.718 -11.487 -42.049  1.00  0.00     0.041 C 
ATOM      6  O   UNL     1       2.285 -12.500 -41.441  1.00  0.00    -0.550 OA
ATOM      7  O   UNL     1       3.863 -10.847 -41.593  1.00  0.00    -0.550 OA
ENDBRANCH   4   5
ENDBRANCH   3   4
ENDBRANCH   2   3
ENDBRANCH   1   2
BRANCH   1   8
ATOM      8  C   UNL     1      -1.872  -8.793 -41.894  1.00  0.00     0.000 C 
BRANCH   8   9
ATOM      9  C   UNL     1      -2.408  -8.944 -40.459  1.00  0.00     0.006 C 
BRANCH   9  10
ATOM     10  C   UNL     1      -1.748  -7.956 -39.488  1.00  0.00     0.053 C 
BRANCH  10  11
ATOM     11  C   UNL     1      -0.838  -8.648 -38.520  1.00  0.00     0.041 C 
ATOM     12  O   UNL     1      -0.200  -7.982 -37.662  1.00  0.00    -0.550 OA
ATOM     13  O   UNL     1      -0.671 -10.026 -38.586  1.00  0.00    -0.550 OA
ENDBRANCH  10  11
ENDBRANCH   9  10
ENDBRANCH   8   9
ENDBRANCH   1   8
TORSDOF 8
ENDMDL
MODEL 6
REMARK VINA RESULT:    -3.450      1.426      2.159
REMARK INTER + INTRA:          -5.811
REMARK INTER:                  -5.311
REMARK INTRA:                  -0.500
REMARK UNBOUND:                -0.748
REMARK SMILES O=C([O-])CCCCCCCC(=O)[O-]
REMARK SMILES IDX 7 1 6 2 5 3 4 4 2 5 1 6 3 7 8 8 9 9 10 10 11 11 12 12 13 13
REMARK H PARENT
REMARK Flexibility Score: inf
ROOT
ATOM      1  C   UNL     1      -2.749  -8.379 -41.418  1.00  0.00     0.000 C 
ENDROOT
BRANCH   1   2
ATOM      2  C   UNL     1      -2.284  -8.964 -40.076  1.00  0.00     0.000 C 
BRANCH   2   3
ATOM      3  C   UNL     1      -1.530  -7.913 -39.251  1.00  0.00     0.006 C 
BRANCH   3   4
ATOM      4  C   UNL     1      -0.474  -8.570 -38.357  1.00  0.00     0.053 C 
BRANCH   4   5
ATOM      5  C   UNL     1      -0.563  -8.035 -36.962  1.00  0.00     0.041 C 
ATOM      6  O   UNL     1      -1.051  -6.894 -36.751  1.00  0.00    -0.550 OA
ATOM      7  O   UNL     1      -0.153  -8.817 -35.890  1.00  0.00    -0.550 OA
ENDBRANCH   4   5
ENDBRANCH   3   4
ENDBRANCH   2   3
ENDBRANCH   1   2
BRANCH   1   8
ATOM      8  C   UNL     1      -1.852  -8.802 -42.592  1.00  0.00     0.000 C 
BRANCH   8   9
ATOM      9  C   UNL     1      -0.887  -9.941 -42.220  1.00  0.00     0.006 C 
BRANCH   9  10
ATOM     10  C   UNL     1       0.583  -9.528 -42.374  1.00  0.00     0.053 C 
BRANCH  10  11
ATOM     11  C   UNL     1       1.508 -10.493 -41.699  1.00  0.00     0.041 C 
ATOM     12  O   UNL     1       2.749 -10.282 -41.690  1.00  0.00    -0.550 OA
ATOM     13  O   UNL     1       1.001 -11.644 -41.106  1.00  0.00    -0.550 OA
ENDBRANCH  10  11
ENDBRANCH   9  10
ENDBRANCH   8   9
ENDBRANCH   1   8
TORSDOF 8
ENDMDL
MODEL 7
REMARK VINA RESULT:    -3.370      2.785      6.300
REMARK INTER + INTRA:          -5.694
REMARK INTER:                  -5.451
REMARK INTRA:                  -0.243
REMARK UNBOUND:                -0.748
REMARK SMILES O=C([O-])CCCCCCCC(=O)[O-]
REMARK SMILES IDX 7 1 6 2 5 3 4 4 2 5 1 6 3 7 8 8 9 9 10 10 11 11 12 12 13 13
REMARK H PARENT
REMARK Flexibility Score: inf
ROOT
ATOM      1  C   UNL     1      -0.769  -8.269 -38.333  1.00  0.00     0.000 C 
ENDROOT
BRANCH   1   2
ATOM      2  C   UNL     1      -1.179  -8.541 -39.788  1.00  0.00     0.000 C 
BRANCH   2   3
ATOM      3  C   UNL     1      -0.297  -9.630 -40.411  1.00  0.00     0.006 C 
BRANCH   3   4
ATOM      4  C   UNL     1      -0.276  -9.514 -41.938  1.00  0.00     0.053 C 
BRANCH   4   5
ATOM      5  C   UNL     1       1.131  -9.414 -42.437  1.00  0.00     0.041 C 
ATOM      6  O   UNL     1       1.387  -8.769 -43.487  1.00  0.00    -0.550 OA
ATOM      7  O   UNL     1       2.167  -9.992 -41.714  1.00  0.00    -0.550 OA
ENDBRANCH   4   5
ENDBRANCH   3   4
ENDBRANCH   2   3
ENDBRANCH   1   2
BRANCH   1   8
ATOM      8  C   UNL     1      -0.923  -9.505 -37.432  1.00  0.00     0.000 C 
BRANCH   8   9
ATOM      9  C   UNL     1      -0.336  -9.290 -36.026  1.00  0.00     0.006 C 
BRANCH   9  10
ATOM     10  C   UNL     1      -1.282  -9.782 -34.922  1.00  0.00     0.053 C 
BRANCH  10  11
ATOM     11  C   UNL     1      -0.663 -10.869 -34.099  1.00  0.00     0.041 C 
ATOM     12  O   UNL     1       0.051 -11.750 -34.646  1.00  0.00    -0.550 OA
ATOM     13  O   UNL     1      -0.900 -10.926 -32.731  1.00  0.00    -0.550 OA
ENDBRANCH  10  11
ENDBRANCH   9  10
ENDBRANCH   8   9
ENDBRANCH   1   8
TORSDOF 8
ENDMDL
MODEL 8
REMARK VINA RESULT:    -3.298      2.855      3.706
REMARK INTER + INTRA:          -5.587
REMARK INTER:                  -5.229
REMARK INTRA:                  -0.359
REMARK UNBOUND:                -0.748
REMARK SMILES O=C([O-])CCCCCCCC(=O)[O-]
REMARK SMILES IDX 7 1 6 2 5 3 4 4 2 5 1 6 3 7 8 8 9 9 10 10 11 11 12 12 13 13
REMARK H PARENT
REMARK Flexibility Score: inf
ROOT
ATOM      1  C   UNL     1      -0.382  -9.543 -42.374  1.00  0.00     0.000 C 
ENDROOT
BRANCH   1   2
ATOM      2  C   UNL     1      -1.745  -9.265 -41.722  1.00  0.00     0.000 C 
BRANCH   2   3
ATOM      3  C   UNL     1      -2.877  -9.379 -42.750  1.00  0.00     0.006 C 
BRANCH   3   4
ATOM      4  C   UNL     1      -4.066 -10.155 -42.175  1.00  0.00     0.053 C 
BRANCH   4   5
ATOM      5  C   UNL     1      -4.143 -11.521 -42.781  1.00  0.00     0.041 C 
ATOM      6  O   UNL     1      -3.189 -12.330 -42.643  1.00  0.00    -0.550 OA
ATOM      7  O   UNL     1      -5.290 -11.918 -43.456  1.00  0.00    -0.550 OA
ENDBRANCH   4   5
ENDBRANCH   3   4
ENDBRANCH   2   3
ENDBRANCH   1   2
BRANCH   1   8
ATOM      8  C   UNL     1       0.700  -9.919 -41.348  1.00  0.00     0.000 C 
BRANCH   8   9
ATOM      9  C   UNL     1       2.094 -10.061 -41.983  1.00  0.00     0.006 C 
BRANCH   9  10
ATOM     10  C   UNL     1       2.364 -11.490 -42.472  1.00  0.00     0.053 C 
BRANCH  10  11
ATOM     11  C   UNL     1       2.318 -11.587 -43.966  1.00  0.00     0.041 C 
ATOM     12  O   UNL     1       2.319 -10.543 -44.670  1.00  0.00    -0.550 OA
ATOM     13  O   UNL     1       2.241 -12.831 -44.580  1.00  0.00    -0.550 OA
ENDBRANCH  10  11
ENDBRANCH   9  10
ENDBRANCH   8   9
ENDBRANCH   1   8
TORSDOF 8
ENDMDL
MODEL 9
REMARK VINA RESULT:    -3.264      2.034      2.909
REMARK INTER + INTRA:          -5.539
REMARK INTER:                  -5.193
REMARK INTRA:                  -0.345
REMARK UNBOUND:                -0.748
REMARK SMILES O=C([O-])CCCCCCCC(=O)[O-]
REMARK SMILES IDX 7 1 6 2 5 3 4 4 2 5 1 6 3 7 8 8 9 9 10 10 11 11 12 12 13 13
REMARK H PARENT
REMARK Flexibility Score: inf
ROOT
ATOM      1  C   UNL     1      -1.396  -8.463 -39.983  1.00  0.00     0.000 C 
ENDROOT
BRANCH   1   2
ATOM      2  C   UNL     1      -0.857  -8.012 -38.617  1.00  0.00     0.000 C 
BRANCH   2   3
ATOM      3  C   UNL     1      -0.748  -9.199 -37.652  1.00  0.00     0.006 C 
BRANCH   3   4
ATOM      4  C   UNL     1      -0.322  -8.736 -36.256  1.00  0.00     0.053 C 
BRANCH   4   5
ATOM      5  C   UNL     1      -0.541  -9.824 -35.253  1.00  0.00     0.041 C 
ATOM      6  O   UNL     1      -1.681 -10.000 -34.747  1.00  0.00    -0.550 OA
ATOM      7  O   UNL     1       0.501 -10.677 -34.913  1.00  0.00    -0.550 OA
ENDBRANCH   4   5
ENDBRANCH   3   4
ENDBRANCH   2   3
ENDBRANCH   1   2
BRANCH   1   8
ATOM      8  C   UNL     1      -0.953  -9.887 -40.355  1.00  0.00     0.000 C 
BRANCH   8   9
ATOM      9  C   UNL     1      -1.068 -10.168 -41.863  1.00  0.00     0.006 C 
BRANCH   9  10
ATOM     10  C   UNL     1       0.192 -10.842 -42.424  1.00  0.00     0.053 C 
BRANCH  10  11
ATOM     11  C   UNL     1       1.369  -9.916 -42.418  1.00  0.00     0.041 C 
ATOM     12  O   UNL     1       2.356 -10.149 -41.671  1.00  0.00    -0.550 OA
ATOM     13  O   UNL     1       1.364  -8.779 -43.216  1.00  0.00    -0.550 OA
ENDBRANCH  10  11
ENDBRANCH   9  10
ENDBRANCH   8   9
ENDBRANCH   1   8
TORSDOF 8
ENDMDL
