MODEL 1
REMARK VINA RESULT:    -6.333      0.000      0.000
REMARK INTER + INTRA:          -7.952
REMARK INTER:                  -7.628
REMARK INTRA:                  -0.323
REMARK UNBOUND:                -0.323
REMARK SMILES O=c1c(O)c(-c2ccc(O)c(O)c2)oc2cc(O)cc(O)c12
REMARK SMILES IDX 5 1 3 2 2 3 1 4 22 5 20 6 19 7 17 8 16 9 15 10 14 11 6 12
REMARK SMILES IDX 7 13 8 14 9 15 13 16 11 17 10 18 12 20 4 22 21 24 18 26
REMARK H PARENT 10 19 12 21 4 23 21 25 18 27
REMARK Flexibility Score: inf
ROOT
ATOM      1  C   UNL     1     -16.461  -1.462   3.863  1.00  0.00     0.180 A 
ATOM      2  C   UNL     1     -16.018  -1.045   5.131  1.00  0.00     0.208 A 
ATOM      3  C   UNL     1     -14.697  -1.325   5.516  1.00  0.00     0.238 A 
ATOM      4  O   UNL     1     -14.329  -1.016   6.679  1.00  0.00    -0.285 OA
ATOM      5  C   UNL     1     -13.820  -1.970   4.610  1.00  0.00     0.111 A 
ATOM      6  C   UNL     1     -12.448  -2.264   4.877  1.00  0.00     0.134 A 
ATOM      7  C   UNL     1     -11.705  -3.001   3.945  1.00  0.00     0.093 A 
ATOM      8  C   UNL     1     -12.266  -3.397   2.729  1.00  0.00     0.123 A 
ATOM      9  C   UNL     1     -13.586  -3.068   2.435  1.00  0.00     0.094 A 
ATOM     10  C   UNL     1     -14.364  -2.367   3.360  1.00  0.00     0.146 A 
ATOM     11  O   UNL     1     -15.625  -2.093   3.049  1.00  0.00    -0.452 OA
ENDROOT
BRANCH   1  12
ATOM     12  C   UNL     1     -17.844  -1.215   3.392  1.00  0.00     0.025 A 
ATOM     13  C   UNL     1     -18.850  -2.183   3.538  1.00  0.00     0.016 A 
ATOM     14  C   UNL     1     -20.139  -1.936   3.063  1.00  0.00     0.051 A 
ATOM     15  C   UNL     1     -20.447  -0.730   2.424  1.00  0.00     0.157 A 
ATOM     16  C   UNL     1     -18.143  -0.015   2.731  1.00  0.00     0.062 A 
ATOM     17  C   UNL     1     -19.433   0.242   2.250  1.00  0.00     0.158 A 
BRANCH  15  18
ATOM     18  O   UNL     1     -21.757  -0.543   1.976  1.00  0.00    -0.504 OA
ATOM     19  H   UNL     1     -22.013   0.079   1.224  1.00  0.00     0.293 HD
ENDBRANCH  15  18
BRANCH  17  20
ATOM     20  O   UNL     1     -19.661   1.464   1.614  1.00  0.00    -0.504 OA
ATOM     21  H   UNL     1     -18.937   2.022   1.186  1.00  0.00     0.293 HD
ENDBRANCH  17  20
ENDBRANCH   1  12
BRANCH   2  22
ATOM     22  O   UNL     1     -16.876  -0.343   5.981  1.00  0.00    -0.502 OA
ATOM     23  H   UNL     1     -17.525  -0.808   6.605  1.00  0.00     0.293 HD
ENDBRANCH   2  22
BRANCH   6  24
ATOM     24  O   UNL     1     -11.764  -1.839   6.020  1.00  0.00    -0.507 OA
ATOM     25  H   UNL     1     -10.994  -2.328   6.448  1.00  0.00     0.293 HD
ENDBRANCH   6  24
BRANCH   8  26
ATOM     26  O   UNL     1     -11.514  -4.114   1.801  1.00  0.00    -0.508 OA
ATOM     27  H   UNL     1     -11.888  -4.359   0.892  1.00  0.00     0.293 HD
ENDBRANCH   8  26
TORSDOF 6
ENDMDL
MODEL 2
REMARK VINA RESULT:    -6.118      1.582      7.028
REMARK INTER + INTRA:          -7.693
REMARK INTER:                  -7.412
REMARK INTRA:                  -0.281
REMARK UNBOUND:                -0.323
REMARK SMILES O=c1c(O)c(-c2ccc(O)c(O)c2)oc2cc(O)cc(O)c12
REMARK SMILES IDX 5 1 3 2 2 3 1 4 22 5 20 6 19 7 17 8 16 9 15 10 14 11 6 12
REMARK SMILES IDX 7 13 8 14 9 15 13 16 11 17 10 18 12 20 4 22 21 24 18 26
REMARK H PARENT 10 19 12 21 4 23 21 25 18 27
REMARK Flexibility Score: inf
ROOT
ATOM      1  C   UNL     1     -16.337  -1.723   3.826  1.00  0.00     0.180 A 
ATOM      2  C   UNL     1     -16.575  -0.554   3.083  1.00  0.00     0.208 A 
ATOM      3  C   UNL     1     -17.872  -0.298   2.612  1.00  0.00     0.238 A 
ATOM      4  O   UNL     1     -18.063   0.712   1.885  1.00  0.00    -0.285 OA
ATOM      5  C   UNL     1     -18.928  -1.184   2.937  1.00  0.00     0.111 A 
ATOM      6  C   UNL     1     -20.291  -1.001   2.551  1.00  0.00     0.134 A 
ATOM      7  C   UNL     1     -21.230  -2.000   2.838  1.00  0.00     0.093 A 
ATOM      8  C   UNL     1     -20.869  -3.144   3.554  1.00  0.00     0.123 A 
ATOM      9  C   UNL     1     -19.554  -3.307   3.982  1.00  0.00     0.094 A 
ATOM     10  C   UNL     1     -18.586  -2.347   3.677  1.00  0.00     0.146 A 
ATOM     11  O   UNL     1     -17.340  -2.552   4.086  1.00  0.00    -0.452 OA
ENDROOT
BRANCH   1  12
ATOM     12  C   UNL     1     -14.993  -2.068   4.344  1.00  0.00     0.025 A 
ATOM     13  C   UNL     1     -13.988  -2.561   3.497  1.00  0.00     0.016 A 
ATOM     14  C   UNL     1     -12.736  -2.903   4.014  1.00  0.00     0.051 A 
ATOM     15  C   UNL     1     -12.467  -2.773   5.381  1.00  0.00     0.157 A 
ATOM     16  C   UNL     1     -14.734  -1.958   5.718  1.00  0.00     0.062 A 
ATOM     17  C   UNL     1     -13.482  -2.298   6.246  1.00  0.00     0.158 A 
BRANCH  15  18
ATOM     18  O   UNL     1     -11.194  -3.127   5.833  1.00  0.00    -0.504 OA
ATOM     19  H   UNL     1     -10.946  -3.220   6.807  1.00  0.00     0.293 HD
ENDBRANCH  15  18
BRANCH  17  20
ATOM     20  O   UNL     1     -13.292  -2.151   7.621  1.00  0.00    -0.504 OA
ATOM     21  H   UNL     1     -13.121  -1.267   8.077  1.00  0.00     0.293 HD
ENDBRANCH  17  20
ENDBRANCH   1  12
BRANCH   2  22
ATOM     22  O   UNL     1     -15.535   0.348   2.838  1.00  0.00    -0.502 OA
ATOM     23  H   UNL     1     -14.753   0.126   2.233  1.00  0.00     0.293 HD
ENDBRANCH   2  22
BRANCH   6  24
ATOM     24  O   UNL     1     -20.776   0.143   1.912  1.00  0.00    -0.507 OA
ATOM     25  H   UNL     1     -21.719   0.261   1.576  1.00  0.00     0.293 HD
ENDBRANCH   6  24
BRANCH   8  26
ATOM     26  O   UNL     1     -21.814  -4.124   3.850  1.00  0.00    -0.508 OA
ATOM     27  H   UNL     1     -21.613  -4.876   4.499  1.00  0.00     0.293 HD
ENDBRANCH   8  26
TORSDOF 6
ENDMDL
MODEL 3
REMARK VINA RESULT:    -5.861      1.197      2.845
REMARK INTER + INTRA:          -7.384
REMARK INTER:                  -7.061
REMARK INTRA:                  -0.323
REMARK UNBOUND:                -0.323
REMARK SMILES O=c1c(O)c(-c2ccc(O)c(O)c2)oc2cc(O)cc(O)c12
REMARK SMILES IDX 5 1 3 2 2 3 1 4 22 5 20 6 19 7 17 8 16 9 15 10 14 11 6 12
REMARK SMILES IDX 7 13 8 14 9 15 13 16 11 17 10 18 12 20 4 22 21 24 18 26
REMARK H PARENT 10 19 12 21 4 23 21 25 18 27
REMARK Flexibility Score: inf
ROOT
ATOM      1  C   UNL     1     -16.703  -1.638   3.045  1.00  0.00     0.180 A 
ATOM      2  C   UNL     1     -16.086  -2.361   2.008  1.00  0.00     0.208 A 
ATOM      3  C   UNL     1     -14.737  -2.725   2.142  1.00  0.00     0.238 A 
ATOM      4  O   UNL     1     -14.171  -3.306   1.179  1.00  0.00    -0.285 OA
ATOM      5  C   UNL     1     -14.036  -2.412   3.332  1.00  0.00     0.111 A 
ATOM      6  C   UNL     1     -12.679  -2.772   3.594  1.00  0.00     0.134 A 
ATOM      7  C   UNL     1     -12.057  -2.314   4.763  1.00  0.00     0.093 A 
ATOM      8  C   UNL     1     -12.762  -1.566   5.709  1.00  0.00     0.123 A 
ATOM      9  C   UNL     1     -14.101  -1.257   5.488  1.00  0.00     0.094 A 
ATOM     10  C   UNL     1     -14.739  -1.665   4.314  1.00  0.00     0.146 A 
ATOM     11  O   UNL     1     -16.010  -1.330   4.134  1.00  0.00    -0.452 OA
ENDROOT
BRANCH   1  12
ATOM     12  C   UNL     1     -18.118  -1.206   2.971  1.00  0.00     0.025 A 
ATOM     13  C   UNL     1     -19.158  -2.026   3.435  1.00  0.00     0.016 A 
ATOM     14  C   UNL     1     -20.486  -1.608   3.332  1.00  0.00     0.051 A 
ATOM     15  C   UNL     1     -20.803  -0.373   2.754  1.00  0.00     0.157 A 
ATOM     16  C   UNL     1     -18.434   0.021   2.370  1.00  0.00     0.062 A 
ATOM     17  C   UNL     1     -19.763   0.450   2.261  1.00  0.00     0.158 A 
BRANCH  15  18
ATOM     18  O   UNL     1     -22.150  -0.012   2.684  1.00  0.00    -0.504 OA
ATOM     19  H   UNL     1     -22.739   0.131   3.492  1.00  0.00     0.293 HD
ENDBRANCH  15  18
BRANCH  17  20
ATOM     20  O   UNL     1     -20.002   1.689   1.663  1.00  0.00    -0.504 OA
ATOM     21  H   UNL     1     -19.626   1.966   0.767  1.00  0.00     0.293 HD
ENDBRANCH  17  20
ENDBRANCH   1  12
BRANCH   2  22
ATOM     22  O   UNL     1     -16.817  -2.727   0.875  1.00  0.00    -0.502 OA
ATOM     23  H   UNL     1     -17.212  -3.653   0.758  1.00  0.00     0.293 HD
ENDBRANCH   2  22
BRANCH   6  24
ATOM     24  O   UNL     1     -11.910  -3.588   2.760  1.00  0.00    -0.507 OA
ATOM     25  H   UNL     1     -11.747  -4.572   2.906  1.00  0.00     0.293 HD
ENDBRANCH   6  24
BRANCH   8  26
ATOM     26  O   UNL     1     -12.139  -1.130   6.877  1.00  0.00    -0.508 OA
ATOM     27  H   UNL     1     -11.631  -0.255   6.911  1.00  0.00     0.293 HD
ENDBRANCH   8  26
TORSDOF 6
ENDMDL
MODEL 4
REMARK VINA RESULT:    -5.427      1.569      3.374
REMARK INTER + INTRA:          -6.861
REMARK INTER:                  -6.532
REMARK INTRA:                  -0.329
REMARK UNBOUND:                -0.323
REMARK SMILES O=c1c(O)c(-c2ccc(O)c(O)c2)oc2cc(O)cc(O)c12
REMARK SMILES IDX 5 1 3 2 2 3 1 4 22 5 20 6 19 7 17 8 16 9 15 10 14 11 6 12
REMARK SMILES IDX 7 13 8 14 9 15 13 16 11 17 10 18 12 20 4 22 21 24 18 26
REMARK H PARENT 10 19 12 21 4 23 21 25 18 27
REMARK Flexibility Score: inf
ROOT
ATOM      1  C   UNL     1     -17.097  -2.001   3.142  1.00  0.00     0.180 A 
ATOM      2  C   UNL     1     -16.347  -2.509   2.067  1.00  0.00     0.208 A 
ATOM      3  C   UNL     1     -14.961  -2.667   2.220  1.00  0.00     0.238 A 
ATOM      4  O   UNL     1     -14.284  -3.051   1.230  1.00  0.00    -0.285 OA
ATOM      5  C   UNL     1     -14.349  -2.369   3.462  1.00  0.00     0.111 A 
ATOM      6  C   UNL     1     -12.958  -2.534   3.743  1.00  0.00     0.134 A 
ATOM      7  C   UNL     1     -12.447  -2.105   4.975  1.00  0.00     0.093 A 
ATOM      8  C   UNL     1     -13.287  -1.577   5.959  1.00  0.00     0.123 A 
ATOM      9  C   UNL     1     -14.653  -1.462   5.714  1.00  0.00     0.094 A 
ATOM     10  C   UNL     1     -15.186  -1.846   4.482  1.00  0.00     0.146 A 
ATOM     11  O   UNL     1     -16.491  -1.699   4.284  1.00  0.00    -0.452 OA
ENDROOT
BRANCH   1  12
ATOM     12  C   UNL     1     -18.561  -1.793   3.053  1.00  0.00     0.025 A 
ATOM     13  C   UNL     1     -19.100  -0.608   2.528  1.00  0.00     0.016 A 
ATOM     14  C   UNL     1     -20.484  -0.425   2.477  1.00  0.00     0.051 A 
ATOM     15  C   UNL     1     -21.353  -1.410   2.958  1.00  0.00     0.157 A 
ATOM     16  C   UNL     1     -19.429  -2.772   3.556  1.00  0.00     0.062 A 
ATOM     17  C   UNL     1     -20.818  -2.599   3.510  1.00  0.00     0.158 A 
BRANCH  15  18
ATOM     18  O   UNL     1     -22.726  -1.168   2.873  1.00  0.00    -0.504 OA
ATOM     19  H   UNL     1     -23.421  -1.891   2.761  1.00  0.00     0.293 HD
ENDBRANCH  15  18
BRANCH  17  20
ATOM     20  O   UNL     1     -21.621  -3.622   4.018  1.00  0.00    -0.504 OA
ATOM     21  H   UNL     1     -22.607  -3.522   4.213  1.00  0.00     0.293 HD
ENDBRANCH  17  20
ENDBRANCH   1  12
BRANCH   2  22
ATOM     22  O   UNL     1     -16.981  -2.870   0.875  1.00  0.00    -0.502 OA
ATOM     23  H   UNL     1     -16.531  -2.780  -0.029  1.00  0.00     0.293 HD
ENDBRANCH   2  22
BRANCH   6  24
ATOM     24  O   UNL     1     -12.048  -3.131   2.867  1.00  0.00    -0.507 OA
ATOM     25  H   UNL     1     -12.043  -3.008   1.867  1.00  0.00     0.293 HD
ENDBRANCH   6  24
BRANCH   8  26
ATOM     26  O   UNL     1     -12.772  -1.169   7.188  1.00  0.00    -0.508 OA
ATOM     27  H   UNL     1     -12.898  -0.223   7.527  1.00  0.00     0.293 HD
ENDBRANCH   8  26
TORSDOF 6
ENDMDL
MODEL 5
REMARK VINA RESULT:    -5.046      4.804      9.533
REMARK INTER + INTRA:          -6.401
REMARK INTER:                  -6.173
REMARK INTRA:                  -0.228
REMARK UNBOUND:                -0.323
REMARK SMILES O=c1c(O)c(-c2ccc(O)c(O)c2)oc2cc(O)cc(O)c12
REMARK SMILES IDX 5 1 3 2 2 3 1 4 22 5 20 6 19 7 17 8 16 9 15 10 14 11 6 12
REMARK SMILES IDX 7 13 8 14 9 15 13 16 11 17 10 18 12 20 4 22 21 24 18 26
REMARK H PARENT 10 19 12 21 4 23 21 25 18 27
REMARK Flexibility Score: inf
ROOT
ATOM      1  C   UNL     1     -22.639  -1.845   3.162  1.00  0.00     0.180 A 
ATOM      2  C   UNL     1     -22.830  -2.309   4.475  1.00  0.00     0.208 A 
ATOM      3  C   UNL     1     -24.102  -2.762   4.859  1.00  0.00     0.238 A 
ATOM      4  O   UNL     1     -24.285  -3.105   6.056  1.00  0.00    -0.285 OA
ATOM      5  C   UNL     1     -25.153  -2.798   3.911  1.00  0.00     0.111 A 
ATOM      6  C   UNL     1     -26.471  -3.279   4.177  1.00  0.00     0.134 A 
ATOM      7  C   UNL     1     -27.460  -3.167   3.191  1.00  0.00     0.093 A 
ATOM      8  C   UNL     1     -27.162  -2.651   1.928  1.00  0.00     0.123 A 
ATOM      9  C   UNL     1     -25.867  -2.230   1.640  1.00  0.00     0.094 A 
ATOM     10  C   UNL     1     -24.868  -2.293   2.615  1.00  0.00     0.146 A 
ATOM     11  O   UNL     1     -23.652  -1.860   2.305  1.00  0.00    -0.452 OA
ENDROOT
BRANCH   1  12
ATOM     12  C   UNL     1     -21.330  -1.339   2.687  1.00  0.00     0.025 A 
ATOM     13  C   UNL     1     -20.242  -2.202   2.486  1.00  0.00     0.016 A 
ATOM     14  C   UNL     1     -19.011  -1.698   2.062  1.00  0.00     0.051 A 
ATOM     15  C   UNL     1     -18.837  -0.326   1.844  1.00  0.00     0.157 A 
ATOM     16  C   UNL     1     -21.153   0.038   2.492  1.00  0.00     0.062 A 
ATOM     17  C   UNL     1     -19.922   0.555   2.067  1.00  0.00     0.158 A 
BRANCH  15  18
ATOM     18  O   UNL     1     -17.582   0.113   1.416  1.00  0.00    -0.504 OA
ATOM     19  H   UNL     1     -17.324   0.226   0.447  1.00  0.00     0.293 HD
ENDBRANCH  15  18
BRANCH  17  20
ATOM     20  O   UNL     1     -19.822   1.935   1.881  1.00  0.00    -0.504 OA
ATOM     21  H   UNL     1     -20.232   2.431   1.103  1.00  0.00     0.293 HD
ENDBRANCH  17  20
ENDBRANCH   1  12
BRANCH   2  22
ATOM     22  O   UNL     1     -21.760  -2.337   5.374  1.00  0.00    -0.502 OA
ATOM     23  H   UNL     1     -21.379  -3.202   5.740  1.00  0.00     0.293 HD
ENDBRANCH   2  22
BRANCH   6  24
ATOM     24  O   UNL     1     -26.854  -3.893   5.373  1.00  0.00    -0.507 OA
ATOM     25  H   UNL     1     -26.313  -3.888   6.224  1.00  0.00     0.293 HD
ENDBRANCH   6  24
BRANCH   8  26
ATOM     26  O   UNL     1     -28.148  -2.560   0.947  1.00  0.00    -0.508 OA
ATOM     27  H   UNL     1     -29.122  -2.743   1.156  1.00  0.00     0.293 HD
ENDBRANCH   8  26
TORSDOF 6
ENDMDL
MODEL 6
REMARK VINA RESULT:    -4.972      2.635      8.180
REMARK INTER + INTRA:          -6.313
REMARK INTER:                  -6.045
REMARK INTRA:                  -0.268
REMARK UNBOUND:                -0.323
REMARK SMILES O=c1c(O)c(-c2ccc(O)c(O)c2)oc2cc(O)cc(O)c12
REMARK SMILES IDX 5 1 3 2 2 3 1 4 22 5 20 6 19 7 17 8 16 9 15 10 14 11 6 12
REMARK SMILES IDX 7 13 8 14 9 15 13 16 11 17 10 18 12 20 4 22 21 24 18 26
REMARK H PARENT 10 19 12 21 4 23 21 25 18 27
REMARK Flexibility Score: inf
ROOT
ATOM      1  C   UNL     1     -19.340  -2.046   3.155  1.00  0.00     0.180 A 
ATOM      2  C   UNL     1     -19.620  -2.919   2.089  1.00  0.00     0.208 A 
ATOM      3  C   UNL     1     -20.959  -3.208   1.780  1.00  0.00     0.238 A 
ATOM      4  O   UNL     1     -21.202  -4.048   0.875  1.00  0.00    -0.285 OA
ATOM      5  C   UNL     1     -22.001  -2.579   2.503  1.00  0.00     0.111 A 
ATOM      6  C   UNL     1     -23.394  -2.763   2.247  1.00  0.00     0.134 A 
ATOM      7  C   UNL     1     -24.337  -2.170   3.097  1.00  0.00     0.093 A 
ATOM      8  C   UNL     1     -23.938  -1.348   4.153  1.00  0.00     0.123 A 
ATOM      9  C   UNL     1     -22.584  -1.118   4.378  1.00  0.00     0.094 A 
ATOM     10  C   UNL     1     -21.619  -1.726   3.572  1.00  0.00     0.146 A 
ATOM     11  O   UNL     1     -20.338  -1.497   3.835  1.00  0.00    -0.452 OA
ENDROOT
BRANCH   1  12
ATOM     12  C   UNL     1     -17.953  -1.704   3.549  1.00  0.00     0.025 A 
ATOM     13  C   UNL     1     -17.371  -0.480   3.185  1.00  0.00     0.016 A 
ATOM     14  C   UNL     1     -16.054  -0.191   3.547  1.00  0.00     0.051 A 
ATOM     15  C   UNL     1     -15.290  -1.118   4.265  1.00  0.00     0.157 A 
ATOM     16  C   UNL     1     -17.183  -2.644   4.248  1.00  0.00     0.062 A 
ATOM     17  C   UNL     1     -15.861  -2.365   4.616  1.00  0.00     0.158 A 
BRANCH  15  18
ATOM     18  O   UNL     1     -13.981  -0.766   4.600  1.00  0.00    -0.504 OA
ATOM     19  H   UNL     1     -13.595  -0.845   5.530  1.00  0.00     0.293 HD
ENDBRANCH  15  18
BRANCH  17  20
ATOM     20  O   UNL     1     -15.159  -3.344   5.322  1.00  0.00    -0.504 OA
ATOM     21  H   UNL     1     -15.537  -4.248   5.562  1.00  0.00     0.293 HD
ENDBRANCH  17  20
ENDBRANCH   1  12
BRANCH   2  22
ATOM     22  O   UNL     1     -18.579  -3.471   1.339  1.00  0.00    -0.502 OA
ATOM     23  H   UNL     1     -18.136  -2.973   0.574  1.00  0.00     0.293 HD
ENDBRANCH   2  22
BRANCH   6  24
ATOM     24  O   UNL     1     -23.902  -3.491   1.167  1.00  0.00    -0.507 OA
ATOM     25  H   UNL     1     -24.253  -4.434   1.220  1.00  0.00     0.293 HD
ENDBRANCH   6  24
BRANCH   8  26
ATOM     26  O   UNL     1     -24.884  -0.748   4.983  1.00  0.00    -0.508 OA
ATOM     27  H   UNL     1     -25.145   0.224   4.872  1.00  0.00     0.293 HD
ENDBRANCH   8  26
TORSDOF 6
ENDMDL
