MODEL 1
REMARK VINA RESULT:    -1.971      0.000      0.000
REMARK INTER + INTRA:          -5.548
REMARK INTER:                  -4.505
REMARK INTRA:                  -1.043
REMARK UNBOUND:                -1.043
REMARK SMILES CCCCCCCCCCCCCCCCCCCCCCCC(=O)[O-]
REMARK SMILES IDX 13 1 14 2 15 3 16 4 17 5 18 6 19 7 20 8 21 9 22 10 23 11
REMARK SMILES IDX 24 12 25 13 26 14 12 15 11 16 10 17 9 18 8 19 7 20 6 21 5 22
REMARK SMILES IDX 4 23 3 24 2 25 1 26
REMARK H PARENT
REMARK Flexibility Score: inf
ROOT
ATOM      1  C   UNL     1     -15.614 -11.067   3.015  1.00  0.00     0.000 C 
ENDROOT
BRANCH   1   2
ATOM      2  C   UNL     1     -16.269 -12.196   2.204  1.00  0.00     0.000 C 
BRANCH   2   3
ATOM      3  C   UNL     1     -17.170 -13.095   3.069  1.00  0.00     0.000 C 
BRANCH   3   4
ATOM      4  C   UNL     1     -18.656 -12.969   2.702  1.00  0.00     0.000 C 
BRANCH   4   5
ATOM      5  C   UNL     1     -18.875 -12.673   1.210  1.00  0.00     0.000 C 
BRANCH   5   6
ATOM      6  C   UNL     1     -20.216 -11.963   0.982  1.00  0.00     0.000 C 
BRANCH   6   7
ATOM      7  C   UNL     1     -21.286 -12.883   0.365  1.00  0.00     0.000 C 
BRANCH   7   8
ATOM      8  C   UNL     1     -22.542 -13.092   1.231  1.00  0.00     0.000 C 
BRANCH   8   9
ATOM      9  C   UNL     1     -22.435 -12.563   2.674  1.00  0.00     0.000 C 
BRANCH   9  10
ATOM     10  C   UNL     1     -23.352 -11.356   2.963  1.00  0.00     0.006 C 
BRANCH  10  11
ATOM     11  C   UNL     1     -24.719 -11.478   2.277  1.00  0.00     0.053 C 
BRANCH  11  12
ATOM     12  C   UNL     1     -25.045 -10.219   1.536  1.00  0.00     0.041 C 
ATOM     13  O   UNL     1     -24.373  -9.887   0.525  1.00  0.00    -0.550 OA
ATOM     14  O   UNL     1     -26.061  -9.387   1.990  1.00  0.00    -0.550 OA
ENDBRANCH  11  12
ENDBRANCH  10  11
ENDBRANCH   9  10
ENDBRANCH   8   9
ENDBRANCH   7   8
ENDBRANCH   6   7
ENDBRANCH   5   6
ENDBRANCH   4   5
ENDBRANCH   3   4
ENDBRANCH   2   3
ENDBRANCH   1   2
BRANCH   1  15
ATOM     15  C   UNL     1     -15.261 -11.499   4.448  1.00  0.00     0.000 C 
BRANCH  15  16
ATOM     16  C   UNL     1     -14.498 -12.835   4.496  1.00  0.00     0.000 C 
BRANCH  16  17
ATOM     17  C   UNL     1     -13.403 -12.995   3.422  1.00  0.00     0.000 C 
BRANCH  17  18
ATOM     18  C   UNL     1     -12.265 -11.954   3.474  1.00  0.00    -0.000 C 
BRANCH  18  19
ATOM     19  C   UNL     1     -12.077 -11.120   2.189  1.00  0.00    -0.000 C 
BRANCH  19  20
ATOM     20  C   UNL     1     -12.969 -11.567   1.008  1.00  0.00    -0.000 C 
BRANCH  20  21
ATOM     21  C   UNL     1     -12.219 -12.383  -0.062  1.00  0.00    -0.000 C 
BRANCH  21  22
ATOM     22  C   UNL     1     -10.972 -13.125   0.449  1.00  0.00    -0.000 C 
BRANCH  22  23
ATOM     23  C   UNL     1      -9.665 -12.551  -0.120  1.00  0.00    -0.000 C 
BRANCH  23  24
ATOM     24  C   UNL     1      -8.468 -12.943   0.755  1.00  0.00    -0.000 C 
BRANCH  24  25
ATOM     25  C   UNL     1      -7.157 -12.859  -0.036  1.00  0.00    -0.003 C 
ATOM     26  C   UNL     1      -6.003 -12.408   0.855  1.00  0.00     0.004 C 
ENDBRANCH  24  25
ENDBRANCH  23  24
ENDBRANCH  22  23
ENDBRANCH  21  22
ENDBRANCH  20  21
ENDBRANCH  19  20
ENDBRANCH  18  19
ENDBRANCH  17  18
ENDBRANCH  16  17
ENDBRANCH  15  16
ENDBRANCH   1  15
TORSDOF 22
ENDMDL
MODEL 2
REMARK VINA RESULT:    -1.567     10.345     15.407
REMARK INTER + INTRA:          -4.626
REMARK INTER:                  -3.080
REMARK INTRA:                  -1.546
REMARK UNBOUND:                -1.043
REMARK SMILES CCCCCCCCCCCCCCCCCCCCCCCC(=O)[O-]
REMARK SMILES IDX 13 1 14 2 15 3 16 4 17 5 18 6 19 7 20 8 21 9 22 10 23 11
REMARK SMILES IDX 24 12 25 13 26 14 12 15 11 16 10 17 9 18 8 19 7 20 6 21 5 22
REMARK SMILES IDX 4 23 3 24 2 25 1 26
REMARK H PARENT
REMARK Flexibility Score: inf
ROOT
ATOM      1  C   UNL     1     -22.363  -0.426   0.689  1.00  0.00     0.000 C 
ENDROOT
BRANCH   1   2
ATOM      2  C   UNL     1     -22.243  -1.827   0.070  1.00  0.00     0.000 C 
BRANCH   2   3
ATOM      3  C   UNL     1     -22.610  -2.943   1.065  1.00  0.00     0.000 C 
BRANCH   3   4
ATOM      4  C   UNL     1     -22.553  -4.341   0.432  1.00  0.00     0.000 C 
BRANCH   4   5
ATOM      5  C   UNL     1     -23.926  -4.826  -0.057  1.00  0.00     0.000 C 
BRANCH   5   6
ATOM      6  C   UNL     1     -24.006  -6.359  -0.035  1.00  0.00     0.000 C 
BRANCH   6   7
ATOM      7  C   UNL     1     -25.451  -6.884   0.063  1.00  0.00     0.000 C 
BRANCH   7   8
ATOM      8  C   UNL     1     -25.682  -7.957   1.144  1.00  0.00     0.000 C 
BRANCH   8   9
ATOM      9  C   UNL     1     -26.015  -9.362   0.607  1.00  0.00     0.000 C 
BRANCH   9  10
ATOM     10  C   UNL     1     -24.914 -10.409   0.880  1.00  0.00     0.006 C 
BRANCH  10  11
ATOM     11  C   UNL     1     -24.078 -10.072   2.121  1.00  0.00     0.053 C 
BRANCH  11  12
ATOM     12  C   UNL     1     -23.746 -11.318   2.882  1.00  0.00     0.041 C 
ATOM     13  O   UNL     1     -23.626 -12.416   2.278  1.00  0.00    -0.550 OA
ATOM     14  O   UNL     1     -23.618 -11.276   4.265  1.00  0.00    -0.550 OA
ENDBRANCH  11  12
ENDBRANCH  10  11
ENDBRANCH   9  10
ENDBRANCH   8   9
ENDBRANCH   7   8
ENDBRANCH   6   7
ENDBRANCH   5   6
ENDBRANCH   4   5
ENDBRANCH   3   4
ENDBRANCH   2   3
ENDBRANCH   1   2
BRANCH   1  15
ATOM     15  C   UNL     1     -21.550   0.630  -0.079  1.00  0.00     0.000 C 
BRANCH  15  16
ATOM     16  C   UNL     1     -20.918   1.684   0.849  1.00  0.00     0.000 C 
BRANCH  16  17
ATOM     17  C   UNL     1     -21.531   3.093   0.740  1.00  0.00     0.000 C 
BRANCH  17  18
ATOM     18  C   UNL     1     -22.818   3.195  -0.107  1.00  0.00    -0.000 C 
BRANCH  18  19
ATOM     19  C   UNL     1     -24.081   3.626   0.666  1.00  0.00    -0.000 C 
BRANCH  19  20
ATOM     20  C   UNL     1     -25.033   2.463   1.024  1.00  0.00    -0.000 C 
BRANCH  20  21
ATOM     21  C   UNL     1     -26.056   2.812   2.122  1.00  0.00    -0.000 C 
BRANCH  21  22
ATOM     22  C   UNL     1     -25.453   3.026   3.521  1.00  0.00    -0.000 C 
BRANCH  22  23
ATOM     23  C   UNL     1     -25.830   4.385   4.130  1.00  0.00    -0.000 C 
BRANCH  23  24
ATOM     24  C   UNL     1     -25.883   5.473   3.050  1.00  0.00    -0.000 C 
BRANCH  24  25
ATOM     25  C   UNL     1     -24.830   6.557   3.309  1.00  0.00    -0.003 C 
ATOM     26  C   UNL     1     -23.492   5.941   3.709  1.00  0.00     0.004 C 
ENDBRANCH  24  25
ENDBRANCH  23  24
ENDBRANCH  22  23
ENDBRANCH  21  22
ENDBRANCH  20  21
ENDBRANCH  19  20
ENDBRANCH  18  19
ENDBRANCH  17  18
ENDBRANCH  16  17
ENDBRANCH  15  16
ENDBRANCH   1  15
TORSDOF 22
ENDMDL
MODEL 3
REMARK VINA RESULT:    -1.496     10.514     15.196
REMARK INTER + INTRA:          -4.462
REMARK INTER:                  -3.227
REMARK INTRA:                  -1.235
REMARK UNBOUND:                -1.043
REMARK SMILES CCCCCCCCCCCCCCCCCCCCCCCC(=O)[O-]
REMARK SMILES IDX 13 1 14 2 15 3 16 4 17 5 18 6 19 7 20 8 21 9 22 10 23 11
REMARK SMILES IDX 24 12 25 13 26 14 12 15 11 16 10 17 9 18 8 19 7 20 6 21 5 22
REMARK SMILES IDX 4 23 3 24 2 25 1 26
REMARK H PARENT
REMARK Flexibility Score: inf
ROOT
ATOM      1  C   UNL     1     -21.224  -0.985   1.417  1.00  0.00     0.000 C 
ENDROOT
BRANCH   1   2
ATOM      2  C   UNL     1     -21.816  -1.970   0.397  1.00  0.00     0.000 C 
BRANCH   2   3
ATOM      3  C   UNL     1     -22.347  -3.254   1.060  1.00  0.00     0.000 C 
BRANCH   3   4
ATOM      4  C   UNL     1     -22.487  -4.417   0.065  1.00  0.00     0.000 C 
BRANCH   4   5
ATOM      5  C   UNL     1     -23.939  -4.897  -0.083  1.00  0.00     0.000 C 
BRANCH   5   6
ATOM      6  C   UNL     1     -24.008  -6.431  -0.124  1.00  0.00     0.000 C 
BRANCH   6   7
ATOM      7  C   UNL     1     -25.389  -6.981   0.277  1.00  0.00     0.000 C 
BRANCH   7   8
ATOM      8  C   UNL     1     -25.355  -8.235   1.172  1.00  0.00     0.000 C 
BRANCH   8   9
ATOM      9  C   UNL     1     -25.172  -9.567   0.419  1.00  0.00     0.000 C 
BRANCH   9  10
ATOM     10  C   UNL     1     -24.972 -10.783   1.347  1.00  0.00     0.006 C 
BRANCH  10  11
ATOM     11  C   UNL     1     -25.570 -10.562   2.743  1.00  0.00     0.053 C 
BRANCH  11  12
ATOM     12  C   UNL     1     -25.563 -11.839   3.523  1.00  0.00     0.041 C 
ATOM     13  O   UNL     1     -25.265 -12.924   2.960  1.00  0.00    -0.550 OA
ATOM     14  O   UNL     1     -25.933 -11.838   4.863  1.00  0.00    -0.550 OA
ENDBRANCH  11  12
ENDBRANCH  10  11
ENDBRANCH   9  10
ENDBRANCH   8   9
ENDBRANCH   7   8
ENDBRANCH   6   7
ENDBRANCH   5   6
ENDBRANCH   4   5
ENDBRANCH   3   4
ENDBRANCH   2   3
ENDBRANCH   1   2
BRANCH   1  15
ATOM     15  C   UNL     1     -22.234   0.090   1.854  1.00  0.00     0.000 C 
BRANCH  15  16
ATOM     16  C   UNL     1     -21.700   1.521   1.659  1.00  0.00     0.000 C 
BRANCH  16  17
ATOM     17  C   UNL     1     -21.978   2.133   0.272  1.00  0.00     0.000 C 
BRANCH  17  18
ATOM     18  C   UNL     1     -23.365   2.787   0.100  1.00  0.00    -0.000 C 
BRANCH  18  19
ATOM     19  C   UNL     1     -23.361   4.329   0.040  1.00  0.00    -0.000 C 
BRANCH  19  20
ATOM     20  C   UNL     1     -22.245   4.993   0.877  1.00  0.00    -0.000 C 
BRANCH  20  21
ATOM     21  C   UNL     1     -22.569   6.436   1.313  1.00  0.00    -0.000 C 
BRANCH  21  22
ATOM     22  C   UNL     1     -23.628   6.551   2.422  1.00  0.00    -0.000 C 
BRANCH  22  23
ATOM     23  C   UNL     1     -23.303   5.682   3.647  1.00  0.00    -0.000 C 
BRANCH  23  24
ATOM     24  C   UNL     1     -24.510   4.822   4.044  1.00  0.00    -0.000 C 
BRANCH  24  25
ATOM     25  C   UNL     1     -24.727   3.682   3.043  1.00  0.00    -0.003 C 
ATOM     26  C   UNL     1     -26.124   3.085   3.181  1.00  0.00     0.004 C 
ENDBRANCH  24  25
ENDBRANCH  23  24
ENDBRANCH  22  23
ENDBRANCH  21  22
ENDBRANCH  20  21
ENDBRANCH  19  20
ENDBRANCH  18  19
ENDBRANCH  17  18
ENDBRANCH  16  17
ENDBRANCH  15  16
ENDBRANCH   1  15
TORSDOF 22
ENDMDL
MODEL 4
REMARK VINA RESULT:    -1.470     11.239     15.160
REMARK INTER + INTRA:          -4.403
REMARK INTER:                  -3.339
REMARK INTRA:                  -1.064
REMARK UNBOUND:                -1.043
REMARK SMILES CCCCCCCCCCCCCCCCCCCCCCCC(=O)[O-]
REMARK SMILES IDX 13 1 14 2 15 3 16 4 17 5 18 6 19 7 20 8 21 9 22 10 23 11
REMARK SMILES IDX 24 12 25 13 26 14 12 15 11 16 10 17 9 18 8 19 7 20 6 21 5 22
REMARK SMILES IDX 4 23 3 24 2 25 1 26
REMARK H PARENT
REMARK Flexibility Score: inf
ROOT
ATOM      1  C   UNL     1     -22.366  -0.140   0.119  1.00  0.00     0.000 C 
ENDROOT
BRANCH   1   2
ATOM      2  C   UNL     1     -22.216  -1.478   0.859  1.00  0.00     0.000 C 
BRANCH   2   3
ATOM      3  C   UNL     1     -22.113  -2.674  -0.105  1.00  0.00     0.000 C 
BRANCH   3   4
ATOM      4  C   UNL     1     -23.382  -3.540  -0.109  1.00  0.00     0.000 C 
BRANCH   4   5
ATOM      5  C   UNL     1     -23.192  -4.871   0.636  1.00  0.00     0.000 C 
BRANCH   5   6
ATOM      6  C   UNL     1     -23.868  -6.024  -0.119  1.00  0.00     0.000 C 
BRANCH   6   7
ATOM      7  C   UNL     1     -24.712  -6.929   0.797  1.00  0.00     0.000 C 
BRANCH   7   8
ATOM      8  C   UNL     1     -24.591  -8.438   0.510  1.00  0.00     0.000 C 
BRANCH   8   9
ATOM      9  C   UNL     1     -25.766  -9.295   1.022  1.00  0.00     0.000 C 
BRANCH   9  10
ATOM     10  C   UNL     1     -25.401 -10.203   2.215  1.00  0.00     0.006 C 
BRANCH  10  11
ATOM     11  C   UNL     1     -23.980 -10.772   2.106  1.00  0.00     0.053 C 
BRANCH  11  12
ATOM     12  C   UNL     1     -23.600 -11.472   3.373  1.00  0.00     0.041 C 
ATOM     13  O   UNL     1     -22.987 -10.850   4.281  1.00  0.00    -0.550 OA
ATOM     14  O   UNL     1     -23.878 -12.824   3.533  1.00  0.00    -0.550 OA
ENDBRANCH  11  12
ENDBRANCH  10  11
ENDBRANCH   9  10
ENDBRANCH   8   9
ENDBRANCH   7   8
ENDBRANCH   6   7
ENDBRANCH   5   6
ENDBRANCH   4   5
ENDBRANCH   3   4
ENDBRANCH   2   3
ENDBRANCH   1   2
BRANCH   1  15
ATOM     15  C   UNL     1     -21.648   1.015   0.838  1.00  0.00     0.000 C 
BRANCH  15  16
ATOM     16  C   UNL     1     -22.409   2.349   0.727  1.00  0.00     0.000 C 
BRANCH  16  17
ATOM     17  C   UNL     1     -23.793   2.364   1.406  1.00  0.00     0.000 C 
BRANCH  17  18
ATOM     18  C   UNL     1     -23.798   2.766   2.896  1.00  0.00    -0.000 C 
BRANCH  18  19
ATOM     19  C   UNL     1     -23.501   4.254   3.176  1.00  0.00    -0.000 C 
BRANCH  19  20
ATOM     20  C   UNL     1     -24.510   5.233   2.535  1.00  0.00    -0.000 C 
BRANCH  20  21
ATOM     21  C   UNL     1     -24.146   5.646   1.095  1.00  0.00    -0.000 C 
BRANCH  21  22
ATOM     22  C   UNL     1     -23.183   6.841   0.991  1.00  0.00    -0.000 C 
BRANCH  22  23
ATOM     23  C   UNL     1     -22.120   6.654  -0.103  1.00  0.00    -0.000 C 
BRANCH  23  24
ATOM     24  C   UNL     1     -20.845   6.026   0.474  1.00  0.00    -0.000 C 
BRANCH  24  25
ATOM     25  C   UNL     1     -19.669   7.007   0.405  1.00  0.00    -0.003 C 
ATOM     26  C   UNL     1     -18.373   6.290   0.040  1.00  0.00     0.004 C 
ENDBRANCH  24  25
ENDBRANCH  23  24
ENDBRANCH  22  23
ENDBRANCH  21  22
ENDBRANCH  20  21
ENDBRANCH  19  20
ENDBRANCH  18  19
ENDBRANCH  17  18
ENDBRANCH  16  17
ENDBRANCH  15  16
ENDBRANCH   1  15
TORSDOF 22
ENDMDL
MODEL 5
REMARK VINA RESULT:    -1.446     10.795     15.563
REMARK INTER + INTRA:          -4.348
REMARK INTER:                  -2.963
REMARK INTRA:                  -1.385
REMARK UNBOUND:                -1.043
REMARK SMILES CCCCCCCCCCCCCCCCCCCCCCCC(=O)[O-]
REMARK SMILES IDX 13 1 14 2 15 3 16 4 17 5 18 6 19 7 20 8 21 9 22 10 23 11
REMARK SMILES IDX 24 12 25 13 26 14 12 15 11 16 10 17 9 18 8 19 7 20 6 21 5 22
REMARK SMILES IDX 4 23 3 24 2 25 1 26
REMARK H PARENT
REMARK Flexibility Score: inf
ROOT
ATOM      1  C   UNL     1     -21.955  -1.499   0.789  1.00  0.00     0.000 C 
ENDROOT
BRANCH   1   2
ATOM      2  C   UNL     1     -22.372  -0.028   0.637  1.00  0.00     0.000 C 
BRANCH   2   3
ATOM      3  C   UNL     1     -22.776   0.609   1.979  1.00  0.00     0.000 C 
BRANCH   3   4
ATOM      4  C   UNL     1     -22.889   2.139   1.896  1.00  0.00     0.000 C 
BRANCH   4   5
ATOM      5  C   UNL     1     -24.190   2.600   1.220  1.00  0.00     0.000 C 
BRANCH   5   6
ATOM      6  C   UNL     1     -23.907   3.676   0.162  1.00  0.00     0.000 C 
BRANCH   6   7
ATOM      7  C   UNL     1     -25.119   4.588  -0.106  1.00  0.00     0.000 C 
BRANCH   7   8
ATOM      8  C   UNL     1     -24.993   6.018   0.455  1.00  0.00     0.000 C 
BRANCH   8   9
ATOM      9  C   UNL     1     -25.424   6.181   1.926  1.00  0.00     0.000 C 
BRANCH   9  10
ATOM     10  C   UNL     1     -24.252   6.463   2.890  1.00  0.00     0.006 C 
BRANCH  10  11
ATOM     11  C   UNL     1     -24.163   5.432   4.023  1.00  0.00     0.053 C 
BRANCH  11  12
ATOM     12  C   UNL     1     -25.511   5.206   4.631  1.00  0.00     0.041 C 
ATOM     13  O   UNL     1     -26.098   6.141   5.236  1.00  0.00    -0.550 OA
ATOM     14  O   UNL     1     -26.099   3.948   4.574  1.00  0.00    -0.550 OA
ENDBRANCH  11  12
ENDBRANCH  10  11
ENDBRANCH   9  10
ENDBRANCH   8   9
ENDBRANCH   7   8
ENDBRANCH   6   7
ENDBRANCH   5   6
ENDBRANCH   4   5
ENDBRANCH   3   4
ENDBRANCH   2   3
ENDBRANCH   1   2
BRANCH   1  15
ATOM     15  C   UNL     1     -22.767  -2.439  -0.117  1.00  0.00     0.000 C 
BRANCH  15  16
ATOM     16  C   UNL     1     -23.013  -3.817   0.524  1.00  0.00     0.000 C 
BRANCH  16  17
ATOM     17  C   UNL     1     -22.068  -4.935   0.041  1.00  0.00     0.000 C 
BRANCH  17  18
ATOM     18  C   UNL     1     -22.709  -6.332  -0.100  1.00  0.00    -0.000 C 
BRANCH  18  19
ATOM     19  C   UNL     1     -24.251  -6.357  -0.043  1.00  0.00    -0.000 C 
BRANCH  19  20
ATOM     20  C   UNL     1     -24.863  -7.775  -0.085  1.00  0.00    -0.000 C 
BRANCH  20  21
ATOM     21  C   UNL     1     -26.125  -7.933   0.786  1.00  0.00    -0.000 C 
BRANCH  21  22
ATOM     22  C   UNL     1     -26.052  -9.064   1.827  1.00  0.00    -0.000 C 
BRANCH  22  23
ATOM     23  C   UNL     1     -25.101 -10.196   1.409  1.00  0.00    -0.000 C 
BRANCH  23  24
ATOM     24  C   UNL     1     -24.077 -10.487   2.513  1.00  0.00    -0.000 C 
BRANCH  24  25
ATOM     25  C   UNL     1     -24.598 -11.557   3.479  1.00  0.00    -0.003 C 
ATOM     26  C   UNL     1     -25.073 -12.795   2.725  1.00  0.00     0.004 C 
ENDBRANCH  24  25
ENDBRANCH  23  24
ENDBRANCH  22  23
ENDBRANCH  21  22
ENDBRANCH  20  21
ENDBRANCH  19  20
ENDBRANCH  18  19
ENDBRANCH  17  18
ENDBRANCH  16  17
ENDBRANCH  15  16
ENDBRANCH   1  15
TORSDOF 22
ENDMDL
