MODEL 1
REMARK VINA RESULT:    -6.241      0.000      0.000
REMARK INTER + INTRA:          -7.630
REMARK INTER:                  -7.336
REMARK INTRA:                  -0.295
REMARK UNBOUND:                -0.295
REMARK SMILES O=c1cc(-c2ccc(O)c(O)c2)oc2cc(O)cc(O)c12
REMARK SMILES IDX 4 1 3 2 2 3 1 4 21 5 19 6 18 7 16 8 15 9 14 10 13 11 5 12
REMARK SMILES IDX 6 13 7 14 8 15 12 16 10 17 9 18 11 20 20 22 17 24
REMARK H PARENT 9 19 11 21 20 23 17 25
REMARK Flexibility Score: inf
ROOT
ATOM      1  C   UNL     1      27.196   4.232  41.010  1.00  0.00     0.138 A 
ATOM      2  C   UNL     1      26.615   4.533  42.251  1.00  0.00     0.100 A 
ATOM      3  C   UNL     1      25.265   4.254  42.466  1.00  0.00     0.197 A 
ATOM      4  O   UNL     1      24.788   4.476  43.609  1.00  0.00    -0.289 OA
ATOM      5  C   UNL     1      24.485   3.702  41.422  1.00  0.00     0.107 A 
ATOM      6  C   UNL     1      23.090   3.415  41.514  1.00  0.00     0.134 A 
ATOM      7  C   UNL     1      22.450   2.761  40.454  1.00  0.00     0.093 A 
ATOM      8  C   UNL     1      23.139   2.439  39.282  1.00  0.00     0.123 A 
ATOM      9  C   UNL     1      24.489   2.763  39.163  1.00  0.00     0.094 A 
ATOM     10  C   UNL     1      25.164   3.385  40.215  1.00  0.00     0.146 A 
ATOM     11  O   UNL     1      26.455   3.664  40.066  1.00  0.00    -0.456 OA
ENDROOT
BRANCH   1  12
ATOM     12  C   UNL     1      28.627   4.509  40.728  1.00  0.00     0.021 A 
ATOM     13  C   UNL     1      29.083   4.499  39.401  1.00  0.00     0.016 A 
ATOM     14  C   UNL     1      30.422   4.762  39.109  1.00  0.00     0.051 A 
ATOM     15  C   UNL     1      31.332   5.052  40.130  1.00  0.00     0.157 A 
ATOM     16  C   UNL     1      29.539   4.814  41.755  1.00  0.00     0.062 A 
ATOM     17  C   UNL     1      30.884   5.083  41.472  1.00  0.00     0.158 A 
BRANCH  15  18
ATOM     18  O   UNL     1      32.659   5.300  39.772  1.00  0.00    -0.504 OA
ATOM     19  H   UNL     1      33.394   4.608  39.810  1.00  0.00     0.293 HD
ENDBRANCH  15  18
BRANCH  17  20
ATOM     20  O   UNL     1      31.730   5.380  42.542  1.00  0.00    -0.504 OA
ATOM     21  H   UNL     1      32.164   4.683  43.128  1.00  0.00     0.293 HD
ENDBRANCH  17  20
ENDBRANCH   1  12
BRANCH   6  22
ATOM     22  O   UNL     1      22.290   3.770  42.603  1.00  0.00    -0.507 OA
ATOM     23  H   UNL     1      21.419   4.275  42.538  1.00  0.00     0.293 HD
ENDBRANCH   6  22
BRANCH   8  24
ATOM     24  O   UNL     1      22.490   1.801  38.228  1.00  0.00    -0.508 OA
ATOM     25  H   UNL     1      22.829   0.924  37.849  1.00  0.00     0.293 HD
ENDBRANCH   8  24
TORSDOF 5
ENDMDL
MODEL 2
REMARK VINA RESULT:    -6.131      1.600      2.317
REMARK INTER + INTRA:          -7.501
REMARK INTER:                  -7.204
REMARK INTRA:                  -0.297
REMARK UNBOUND:                -0.295
REMARK SMILES O=c1cc(-c2ccc(O)c(O)c2)oc2cc(O)cc(O)c12
REMARK SMILES IDX 4 1 3 2 2 3 1 4 21 5 19 6 18 7 16 8 15 9 14 10 13 11 5 12
REMARK SMILES IDX 6 13 7 14 8 15 12 16 10 17 9 18 11 20 20 22 17 24
REMARK H PARENT 9 19 11 21 20 23 17 25
REMARK Flexibility Score: inf
ROOT
ATOM      1  C   UNL     1      29.219   4.711  41.905  1.00  0.00     0.138 A 
ATOM      2  C   UNL     1      28.689   4.546  43.193  1.00  0.00     0.100 A 
ATOM      3  C   UNL     1      27.341   4.221  43.348  1.00  0.00     0.197 A 
ATOM      4  O   UNL     1      26.909   4.017  44.512  1.00  0.00    -0.289 OA
ATOM      5  C   UNL     1      26.513   4.091  42.207  1.00  0.00     0.107 A 
ATOM      6  C   UNL     1      25.116   3.803  42.246  1.00  0.00     0.134 A 
ATOM      7  C   UNL     1      24.424   3.583  41.048  1.00  0.00     0.093 A 
ATOM      8  C   UNL     1      25.065   3.702  39.812  1.00  0.00     0.123 A 
ATOM      9  C   UNL     1      26.416   4.036  39.763  1.00  0.00     0.094 A 
ATOM     10  C   UNL     1      27.142   4.228  40.940  1.00  0.00     0.146 A 
ATOM     11  O   UNL     1      28.433   4.531  40.850  1.00  0.00    -0.456 OA
ENDROOT
BRANCH   1  12
ATOM     12  C   UNL     1      30.646   5.059  41.685  1.00  0.00     0.021 A 
ATOM     13  C   UNL     1      31.143   5.132  40.374  1.00  0.00     0.016 A 
ATOM     14  C   UNL     1      32.479   5.463  40.139  1.00  0.00     0.051 A 
ATOM     15  C   UNL     1      33.343   5.738  41.203  1.00  0.00     0.157 A 
ATOM     16  C   UNL     1      31.511   5.350  42.755  1.00  0.00     0.062 A 
ATOM     17  C   UNL     1      32.853   5.687  42.529  1.00  0.00     0.158 A 
BRANCH  15  18
ATOM     18  O   UNL     1      34.669   6.057  40.901  1.00  0.00    -0.504 OA
ATOM     19  H   UNL     1      35.457   5.466  41.123  1.00  0.00     0.293 HD
ENDBRANCH  15  18
BRANCH  17  20
ATOM     20  O   UNL     1      33.651   5.965  43.640  1.00  0.00    -0.504 OA
ATOM     21  H   UNL     1      34.648   5.807  43.672  1.00  0.00     0.293 HD
ENDBRANCH  17  20
ENDBRANCH   1  12
BRANCH   6  22
ATOM     22  O   UNL     1      24.362   3.746  43.421  1.00  0.00    -0.507 OA
ATOM     23  H   UNL     1      23.522   3.200  43.541  1.00  0.00     0.293 HD
ENDBRANCH   6  22
BRANCH   8  24
ATOM     24  O   UNL     1      24.365   3.497  38.626  1.00  0.00    -0.508 OA
ATOM     25  H   UNL     1      24.127   4.266  38.010  1.00  0.00     0.293 HD
ENDBRANCH   8  24
TORSDOF 5
ENDMDL
MODEL 3
REMARK VINA RESULT:    -5.932      1.473      7.524
REMARK INTER + INTRA:          -7.267
REMARK INTER:                  -6.970
REMARK INTRA:                  -0.297
REMARK UNBOUND:                -0.295
REMARK SMILES O=c1cc(-c2ccc(O)c(O)c2)oc2cc(O)cc(O)c12
REMARK SMILES IDX 4 1 3 2 2 3 1 4 21 5 19 6 18 7 16 8 15 9 14 10 13 11 5 12
REMARK SMILES IDX 6 13 7 14 8 15 12 16 10 17 9 18 11 20 20 22 17 24
REMARK H PARENT 9 19 11 21 20 23 17 25
REMARK Flexibility Score: inf
ROOT
ATOM      1  C   UNL     1      27.676   4.257  40.913  1.00  0.00     0.138 A 
ATOM      2  C   UNL     1      28.379   4.348  39.703  1.00  0.00     0.100 A 
ATOM      3  C   UNL     1      29.733   4.685  39.715  1.00  0.00     0.197 A 
ATOM      4  O   UNL     1      30.352   4.697  38.620  1.00  0.00    -0.289 OA
ATOM      5  C   UNL     1      30.378   4.964  40.945  1.00  0.00     0.107 A 
ATOM      6  C   UNL     1      31.743   5.358  41.075  1.00  0.00     0.134 A 
ATOM      7  C   UNL     1      32.302   5.493  42.352  1.00  0.00     0.093 A 
ATOM      8  C   UNL     1      31.530   5.309  43.502  1.00  0.00     0.123 A 
ATOM      9  C   UNL     1      30.182   4.977  43.384  1.00  0.00     0.094 A 
ATOM     10  C   UNL     1      29.603   4.801  42.125  1.00  0.00     0.146 A 
ATOM     11  O   UNL     1      28.318   4.470  42.057  1.00  0.00    -0.456 OA
ENDROOT
BRANCH   1  12
ATOM     12  C   UNL     1      26.234   3.903  40.957  1.00  0.00     0.021 A 
ATOM     13  C   UNL     1      25.553   3.935  42.183  1.00  0.00     0.016 A 
ATOM     14  C   UNL     1      24.196   3.613  42.250  1.00  0.00     0.051 A 
ATOM     15  C   UNL     1      23.488   3.263  41.096  1.00  0.00     0.157 A 
ATOM     16  C   UNL     1      25.520   3.564  39.793  1.00  0.00     0.062 A 
ATOM     17  C   UNL     1      24.157   3.243  39.850  1.00  0.00     0.158 A 
BRANCH  15  18
ATOM     18  O   UNL     1      22.135   2.946  41.231  1.00  0.00    -0.504 OA
ATOM     19  H   UNL     1      21.395   3.387  40.704  1.00  0.00     0.293 HD
ENDBRANCH  15  18
BRANCH  17  20
ATOM     20  O   UNL     1      23.514   2.919  38.654  1.00  0.00    -0.504 OA
ATOM     21  H   UNL     1      22.763   3.461  38.251  1.00  0.00     0.293 HD
ENDBRANCH  17  20
ENDBRANCH   1  12
BRANCH   6  22
ATOM     22  O   UNL     1      32.579   5.649  39.994  1.00  0.00    -0.507 OA
ATOM     23  H   UNL     1      33.341   6.309  40.016  1.00  0.00     0.293 HD
ENDBRANCH   6  22
BRANCH   8  24
ATOM     24  O   UNL     1      32.091   5.461  44.767  1.00  0.00    -0.508 OA
ATOM     25  H   UNL     1      31.521   5.670  45.579  1.00  0.00     0.293 HD
ENDBRANCH   8  24
TORSDOF 5
ENDMDL
MODEL 4
REMARK VINA RESULT:    -5.917      1.868      7.319
REMARK INTER + INTRA:          -7.250
REMARK INTER:                  -6.933
REMARK INTRA:                  -0.316
REMARK UNBOUND:                -0.295
REMARK SMILES O=c1cc(-c2ccc(O)c(O)c2)oc2cc(O)cc(O)c12
REMARK SMILES IDX 4 1 3 2 2 3 1 4 21 5 19 6 18 7 16 8 15 9 14 10 13 11 5 12
REMARK SMILES IDX 6 13 7 14 8 15 12 16 10 17 9 18 11 20 20 22 17 24
REMARK H PARENT 9 19 11 21 20 23 17 25
REMARK Flexibility Score: inf
ROOT
ATOM      1  C   UNL     1      27.676   4.283  41.418  1.00  0.00     0.138 A 
ATOM      2  C   UNL     1      28.655   4.555  40.452  1.00  0.00     0.100 A 
ATOM      3  C   UNL     1      29.947   4.896  40.856  1.00  0.00     0.197 A 
ATOM      4  O   UNL     1      30.819   5.073  39.967  1.00  0.00    -0.289 OA
ATOM      5  C   UNL     1      30.249   4.994  42.235  1.00  0.00     0.107 A 
ATOM      6  C   UNL     1      31.520   5.373  42.763  1.00  0.00     0.134 A 
ATOM      7  C   UNL     1      31.734   5.323  44.146  1.00  0.00     0.093 A 
ATOM      8  C   UNL     1      30.707   4.967  45.023  1.00  0.00     0.123 A 
ATOM      9  C   UNL     1      29.448   4.647  44.521  1.00  0.00     0.094 A 
ATOM     10  C   UNL     1      29.211   4.654  43.144  1.00  0.00     0.146 A 
ATOM     11  O   UNL     1      28.000   4.329  42.705  1.00  0.00    -0.456 OA
ENDROOT
BRANCH   1  12
ATOM     12  C   UNL     1      26.286   3.917  41.042  1.00  0.00     0.021 A 
ATOM     13  C   UNL     1      25.994   3.595  39.708  1.00  0.00     0.016 A 
ATOM     14  C   UNL     1      24.698   3.242  39.330  1.00  0.00     0.051 A 
ATOM     15  C   UNL     1      23.668   3.191  40.275  1.00  0.00     0.157 A 
ATOM     16  C   UNL     1      25.254   3.851  41.996  1.00  0.00     0.062 A 
ATOM     17  C   UNL     1      23.950   3.495  41.628  1.00  0.00     0.158 A 
BRANCH  15  18
ATOM     18  O   UNL     1      22.392   2.836  39.832  1.00  0.00    -0.504 OA
ATOM     19  H   UNL     1      21.847   2.082  40.225  1.00  0.00     0.293 HD
ENDBRANCH  15  18
BRANCH  17  20
ATOM     20  O   UNL     1      22.979   3.450  42.629  1.00  0.00    -0.504 OA
ATOM     21  H   UNL     1      22.295   4.175  42.785  1.00  0.00     0.293 HD
ENDBRANCH  17  20
ENDBRANCH   1  12
BRANCH   6  22
ATOM     22  O   UNL     1      32.587   5.826  41.982  1.00  0.00    -0.507 OA
ATOM     23  H   UNL     1      33.362   6.371  42.327  1.00  0.00     0.293 HD
ENDBRANCH   6  22
BRANCH   8  24
ATOM     24  O   UNL     1      30.926   4.934  46.399  1.00  0.00    -0.508 OA
ATOM     25  H   UNL     1      30.953   5.783  46.951  1.00  0.00     0.293 HD
ENDBRANCH   8  24
TORSDOF 5
ENDMDL
MODEL 5
REMARK VINA RESULT:    -5.752      2.461      7.535
REMARK INTER + INTRA:          -7.055
REMARK INTER:                  -6.759
REMARK INTRA:                  -0.296
REMARK UNBOUND:                -0.295
REMARK SMILES O=c1cc(-c2ccc(O)c(O)c2)oc2cc(O)cc(O)c12
REMARK SMILES IDX 4 1 3 2 2 3 1 4 21 5 19 6 18 7 16 8 15 9 14 10 13 11 5 12
REMARK SMILES IDX 6 13 7 14 8 15 12 16 10 17 9 18 11 20 20 22 17 24
REMARK H PARENT 9 19 11 21 20 23 17 25
REMARK Flexibility Score: inf
ROOT
ATOM      1  C   UNL     1      27.851   4.489  42.317  1.00  0.00     0.138 A 
ATOM      2  C   UNL     1      28.960   4.609  41.467  1.00  0.00     0.100 A 
ATOM      3  C   UNL     1      30.211   4.914  42.004  1.00  0.00     0.197 A 
ATOM      4  O   UNL     1      31.198   4.954  41.226  1.00  0.00    -0.289 OA
ATOM      5  C   UNL     1      30.345   5.131  43.397  1.00  0.00     0.107 A 
ATOM      6  C   UNL     1      31.562   5.487  44.050  1.00  0.00     0.134 A 
ATOM      7  C   UNL     1      31.599   5.561  45.449  1.00  0.00     0.093 A 
ATOM      8  C   UNL     1      30.448   5.351  46.212  1.00  0.00     0.123 A 
ATOM      9  C   UNL     1      29.242   5.055  45.580  1.00  0.00     0.094 A 
ATOM     10  C   UNL     1      29.181   4.941  44.189  1.00  0.00     0.146 A 
ATOM     11  O   UNL     1      28.015   4.643  43.626  1.00  0.00    -0.456 OA
ENDROOT
BRANCH   1  12
ATOM     12  C   UNL     1      26.498   4.167  41.797  1.00  0.00     0.021 A 
ATOM     13  C   UNL     1      25.458   3.897  42.701  1.00  0.00     0.016 A 
ATOM     14  C   UNL     1      24.176   3.598  42.238  1.00  0.00     0.051 A 
ATOM     15  C   UNL     1      23.899   3.573  40.868  1.00  0.00     0.157 A 
ATOM     16  C   UNL     1      26.217   4.156  40.419  1.00  0.00     0.062 A 
ATOM     17  C   UNL     1      24.932   3.861  39.945  1.00  0.00     0.158 A 
BRANCH  15  18
ATOM     18  O   UNL     1      22.597   3.261  40.470  1.00  0.00    -0.504 OA
ATOM     19  H   UNL     1      21.769   3.682  40.867  1.00  0.00     0.293 HD
ENDBRANCH  15  18
BRANCH  17  20
ATOM     20  O   UNL     1      24.728   3.870  38.564  1.00  0.00    -0.504 OA
ATOM     21  H   UNL     1      24.084   4.489  38.093  1.00  0.00     0.293 HD
ENDBRANCH  17  20
ENDBRANCH   1  12
BRANCH   6  22
ATOM     22  O   UNL     1      32.747   5.800  43.379  1.00  0.00    -0.507 OA
ATOM     23  H   UNL     1      32.924   5.612  42.404  1.00  0.00     0.293 HD
ENDBRANCH   6  22
BRANCH   8  24
ATOM     24  O   UNL     1      30.490   5.441  47.602  1.00  0.00    -0.508 OA
ATOM     25  H   UNL     1      31.338   5.705  48.090  1.00  0.00     0.293 HD
ENDBRANCH   8  24
TORSDOF 5
ENDMDL
MODEL 6
REMARK VINA RESULT:    -5.701      1.373      6.937
REMARK INTER + INTRA:          -6.996
REMARK INTER:                  -6.700
REMARK INTRA:                  -0.296
REMARK UNBOUND:                -0.295
REMARK SMILES O=c1cc(-c2ccc(O)c(O)c2)oc2cc(O)cc(O)c12
REMARK SMILES IDX 4 1 3 2 2 3 1 4 21 5 19 6 18 7 16 8 15 9 14 10 13 11 5 12
REMARK SMILES IDX 6 13 7 14 8 15 12 16 10 17 9 18 11 20 20 22 17 24
REMARK H PARENT 9 19 11 21 20 23 17 25
REMARK Flexibility Score: inf
ROOT
ATOM      1  C   UNL     1      27.226   4.212  41.689  1.00  0.00     0.138 A 
ATOM      2  C   UNL     1      27.445   4.372  43.064  1.00  0.00     0.100 A 
ATOM      3  C   UNL     1      28.716   4.720  43.525  1.00  0.00     0.197 A 
ATOM      4  O   UNL     1      28.867   4.919  44.758  1.00  0.00    -0.289 OA
ATOM      5  C   UNL     1      29.780   4.876  42.604  1.00  0.00     0.107 A 
ATOM      6  C   UNL     1      31.125   5.188  42.962  1.00  0.00     0.134 A 
ATOM      7  C   UNL     1      32.068   5.433  41.956  1.00  0.00     0.093 A 
ATOM      8  C   UNL     1      31.728   5.316  40.605  1.00  0.00     0.123 A 
ATOM      9  C   UNL     1      30.430   4.959  40.247  1.00  0.00     0.094 A 
ATOM     10  C   UNL     1      29.459   4.742  41.226  1.00  0.00     0.146 A 
ATOM     11  O   UNL     1      28.229   4.417  40.841  1.00  0.00    -0.456 OA
ENDROOT
BRANCH   1  12
ATOM     12  C   UNL     1      25.894   3.842  41.146  1.00  0.00     0.021 A 
ATOM     13  C   UNL     1      25.773   3.501  39.789  1.00  0.00     0.016 A 
ATOM     14  C   UNL     1      24.534   3.144  39.256  1.00  0.00     0.051 A 
ATOM     15  C   UNL     1      23.393   3.107  40.064  1.00  0.00     0.157 A 
ATOM     16  C   UNL     1      24.750   3.791  41.962  1.00  0.00     0.062 A 
ATOM     17  C   UNL     1      23.502   3.430  41.437  1.00  0.00     0.158 A 
BRANCH  15  18
ATOM     18  O   UNL     1      22.182   2.747  39.467  1.00  0.00    -0.504 OA
ATOM     19  H   UNL     1      21.301   2.699  39.960  1.00  0.00     0.293 HD
ENDBRANCH  15  18
BRANCH  17  20
ATOM     20  O   UNL     1      22.412   3.400  42.307  1.00  0.00    -0.504 OA
ATOM     21  H   UNL     1      21.711   2.673  42.311  1.00  0.00     0.293 HD
ENDBRANCH  17  20
ENDBRANCH   1  12
BRANCH   6  22
ATOM     22  O   UNL     1      31.590   5.246  44.279  1.00  0.00    -0.507 OA
ATOM     23  H   UNL     1      32.187   5.970  44.648  1.00  0.00     0.293 HD
ENDBRANCH   6  22
BRANCH   8  24
ATOM     24  O   UNL     1      32.676   5.546  39.611  1.00  0.00    -0.508 OA
ATOM     25  H   UNL     1      33.530   5.003  39.557  1.00  0.00     0.293 HD
ENDBRANCH   8  24
TORSDOF 5
ENDMDL
MODEL 7
REMARK VINA RESULT:    -5.670      1.736      7.244
REMARK INTER + INTRA:          -6.959
REMARK INTER:                  -6.641
REMARK INTRA:                  -0.317
REMARK UNBOUND:                -0.295
REMARK SMILES O=c1cc(-c2ccc(O)c(O)c2)oc2cc(O)cc(O)c12
REMARK SMILES IDX 4 1 3 2 2 3 1 4 21 5 19 6 18 7 16 8 15 9 14 10 13 11 5 12
REMARK SMILES IDX 6 13 7 14 8 15 12 16 10 17 9 18 11 20 20 22 17 24
REMARK H PARENT 9 19 11 21 20 23 17 25
REMARK Flexibility Score: inf
ROOT
ATOM      1  C   UNL     1      28.031   4.628  42.200  1.00  0.00     0.138 A 
ATOM      2  C   UNL     1      28.336   4.888  43.544  1.00  0.00     0.100 A 
ATOM      3  C   UNL     1      29.641   5.229  43.902  1.00  0.00     0.197 A 
ATOM      4  O   UNL     1      29.870   5.518  45.105  1.00  0.00    -0.289 OA
ATOM      5  C   UNL     1      30.652   5.278  42.913  1.00  0.00     0.107 A 
ATOM      6  C   UNL     1      32.024   5.574  43.168  1.00  0.00     0.134 A 
ATOM      7  C   UNL     1      32.912   5.709  42.093  1.00  0.00     0.093 A 
ATOM      8  C   UNL     1      32.490   5.498  40.778  1.00  0.00     0.123 A 
ATOM      9  C   UNL     1      31.164   5.157  40.523  1.00  0.00     0.094 A 
ATOM     10  C   UNL     1      30.246   5.048  41.571  1.00  0.00     0.146 A 
ATOM     11  O   UNL     1      28.987   4.734  41.284  1.00  0.00    -0.456 OA
ENDROOT
BRANCH   1  12
ATOM     12  C   UNL     1      26.660   4.259  41.765  1.00  0.00     0.021 A 
ATOM     13  C   UNL     1      25.678   3.993  42.732  1.00  0.00     0.016 A 
ATOM     14  C   UNL     1      24.380   3.652  42.349  1.00  0.00     0.051 A 
ATOM     15  C   UNL     1      24.030   3.579  40.997  1.00  0.00     0.157 A 
ATOM     16  C   UNL     1      26.305   4.200  40.405  1.00  0.00     0.062 A 
ATOM     17  C   UNL     1      25.004   3.862  40.011  1.00  0.00     0.158 A 
BRANCH  15  18
ATOM     18  O   UNL     1      22.716   3.226  40.681  1.00  0.00    -0.504 OA
ATOM     19  H   UNL     1      22.202   2.490  41.144  1.00  0.00     0.293 HD
ENDBRANCH  15  18
BRANCH  17  20
ATOM     20  O   UNL     1      24.725   3.825  38.644  1.00  0.00    -0.504 OA
ATOM     21  H   UNL     1      25.009   3.075  38.030  1.00  0.00     0.293 HD
ENDBRANCH  17  20
ENDBRANCH   1  12
BRANCH   6  22
ATOM     22  O   UNL     1      32.568   5.719  44.447  1.00  0.00    -0.507 OA
ATOM     23  H   UNL     1      33.072   5.001  44.944  1.00  0.00     0.293 HD
ENDBRANCH   6  22
BRANCH   8  24
ATOM     24  O   UNL     1      33.383   5.620  39.716  1.00  0.00    -0.508 OA
ATOM     25  H   UNL     1      33.585   6.518  39.293  1.00  0.00     0.293 HD
ENDBRANCH   8  24
TORSDOF 5
ENDMDL
MODEL 8
REMARK VINA RESULT:    -5.652      4.600      7.598
REMARK INTER + INTRA:          -6.938
REMARK INTER:                  -6.647
REMARK INTRA:                  -0.291
REMARK UNBOUND:                -0.295
REMARK SMILES O=c1cc(-c2ccc(O)c(O)c2)oc2cc(O)cc(O)c12
REMARK SMILES IDX 4 1 3 2 2 3 1 4 21 5 19 6 18 7 16 8 15 9 14 10 13 11 5 12
REMARK SMILES IDX 6 13 7 14 8 15 12 16 10 17 9 18 11 20 20 22 17 24
REMARK H PARENT 9 19 11 21 20 23 17 25
REMARK Flexibility Score: inf
ROOT
ATOM      1  C   UNL     1      30.989   5.706  44.185  1.00  0.00     0.138 A 
ATOM      2  C   UNL     1      32.195   6.346  43.868  1.00  0.00     0.100 A 
ATOM      3  C   UNL     1      32.619   6.400  42.539  1.00  0.00     0.197 A 
ATOM      4  O   UNL     1      33.673   7.036  42.278  1.00  0.00    -0.289 OA
ATOM      5  C   UNL     1      31.845   5.782  41.528  1.00  0.00     0.107 A 
ATOM      6  C   UNL     1      32.200   5.738  40.147  1.00  0.00     0.134 A 
ATOM      7  C   UNL     1      31.299   5.199  39.220  1.00  0.00     0.093 A 
ATOM      8  C   UNL     1      30.083   4.647  39.633  1.00  0.00     0.123 A 
ATOM      9  C   UNL     1      29.752   4.637  40.986  1.00  0.00     0.094 A 
ATOM     10  C   UNL     1      30.614   5.198  41.931  1.00  0.00     0.146 A 
ATOM     11  O   UNL     1      30.254   5.181  43.210  1.00  0.00    -0.456 OA
ENDROOT
BRANCH   1  12
ATOM     12  C   UNL     1      30.492   5.618  45.582  1.00  0.00     0.021 A 
ATOM     13  C   UNL     1      29.118   5.451  45.816  1.00  0.00     0.016 A 
ATOM     14  C   UNL     1      28.627   5.360  47.119  1.00  0.00     0.051 A 
ATOM     15  C   UNL     1      29.493   5.422  48.215  1.00  0.00     0.157 A 
ATOM     16  C   UNL     1      31.366   5.667  46.683  1.00  0.00     0.062 A 
ATOM     17  C   UNL     1      30.882   5.572  47.994  1.00  0.00     0.158 A 
BRANCH  15  18
ATOM     18  O   UNL     1      28.937   5.330  49.493  1.00  0.00    -0.504 OA
ATOM     19  H   UNL     1      28.047   5.731  49.752  1.00  0.00     0.293 HD
ENDBRANCH  15  18
BRANCH  17  20
ATOM     20  O   UNL     1      31.810   5.626  49.037  1.00  0.00    -0.504 OA
ATOM     21  H   UNL     1      32.763   5.941  48.929  1.00  0.00     0.293 HD
ENDBRANCH  17  20
ENDBRANCH   1  12
BRANCH   6  22
ATOM     22  O   UNL     1      33.424   6.184  39.639  1.00  0.00    -0.507 OA
ATOM     23  H   UNL     1      34.323   6.001  40.059  1.00  0.00     0.293 HD
ENDBRANCH   6  22
BRANCH   8  24
ATOM     24  O   UNL     1      29.199   4.100  38.706  1.00  0.00    -0.508 OA
ATOM     25  H   UNL     1      28.218   3.970  38.922  1.00  0.00     0.293 HD
ENDBRANCH   8  24
TORSDOF 5
ENDMDL
MODEL 9
REMARK VINA RESULT:    -5.571      9.580     12.637
REMARK INTER + INTRA:          -6.842
REMARK INTER:                  -6.564
REMARK INTRA:                  -0.278
REMARK UNBOUND:                -0.295
REMARK SMILES O=c1cc(-c2ccc(O)c(O)c2)oc2cc(O)cc(O)c12
REMARK SMILES IDX 4 1 3 2 2 3 1 4 21 5 19 6 18 7 16 8 15 9 14 10 13 11 5 12
REMARK SMILES IDX 6 13 7 14 8 15 12 16 10 17 9 18 11 20 20 22 17 24
REMARK H PARENT 9 19 11 21 20 23 17 25
REMARK Flexibility Score: inf
ROOT
ATOM      1  C   UNL     1      22.342  -4.001  47.718  1.00  0.00     0.138 A 
ATOM      2  C   UNL     1      22.758  -4.136  49.050  1.00  0.00     0.100 A 
ATOM      3  C   UNL     1      23.489  -3.112  49.653  1.00  0.00     0.197 A 
ATOM      4  O   UNL     1      23.794  -3.234  50.867  1.00  0.00    -0.289 OA
ATOM      5  C   UNL     1      23.832  -1.959  48.905  1.00  0.00     0.107 A 
ATOM      6  C   UNL     1      24.608  -0.870  49.403  1.00  0.00     0.134 A 
ATOM      7  C   UNL     1      24.785   0.270  48.608  1.00  0.00     0.093 A 
ATOM      8  C   UNL     1      24.266   0.334  47.313  1.00  0.00     0.123 A 
ATOM      9  C   UNL     1      23.551  -0.746  46.799  1.00  0.00     0.094 A 
ATOM     10  C   UNL     1      23.328  -1.883  47.579  1.00  0.00     0.146 A 
ATOM     11  O   UNL     1      22.630  -2.885  47.057  1.00  0.00    -0.456 OA
ENDROOT
BRANCH   1  12
ATOM     12  C   UNL     1      21.563  -5.061  47.029  1.00  0.00     0.021 A 
ATOM     13  C   UNL     1      20.314  -5.443  47.543  1.00  0.00     0.016 A 
ATOM     14  C   UNL     1      19.559  -6.433  46.911  1.00  0.00     0.051 A 
ATOM     15  C   UNL     1      20.027  -7.054  45.748  1.00  0.00     0.157 A 
ATOM     16  C   UNL     1      22.028  -5.675  45.852  1.00  0.00     0.062 A 
ATOM     17  C   UNL     1      21.276  -6.667  45.209  1.00  0.00     0.158 A 
BRANCH  15  18
ATOM     18  O   UNL     1      19.227  -8.040  45.168  1.00  0.00    -0.504 OA
ATOM     19  H   UNL     1      19.437  -9.028  45.196  1.00  0.00     0.293 HD
ENDBRANCH  15  18
BRANCH  17  20
ATOM     20  O   UNL     1      21.801  -7.230  44.044  1.00  0.00    -0.504 OA
ATOM     21  H   UNL     1      21.682  -8.197  43.781  1.00  0.00     0.293 HD
ENDBRANCH  17  20
ENDBRANCH   1  12
BRANCH   6  22
ATOM     22  O   UNL     1      25.243  -0.867  50.648  1.00  0.00    -0.507 OA
ATOM     23  H   UNL     1      26.079  -1.385  50.870  1.00  0.00     0.293 HD
ENDBRANCH   6  22
BRANCH   8  24
ATOM     24  O   UNL     1      24.459   1.466  46.524  1.00  0.00    -0.508 OA
ATOM     25  H   UNL     1      24.330   2.400  46.897  1.00  0.00     0.293 HD
ENDBRANCH   8  24
TORSDOF 5
ENDMDL
