MODEL 1
REMARK VINA RESULT:    -3.209      0.000      0.000
REMARK INTER + INTRA:          -3.490
REMARK INTER:                  -3.490
REMARK INTRA:                   0.000
REMARK UNBOUND:                 0.000
REMARK SMILES [NH3+]CC(=O)[O-]
REMARK SMILES IDX 2 1 1 2 3 6 4 7 5 8
REMARK H PARENT 1 3 1 4 1 5
REMARK Flexibility Score: inf
ROOT
ATOM      1  C   UNL     1      23.207   2.314   5.163  1.00  0.00     0.312 C 
ENDROOT
BRANCH   1   2
ATOM      2  N   UNL     1      24.548   1.863   5.529  1.00  0.00    -0.353 N 
ATOM      3  H   UNL     1      25.237   2.640   5.401  1.00  0.00     0.344 HD
ATOM      4  H   UNL     1      24.560   1.542   6.524  1.00  0.00     0.344 HD
ATOM      5  H   UNL     1      24.821   1.064   4.912  1.00  0.00     0.344 HD
ENDBRANCH   1   2
BRANCH   1   6
ATOM      6  C   UNL     1      22.485   1.255   4.389  1.00  0.00     0.096 C 
ATOM      7  O   UNL     1      21.418   0.760   4.837  1.00  0.00    -0.544 OA
ATOM      8  O   UNL     1      23.019   0.778   3.199  1.00  0.00    -0.544 OA
ENDBRANCH   1   6
TORSDOF 2
ENDMDL
MODEL 2
REMARK VINA RESULT:    -3.199     15.606     16.083
REMARK INTER + INTRA:          -3.479
REMARK INTER:                  -3.479
REMARK INTRA:                   0.000
REMARK UNBOUND:                 0.000
REMARK SMILES [NH3+]CC(=O)[O-]
REMARK SMILES IDX 2 1 1 2 3 6 4 7 5 8
REMARK H PARENT 1 3 1 4 1 5
REMARK Flexibility Score: inf
ROOT
ATOM      1  C   UNL     1      23.355  -0.057  20.133  1.00  0.00     0.312 C 
ENDROOT
BRANCH   1   2
ATOM      2  N   UNL     1      24.625   0.477  19.646  1.00  0.00    -0.353 N 
ATOM      3  H   UNL     1      24.631   1.521  19.727  1.00  0.00     0.344 HD
ATOM      4  H   UNL     1      25.418   0.077  20.198  1.00  0.00     0.344 HD
ATOM      5  H   UNL     1      24.745   0.215  18.641  1.00  0.00     0.344 HD
ENDBRANCH   1   2
BRANCH   1   6
ATOM      6  C   UNL     1      22.572   1.005  20.842  1.00  0.00     0.096 C 
ATOM      7  O   UNL     1      22.983   1.469  21.937  1.00  0.00    -0.544 OA
ATOM      8  O   UNL     1      21.363   1.444  20.318  1.00  0.00    -0.544 OA
ENDBRANCH   1   6
TORSDOF 2
ENDMDL
MODEL 3
REMARK VINA RESULT:    -2.951      2.575      2.587
REMARK INTER + INTRA:          -3.210
REMARK INTER:                  -3.210
REMARK INTRA:                   0.000
REMARK UNBOUND:                 0.000
REMARK SMILES [NH3+]CC(=O)[O-]
REMARK SMILES IDX 2 1 1 2 3 6 4 7 5 8
REMARK H PARENT 1 3 1 4 1 5
REMARK Flexibility Score: inf
ROOT
ATOM      1  C   UNL     1      21.468   1.123   4.942  1.00  0.00     0.312 C 
ENDROOT
BRANCH   1   2
ATOM      2  N   UNL     1      20.207   0.387   5.000  1.00  0.00    -0.353 N 
ATOM      3  H   UNL     1      19.510   0.815   4.347  1.00  0.00     0.344 HD
ATOM      4  H   UNL     1      20.364  -0.614   4.740  1.00  0.00     0.344 HD
ATOM      5  H   UNL     1      19.829   0.429   5.974  1.00  0.00     0.344 HD
ENDBRANCH   1   2
BRANCH   1   6
ATOM      6  C   UNL     1      21.796   1.501   3.531  1.00  0.00     0.096 C 
ATOM      7  O   UNL     1      21.066   2.314   2.907  1.00  0.00    -0.544 OA
ATOM      8  O   UNL     1      22.879   0.914   2.888  1.00  0.00    -0.544 OA
ENDBRANCH   1   6
TORSDOF 2
ENDMDL
MODEL 4
REMARK VINA RESULT:    -2.939     16.751     17.070
REMARK INTER + INTRA:          -3.196
REMARK INTER:                  -3.196
REMARK INTRA:                   0.000
REMARK UNBOUND:                 0.000
REMARK SMILES [NH3+]CC(=O)[O-]
REMARK SMILES IDX 2 1 1 2 3 6 4 7 5 8
REMARK H PARENT 1 3 1 4 1 5
REMARK Flexibility Score: inf
ROOT
ATOM      1  C   UNL     1      21.727   0.954  20.352  1.00  0.00     0.312 C 
ENDROOT
BRANCH   1   2
ATOM      2  N   UNL     1      20.428   1.555  20.056  1.00  0.00    -0.353 N 
ATOM      3  H   UNL     1      20.437   2.572  20.305  1.00  0.00     0.344 HD
ATOM      4  H   UNL     1      20.204   1.443  19.040  1.00  0.00     0.344 HD
ATOM      5  H   UNL     1      19.691   1.074  20.621  1.00  0.00     0.344 HD
ENDBRANCH   1   2
BRANCH   1   6
ATOM      6  C   UNL     1      21.905   0.780  21.828  1.00  0.00     0.096 C 
ATOM      7  O   UNL     1      22.689   1.532  22.464  1.00  0.00    -0.544 OA
ATOM      8  O   UNL     1      21.243  -0.245  22.492  1.00  0.00    -0.544 OA
ENDBRANCH   1   6
TORSDOF 2
ENDMDL
MODEL 5
REMARK VINA RESULT:    -2.912     16.496     16.865
REMARK INTER + INTRA:          -3.167
REMARK INTER:                  -3.167
REMARK INTRA:                   0.000
REMARK UNBOUND:                 0.000
REMARK SMILES [NH3+]CC(=O)[O-]
REMARK SMILES IDX 2 1 1 2 3 6 4 7 5 8
REMARK H PARENT 1 3 1 4 1 5
REMARK Flexibility Score: inf
ROOT
ATOM      1  C   UNL     1      22.624   1.440  22.482  1.00  0.00     0.312 C 
ENDROOT
BRANCH   1   2
ATOM      2  N   UNL     1      23.842   2.152  22.863  1.00  0.00    -0.353 N 
ATOM      3  H   UNL     1      23.609   3.130  23.158  1.00  0.00     0.344 HD
ATOM      4  H   UNL     1      24.319   1.652  23.648  1.00  0.00     0.344 HD
ATOM      5  H   UNL     1      24.488   2.190  22.043  1.00  0.00     0.344 HD
ENDBRANCH   1   2
BRANCH   1   6
ATOM      6  C   UNL     1      22.647   1.097  21.024  1.00  0.00     0.096 C 
ATOM      7  O   UNL     1      23.670   0.571  20.514  1.00  0.00    -0.544 OA
ATOM      8  O   UNL     1      21.557   1.404  20.221  1.00  0.00    -0.544 OA
ENDBRANCH   1   6
TORSDOF 2
ENDMDL
MODEL 6
REMARK VINA RESULT:    -2.893     16.576     17.016
REMARK INTER + INTRA:          -3.146
REMARK INTER:                  -3.146
REMARK INTRA:                   0.000
REMARK UNBOUND:                 0.000
REMARK SMILES [NH3+]CC(=O)[O-]
REMARK SMILES IDX 2 1 1 2 3 6 4 7 5 8
REMARK H PARENT 1 3 1 4 1 5
REMARK Flexibility Score: inf
ROOT
ATOM      1  C   UNL     1      21.703   0.886  22.540  1.00  0.00     0.312 C 
ENDROOT
BRANCH   1   2
ATOM      2  N   UNL     1      20.533   0.010  22.560  1.00  0.00    -0.353 N 
ATOM      3  H   UNL     1      19.797   0.379  21.913  1.00  0.00     0.344 HD
ATOM      4  H   UNL     1      20.804  -0.958  22.271  1.00  0.00     0.344 HD
ATOM      5  H   UNL     1      20.146  -0.022  23.531  1.00  0.00     0.344 HD
ENDBRANCH   1   2
BRANCH   1   6
ATOM      6  C   UNL     1      22.162   1.122  21.134  1.00  0.00     0.096 C 
ATOM      7  O   UNL     1      23.386   1.053  20.848  1.00  0.00    -0.544 OA
ATOM      8  O   UNL     1      21.244   1.469  20.152  1.00  0.00    -0.544 OA
ENDBRANCH   1   6
TORSDOF 2
ENDMDL
MODEL 7
REMARK VINA RESULT:    -2.833      2.069      2.266
REMARK INTER + INTRA:          -3.081
REMARK INTER:                  -3.081
REMARK INTRA:                   0.000
REMARK UNBOUND:                 0.000
REMARK SMILES [NH3+]CC(=O)[O-]
REMARK SMILES IDX 2 1 1 2 3 6 4 7 5 8
REMARK H PARENT 1 3 1 4 1 5
REMARK Flexibility Score: inf
ROOT
ATOM      1  C   UNL     1      22.882   1.011   3.824  1.00  0.00     0.312 C 
ENDROOT
BRANCH   1   2
ATOM      2  N   UNL     1      24.027   0.745   2.957  1.00  0.00    -0.353 N 
ATOM      3  H   UNL     1      24.719   1.528   3.025  1.00  0.00     0.344 HD
ATOM      4  H   UNL     1      24.485  -0.154   3.231  1.00  0.00     0.344 HD
ATOM      5  H   UNL     1      23.698   0.670   1.967  1.00  0.00     0.344 HD
ENDBRANCH   1   2
BRANCH   1   6
ATOM      6  C   UNL     1      23.232   2.028   4.866  1.00  0.00     0.096 C 
ATOM      7  O   UNL     1      22.423   2.288   5.794  1.00  0.00    -0.544 OA
ATOM      8  O   UNL     1      24.431   2.725   4.782  1.00  0.00    -0.544 OA
ENDBRANCH   1   6
TORSDOF 2
ENDMDL
MODEL 8
REMARK VINA RESULT:    -2.815     20.735     21.087
REMARK INTER + INTRA:          -3.062
REMARK INTER:                  -3.062
REMARK INTRA:                   0.000
REMARK UNBOUND:                 0.000
REMARK SMILES [NH3+]CC(=O)[O-]
REMARK SMILES IDX 2 1 1 2 3 6 4 7 5 8
REMARK H PARENT 1 3 1 4 1 5
REMARK Flexibility Score: inf
ROOT
ATOM      1  C   UNL     1      34.994   7.162  20.196  1.00  0.00     0.312 C 
ENDROOT
BRANCH   1   2
ATOM      2  N   UNL     1      34.078   6.064  20.501  1.00  0.00    -0.353 N 
ATOM      3  H   UNL     1      34.615   5.178  20.651  1.00  0.00     0.344 HD
ATOM      4  H   UNL     1      33.521   6.288  21.358  1.00  0.00     0.344 HD
ATOM      5  H   UNL     1      33.423   5.931  19.697  1.00  0.00     0.344 HD
ENDBRANCH   1   2
BRANCH   1   6
ATOM      6  C   UNL     1      34.610   8.396  20.953  1.00  0.00     0.096 C 
ATOM      7  O   UNL     1      35.214   8.700  22.014  1.00  0.00    -0.544 OA
ATOM      8  O   UNL     1      33.553   9.181  20.512  1.00  0.00    -0.544 OA
ENDBRANCH   1   6
TORSDOF 2
ENDMDL
MODEL 9
REMARK VINA RESULT:    -2.763     18.185     18.416
REMARK INTER + INTRA:          -3.005
REMARK INTER:                  -3.005
REMARK INTRA:                   0.000
REMARK UNBOUND:                 0.000
REMARK SMILES [NH3+]CC(=O)[O-]
REMARK SMILES IDX 2 1 1 2 3 6 4 7 5 8
REMARK H PARENT 1 3 1 4 1 5
REMARK Flexibility Score: inf
ROOT
ATOM      1  C   UNL     1      36.657  -9.771   5.502  1.00  0.00     0.312 C 
ENDROOT
BRANCH   1   2
ATOM      2  N   UNL     1      35.540  -9.807   6.444  1.00  0.00    -0.353 N 
ATOM      3  H   UNL     1      34.647  -9.570   5.952  1.00  0.00     0.344 HD
ATOM      4  H   UNL     1      35.463 -10.757   6.875  1.00  0.00     0.344 HD
ATOM      5  H   UNL     1      35.706  -9.104   7.200  1.00  0.00     0.344 HD
ENDBRANCH   1   2
BRANCH   1   6
ATOM      6  C   UNL     1      37.948  -9.529   6.222  1.00  0.00     0.096 C 
ATOM      7  O   UNL     1      37.963  -9.428   7.476  1.00  0.00    -0.544 OA
ATOM      8  O   UNL     1      39.125  -9.366   5.503  1.00  0.00    -0.544 OA
ENDBRANCH   1   6
TORSDOF 2
ENDMDL
