MODEL 1
REMARK VINA RESULT:    -5.121      0.000      0.000
REMARK INTER + INTRA:          -5.515
REMARK INTER:                  -5.421
REMARK INTRA:                  -0.094
REMARK UNBOUND:                -0.094
REMARK SMILES C=C(C)[C@H]1CC=C(C)C(=O)C1
REMARK SMILES IDX 8 1 7 2 6 3 5 4 4 5 11 6 9 7 10 8 2 9 1 10 3 11
REMARK H PARENT
REMARK Flexibility Score: inf
ROOT
ATOM      1  C   UNL     1      -1.293 -15.927  -5.372  1.00  0.00     0.048 C 
ATOM      2  C   UNL     1      -2.278 -15.078  -6.126  1.00  0.00    -0.012 C 
ATOM      3  C   UNL     1      -1.874 -14.377  -7.199  1.00  0.00    -0.019 C 
ATOM      4  C   UNL     1      -2.815 -13.498  -7.980  1.00  0.00     0.036 C 
ATOM      5  C   UNL     1      -4.244 -14.073  -7.975  1.00  0.00     0.025 C 
ATOM      6  C   UNL     1      -4.723 -14.301  -6.529  1.00  0.00     0.089 C 
ATOM      7  C   UNL     1      -3.716 -15.113  -5.760  1.00  0.00     0.158 C 
ATOM      8  O   UNL     1      -4.104 -15.799  -4.777  1.00  0.00    -0.295 OA
ENDROOT
BRANCH   5   9
ATOM      9  C   UNL     1      -5.209 -13.188  -8.753  1.00  0.00    -0.077 C 
ATOM     10  C   UNL     1      -6.423 -13.631  -9.122  1.00  0.00     0.008 C 
ATOM     11  C   UNL     1      -4.812 -11.783  -9.124  1.00  0.00     0.039 C 
ENDBRANCH   5   9
TORSDOF 1
ENDMDL
MODEL 2
REMARK VINA RESULT:    -4.835      1.583      2.495
REMARK INTER + INTRA:          -5.212
REMARK INTER:                  -5.114
REMARK INTRA:                  -0.097
REMARK UNBOUND:                -0.094
REMARK SMILES C=C(C)[C@H]1CC=C(C)C(=O)C1
REMARK SMILES IDX 8 1 7 2 6 3 5 4 4 5 11 6 9 7 10 8 2 9 1 10 3 11
REMARK H PARENT
REMARK Flexibility Score: inf
ROOT
ATOM      1  C   UNL     1      -3.742 -17.352  -5.755  1.00  0.00     0.048 C 
ATOM      2  C   UNL     1      -3.639 -16.033  -6.470  1.00  0.00    -0.012 C 
ATOM      3  C   UNL     1      -4.678 -15.583  -7.194  1.00  0.00    -0.019 C 
ATOM      4  C   UNL     1      -4.623 -14.279  -7.945  1.00  0.00     0.036 C 
ATOM      5  C   UNL     1      -3.740 -13.252  -7.209  1.00  0.00     0.025 C 
ATOM      6  C   UNL     1      -2.339 -13.838  -6.953  1.00  0.00     0.089 C 
ATOM      7  C   UNL     1      -2.442 -15.178  -6.276  1.00  0.00     0.158 C 
ATOM      8  O   UNL     1      -1.481 -15.582  -5.568  1.00  0.00    -0.295 OA
ENDROOT
BRANCH   5   9
ATOM      9  C   UNL     1      -3.667 -11.931  -7.963  1.00  0.00    -0.077 C 
ATOM     10  C   UNL     1      -2.788 -10.975  -7.616  1.00  0.00     0.008 C 
ATOM     11  C   UNL     1      -4.591 -11.673  -9.125  1.00  0.00     0.039 C 
ENDBRANCH   5   9
TORSDOF 1
ENDMDL
MODEL 3
REMARK VINA RESULT:    -4.674      1.857      4.405
REMARK INTER + INTRA:          -5.041
REMARK INTER:                  -4.946
REMARK INTRA:                  -0.096
REMARK UNBOUND:                -0.094
REMARK SMILES C=C(C)[C@H]1CC=C(C)C(=O)C1
REMARK SMILES IDX 8 1 7 2 6 3 5 4 4 5 11 6 9 7 10 8 2 9 1 10 3 11
REMARK H PARENT
REMARK Flexibility Score: inf
ROOT
ATOM      1  C   UNL     1      -4.758 -11.380  -9.107  1.00  0.00     0.048 C 
ATOM      2  C   UNL     1      -4.200 -12.605  -8.436  1.00  0.00    -0.012 C 
ATOM      3  C   UNL     1      -3.072 -12.514  -7.709  1.00  0.00    -0.019 C 
ATOM      4  C   UNL     1      -2.461 -13.711  -7.031  1.00  0.00     0.036 C 
ATOM      5  C   UNL     1      -3.546 -14.709  -6.582  1.00  0.00     0.025 C 
ATOM      6  C   UNL     1      -4.435 -15.105  -7.775  1.00  0.00     0.089 C 
ATOM      7  C   UNL     1      -4.959 -13.880  -8.474  1.00  0.00     0.158 C 
ATOM      8  O   UNL     1      -6.034 -13.958  -9.125  1.00  0.00    -0.295 OA
ENDROOT
BRANCH   5   9
ATOM      9  C   UNL     1      -2.941 -15.930  -5.903  1.00  0.00    -0.077 C 
ATOM     10  C   UNL     1      -1.692 -15.908  -5.406  1.00  0.00     0.008 C 
ATOM     11  C   UNL     1      -3.744 -17.199  -5.776  1.00  0.00     0.039 C 
ENDBRANCH   5   9
TORSDOF 1
ENDMDL
MODEL 4
REMARK VINA RESULT:    -4.667      1.983      4.586
REMARK INTER + INTRA:          -5.034
REMARK INTER:                  -4.936
REMARK INTRA:                  -0.098
REMARK UNBOUND:                -0.094
REMARK SMILES C=C(C)[C@H]1CC=C(C)C(=O)C1
REMARK SMILES IDX 8 1 7 2 6 3 5 4 4 5 11 6 9 7 10 8 2 9 1 10 3 11
REMARK H PARENT
REMARK Flexibility Score: inf
ROOT
ATOM      1  C   UNL     1      -4.894 -11.445  -9.085  1.00  0.00     0.048 C 
ATOM      2  C   UNL     1      -4.440 -12.543  -8.162  1.00  0.00    -0.012 C 
ATOM      3  C   UNL     1      -5.049 -13.741  -8.198  1.00  0.00    -0.019 C 
ATOM      4  C   UNL     1      -4.647 -14.868  -7.285  1.00  0.00     0.036 C 
ATOM      5  C   UNL     1      -3.138 -14.820  -6.974  1.00  0.00     0.025 C 
ATOM      6  C   UNL     1      -2.754 -13.441  -6.404  1.00  0.00     0.089 C 
ATOM      7  C   UNL     1      -3.246 -12.341  -7.305  1.00  0.00     0.158 C 
ATOM      8  O   UNL     1      -2.651 -11.230  -7.297  1.00  0.00    -0.295 OA
ENDROOT
BRANCH   5   9
ATOM      9  C   UNL     1      -2.720 -15.949  -6.042  1.00  0.00    -0.077 C 
ATOM     10  C   UNL     1      -1.546 -15.917  -5.387  1.00  0.00     0.008 C 
ATOM     11  C   UNL     1      -3.627 -17.134  -5.838  1.00  0.00     0.039 C 
ENDBRANCH   5   9
TORSDOF 1
ENDMDL
MODEL 5
REMARK VINA RESULT:    -4.545      1.395      2.264
REMARK INTER + INTRA:          -4.905
REMARK INTER:                  -4.810
REMARK INTRA:                  -0.095
REMARK UNBOUND:                -0.094
REMARK SMILES C=C(C)[C@H]1CC=C(C)C(=O)C1
REMARK SMILES IDX 8 1 7 2 6 3 5 4 4 5 11 6 9 7 10 8 2 9 1 10 3 11
REMARK H PARENT
REMARK Flexibility Score: inf
ROOT
ATOM      1  C   UNL     1      -1.693 -16.310  -5.019  1.00  0.00     0.048 C 
ATOM      2  C   UNL     1      -2.542 -15.593  -6.033  1.00  0.00    -0.012 C 
ATOM      3  C   UNL     1      -3.862 -15.835  -6.091  1.00  0.00    -0.019 C 
ATOM      4  C   UNL     1      -4.755 -15.159  -7.097  1.00  0.00     0.036 C 
ATOM      5  C   UNL     1      -4.254 -13.736  -7.416  1.00  0.00     0.025 C 
ATOM      6  C   UNL     1      -2.784 -13.778  -7.874  1.00  0.00     0.089 C 
ATOM      7  C   UNL     1      -1.942 -14.533  -6.881  1.00  0.00     0.158 C 
ATOM      8  O   UNL     1      -0.711 -14.279  -6.803  1.00  0.00    -0.295 OA
ENDROOT
BRANCH   5   9
ATOM      9  C   UNL     1      -5.142 -13.045  -8.441  1.00  0.00    -0.077 C 
ATOM     10  C   UNL     1      -4.966 -11.750  -8.760  1.00  0.00     0.008 C 
ATOM     11  C   UNL     1      -6.245 -13.811  -9.124  1.00  0.00     0.039 C 
ENDBRANCH   5   9
TORSDOF 1
ENDMDL
MODEL 6
REMARK VINA RESULT:    -4.498      1.427      1.967
REMARK INTER + INTRA:          -4.855
REMARK INTER:                  -4.760
REMARK INTRA:                  -0.095
REMARK UNBOUND:                -0.094
REMARK SMILES C=C(C)[C@H]1CC=C(C)C(=O)C1
REMARK SMILES IDX 8 1 7 2 6 3 5 4 4 5 11 6 9 7 10 8 2 9 1 10 3 11
REMARK H PARENT
REMARK Flexibility Score: inf
ROOT
ATOM      1  C   UNL     1      -3.368 -17.208  -5.749  1.00  0.00     0.048 C 
ATOM      2  C   UNL     1      -3.416 -15.772  -6.192  1.00  0.00    -0.012 C 
ATOM      3  C   UNL     1      -2.330 -15.205  -6.744  1.00  0.00    -0.019 C 
ATOM      4  C   UNL     1      -2.318 -13.767  -7.189  1.00  0.00     0.036 C 
ATOM      5  C   UNL     1      -3.708 -13.328  -7.688  1.00  0.00     0.025 C 
ATOM      6  C   UNL     1      -4.772 -13.597  -6.607  1.00  0.00     0.089 C 
ATOM      7  C   UNL     1      -4.696 -15.022  -6.132  1.00  0.00     0.158 C 
ATOM      8  O   UNL     1      -5.726 -15.563  -5.648  1.00  0.00    -0.295 OA
ENDROOT
BRANCH   5   9
ATOM      9  C   UNL     1      -3.713 -11.872  -8.131  1.00  0.00    -0.077 C 
ATOM     10  C   UNL     1      -2.815 -10.992  -7.655  1.00  0.00     0.008 C 
ATOM     11  C   UNL     1      -4.738 -11.388  -9.123  1.00  0.00     0.039 C 
ENDBRANCH   5   9
TORSDOF 1
ENDMDL
MODEL 7
REMARK VINA RESULT:    -4.184      1.537      4.280
REMARK INTER + INTRA:          -4.523
REMARK INTER:                  -4.428
REMARK INTRA:                  -0.095
REMARK UNBOUND:                -0.094
REMARK SMILES C=C(C)[C@H]1CC=C(C)C(=O)C1
REMARK SMILES IDX 8 1 7 2 6 3 5 4 4 5 11 6 9 7 10 8 2 9 1 10 3 11
REMARK H PARENT
REMARK Flexibility Score: inf
ROOT
ATOM      1  C   UNL     1      -5.292 -11.733  -8.766  1.00  0.00     0.048 C 
ATOM      2  C   UNL     1      -4.366 -12.722  -8.114  1.00  0.00    -0.012 C 
ATOM      3  C   UNL     1      -3.183 -13.007  -8.686  1.00  0.00    -0.019 C 
ATOM      4  C   UNL     1      -2.225 -14.002  -8.086  1.00  0.00     0.036 C 
ATOM      5  C   UNL     1      -2.317 -14.002  -6.547  1.00  0.00     0.025 C 
ATOM      6  C   UNL     1      -3.770 -14.247  -6.099  1.00  0.00     0.089 C 
ATOM      7  C   UNL     1      -4.704 -13.286  -6.784  1.00  0.00     0.158 C 
ATOM      8  O   UNL     1      -5.796 -12.992  -6.229  1.00  0.00    -0.295 OA
ENDROOT
BRANCH   5   9
ATOM      9  C   UNL     1      -1.361 -15.012  -5.927  1.00  0.00    -0.077 C 
ATOM     10  C   UNL     1      -1.801 -16.183  -5.434  1.00  0.00     0.008 C 
ATOM     11  C   UNL     1       0.114 -14.711  -5.857  1.00  0.00     0.039 C 
ENDBRANCH   5   9
TORSDOF 1
ENDMDL
MODEL 8
REMARK VINA RESULT:    -2.981      1.890      4.884
REMARK INTER + INTRA:          -3.250
REMARK INTER:                  -3.154
REMARK INTRA:                  -0.096
REMARK UNBOUND:                -0.094
REMARK SMILES C=C(C)[C@H]1CC=C(C)C(=O)C1
REMARK SMILES IDX 8 1 7 2 6 3 5 4 4 5 11 6 9 7 10 8 2 9 1 10 3 11
REMARK H PARENT
REMARK Flexibility Score: inf
ROOT
ATOM      1  C   UNL     1      -5.192 -14.985  -7.081  1.00  0.00     0.048 C 
ATOM      2  C   UNL     1      -3.753 -15.190  -6.693  1.00  0.00    -0.012 C 
ATOM      3  C   UNL     1      -2.840 -14.249  -6.990  1.00  0.00    -0.019 C 
ATOM      4  C   UNL     1      -1.384 -14.411  -6.641  1.00  0.00     0.036 C 
ATOM      5  C   UNL     1      -1.212 -15.216  -5.339  1.00  0.00     0.025 C 
ATOM      6  C   UNL     1      -1.941 -16.569  -5.447  1.00  0.00     0.089 C 
ATOM      7  C   UNL     1      -3.368 -16.368  -5.877  1.00  0.00     0.158 C 
ATOM      8  O   UNL     1      -4.230 -17.233  -5.567  1.00  0.00    -0.295 OA
ENDROOT
BRANCH   5   9
ATOM      9  C   UNL     1       0.256 -15.397  -4.979  1.00  0.00    -0.077 C 
ATOM     10  C   UNL     1       1.215 -14.653  -5.557  1.00  0.00     0.008 C 
ATOM     11  C   UNL     1       0.662 -16.426  -3.956  1.00  0.00     0.039 C 
ENDBRANCH   5   9
TORSDOF 1
ENDMDL
