MODEL 1
REMARK VINA RESULT:    -6.663      0.000      0.000
REMARK INTER + INTRA:         -10.058
REMARK INTER:                  -9.000
REMARK INTRA:                  -1.058
REMARK UNBOUND:                -1.058
REMARK SMILES O=c1c(-c2ccc(O)cc2)coc2c([C@@H]3O[C@H](CO)[C@H](O)[C@@H](O)[C@H]3O)c(O)ccc12
REMARK SMILES IDX 3 1 11 2 12 3 13 4 30 5 2 6 1 7 29 8 28 9 26 10 14 11 4 12
REMARK SMILES IDX 5 13 6 14 7 15 10 16 9 17 8 18 15 20 24 21 16 22 22 23 17 24
REMARK SMILES IDX 20 25 25 26 23 28 18 30 19 31 21 33 27 35
REMARK H PARENT 8 19 25 27 23 29 19 32 21 34 27 36
REMARK Flexibility Score: inf
ROOT
ATOM      1  C   UNL     1      18.951  -2.020 -17.615  1.00  0.00     0.065 A 
ATOM      2  C   UNL     1      18.871  -3.396 -17.867  1.00  0.00     0.208 A 
ATOM      3  O   UNL     1      18.254  -4.210 -17.019  1.00  0.00    -0.463 OA
ATOM      4  C   UNL     1      17.680  -3.791 -15.894  1.00  0.00     0.147 A 
ATOM      5  C   UNL     1      17.721  -2.418 -15.556  1.00  0.00     0.066 A 
ATOM      6  C   UNL     1      18.370  -1.528 -16.432  1.00  0.00     0.200 A 
ATOM      7  O   UNL     1      18.450  -0.301 -16.147  1.00  0.00    -0.288 OA
ATOM      8  C   UNL     1      17.132  -1.980 -14.361  1.00  0.00     0.020 A 
ATOM      9  C   UNL     1      16.516  -2.892 -13.506  1.00  0.00     0.047 A 
ATOM     10  C   UNL     1      16.470  -4.253 -13.829  1.00  0.00     0.125 A 
ATOM     11  C   UNL     1      17.036  -4.717 -15.039  1.00  0.00     0.069 A 
ENDROOT
BRANCH   1  12
ATOM     12  C   UNL     1      19.638  -1.128 -18.583  1.00  0.00    -0.011 A 
ATOM     13  C   UNL     1      19.134  -0.957 -19.884  1.00  0.00     0.013 A 
ATOM     14  C   UNL     1      19.791  -0.123 -20.793  1.00  0.00     0.047 A 
ATOM     15  C   UNL     1      20.962   0.547 -20.415  1.00  0.00     0.115 A 
ATOM     16  C   UNL     1      20.818  -0.458 -18.213  1.00  0.00     0.013 A 
ATOM     17  C   UNL     1      21.473   0.376 -19.124  1.00  0.00     0.047 A 
BRANCH  15  18
ATOM     18  O   UNL     1      21.625   1.382 -21.313  1.00  0.00    -0.508 OA
ATOM     19  H   UNL     1      22.284   1.015 -21.989  1.00  0.00     0.293 HD
ENDBRANCH  15  18
ENDBRANCH   1  12
BRANCH  11  20
ATOM     20  C   UNL     1      17.011  -6.199 -15.388  1.00  0.00     0.188 C 
ATOM     21  C   UNL     1      18.174  -6.933 -14.679  1.00  0.00     0.179 C 
ATOM     22  O   UNL     1      15.758  -6.748 -15.007  1.00  0.00    -0.362 OA
ATOM     23  C   UNL     1      18.111  -8.447 -14.972  1.00  0.00     0.177 C 
ATOM     24  C   UNL     1      15.640  -8.092 -15.442  1.00  0.00     0.176 C 
ATOM     25  C   UNL     1      16.688  -8.992 -14.734  1.00  0.00     0.177 C 
BRANCH  21  26
ATOM     26  O   UNL     1      19.402  -6.404 -15.114  1.00  0.00    -0.387 OA
ATOM     27  H   UNL     1      19.244  -5.446 -15.320  1.00  0.00     0.211 HD
ENDBRANCH  21  26
BRANCH  23  28
ATOM     28  O   UNL     1      18.479  -8.700 -16.306  1.00  0.00    -0.387 OA
ATOM     29  H   UNL     1      19.188  -9.395 -16.286  1.00  0.00     0.211 HD
ENDBRANCH  23  28
BRANCH  24  30
ATOM     30  C   UNL     1      14.208  -8.569 -15.175  1.00  0.00     0.191 C 
BRANCH  30  31
ATOM     31  O   UNL     1      13.738  -8.039 -13.966  1.00  0.00    -0.394 OA
ATOM     32  H   UNL     1      13.929  -8.723 -13.273  1.00  0.00     0.210 HD
ENDBRANCH  30  31
ENDBRANCH  24  30
BRANCH  25  33
ATOM     33  O   UNL     1      16.427  -9.124 -13.357  1.00  0.00    -0.388 OA
ATOM     34  H   UNL     1      17.255  -9.441 -12.912  1.00  0.00     0.211 HD
ENDBRANCH  25  33
ENDBRANCH  11  20
BRANCH  10  35
ATOM     35  O   UNL     1      15.866  -5.147 -12.944  1.00  0.00    -0.507 OA
ATOM     36  H   UNL     1      15.785  -6.134 -13.156  1.00  0.00     0.293 HD
ENDBRANCH  10  35
TORSDOF 9
ENDMDL
MODEL 2
REMARK VINA RESULT:    -6.435      4.976     10.938
REMARK INTER + INTRA:          -9.750
REMARK INTER:                  -8.565
REMARK INTRA:                  -1.186
REMARK UNBOUND:                -1.058
REMARK SMILES O=c1c(-c2ccc(O)cc2)coc2c([C@@H]3O[C@H](CO)[C@H](O)[C@@H](O)[C@H]3O)c(O)ccc12
REMARK SMILES IDX 3 1 11 2 12 3 13 4 30 5 2 6 1 7 29 8 28 9 26 10 14 11 4 12
REMARK SMILES IDX 5 13 6 14 7 15 10 16 9 17 8 18 15 20 24 21 16 22 22 23 17 24
REMARK SMILES IDX 20 25 25 26 23 28 18 30 19 31 21 33 27 35
REMARK H PARENT 8 19 25 27 23 29 19 32 21 34 27 36
REMARK Flexibility Score: inf
ROOT
ATOM      1  C   UNL     1      11.642  -7.077 -10.219  1.00  0.00     0.065 A 
ATOM      2  C   UNL     1      12.075  -5.767  -9.970  1.00  0.00     0.208 A 
ATOM      3  O   UNL     1      13.122  -5.261 -10.611  1.00  0.00    -0.463 OA
ATOM      4  C   UNL     1      13.821  -5.942 -11.515  1.00  0.00     0.147 A 
ATOM      5  C   UNL     1      13.460  -7.275 -11.821  1.00  0.00     0.066 A 
ATOM      6  C   UNL     1      12.357  -7.843 -11.157  1.00  0.00     0.200 A 
ATOM      7  O   UNL     1      12.025  -9.039 -11.386  1.00  0.00    -0.288 OA
ATOM      8  C   UNL     1      14.210  -7.998 -12.760  1.00  0.00     0.020 A 
ATOM      9  C   UNL     1      15.309  -7.412 -13.384  1.00  0.00     0.047 A 
ATOM     10  C   UNL     1      15.677  -6.094 -13.088  1.00  0.00     0.125 A 
ATOM     11  C   UNL     1      14.924  -5.335 -12.162  1.00  0.00     0.069 A 
ENDROOT
BRANCH   1  12
ATOM     12  C   UNL     1      10.464  -7.618  -9.497  1.00  0.00    -0.011 A 
ATOM     13  C   UNL     1       9.230  -7.775 -10.152  1.00  0.00     0.013 A 
ATOM     14  C   UNL     1       8.122  -8.276  -9.464  1.00  0.00     0.047 A 
ATOM     15  C   UNL     1       8.231  -8.623  -8.110  1.00  0.00     0.115 A 
ATOM     16  C   UNL     1      10.563  -7.962  -8.136  1.00  0.00     0.013 A 
ATOM     17  C   UNL     1       9.454  -8.464  -7.450  1.00  0.00     0.047 A 
BRANCH  15  18
ATOM     18  O   UNL     1       7.133  -9.125  -7.414  1.00  0.00    -0.508 OA
ATOM     19  H   UNL     1       6.748  -8.641  -6.612  1.00  0.00     0.293 HD
ENDBRANCH  15  18
ENDBRANCH   1  12
BRANCH  11  20
ATOM     20  C   UNL     1      15.330  -3.909 -11.817  1.00  0.00     0.188 C 
ATOM     21  C   UNL     1      16.502  -3.919 -10.806  1.00  0.00     0.179 C 
ATOM     22  O   UNL     1      15.693  -3.225 -13.007  1.00  0.00    -0.362 OA
ATOM     23  C   UNL     1      16.965  -2.476 -10.508  1.00  0.00     0.177 C 
ATOM     24  C   UNL     1      15.942  -1.854 -12.748  1.00  0.00     0.176 C 
ATOM     25  C   UNL     1      17.172  -1.686 -11.815  1.00  0.00     0.177 C 
BRANCH  21  26
ATOM     26  O   UNL     1      16.097  -4.555  -9.620  1.00  0.00    -0.387 OA
ATOM     27  H   UNL     1      16.135  -5.532  -9.792  1.00  0.00     0.211 HD
ENDBRANCH  21  26
BRANCH  23  28
ATOM     28  O   UNL     1      16.007  -1.812  -9.720  1.00  0.00    -0.387 OA
ATOM     29  H   UNL     1      15.635  -1.076 -10.271  1.00  0.00     0.211 HD
ENDBRANCH  23  28
BRANCH  24  30
ATOM     30  C   UNL     1      16.141  -1.131 -14.085  1.00  0.00     0.191 C 
BRANCH  30  31
ATOM     31  O   UNL     1      16.876  -1.936 -14.967  1.00  0.00    -0.394 OA
ATOM     32  H   UNL     1      17.257  -1.321 -15.646  1.00  0.00     0.210 HD
ENDBRANCH  30  31
ENDBRANCH  24  30
BRANCH  25  33
ATOM     33  O   UNL     1      18.371  -2.070 -12.447  1.00  0.00    -0.388 OA
ATOM     34  H   UNL     1      19.117  -1.571 -12.026  1.00  0.00     0.211 HD
ENDBRANCH  25  33
ENDBRANCH  11  20
BRANCH  10  35
ATOM     35  O   UNL     1      16.795  -5.539 -13.711  1.00  0.00    -0.507 OA
ATOM     36  H   UNL     1      17.420  -6.098 -14.280  1.00  0.00     0.293 HD
ENDBRANCH  10  35
TORSDOF 9
ENDMDL
MODEL 3
REMARK VINA RESULT:    -6.403      1.116      2.366
REMARK INTER + INTRA:          -9.706
REMARK INTER:                  -9.139
REMARK INTRA:                  -0.567
REMARK UNBOUND:                -1.058
REMARK SMILES O=c1c(-c2ccc(O)cc2)coc2c([C@@H]3O[C@H](CO)[C@H](O)[C@@H](O)[C@H]3O)c(O)ccc12
REMARK SMILES IDX 3 1 11 2 12 3 13 4 30 5 2 6 1 7 29 8 28 9 26 10 14 11 4 12
REMARK SMILES IDX 5 13 6 14 7 15 10 16 9 17 8 18 15 20 24 21 16 22 22 23 17 24
REMARK SMILES IDX 20 25 25 26 23 28 18 30 19 31 21 33 27 35
REMARK H PARENT 8 19 25 27 23 29 19 32 21 34 27 36
REMARK Flexibility Score: inf
ROOT
ATOM      1  C   UNL     1      18.751  -1.955 -17.327  1.00  0.00     0.065 A 
ATOM      2  C   UNL     1      18.716  -3.344 -17.509  1.00  0.00     0.208 A 
ATOM      3  O   UNL     1      18.069  -4.128 -16.654  1.00  0.00    -0.463 OA
ATOM      4  C   UNL     1      17.424  -3.665 -15.587  1.00  0.00     0.147 A 
ATOM      5  C   UNL     1      17.416  -2.276 -15.321  1.00  0.00     0.066 A 
ATOM      6  C   UNL     1      18.094  -1.417 -16.205  1.00  0.00     0.200 A 
ATOM      7  O   UNL     1      18.131  -0.175 -15.982  1.00  0.00    -0.288 OA
ATOM      8  C   UNL     1      16.750  -1.792 -14.185  1.00  0.00     0.020 A 
ATOM      9  C   UNL     1      16.107  -2.673 -13.318  1.00  0.00     0.047 A 
ATOM     10  C   UNL     1      16.109  -4.050 -13.570  1.00  0.00     0.125 A 
ATOM     11  C   UNL     1      16.753  -4.562 -14.721  1.00  0.00     0.069 A 
ENDROOT
BRANCH   1  12
ATOM     12  C   UNL     1      19.472  -1.097 -18.301  1.00  0.00    -0.011 A 
ATOM     13  C   UNL     1      19.001  -0.954 -19.618  1.00  0.00     0.013 A 
ATOM     14  C   UNL     1      19.690  -0.153 -20.532  1.00  0.00     0.047 A 
ATOM     15  C   UNL     1      20.861   0.512 -20.144  1.00  0.00     0.115 A 
ATOM     16  C   UNL     1      20.653  -0.433 -17.922  1.00  0.00     0.013 A 
ATOM     17  C   UNL     1      21.339   0.368 -18.838  1.00  0.00     0.047 A 
BRANCH  15  18
ATOM     18  O   UNL     1      21.556   1.314 -21.048  1.00  0.00    -0.508 OA
ATOM     19  H   UNL     1      21.880   2.239 -20.794  1.00  0.00     0.293 HD
ENDBRANCH  15  18
ENDBRANCH   1  12
BRANCH  11  20
ATOM     20  C   UNL     1      16.780  -6.059 -14.991  1.00  0.00     0.188 C 
ATOM     21  C   UNL     1      16.100  -6.368 -16.347  1.00  0.00     0.179 C 
ATOM     22  O   UNL     1      18.125  -6.512 -14.984  1.00  0.00    -0.362 OA
ATOM     23  C   UNL     1      16.188  -7.877 -16.660  1.00  0.00     0.177 C 
ATOM     24  C   UNL     1      18.186  -7.924 -15.092  1.00  0.00     0.176 C 
ATOM     25  C   UNL     1      17.627  -8.395 -16.461  1.00  0.00     0.177 C 
BRANCH  21  26
ATOM     26  O   UNL     1      14.756  -5.957 -16.306  1.00  0.00    -0.387 OA
ATOM     27  H   UNL     1      14.229  -6.736 -15.988  1.00  0.00     0.211 HD
ENDBRANCH  21  26
BRANCH  23  28
ATOM     28  O   UNL     1      15.323  -8.600 -15.817  1.00  0.00    -0.387 OA
ATOM     29  H   UNL     1      14.396  -8.388 -16.101  1.00  0.00     0.211 HD
ENDBRANCH  23  28
BRANCH  24  30
ATOM     30  C   UNL     1      19.639  -8.369 -14.888  1.00  0.00     0.191 C 
BRANCH  30  31
ATOM     31  O   UNL     1      20.518  -7.362 -15.310  1.00  0.00    -0.394 OA
ATOM     32  H   UNL     1      20.876  -6.946 -14.484  1.00  0.00     0.210 HD
ENDBRANCH  30  31
ENDBRANCH  24  30
BRANCH  25  33
ATOM     33  O   UNL     1      18.452  -8.001 -17.533  1.00  0.00    -0.388 OA
ATOM     34  H   UNL     1      18.617  -7.026 -17.457  1.00  0.00     0.211 HD
ENDBRANCH  25  33
ENDBRANCH  11  20
BRANCH  10  35
ATOM     35  O   UNL     1      15.475  -4.911 -12.674  1.00  0.00    -0.507 OA
ATOM     36  H   UNL     1      15.953  -5.710 -12.274  1.00  0.00     0.293 HD
ENDBRANCH  10  35
TORSDOF 9
ENDMDL
MODEL 4
REMARK VINA RESULT:    -6.343      5.000     10.672
REMARK INTER + INTRA:          -9.625
REMARK INTER:                  -9.193
REMARK INTRA:                  -0.432
REMARK UNBOUND:                -1.058
REMARK SMILES O=c1c(-c2ccc(O)cc2)coc2c([C@@H]3O[C@H](CO)[C@H](O)[C@@H](O)[C@H]3O)c(O)ccc12
REMARK SMILES IDX 3 1 11 2 12 3 13 4 30 5 2 6 1 7 29 8 28 9 26 10 14 11 4 12
REMARK SMILES IDX 5 13 6 14 7 15 10 16 9 17 8 18 15 20 24 21 16 22 22 23 17 24
REMARK SMILES IDX 20 25 25 26 23 28 18 30 19 31 21 33 27 35
REMARK H PARENT 8 19 25 27 23 29 19 32 21 34 27 36
REMARK Flexibility Score: inf
ROOT
ATOM      1  C   UNL     1      11.745  -6.928 -10.313  1.00  0.00     0.065 A 
ATOM      2  C   UNL     1      12.509  -5.752 -10.288  1.00  0.00     0.208 A 
ATOM      3  O   UNL     1      13.605  -5.635 -11.027  1.00  0.00    -0.463 OA
ATOM      4  C   UNL     1      14.053  -6.601 -11.825  1.00  0.00     0.147 A 
ATOM      5  C   UNL     1      13.350  -7.826 -11.904  1.00  0.00     0.066 A 
ATOM      6  C   UNL     1      12.184  -7.984 -11.132  1.00  0.00     0.200 A 
ATOM      7  O   UNL     1      11.548  -9.075 -11.157  1.00  0.00    -0.288 OA
ATOM      8  C   UNL     1      13.832  -8.851 -12.732  1.00  0.00     0.020 A 
ATOM      9  C   UNL     1      15.002  -8.668 -13.466  1.00  0.00     0.047 A 
ATOM     10  C   UNL     1      15.707  -7.460 -13.395  1.00  0.00     0.125 A 
ATOM     11  C   UNL     1      15.229  -6.404 -12.586  1.00  0.00     0.069 A 
ENDROOT
BRANCH   1  12
ATOM     12  C   UNL     1      10.517  -7.032  -9.486  1.00  0.00    -0.011 A 
ATOM     13  C   UNL     1       9.288  -6.542  -9.960  1.00  0.00     0.013 A 
ATOM     14  C   UNL     1       8.137  -6.635  -9.173  1.00  0.00     0.047 A 
ATOM     15  C   UNL     1       8.201  -7.215  -7.899  1.00  0.00     0.115 A 
ATOM     16  C   UNL     1      10.574  -7.606  -8.202  1.00  0.00     0.013 A 
ATOM     17  C   UNL     1       9.422  -7.699  -7.417  1.00  0.00     0.047 A 
BRANCH  15  18
ATOM     18  O   UNL     1       7.060  -7.314  -7.105  1.00  0.00    -0.508 OA
ATOM     19  H   UNL     1       6.281  -6.676  -7.216  1.00  0.00     0.293 HD
ENDBRANCH  15  18
ENDBRANCH   1  12
BRANCH  11  20
ATOM     20  C   UNL     1      16.001  -5.096 -12.485  1.00  0.00     0.188 C 
ATOM     21  C   UNL     1      15.384  -4.038 -13.432  1.00  0.00     0.179 C 
ATOM     22  O   UNL     1      15.982  -4.644 -11.139  1.00  0.00    -0.362 OA
ATOM     23  C   UNL     1      16.119  -2.689 -13.280  1.00  0.00     0.177 C 
ATOM     24  C   UNL     1      16.808  -3.504 -10.975  1.00  0.00     0.176 C 
ATOM     25  C   UNL     1      16.258  -2.305 -11.793  1.00  0.00     0.177 C 
BRANCH  21  26
ATOM     26  O   UNL     1      15.464  -4.489 -14.760  1.00  0.00    -0.387 OA
ATOM     27  H   UNL     1      15.487  -3.680 -15.336  1.00  0.00     0.211 HD
ENDBRANCH  21  26
BRANCH  23  28
ATOM     28  O   UNL     1      17.401  -2.766 -13.853  1.00  0.00    -0.387 OA
ATOM     29  H   UNL     1      17.351  -2.329 -14.742  1.00  0.00     0.211 HD
ENDBRANCH  23  28
BRANCH  24  30
ATOM     30  C   UNL     1      16.901  -3.177  -9.480  1.00  0.00     0.191 C 
BRANCH  30  31
ATOM     31  O   UNL     1      17.293  -4.313  -8.759  1.00  0.00    -0.394 OA
ATOM     32  H   UNL     1      17.978  -4.005  -8.112  1.00  0.00     0.210 HD
ENDBRANCH  30  31
ENDBRANCH  24  30
BRANCH  25  33
ATOM     33  O   UNL     1      15.033  -1.834 -11.282  1.00  0.00    -0.388 OA
ATOM     34  H   UNL     1      15.177  -1.546 -10.344  1.00  0.00     0.211 HD
ENDBRANCH  25  33
ENDBRANCH  11  20
BRANCH  10  35
ATOM     35  O   UNL     1      16.887  -7.313 -14.126  1.00  0.00    -0.507 OA
ATOM     36  H   UNL     1      17.788  -7.566 -13.738  1.00  0.00     0.293 HD
ENDBRANCH  10  35
TORSDOF 9
ENDMDL
MODEL 5
REMARK VINA RESULT:    -6.191      5.151     10.297
REMARK INTER + INTRA:          -9.420
REMARK INTER:                  -8.360
REMARK INTRA:                  -1.059
REMARK UNBOUND:                -1.058
REMARK SMILES O=c1c(-c2ccc(O)cc2)coc2c([C@@H]3O[C@H](CO)[C@H](O)[C@@H](O)[C@H]3O)c(O)ccc12
REMARK SMILES IDX 3 1 11 2 12 3 13 4 30 5 2 6 1 7 29 8 28 9 26 10 14 11 4 12
REMARK SMILES IDX 5 13 6 14 7 15 10 16 9 17 8 18 15 20 24 21 16 22 22 23 17 24
REMARK SMILES IDX 20 25 25 26 23 28 18 30 19 31 21 33 27 35
REMARK H PARENT 8 19 25 27 23 29 19 32 21 34 27 36
REMARK Flexibility Score: inf
ROOT
ATOM      1  C   UNL     1      11.432  -6.239 -10.300  1.00  0.00     0.065 A 
ATOM      2  C   UNL     1      12.242  -5.168 -10.703  1.00  0.00     0.208 A 
ATOM      3  O   UNL     1      13.310  -5.369 -11.464  1.00  0.00    -0.463 OA
ATOM      4  C   UNL     1      13.686  -6.572 -11.889  1.00  0.00     0.147 A 
ATOM      5  C   UNL     1      12.932  -7.711 -11.522  1.00  0.00     0.066 A 
ATOM      6  C   UNL     1      11.794  -7.534 -10.713  1.00  0.00     0.200 A 
ATOM      7  O   UNL     1      11.115  -8.532 -10.343  1.00  0.00    -0.288 OA
ATOM      8  C   UNL     1      13.339  -8.982 -11.955  1.00  0.00     0.020 A 
ATOM      9  C   UNL     1      14.483  -9.124 -12.738  1.00  0.00     0.047 A 
ATOM     10  C   UNL     1      15.238  -8.004 -13.107  1.00  0.00     0.125 A 
ATOM     11  C   UNL     1      14.836  -6.710 -12.702  1.00  0.00     0.069 A 
ENDROOT
BRANCH   1  12
ATOM     12  C   UNL     1      10.237  -5.989  -9.456  1.00  0.00    -0.011 A 
ATOM     13  C   UNL     1       9.034  -5.541 -10.030  1.00  0.00     0.013 A 
ATOM     14  C   UNL     1       7.915  -5.299  -9.230  1.00  0.00     0.047 A 
ATOM     15  C   UNL     1       7.984  -5.495  -7.844  1.00  0.00     0.115 A 
ATOM     16  C   UNL     1      10.300  -6.176  -8.063  1.00  0.00     0.013 A 
ATOM     17  C   UNL     1       9.179  -5.933  -7.265  1.00  0.00     0.047 A 
BRANCH  15  18
ATOM     18  O   UNL     1       6.874  -5.257  -7.036  1.00  0.00    -0.508 OA
ATOM     19  H   UNL     1       5.976  -5.004  -7.431  1.00  0.00     0.293 HD
ENDBRANCH  15  18
ENDBRANCH   1  12
BRANCH  11  20
ATOM     20  C   UNL     1      15.663  -5.489 -13.080  1.00  0.00     0.188 C 
ATOM     21  C   UNL     1      16.745  -5.226 -12.006  1.00  0.00     0.179 C 
ATOM     22  O   UNL     1      16.253  -5.699 -14.354  1.00  0.00    -0.362 OA
ATOM     23  C   UNL     1      17.632  -4.032 -12.420  1.00  0.00     0.177 C 
ATOM     24  C   UNL     1      16.916  -4.530 -14.805  1.00  0.00     0.176 C 
ATOM     25  C   UNL     1      18.111  -4.184 -13.878  1.00  0.00     0.177 C 
BRANCH  21  26
ATOM     26  O   UNL     1      16.131  -4.969 -10.769  1.00  0.00    -0.387 OA
ATOM     27  H   UNL     1      16.387  -5.712 -10.162  1.00  0.00     0.211 HD
ENDBRANCH  21  26
BRANCH  23  28
ATOM     28  O   UNL     1      16.914  -2.828 -12.300  1.00  0.00    -0.387 OA
ATOM     29  H   UNL     1      16.366  -2.896 -11.475  1.00  0.00     0.211 HD
ENDBRANCH  23  28
BRANCH  24  30
ATOM     30  C   UNL     1      17.366  -4.751 -16.254  1.00  0.00     0.191 C 
BRANCH  30  31
ATOM     31  O   UNL     1      17.570  -6.116 -16.496  1.00  0.00    -0.394 OA
ATOM     32  H   UNL     1      18.463  -6.331 -16.121  1.00  0.00     0.210 HD
ENDBRANCH  30  31
ENDBRANCH  24  30
BRANCH  25  33
ATOM     33  O   UNL     1      19.143  -5.138 -13.967  1.00  0.00    -0.388 OA
ATOM     34  H   UNL     1      18.735  -6.041 -13.953  1.00  0.00     0.211 HD
ENDBRANCH  25  33
ENDBRANCH  11  20
BRANCH  10  35
ATOM     35  O   UNL     1      16.391  -8.178 -13.873  1.00  0.00    -0.507 OA
ATOM     36  H   UNL     1      16.395  -8.753 -14.708  1.00  0.00     0.293 HD
ENDBRANCH  10  35
TORSDOF 9
ENDMDL
MODEL 6
REMARK VINA RESULT:    -6.057      2.544      5.190
REMARK INTER + INTRA:          -9.240
REMARK INTER:                  -8.630
REMARK INTRA:                  -0.609
REMARK UNBOUND:                -1.058
REMARK SMILES O=c1c(-c2ccc(O)cc2)coc2c([C@@H]3O[C@H](CO)[C@H](O)[C@@H](O)[C@H]3O)c(O)ccc12
REMARK SMILES IDX 3 1 11 2 12 3 13 4 30 5 2 6 1 7 29 8 28 9 26 10 14 11 4 12
REMARK SMILES IDX 5 13 6 14 7 15 10 16 9 17 8 18 15 20 24 21 16 22 22 23 17 24
REMARK SMILES IDX 20 25 25 26 23 28 18 30 19 31 21 33 27 35
REMARK H PARENT 8 19 25 27 23 29 19 32 21 34 27 36
REMARK Flexibility Score: inf
ROOT
ATOM      1  C   UNL     1      19.190  -1.249 -17.588  1.00  0.00     0.065 A 
ATOM      2  C   UNL     1      18.981  -0.442 -16.461  1.00  0.00     0.208 A 
ATOM      3  O   UNL     1      18.401  -0.929 -15.371  1.00  0.00    -0.463 OA
ATOM      4  C   UNL     1      17.983  -2.188 -15.269  1.00  0.00     0.147 A 
ATOM      5  C   UNL     1      18.146  -3.070 -16.362  1.00  0.00     0.066 A 
ATOM      6  C   UNL     1      18.755  -2.586 -17.534  1.00  0.00     0.200 A 
ATOM      7  O   UNL     1      18.890  -3.338 -18.539  1.00  0.00    -0.288 OA
ATOM      8  C   UNL     1      17.689  -4.393 -16.260  1.00  0.00     0.020 A 
ATOM      9  C   UNL     1      17.071  -4.834 -15.092  1.00  0.00     0.047 A 
ATOM     10  C   UNL     1      16.903  -3.969 -14.003  1.00  0.00     0.125 A 
ATOM     11  C   UNL     1      17.376  -2.638 -14.072  1.00  0.00     0.069 A 
ENDROOT
BRANCH   1  12
ATOM     12  C   UNL     1      19.849  -0.685 -18.793  1.00  0.00    -0.011 A 
ATOM     13  C   UNL     1      19.357  -0.967 -20.079  1.00  0.00     0.013 A 
ATOM     14  C   UNL     1      19.987  -0.441 -21.209  1.00  0.00     0.047 A 
ATOM     15  C   UNL     1      21.122   0.370 -21.069  1.00  0.00     0.115 A 
ATOM     16  C   UNL     1      20.993   0.124 -18.661  1.00  0.00     0.013 A 
ATOM     17  C   UNL     1      21.622   0.649 -19.793  1.00  0.00     0.047 A 
BRANCH  15  18
ATOM     18  O   UNL     1      21.759   0.901 -22.189  1.00  0.00    -0.508 OA
ATOM     19  H   UNL     1      21.416   0.725 -23.126  1.00  0.00     0.293 HD
ENDBRANCH  15  18
ENDBRANCH   1  12
BRANCH  11  20
ATOM     20  C   UNL     1      17.178  -1.684 -12.903  1.00  0.00     0.188 C 
ATOM     21  C   UNL     1      15.668  -1.453 -12.654  1.00  0.00     0.179 C 
ATOM     22  O   UNL     1      17.806  -2.222 -11.749  1.00  0.00    -0.362 OA
ATOM     23  C   UNL     1      15.461  -0.544 -11.423  1.00  0.00     0.177 C 
ATOM     24  C   UNL     1      17.766  -1.300 -10.673  1.00  0.00     0.176 C 
ATOM     25  C   UNL     1      16.302  -1.036 -10.229  1.00  0.00     0.177 C 
BRANCH  21  26
ATOM     26  O   UNL     1      15.085  -0.872 -13.793  1.00  0.00    -0.387 OA
ATOM     27  H   UNL     1      14.234  -1.357 -13.957  1.00  0.00     0.211 HD
ENDBRANCH  21  26
BRANCH  23  28
ATOM     28  O   UNL     1      15.832   0.779 -11.729  1.00  0.00    -0.387 OA
ATOM     29  H   UNL     1      15.052   1.207 -12.169  1.00  0.00     0.211 HD
ENDBRANCH  23  28
BRANCH  24  30
ATOM     30  C   UNL     1      18.618  -1.851  -9.523  1.00  0.00     0.191 C 
BRANCH  30  31
ATOM     31  O   UNL     1      18.393  -3.226  -9.370  1.00  0.00    -0.394 OA
ATOM     32  H   UNL     1      17.415  -3.331  -9.239  1.00  0.00     0.210 HD
ENDBRANCH  30  31
ENDBRANCH  24  30
BRANCH  25  33
ATOM     33  O   UNL     1      15.716  -2.173  -9.639  1.00  0.00    -0.388 OA
ATOM     34  H   UNL     1      16.441  -2.794  -9.374  1.00  0.00     0.211 HD
ENDBRANCH  25  33
ENDBRANCH  11  20
BRANCH  10  35
ATOM     35  O   UNL     1      16.262  -4.432 -12.854  1.00  0.00    -0.507 OA
ATOM     36  H   UNL     1      15.257  -4.366 -12.741  1.00  0.00     0.293 HD
ENDBRANCH  10  35
TORSDOF 9
ENDMDL
MODEL 7
REMARK VINA RESULT:    -6.052      2.099      4.969
REMARK INTER + INTRA:          -9.233
REMARK INTER:                  -8.801
REMARK INTRA:                  -0.432
REMARK UNBOUND:                -1.058
REMARK SMILES O=c1c(-c2ccc(O)cc2)coc2c([C@@H]3O[C@H](CO)[C@H](O)[C@@H](O)[C@H]3O)c(O)ccc12
REMARK SMILES IDX 3 1 11 2 12 3 13 4 30 5 2 6 1 7 29 8 28 9 26 10 14 11 4 12
REMARK SMILES IDX 5 13 6 14 7 15 10 16 9 17 8 18 15 20 24 21 16 22 22 23 17 24
REMARK SMILES IDX 20 25 25 26 23 28 18 30 19 31 21 33 27 35
REMARK H PARENT 8 19 25 27 23 29 19 32 21 34 27 36
REMARK Flexibility Score: inf
ROOT
ATOM      1  C   UNL     1      18.702  -1.837 -17.169  1.00  0.00     0.065 A 
ATOM      2  C   UNL     1      18.237  -1.177 -16.023  1.00  0.00     0.208 A 
ATOM      3  O   UNL     1      17.557  -1.829 -15.088  1.00  0.00    -0.463 OA
ATOM      4  C   UNL     1      17.272  -3.126 -15.167  1.00  0.00     0.147 A 
ATOM      5  C   UNL     1      17.694  -3.869 -16.294  1.00  0.00     0.066 A 
ATOM      6  C   UNL     1      18.415  -3.208 -17.305  1.00  0.00     0.200 A 
ATOM      7  O   UNL     1      18.783  -3.834 -18.338  1.00  0.00    -0.288 OA
ATOM      8  C   UNL     1      17.377  -5.233 -16.384  1.00  0.00     0.020 A 
ATOM      9  C   UNL     1      16.643  -5.852 -15.375  1.00  0.00     0.047 A 
ATOM     10  C   UNL     1      16.219  -5.126 -14.255  1.00  0.00     0.125 A 
ATOM     11  C   UNL     1      16.545  -3.756 -14.128  1.00  0.00     0.069 A 
ENDROOT
BRANCH   1  12
ATOM     12  C   UNL     1      19.469  -1.089 -18.197  1.00  0.00    -0.011 A 
ATOM     13  C   UNL     1      20.653  -0.411 -17.858  1.00  0.00     0.013 A 
ATOM     14  C   UNL     1      21.365   0.299 -18.828  1.00  0.00     0.047 A 
ATOM     15  C   UNL     1      20.900   0.346 -20.149  1.00  0.00     0.115 A 
ATOM     16  C   UNL     1      19.005  -1.031 -19.524  1.00  0.00     0.013 A 
ATOM     17  C   UNL     1      19.719  -0.320 -20.492  1.00  0.00     0.047 A 
BRANCH  15  18
ATOM     18  O   UNL     1      21.602   1.050 -21.125  1.00  0.00    -0.508 OA
ATOM     19  H   UNL     1      22.591   1.244 -21.029  1.00  0.00     0.293 HD
ENDBRANCH  15  18
ENDBRANCH   1  12
BRANCH  11  20
ATOM     20  C   UNL     1      16.069  -2.954 -12.926  1.00  0.00     0.188 C 
ATOM     21  C   UNL     1      17.198  -2.851 -11.873  1.00  0.00     0.179 C 
ATOM     22  O   UNL     1      15.657  -1.665 -13.356  1.00  0.00    -0.362 OA
ATOM     23  C   UNL     1      16.744  -1.978 -10.683  1.00  0.00     0.177 C 
ATOM     24  C   UNL     1      15.075  -0.936 -12.289  1.00  0.00     0.176 C 
ATOM     25  C   UNL     1      16.122  -0.657 -11.179  1.00  0.00     0.177 C 
BRANCH  21  26
ATOM     26  O   UNL     1      17.548  -4.137 -11.427  1.00  0.00    -0.387 OA
ATOM     27  H   UNL     1      16.962  -4.340 -10.651  1.00  0.00     0.211 HD
ENDBRANCH  21  26
BRANCH  23  28
ATOM     28  O   UNL     1      15.793  -2.668  -9.910  1.00  0.00    -0.387 OA
ATOM     29  H   UNL     1      15.750  -2.215  -9.027  1.00  0.00     0.211 HD
ENDBRANCH  23  28
BRANCH  24  30
ATOM     30  C   UNL     1      14.481   0.362 -12.850  1.00  0.00     0.191 C 
BRANCH  30  31
ATOM     31  O   UNL     1      15.281   0.851 -13.891  1.00  0.00    -0.394 OA
ATOM     32  H   UNL     1      16.220   0.676 -13.621  1.00  0.00     0.210 HD
ENDBRANCH  30  31
ENDBRANCH  24  30
BRANCH  25  33
ATOM     33  O   UNL     1      17.123   0.236 -11.609  1.00  0.00    -0.388 OA
ATOM     34  H   UNL     1      17.432   0.759 -10.825  1.00  0.00     0.211 HD
ENDBRANCH  25  33
ENDBRANCH  11  20
BRANCH  10  35
ATOM     35  O   UNL     1      15.467  -5.767 -13.269  1.00  0.00    -0.507 OA
ATOM     36  H   UNL     1      15.485  -5.462 -12.303  1.00  0.00     0.293 HD
ENDBRANCH  10  35
TORSDOF 9
ENDMDL
MODEL 8
REMARK VINA RESULT:    -5.946     10.808     12.427
REMARK INTER + INTRA:          -9.090
REMARK INTER:                  -8.554
REMARK INTRA:                  -0.535
REMARK UNBOUND:                -1.058
REMARK SMILES O=c1c(-c2ccc(O)cc2)coc2c([C@@H]3O[C@H](CO)[C@H](O)[C@@H](O)[C@H]3O)c(O)ccc12
REMARK SMILES IDX 3 1 11 2 12 3 13 4 30 5 2 6 1 7 29 8 28 9 26 10 14 11 4 12
REMARK SMILES IDX 5 13 6 14 7 15 10 16 9 17 8 18 15 20 24 21 16 22 22 23 17 24
REMARK SMILES IDX 20 25 25 26 23 28 18 30 19 31 21 33 27 35
REMARK H PARENT 8 19 25 27 23 29 19 32 21 34 27 36
REMARK Flexibility Score: inf
ROOT
ATOM      1  C   UNL     1      10.765   4.154 -18.020  1.00  0.00     0.065 A 
ATOM      2  C   UNL     1      10.157   3.949 -16.774  1.00  0.00     0.208 A 
ATOM      3  O   UNL     1       8.941   3.425 -16.686  1.00  0.00    -0.463 OA
ATOM      4  C   UNL     1       8.224   3.066 -17.748  1.00  0.00     0.147 A 
ATOM      5  C   UNL     1       8.756   3.246 -19.046  1.00  0.00     0.066 A 
ATOM      6  C   UNL     1      10.043   3.801 -19.175  1.00  0.00     0.200 A 
ATOM      7  O   UNL     1      10.537   4.002 -20.319  1.00  0.00    -0.288 OA
ATOM      8  C   UNL     1       7.992   2.883 -20.165  1.00  0.00     0.020 A 
ATOM      9  C   UNL     1       6.714   2.356 -20.002  1.00  0.00     0.047 A 
ATOM     10  C   UNL     1       6.175   2.174 -18.722  1.00  0.00     0.125 A 
ATOM     11  C   UNL     1       6.934   2.509 -17.577  1.00  0.00     0.069 A 
ENDROOT
BRANCH   1  12
ATOM     12  C   UNL     1      12.130   4.732 -18.093  1.00  0.00    -0.011 A 
ATOM     13  C   UNL     1      13.242   4.009 -17.629  1.00  0.00     0.013 A 
ATOM     14  C   UNL     1      14.524   4.563 -17.692  1.00  0.00     0.047 A 
ATOM     15  C   UNL     1      14.710   5.849 -18.216  1.00  0.00     0.115 A 
ATOM     16  C   UNL     1      12.325   6.026 -18.611  1.00  0.00     0.013 A 
ATOM     17  C   UNL     1      13.607   6.578 -18.673  1.00  0.00     0.047 A 
BRANCH  15  18
ATOM     18  O   UNL     1      15.983   6.412 -18.284  1.00  0.00    -0.508 OA
ATOM     19  H   UNL     1      16.507   6.638 -17.448  1.00  0.00     0.293 HD
ENDBRANCH  15  18
ENDBRANCH   1  12
BRANCH  11  20
ATOM     20  C   UNL     1       6.348   2.336 -16.182  1.00  0.00     0.188 C 
ATOM     21  C   UNL     1       6.800   0.985 -15.579  1.00  0.00     0.179 C 
ATOM     22  O   UNL     1       6.762   3.420 -15.363  1.00  0.00    -0.362 OA
ATOM     23  C   UNL     1       6.268   0.836 -14.137  1.00  0.00     0.177 C 
ATOM     24  C   UNL     1       6.124   3.372 -14.098  1.00  0.00     0.176 C 
ATOM     25  C   UNL     1       6.559   2.106 -13.312  1.00  0.00     0.177 C 
BRANCH  21  26
ATOM     26  O   UNL     1       6.333  -0.071 -16.381  1.00  0.00    -0.387 OA
ATOM     27  H   UNL     1       5.387  -0.228 -16.123  1.00  0.00     0.211 HD
ENDBRANCH  21  26
BRANCH  23  28
ATOM     28  O   UNL     1       4.880   0.610 -14.152  1.00  0.00    -0.387 OA
ATOM     29  H   UNL     1       4.529   0.888 -13.266  1.00  0.00     0.211 HD
ENDBRANCH  23  28
BRANCH  24  30
ATOM     30  C   UNL     1       6.457   4.658 -13.333  1.00  0.00     0.191 C 
BRANCH  30  31
ATOM     31  O   UNL     1       7.768   5.065 -13.616  1.00  0.00    -0.394 OA
ATOM     32  H   UNL     1       8.259   4.245 -13.881  1.00  0.00     0.210 HD
ENDBRANCH  30  31
ENDBRANCH  24  30
BRANCH  25  33
ATOM     33  O   UNL     1       7.916   2.157 -12.936  1.00  0.00    -0.388 OA
ATOM     34  H   UNL     1       8.422   2.610 -13.658  1.00  0.00     0.211 HD
ENDBRANCH  25  33
ENDBRANCH  11  20
BRANCH  10  35
ATOM     35  O   UNL     1       4.884   1.663 -18.589  1.00  0.00    -0.507 OA
ATOM     36  H   UNL     1       4.594   0.816 -19.064  1.00  0.00     0.293 HD
ENDBRANCH  10  35
TORSDOF 9
ENDMDL
MODEL 9
REMARK VINA RESULT:    -5.941      3.072      6.282
REMARK INTER + INTRA:          -9.082
REMARK INTER:                  -7.847
REMARK INTRA:                  -1.236
REMARK UNBOUND:                -1.058
REMARK SMILES O=c1c(-c2ccc(O)cc2)coc2c([C@@H]3O[C@H](CO)[C@H](O)[C@@H](O)[C@H]3O)c(O)ccc12
REMARK SMILES IDX 3 1 11 2 12 3 13 4 30 5 2 6 1 7 29 8 28 9 26 10 14 11 4 12
REMARK SMILES IDX 5 13 6 14 7 15 10 16 9 17 8 18 15 20 24 21 16 22 22 23 17 24
REMARK SMILES IDX 20 25 25 26 23 28 18 30 19 31 21 33 27 35
REMARK H PARENT 8 19 25 27 23 29 19 32 21 34 27 36
REMARK Flexibility Score: inf
ROOT
ATOM      1  C   UNL     1      17.761  -1.796 -12.093  1.00  0.00     0.065 A 
ATOM      2  C   UNL     1      17.563  -3.182 -12.041  1.00  0.00     0.208 A 
ATOM      3  O   UNL     1      17.637  -3.924 -13.139  1.00  0.00    -0.463 OA
ATOM      4  C   UNL     1      17.895  -3.419 -14.342  1.00  0.00     0.147 A 
ATOM      5  C   UNL     1      18.098  -2.028 -14.490  1.00  0.00     0.066 A 
ATOM      6  C   UNL     1      18.024  -1.212 -13.346  1.00  0.00     0.200 A 
ATOM      7  O   UNL     1      18.172   0.038 -13.445  1.00  0.00    -0.288 OA
ATOM      8  C   UNL     1      18.351  -1.494 -15.762  1.00  0.00     0.020 A 
ATOM      9  C   UNL     1      18.396  -2.328 -16.877  1.00  0.00     0.047 A 
ATOM     10  C   UNL     1      18.196  -3.708 -16.744  1.00  0.00     0.125 A 
ATOM     11  C   UNL     1      17.961  -4.273 -15.470  1.00  0.00     0.069 A 
ENDROOT
BRANCH   1  12
ATOM     12  C   UNL     1      17.683  -0.988 -10.850  1.00  0.00    -0.011 A 
ATOM     13  C   UNL     1      16.460  -0.440 -10.425  1.00  0.00     0.013 A 
ATOM     14  C   UNL     1      16.396   0.327  -9.259  1.00  0.00     0.047 A 
ATOM     15  C   UNL     1      17.554   0.562  -8.505  1.00  0.00     0.115 A 
ATOM     16  C   UNL     1      18.843  -0.741 -10.092  1.00  0.00     0.013 A 
ATOM     17  C   UNL     1      18.775   0.026  -8.926  1.00  0.00     0.047 A 
BRANCH  15  18
ATOM     18  O   UNL     1      17.501   1.325  -7.341  1.00  0.00    -0.508 OA
ATOM     19  H   UNL     1      17.137   0.946  -6.475  1.00  0.00     0.293 HD
ENDBRANCH  15  18
ENDBRANCH   1  12
BRANCH  11  20
ATOM     20  C   UNL     1      17.720  -5.768 -15.318  1.00  0.00     0.188 C 
ATOM     21  C   UNL     1      16.247  -6.107 -15.653  1.00  0.00     0.179 C 
ATOM     22  O   UNL     1      18.608  -6.475 -16.171  1.00  0.00    -0.362 OA
ATOM     23  C   UNL     1      16.015  -7.631 -15.571  1.00  0.00     0.177 C 
ATOM     24  C   UNL     1      18.514  -7.873 -15.957  1.00  0.00     0.176 C 
ATOM     25  C   UNL     1      17.105  -8.394 -16.349  1.00  0.00     0.177 C 
BRANCH  21  26
ATOM     26  O   UNL     1      15.394  -5.436 -14.761  1.00  0.00    -0.387 OA
ATOM     27  H   UNL     1      15.613  -4.470 -14.827  1.00  0.00     0.211 HD
ENDBRANCH  21  26
BRANCH  23  28
ATOM     28  O   UNL     1      16.032  -8.054 -14.229  1.00  0.00    -0.387 OA
ATOM     29  H   UNL     1      16.912  -7.793 -13.852  1.00  0.00     0.211 HD
ENDBRANCH  23  28
BRANCH  24  30
ATOM     30  C   UNL     1      19.621  -8.568 -16.759  1.00  0.00     0.191 C 
BRANCH  30  31
ATOM     31  O   UNL     1      19.738  -7.984 -18.028  1.00  0.00    -0.394 OA
ATOM     32  H   UNL     1      20.490  -8.451 -18.476  1.00  0.00     0.210 HD
ENDBRANCH  30  31
ENDBRANCH  24  30
BRANCH  25  33
ATOM     33  O   UNL     1      16.879  -8.312 -17.737  1.00  0.00    -0.388 OA
ATOM     34  H   UNL     1      16.166  -8.958 -17.975  1.00  0.00     0.211 HD
ENDBRANCH  25  33
ENDBRANCH  11  20
BRANCH  10  35
ATOM     35  O   UNL     1      18.225  -4.516 -17.881  1.00  0.00    -0.507 OA
ATOM     36  H   UNL     1      17.433  -5.089 -18.148  1.00  0.00     0.293 HD
ENDBRANCH  10  35
TORSDOF 9
ENDMDL
