MODEL 1
REMARK VINA RESULT:    -3.895      0.000      0.000
REMARK INTER + INTRA:          -6.497
REMARK INTER:                  -5.945
REMARK INTRA:                  -0.552
REMARK UNBOUND:                -0.552
REMARK SMILES CC1=CCC[C@H](C)C(=O)C[C@H](C(C)C)C(=O)C1
REMARK SMILES IDX 8 1 9 2 6 3 7 4 5 5 4 6 3 7 2 8 1 9 10 11 11 12 15 13 16 14
REMARK SMILES IDX 17 15 12 17 13 18 14 19
REMARK H PARENT
REMARK Flexibility Score: 70.00
ROOT
ATOM      1  C   UNL     1     -13.136   0.886  29.100  1.00  0.00     0.136 C 
ATOM      2  O   UNL     1     -12.147   0.362  28.609  1.00  0.00    -0.299 OA
ENDROOT
BRANCH   1   3
ATOM      3  C   UNL     1     -13.140   1.179  30.608  1.00  0.00     0.053 C 
ATOM      4  C   UNL     1     -12.868  -0.098  31.406  1.00  0.00     0.016 C 
BRANCH   3   5
ATOM      5  C   UNL     1     -12.077   2.233  30.844  1.00  0.00     0.015 C 
BRANCH   5   6
ATOM      6  C   UNL     1     -12.063   3.626  30.273  1.00  0.00     0.028 C 
BRANCH   6   7
ATOM      7  C   UNL     1     -10.940   3.710  29.235  1.00  0.00    -0.028 C 
ATOM      8  C   UNL     1     -11.033   3.905  27.875  1.00  0.00    -0.070 CG0
ATOM      9  C   UNL     1      -9.744   3.792  27.095  1.00  0.00     0.039 C 
ATOM     10  G   UNL     1     -12.305   4.259  27.072  1.00  0.00     0.000 G0
ENDBRANCH   6   7
ENDBRANCH   5   6
ENDBRANCH   3   5
ENDBRANCH   1   3
BRANCH   1  11
ATOM     11  C   UNL     1     -14.329   1.214  28.182  1.00  0.00     0.087 C 
BRANCH  11  12
ATOM     12  C   UNL     1     -14.427   2.724  27.715  1.00  0.00     0.066 C 
BRANCH  12  13
ATOM     13  C   UNL     1     -13.257   3.107  26.778  1.00  0.00     0.140 C 
ATOM     14  O   UNL     1     -13.109   2.488  25.734  1.00  0.00    -0.299 OA
BRANCH  13  15
ATOM     15  C   UNL     1     -12.306   4.273  27.080  1.00  0.00     0.106 CG0
ATOM     16  G   UNL     1     -11.035   3.887  27.868  1.00  0.00     0.000 G0
ENDBRANCH  13  15
ENDBRANCH  12  13
BRANCH  12  17
ATOM     17  C   UNL     1     -15.804   3.027  27.039  1.00  0.00    -0.006 C 
ATOM     18  C   UNL     1     -15.862   4.445  26.435  1.00  0.00     0.008 C 
ATOM     19  C   UNL     1     -16.966   2.883  28.042  1.00  0.00     0.008 C 
ENDBRANCH  12  17
ENDBRANCH  11  12
ENDBRANCH   1  11
TORSDOF 1
ENDMDL
MODEL 2
REMARK VINA RESULT:    -3.516      9.671     12.162
REMARK INTER + INTRA:          -5.918
REMARK INTER:                  -5.572
REMARK INTRA:                  -0.345
REMARK UNBOUND:                -0.552
REMARK SMILES CC1=CCC[C@H](C)C(=O)C[C@H](C(C)C)C(=O)C1
REMARK SMILES IDX 8 1 9 2 6 3 7 4 5 5 4 6 3 7 2 8 1 9 10 11 11 12 15 13 16 14
REMARK SMILES IDX 17 15 12 17 13 18 14 19
REMARK H PARENT
REMARK Flexibility Score: 70.00
ROOT
ATOM      1  C   UNL     1     -12.341  11.823  19.472  1.00  0.00     0.136 C 
ATOM      2  O   UNL     1     -12.998  12.853  19.509  1.00  0.00    -0.299 OA
ENDROOT
BRANCH   1   3
ATOM      3  C   UNL     1     -11.201  11.716  18.448  1.00  0.00     0.053 C 
ATOM      4  C   UNL     1      -9.844  11.896  19.131  1.00  0.00     0.016 C 
BRANCH   3   5
ATOM      5  C   UNL     1     -11.333  10.353  17.798  1.00  0.00     0.015 C 
BRANCH   5   6
ATOM      6  C   UNL     1     -12.515   9.854  17.011  1.00  0.00     0.028 C 
BRANCH   6   7
ATOM      7  C   UNL     1     -12.901   8.472  17.546  1.00  0.00    -0.028 C 
ATOM      8  C   UNL     1     -13.918   8.134  18.412  1.00  0.00    -0.070 CG0
ATOM      9  C   UNL     1     -13.953   6.695  18.871  1.00  0.00     0.039 C 
ATOM     10  G   UNL     1     -15.041   9.059  18.932  1.00  0.00     0.000 G0
ENDBRANCH   6   7
ENDBRANCH   5   6
ENDBRANCH   3   5
ENDBRANCH   1   3
BRANCH   1  11
ATOM     11  C   UNL     1     -12.701  10.685  20.446  1.00  0.00     0.087 C 
BRANCH  11  12
ATOM     12  C   UNL     1     -14.205  10.667  20.939  1.00  0.00     0.066 C 
BRANCH  12  13
ATOM     13  C   UNL     1     -14.957   9.416  20.424  1.00  0.00     0.140 C 
ATOM     14  O   UNL     1     -15.542   8.705  21.228  1.00  0.00    -0.299 OA
BRANCH  13  15
ATOM     15  C   UNL     1     -15.047   9.064  18.933  1.00  0.00     0.106 CG0
ATOM     16  G   UNL     1     -13.918   8.147  18.413  1.00  0.00     0.000 G0
ENDBRANCH  13  15
ENDBRANCH  12  13
BRANCH  12  17
ATOM     17  C   UNL     1     -14.301  10.772  22.496  1.00  0.00    -0.006 C 
ATOM     18  C   UNL     1     -14.408  12.232  22.980  1.00  0.00     0.008 C 
ATOM     19  C   UNL     1     -13.078  10.127  23.179  1.00  0.00     0.008 C 
ENDBRANCH  12  17
ENDBRANCH  11  12
ENDBRANCH   1  11
TORSDOF 1
ENDMDL
MODEL 3
REMARK VINA RESULT:    -3.497      6.491      8.133
REMARK INTER + INTRA:          -5.889
REMARK INTER:                  -5.470
REMARK INTRA:                  -0.419
REMARK UNBOUND:                -0.552
REMARK SMILES CC1=CCC[C@H](C)C(=O)C[C@H](C(C)C)C(=O)C1
REMARK SMILES IDX 8 1 9 2 6 3 7 4 5 5 4 6 3 7 2 8 1 9 10 11 11 12 15 13 16 14
REMARK SMILES IDX 17 15 12 17 13 18 14 19
REMARK H PARENT
REMARK Flexibility Score: 70.00
ROOT
ATOM      1  C   UNL     1     -12.303  11.060  30.392  1.00  0.00     0.136 C 
ATOM      2  O   UNL     1     -12.595  12.188  30.024  1.00  0.00    -0.299 OA
ENDROOT
BRANCH   1   3
ATOM      3  C   UNL     1     -10.827  10.738  30.671  1.00  0.00     0.053 C 
ATOM      4  C   UNL     1      -9.932  11.909  30.261  1.00  0.00     0.016 C 
BRANCH   3   5
ATOM      5  C   UNL     1     -10.725  10.436  32.152  1.00  0.00     0.015 C 
BRANCH   5   6
ATOM      6  C   UNL     1      -9.940   9.315  32.781  1.00  0.00     0.028 C 
BRANCH   6   7
ATOM      7  C   UNL     1     -10.787   8.702  33.898  1.00  0.00    -0.028 C 
ATOM      8  C   UNL     1     -11.804   7.776  33.804  1.00  0.00    -0.070 CG0
ATOM      9  C   UNL     1     -12.552   7.475  35.081  1.00  0.00     0.039 C 
ATOM     10  G   UNL     1     -12.232   6.994  32.542  1.00  0.00     0.000 G0
ENDBRANCH   6   7
ENDBRANCH   5   6
ENDBRANCH   3   5
ENDBRANCH   1   3
BRANCH   1  11
ATOM     11  C   UNL     1     -13.430  10.021  30.547  1.00  0.00     0.087 C 
BRANCH  11  12
ATOM     12  C   UNL     1     -12.979   8.509  30.409  1.00  0.00     0.066 C 
BRANCH  12  13
ATOM     13  C   UNL     1     -13.316   7.697  31.682  1.00  0.00     0.140 C 
ATOM     14  O   UNL     1     -14.488   7.562  32.004  1.00  0.00    -0.299 OA
BRANCH  13  15
ATOM     15  C   UNL     1     -12.239   7.004  32.527  1.00  0.00     0.106 CG0
ATOM     16  G   UNL     1     -11.822   7.770  33.803  1.00  0.00     0.000 G0
ENDBRANCH  13  15
ENDBRANCH  12  13
BRANCH  12  17
ATOM     17  C   UNL     1     -13.600   7.839  29.140  1.00  0.00    -0.006 C 
ATOM     18  C   UNL     1     -12.558   7.046  28.326  1.00  0.00     0.008 C 
ATOM     19  C   UNL     1     -14.243   8.886  28.209  1.00  0.00     0.008 C 
ENDBRANCH  12  17
ENDBRANCH  11  12
ENDBRANCH   1  11
TORSDOF 1
ENDMDL
MODEL 4
REMARK VINA RESULT:    -3.449      6.132      8.260
REMARK INTER + INTRA:          -5.816
REMARK INTER:                  -5.298
REMARK INTRA:                  -0.518
REMARK UNBOUND:                -0.552
REMARK SMILES CC1=CCC[C@H](C)C(=O)C[C@H](C(C)C)C(=O)C1
REMARK SMILES IDX 8 1 9 2 6 3 7 4 5 5 4 6 3 7 2 8 1 9 10 11 11 12 15 13 16 14
REMARK SMILES IDX 17 15 12 17 13 18 14 19
REMARK H PARENT
REMARK Flexibility Score: 70.00
ROOT
ATOM      1  C   UNL     1     -11.609  10.642  30.426  1.00  0.00     0.136 C 
ATOM      2  O   UNL     1     -11.137  10.708  29.300  1.00  0.00    -0.299 OA
ENDROOT
BRANCH   1   3
ATOM      3  C   UNL     1     -13.011  11.220  30.669  1.00  0.00     0.053 C 
ATOM      4  C   UNL     1     -13.082  12.677  30.207  1.00  0.00     0.016 C 
BRANCH   3   5
ATOM      5  C   UNL     1     -13.978  10.336  29.908  1.00  0.00     0.015 C 
BRANCH   5   6
ATOM      6  C   UNL     1     -14.776   9.192  30.478  1.00  0.00     0.028 C 
BRANCH   6   7
ATOM      7  C   UNL     1     -14.523   7.952  29.616  1.00  0.00    -0.028 C 
ATOM      8  C   UNL     1     -13.634   6.921  29.826  1.00  0.00    -0.070 CG0
ATOM      9  C   UNL     1     -13.513   5.908  28.712  1.00  0.00     0.039 C 
ATOM     10  G   UNL     1     -12.777   6.675  31.088  1.00  0.00     0.000 G0
ENDBRANCH   6   7
ENDBRANCH   5   6
ENDBRANCH   3   5
ENDBRANCH   1   3
BRANCH   1  11
ATOM     11  C   UNL     1     -10.767   9.993  31.540  1.00  0.00     0.087 C 
BRANCH  11  12
ATOM     12  C   UNL     1     -11.406   8.708  32.209  1.00  0.00     0.066 C 
BRANCH  12  13
ATOM     13  C   UNL     1     -11.524   7.541  31.199  1.00  0.00     0.140 C 
ATOM     14  O   UNL     1     -10.562   7.268  30.496  1.00  0.00    -0.299 OA
BRANCH  13  15
ATOM     15  C   UNL     1     -12.786   6.674  31.085  1.00  0.00     0.106 CG0
ATOM     16  G   UNL     1     -13.643   6.938  29.827  1.00  0.00     0.000 G0
ENDBRANCH  13  15
ENDBRANCH  12  13
BRANCH  12  17
ATOM     17  C   UNL     1     -10.609   8.265  33.480  1.00  0.00    -0.006 C 
ATOM     18  C   UNL     1     -11.462   7.413  34.440  1.00  0.00     0.008 C 
ATOM     19  C   UNL     1     -10.076   9.483  34.261  1.00  0.00     0.008 C 
ENDBRANCH  12  17
ENDBRANCH  11  12
ENDBRANCH   1  11
TORSDOF 1
ENDMDL
MODEL 5
REMARK VINA RESULT:    -3.430      9.609     11.202
REMARK INTER + INTRA:          -5.787
REMARK INTER:                  -5.780
REMARK INTRA:                  -0.006
REMARK UNBOUND:                -0.552
REMARK SMILES CC1=CCC[C@H](C)C(=O)C[C@H](C(C)C)C(=O)C1
REMARK SMILES IDX 8 1 9 2 6 3 7 4 5 5 4 6 3 7 2 8 1 9 10 11 11 12 15 13 16 14
REMARK SMILES IDX 17 15 12 17 13 18 14 19
REMARK H PARENT
REMARK Flexibility Score: 70.00
ROOT
ATOM      1  C   UNL     1      -3.284  -0.170  28.183  1.00  0.00     0.136 C 
ATOM      2  O   UNL     1      -3.247  -1.304  28.636  1.00  0.00    -0.299 OA
ENDROOT
BRANCH   1   3
ATOM      3  C   UNL     1      -2.612   0.102  26.830  1.00  0.00     0.053 C 
ATOM      4  C   UNL     1      -3.580   0.808  25.878  1.00  0.00     0.016 C 
BRANCH   3   5
ATOM      5  C   UNL     1      -1.386   0.944  27.120  1.00  0.00     0.015 C 
BRANCH   5   6
ATOM      6  C   UNL     1      -0.497   0.834  28.330  1.00  0.00     0.028 C 
BRANCH   6   7
ATOM      7  C   UNL     1      -0.169   2.249  28.816  1.00  0.00    -0.028 C 
ATOM      8  C   UNL     1      -0.606   2.896  29.951  1.00  0.00    -0.070 CG0
ATOM      9  C   UNL     1      -0.221   4.351  30.080  1.00  0.00     0.039 C 
ATOM     10  G   UNL     1      -1.414   2.283  31.117  1.00  0.00     0.000 G0
ENDBRANCH   6   7
ENDBRANCH   5   6
ENDBRANCH   3   5
ENDBRANCH   1   3
BRANCH   1  11
ATOM     11  C   UNL     1      -3.994   0.927  29.000  1.00  0.00     0.087 C 
BRANCH  11  12
ATOM     12  C   UNL     1      -3.651   0.946  30.546  1.00  0.00     0.066 C 
BRANCH  12  13
ATOM     13  C   UNL     1      -2.913   2.245  30.949  1.00  0.00     0.140 C 
ATOM     14  O   UNL     1      -3.568   3.254  31.167  1.00  0.00    -0.299 OA
BRANCH  13  15
ATOM     15  C   UNL     1      -1.391   2.302  31.142  1.00  0.00     0.106 CG0
ATOM     16  G   UNL     1      -0.607   2.894  29.949  1.00  0.00     0.000 G0
ENDBRANCH  13  15
ENDBRANCH  12  13
BRANCH  12  17
ATOM     17  C   UNL     1      -4.931   0.739  31.421  1.00  0.00    -0.006 C 
ATOM     18  C   UNL     1      -4.764   1.298  32.848  1.00  0.00     0.008 C 
ATOM     19  C   UNL     1      -5.302  -0.753  31.529  1.00  0.00     0.008 C 
ENDBRANCH  12  17
ENDBRANCH  11  12
ENDBRANCH   1  11
TORSDOF 1
ENDMDL
MODEL 6
REMARK VINA RESULT:    -3.363      9.487     11.389
REMARK INTER + INTRA:          -5.685
REMARK INTER:                  -5.308
REMARK INTRA:                  -0.376
REMARK UNBOUND:                -0.552
REMARK SMILES CC1=CCC[C@H](C)C(=O)C[C@H](C(C)C)C(=O)C1
REMARK SMILES IDX 8 1 9 2 6 3 7 4 5 5 4 6 3 7 2 8 1 9 10 11 11 12 15 13 16 14
REMARK SMILES IDX 17 15 12 17 13 18 14 19
REMARK H PARENT
REMARK Flexibility Score: 70.00
ROOT
ATOM      1  C   UNL     1      -3.612   0.336  30.096  1.00  0.00     0.136 C 
ATOM      2  O   UNL     1      -3.677  -0.264  29.033  1.00  0.00    -0.299 OA
ENDROOT
BRANCH   1   3
ATOM      3  C   UNL     1      -4.901   0.535  30.906  1.00  0.00     0.053 C 
ATOM      4  C   UNL     1      -5.114  -0.628  31.877  1.00  0.00     0.016 C 
BRANCH   3   5
ATOM      5  C   UNL     1      -4.754   1.859  31.629  1.00  0.00     0.015 C 
BRANCH   5   6
ATOM      6  C   UNL     1      -4.637   2.052  33.118  1.00  0.00     0.028 C 
BRANCH   6   7
ATOM      7  C   UNL     1      -3.989   3.414  33.377  1.00  0.00    -0.028 C 
ATOM      8  C   UNL     1      -2.671   3.787  33.224  1.00  0.00    -0.070 CG0
ATOM      9  C   UNL     1      -2.311   5.173  33.705  1.00  0.00     0.039 C 
ATOM     10  G   UNL     1      -1.538   2.954  32.584  1.00  0.00     0.000 G0
ENDBRANCH   6   7
ENDBRANCH   5   6
ENDBRANCH   3   5
ENDBRANCH   1   3
BRANCH   1  11
ATOM     11  C   UNL     1      -2.242   0.869  30.558  1.00  0.00     0.087 C 
BRANCH  11  12
ATOM     12  C   UNL     1      -1.843   2.291  29.987  1.00  0.00     0.066 C 
BRANCH  12  13
ATOM     13  C   UNL     1      -1.267   3.207  31.094  1.00  0.00     0.140 C 
ATOM     14  O   UNL     1      -0.627   4.196  30.768  1.00  0.00    -0.299 OA
BRANCH  13  15
ATOM     15  C   UNL     1      -1.515   2.952  32.586  1.00  0.00     0.106 CG0
ATOM     16  G   UNL     1      -2.657   3.788  33.206  1.00  0.00     0.000 G0
ENDBRANCH  13  15
ENDBRANCH  12  13
BRANCH  12  17
ATOM     17  C   UNL     1      -0.845   2.170  28.789  1.00  0.00    -0.006 C 
ATOM     18  C   UNL     1      -1.556   2.248  27.423  1.00  0.00     0.008 C 
ATOM     19  C   UNL     1      -0.057   0.846  28.847  1.00  0.00     0.008 C 
ENDBRANCH  12  17
ENDBRANCH  11  12
ENDBRANCH   1  11
TORSDOF 1
ENDMDL
MODEL 7
REMARK VINA RESULT:    -3.259      8.472     10.127
REMARK INTER + INTRA:          -5.526
REMARK INTER:                  -5.202
REMARK INTRA:                  -0.324
REMARK UNBOUND:                -0.552
REMARK SMILES CC1=CCC[C@H](C)C(=O)C[C@H](C(C)C)C(=O)C1
REMARK SMILES IDX 8 1 9 2 6 3 7 4 5 5 4 6 3 7 2 8 1 9 10 11 11 12 15 13 16 14
REMARK SMILES IDX 17 15 12 17 13 18 14 19
REMARK H PARENT
REMARK Flexibility Score: 70.00
ROOT
ATOM      1  C   UNL     1      -4.420   0.158  30.444  1.00  0.00     0.136 C 
ATOM      2  O   UNL     1      -5.096  -0.754  29.991  1.00  0.00    -0.299 OA
ENDROOT
BRANCH   1   3
ATOM      3  C   UNL     1      -5.049   1.084  31.496  1.00  0.00     0.053 C 
ATOM      4  C   UNL     1      -6.040   0.313  32.371  1.00  0.00     0.016 C 
BRANCH   3   5
ATOM      5  C   UNL     1      -3.902   1.656  32.306  1.00  0.00     0.015 C 
BRANCH   5   6
ATOM      6  C   UNL     1      -3.110   2.893  31.976  1.00  0.00     0.028 C 
BRANCH   6   7
ATOM      7  C   UNL     1      -3.997   3.825  31.145  1.00  0.00    -0.028 C 
ATOM      8  C   UNL     1      -3.915   4.127  29.803  1.00  0.00    -0.070 CG0
ATOM      9  C   UNL     1      -4.850   5.202  29.303  1.00  0.00     0.039 C 
ATOM     10  G   UNL     1      -2.996   3.459  28.756  1.00  0.00     0.000 G0
ENDBRANCH   6   7
ENDBRANCH   5   6
ENDBRANCH   3   5
ENDBRANCH   1   3
BRANCH   1  11
ATOM     11  C   UNL     1      -2.980   0.336  29.926  1.00  0.00     0.087 C 
BRANCH  11  12
ATOM     12  C   UNL     1      -2.857   0.775  28.410  1.00  0.00     0.066 C 
BRANCH  12  13
ATOM     13  C   UNL     1      -3.535   2.142  28.156  1.00  0.00     0.140 C 
ATOM     14  O   UNL     1      -4.562   2.180  27.494  1.00  0.00    -0.299 OA
BRANCH  13  15
ATOM     15  C   UNL     1      -2.999   3.451  28.753  1.00  0.00     0.106 CG0
ATOM     16  G   UNL     1      -3.915   4.104  29.813  1.00  0.00     0.000 G0
ENDBRANCH  13  15
ENDBRANCH  12  13
BRANCH  12  17
ATOM     17  C   UNL     1      -1.366   0.796  27.938  1.00  0.00    -0.006 C 
ATOM     18  C   UNL     1      -1.114  -0.148  26.745  1.00  0.00     0.008 C 
ATOM     19  C   UNL     1      -0.410   0.395  29.079  1.00  0.00     0.008 C 
ENDBRANCH  12  17
ENDBRANCH  11  12
ENDBRANCH   1  11
TORSDOF 1
ENDMDL
MODEL 8
REMARK VINA RESULT:    -3.121      6.488      8.086
REMARK INTER + INTRA:          -5.315
REMARK INTER:                  -4.835
REMARK INTRA:                  -0.479
REMARK UNBOUND:                -0.552
REMARK SMILES CC1=CCC[C@H](C)C(=O)C[C@H](C(C)C)C(=O)C1
REMARK SMILES IDX 8 1 9 2 6 3 7 4 5 5 4 6 3 7 2 8 1 9 10 11 11 12 15 13 16 14
REMARK SMILES IDX 17 15 12 17 13 18 14 19
REMARK H PARENT
REMARK Flexibility Score: 70.00
ROOT
ATOM      1  C   UNL     1     -13.342   7.448  31.052  1.00  0.00     0.136 C 
ATOM      2  O   UNL     1     -13.038   6.366  30.573  1.00  0.00    -0.299 OA
ENDROOT
BRANCH   1   3
ATOM      3  C   UNL     1     -14.553   8.194  30.473  1.00  0.00     0.053 C 
ATOM      4  C   UNL     1     -15.481   8.669  31.593  1.00  0.00     0.016 C 
BRANCH   3   5
ATOM      5  C   UNL     1     -14.000   9.350  29.665  1.00  0.00     0.015 C 
BRANCH   5   6
ATOM      6  C   UNL     1     -13.619  10.706  30.197  1.00  0.00     0.028 C 
BRANCH   6   7
ATOM      7  C   UNL     1     -12.174  10.997  29.784  1.00  0.00    -0.028 C 
ATOM      8  C   UNL     1     -11.045  11.054  30.571  1.00  0.00    -0.070 CG0
ATOM      9  C   UNL     1      -9.778  11.512  29.888  1.00  0.00     0.039 C 
ATOM     10  G   UNL     1     -10.933  10.668  32.063  1.00  0.00     0.000 G0
ENDBRANCH   6   7
ENDBRANCH   5   6
ENDBRANCH   3   5
ENDBRANCH   1   3
BRANCH   1  11
ATOM     11  C   UNL     1     -12.485   8.010  32.203  1.00  0.00     0.087 C 
BRANCH  11  12
ATOM     12  C   UNL     1     -10.920   7.962  31.966  1.00  0.00     0.066 C 
BRANCH  12  13
ATOM     13  C   UNL     1     -10.248   9.307  32.333  1.00  0.00     0.140 C 
ATOM     14  O   UNL     1      -9.123   9.294  32.812  1.00  0.00    -0.299 OA
BRANCH  13  15
ATOM     15  C   UNL     1     -10.917  10.662  32.068  1.00  0.00     0.106 CG0
ATOM     16  G   UNL     1     -11.040  11.044  30.575  1.00  0.00     0.000 G0
ENDBRANCH  13  15
ENDBRANCH  12  13
BRANCH  12  17
ATOM     17  C   UNL     1     -10.258   6.778  32.744  1.00  0.00    -0.006 C 
ATOM     18  C   UNL     1      -9.983   5.561  31.838  1.00  0.00     0.008 C 
ATOM     19  C   UNL     1     -11.142   6.313  33.918  1.00  0.00     0.008 C 
ENDBRANCH  12  17
ENDBRANCH  11  12
ENDBRANCH   1  11
TORSDOF 1
ENDMDL
MODEL 9
REMARK VINA RESULT:    -3.061      8.582     11.045
REMARK INTER + INTRA:          -5.223
REMARK INTER:                  -5.253
REMARK INTRA:                   0.030
REMARK UNBOUND:                -0.552
REMARK SMILES CC1=CCC[C@H](C)C(=O)C[C@H](C(C)C)C(=O)C1
REMARK SMILES IDX 8 1 9 2 6 3 7 4 5 5 4 6 3 7 2 8 1 9 10 11 11 12 15 13 16 14
REMARK SMILES IDX 17 15 12 17 13 18 14 19
REMARK H PARENT
REMARK Flexibility Score: 70.00
ROOT
ATOM      1  C   UNL     1      -4.706   0.682  30.138  1.00  0.00     0.136 C 
ATOM      2  O   UNL     1      -5.512   0.153  30.889  1.00  0.00    -0.299 OA
ENDROOT
BRANCH   1   3
ATOM      3  C   UNL     1      -4.425   2.183  30.302  1.00  0.00     0.053 C 
ATOM      4  C   UNL     1      -5.733   2.978  30.329  1.00  0.00     0.016 C 
BRANCH   3   5
ATOM      5  C   UNL     1      -3.642   2.336  31.591  1.00  0.00     0.015 C 
BRANCH   5   6
ATOM      6  C   UNL     1      -2.189   2.713  31.709  1.00  0.00     0.028 C 
BRANCH   6   7
ATOM      7  C   UNL     1      -1.762   3.401  30.410  1.00  0.00    -0.028 C 
ATOM      8  C   UNL     1      -0.956   2.919  29.401  1.00  0.00    -0.070 CG0
ATOM      9  C   UNL     1      -0.599   3.899  28.308  1.00  0.00     0.039 C 
ATOM     10  G   UNL     1      -0.412   1.481  29.255  1.00  0.00     0.000 G0
ENDBRANCH   6   7
ENDBRANCH   5   6
ENDBRANCH   3   5
ENDBRANCH   1   3
BRANCH   1  11
ATOM     11  C   UNL     1      -4.025  -0.183  29.061  1.00  0.00     0.087 C 
BRANCH  11  12
ATOM     12  C   UNL     1      -2.773   0.480  28.353  1.00  0.00     0.066 C 
BRANCH  12  13
ATOM     13  C   UNL     1      -1.503   0.378  29.231  1.00  0.00     0.140 C 
ATOM     14  O   UNL     1      -1.329  -0.628  29.903  1.00  0.00    -0.299 OA
BRANCH  13  15
ATOM     15  C   UNL     1      -0.423   1.468  29.247  1.00  0.00     0.106 CG0
ATOM     16  G   UNL     1      -0.957   2.910  29.394  1.00  0.00     0.000 G0
ENDBRANCH  13  15
ENDBRANCH  12  13
BRANCH  12  17
ATOM     17  C   UNL     1      -2.523  -0.135  26.937  1.00  0.00    -0.006 C 
ATOM     18  C   UNL     1      -1.022  -0.310  26.631  1.00  0.00     0.008 C 
ATOM     19  C   UNL     1      -3.142   0.738  25.827  1.00  0.00     0.008 C 
ENDBRANCH  12  17
ENDBRANCH  11  12
ENDBRANCH   1  11
TORSDOF 1
ENDMDL
