MODEL 1
REMARK VINA RESULT:    -3.868      0.000      0.000
REMARK INTER + INTRA:          -5.029
REMARK INTER:                  -4.659
REMARK INTRA:                  -0.369
REMARK UNBOUND:                -0.369
REMARK SMILES O=c1ccn([C@H]2O[C@@H](CO)[C@@H](O)[C@H]2O)c(=O)[nH]1
REMARK SMILES IDX 6 1 13 2 11 3 8 4 7 5 5 6 3 7 4 8 2 9 17 10 1 11 15 12 16 14
REMARK SMILES IDX 14 15 12 17 9 19 10 20
REMARK H PARENT 17 13 14 16 12 18 10 21
REMARK Flexibility Score: inf
ROOT
ATOM      1  C   UNL     1     173.621 160.889 173.996  1.00  0.00     0.255 C 
ATOM      2  C   UNL     1     172.240 161.413 173.612  1.00  0.00     0.196 C 
ATOM      3  C   UNL     1     171.464 161.232 174.898  1.00  0.00     0.179 C 
ATOM      4  C   UNL     1     172.559 161.215 175.987  1.00  0.00     0.178 C 
ATOM      5  O   UNL     1     173.829 161.131 175.369  1.00  0.00    -0.347 OA
ENDROOT
BRANCH   1   6
ATOM      6  N   UNL     1     174.695 161.473 173.160  1.00  0.00    -0.271 N 
ATOM      7  C   UNL     1     176.484 163.064 172.982  1.00  0.00     0.090 A 
ATOM      8  C   UNL     1     175.444 162.482 173.701  1.00  0.00     0.099 A 
ATOM      9  C   UNL     1     176.756 162.591 171.704  1.00  0.00     0.253 A 
ATOM     10  N   UNL     1     176.013 161.578 171.187  1.00  0.00    -0.274 N 
ATOM     11  O   UNL     1     177.691 163.099 171.030  1.00  0.00    -0.269 OA
ATOM     12  C   UNL     1     174.998 161.013 171.897  1.00  0.00     0.330 A 
ATOM     13  H   UNL     1     176.229 161.223 170.227  1.00  0.00     0.175 HD
ATOM     14  O   UNL     1     174.350 160.063 171.381  1.00  0.00    -0.248 OA
ENDBRANCH   1   6
BRANCH   2  15
ATOM     15  O   UNL     1     172.273 162.756 173.184  1.00  0.00    -0.386 OA
ATOM     16  H   UNL     1     171.350 163.031 172.948  1.00  0.00     0.211 HD
ENDBRANCH   2  15
BRANCH   3  17
ATOM     17  O   UNL     1     170.507 162.247 175.072  1.00  0.00    -0.387 OA
ATOM     18  H   UNL     1     170.993 163.110 174.995  1.00  0.00     0.211 HD
ENDBRANCH   3  17
BRANCH   4  19
ATOM     19  C   UNL     1     172.533 162.437 176.921  1.00  0.00     0.191 C 
BRANCH  19  20
ATOM     20  O   UNL     1     171.639 162.224 177.980  1.00  0.00    -0.394 OA
ATOM     21  H   UNL     1     172.189 162.134 178.802  1.00  0.00     0.210 HD
ENDBRANCH  19  20
ENDBRANCH   4  19
TORSDOF 5
ENDMDL
MODEL 2
REMARK VINA RESULT:    -3.867     16.302     17.824
REMARK INTER + INTRA:          -5.027
REMARK INTER:                  -4.666
REMARK INTRA:                  -0.361
REMARK UNBOUND:                -0.369
REMARK SMILES O=c1ccn([C@H]2O[C@@H](CO)[C@@H](O)[C@H]2O)c(=O)[nH]1
REMARK SMILES IDX 6 1 13 2 11 3 8 4 7 5 5 6 3 7 4 8 2 9 17 10 1 11 15 12 16 14
REMARK SMILES IDX 14 15 12 17 9 19 10 20
REMARK H PARENT 17 13 14 16 12 18 10 21
REMARK Flexibility Score: inf
ROOT
ATOM      1  C   UNL     1     163.476 176.303 174.170  1.00  0.00     0.255 C 
ATOM      2  C   UNL     1     164.892 175.925 173.745  1.00  0.00     0.196 C 
ATOM      3  C   UNL     1     165.658 176.050 175.044  1.00  0.00     0.179 C 
ATOM      4  C   UNL     1     164.569 175.884 176.127  1.00  0.00     0.178 C 
ATOM      5  O   UNL     1     163.293 175.924 175.516  1.00  0.00    -0.347 OA
ENDROOT
BRANCH   1   6
ATOM      6  N   UNL     1     162.447 175.714 173.282  1.00  0.00    -0.271 N 
ATOM      7  C   UNL     1     160.710 174.081 173.001  1.00  0.00     0.090 A 
ATOM      8  C   UNL     1     161.709 174.670 173.770  1.00  0.00     0.099 A 
ATOM      9  C   UNL     1     160.468 174.582 171.727  1.00  0.00     0.253 A 
ATOM     10  N   UNL     1     161.199 175.628 171.263  1.00  0.00    -0.274 N 
ATOM     11  O   UNL     1     159.571 174.067 171.008  1.00  0.00    -0.269 OA
ATOM     12  C   UNL     1     162.174 176.200 172.023  1.00  0.00     0.330 A 
ATOM     13  H   UNL     1     161.006 176.004 170.306  1.00  0.00     0.175 HD
ATOM     14  O   UNL     1     162.812 177.181 171.555  1.00  0.00    -0.248 OA
ENDBRANCH   1   6
BRANCH   2  15
ATOM     15  O   UNL     1     164.963 174.627 173.198  1.00  0.00    -0.386 OA
ATOM     16  H   UNL     1     165.864 174.258 173.386  1.00  0.00     0.211 HD
ENDBRANCH   2  15
BRANCH   3  17
ATOM     17  O   UNL     1     166.691 175.102 175.129  1.00  0.00    -0.387 OA
ATOM     18  H   UNL     1     166.996 174.931 174.200  1.00  0.00     0.211 HD
ENDBRANCH   3  17
BRANCH   4  19
ATOM     19  C   UNL     1     164.694 174.590 176.948  1.00  0.00     0.191 C 
BRANCH  19  20
ATOM     20  O   UNL     1     165.584 174.772 178.016  1.00  0.00    -0.394 OA
ATOM     21  H   UNL     1     166.072 173.915 178.129  1.00  0.00     0.210 HD
ENDBRANCH  19  20
ENDBRANCH   4  19
TORSDOF 5
ENDMDL
MODEL 3
REMARK VINA RESULT:    -3.862     11.610     12.584
REMARK INTER + INTRA:          -5.021
REMARK INTER:                  -4.645
REMARK INTRA:                  -0.377
REMARK UNBOUND:                -0.369
REMARK SMILES O=c1ccn([C@H]2O[C@@H](CO)[C@@H](O)[C@H]2O)c(=O)[nH]1
REMARK SMILES IDX 6 1 13 2 11 3 8 4 7 5 5 6 3 7 4 8 2 9 17 10 1 11 15 12 16 14
REMARK SMILES IDX 14 15 12 17 9 19 10 20
REMARK H PARENT 17 13 14 16 12 18 10 21
REMARK Flexibility Score: inf
ROOT
ATOM      1  C   UNL     1     176.308 173.604 174.005  1.00  0.00     0.255 C 
ATOM      2  C   UNL     1     175.772 172.224 173.634  1.00  0.00     0.196 C 
ATOM      3  C   UNL     1     175.961 171.453 174.922  1.00  0.00     0.179 C 
ATOM      4  C   UNL     1     175.995 172.554 176.005  1.00  0.00     0.178 C 
ATOM      5  O   UNL     1     176.081 173.821 175.380  1.00  0.00    -0.347 OA
ENDROOT
BRANCH   1   6
ATOM      6  N   UNL     1     175.723 174.676 173.169  1.00  0.00    -0.271 N 
ATOM      7  C   UNL     1     174.148 176.481 173.000  1.00  0.00     0.090 A 
ATOM      8  C   UNL     1     174.730 175.441 173.719  1.00  0.00     0.099 A 
ATOM      9  C   UNL     1     174.604 176.737 171.713  1.00  0.00     0.253 A 
ATOM     10  N   UNL     1     175.601 175.979 171.186  1.00  0.00    -0.274 N 
ATOM     11  O   UNL     1     174.095 177.672 171.038  1.00  0.00    -0.269 OA
ATOM     12  C   UNL     1     176.166 174.964 171.897  1.00  0.00     0.330 A 
ATOM     13  H   UNL     1     175.943 176.183 170.219  1.00  0.00     0.175 HD
ATOM     14  O   UNL     1     177.101 174.301 171.371  1.00  0.00    -0.248 OA
ENDBRANCH   1   6
BRANCH   2  15
ATOM     15  O   UNL     1     174.425 172.262 173.219  1.00  0.00    -0.386 OA
ATOM     16  H   UNL     1     173.863 171.897 173.949  1.00  0.00     0.211 HD
ENDBRANCH   2  15
BRANCH   3  17
ATOM     17  O   UNL     1     174.942 170.504 175.111  1.00  0.00    -0.387 OA
ATOM     18  H   UNL     1     174.207 170.969 175.590  1.00  0.00     0.211 HD
ENDBRANCH   3  17
BRANCH   4  19
ATOM     19  C   UNL     1     174.782 172.541 176.951  1.00  0.00     0.191 C 
BRANCH  19  20
ATOM     20  O   UNL     1     174.987 171.630 177.997  1.00  0.00    -0.394 OA
ATOM     21  H   UNL     1     174.707 172.088 178.832  1.00  0.00     0.210 HD
ENDBRANCH  19  20
ENDBRANCH   4  19
TORSDOF 5
ENDMDL
MODEL 4
REMARK VINA RESULT:    -3.862     11.562     12.544
REMARK INTER + INTRA:          -5.021
REMARK INTER:                  -4.667
REMARK INTRA:                  -0.354
REMARK UNBOUND:                -0.369
REMARK SMILES O=c1ccn([C@H]2O[C@@H](CO)[C@@H](O)[C@H]2O)c(=O)[nH]1
REMARK SMILES IDX 6 1 13 2 11 3 8 4 7 5 5 6 3 7 4 8 2 9 17 10 1 11 15 12 16 14
REMARK SMILES IDX 14 15 12 17 9 19 10 20
REMARK H PARENT 17 13 14 16 12 18 10 21
REMARK Flexibility Score: inf
ROOT
ATOM      1  C   UNL     1     160.947 163.509 174.161  1.00  0.00     0.255 C 
ATOM      2  C   UNL     1     161.381 164.908 173.731  1.00  0.00     0.196 C 
ATOM      3  C   UNL     1     161.251 165.690 175.020  1.00  0.00     0.179 C 
ATOM      4  C   UNL     1     161.357 164.608 176.116  1.00  0.00     0.178 C 
ATOM      5  O   UNL     1     161.290 163.328 175.517  1.00  0.00    -0.347 OA
ENDROOT
BRANCH   1   6
ATOM      6  N   UNL     1     161.523 162.453 173.297  1.00  0.00    -0.271 N 
ATOM      7  C   UNL     1     163.142 160.697 173.050  1.00  0.00     0.090 A 
ATOM      8  C   UNL     1     162.565 161.720 173.797  1.00  0.00     0.099 A 
ATOM      9  C   UNL     1     162.630 160.425 171.787  1.00  0.00     0.253 A 
ATOM     10  N   UNL     1     161.586 161.151 171.311  1.00  0.00    -0.274 N 
ATOM     11  O   UNL     1     163.133 159.505 171.088  1.00  0.00    -0.269 OA
ATOM     12  C   UNL     1     161.026 162.150 172.049  1.00  0.00     0.330 A 
ATOM     13  H   UNL     1     161.202 160.936 170.362  1.00  0.00     0.175 HD
ATOM     14  O   UNL     1     160.046 162.783 171.570  1.00  0.00    -0.248 OA
ENDBRANCH   1   6
BRANCH   2  15
ATOM     15  O   UNL     1     162.693 164.931 173.214  1.00  0.00    -0.386 OA
ATOM     16  H   UNL     1     162.915 164.022 172.887  1.00  0.00     0.211 HD
ENDBRANCH   2  15
BRANCH   3  17
ATOM     17  O   UNL     1     162.230 166.694 175.117  1.00  0.00    -0.387 OA
ATOM     18  H   UNL     1     161.755 167.531 175.360  1.00  0.00     0.211 HD
ENDBRANCH   3  17
BRANCH   4  19
ATOM     19  C   UNL     1     162.635 164.700 176.966  1.00  0.00     0.191 C 
BRANCH  19  20
ATOM     20  O   UNL     1     162.439 165.563 178.054  1.00  0.00    -0.394 OA
ATOM     21  H   UNL     1     161.593 166.052 177.879  1.00  0.00     0.210 HD
ENDBRANCH  19  20
ENDBRANCH   4  19
TORSDOF 5
ENDMDL
MODEL 5
REMARK VINA RESULT:    -3.861     15.639     17.578
REMARK INTER + INTRA:          -5.020
REMARK INTER:                  -4.636
REMARK INTRA:                  -0.384
REMARK UNBOUND:                -0.369
REMARK SMILES O=c1ccn([C@H]2O[C@@H](CO)[C@@H](O)[C@H]2O)c(=O)[nH]1
REMARK SMILES IDX 6 1 13 2 11 3 8 4 7 5 5 6 3 7 4 8 2 9 17 10 1 11 15 12 16 14
REMARK SMILES IDX 14 15 12 17 9 19 10 20
REMARK H PARENT 17 13 14 16 12 18 10 21
REMARK Flexibility Score: inf
ROOT
ATOM      1  C   UNL     1     173.640 176.295 163.209  1.00  0.00     0.255 C 
ATOM      2  C   UNL     1     172.256 175.768 163.578  1.00  0.00     0.196 C 
ATOM      3  C   UNL     1     171.489 175.960 162.288  1.00  0.00     0.179 C 
ATOM      4  C   UNL     1     172.593 175.985 161.208  1.00  0.00     0.178 C 
ATOM      5  O   UNL     1     173.859 176.064 161.835  1.00  0.00    -0.347 OA
ENDROOT
BRANCH   1   6
ATOM      6  N   UNL     1     174.708 175.704 164.048  1.00  0.00    -0.271 N 
ATOM      7  C   UNL     1     176.483 174.099 164.232  1.00  0.00     0.090 A 
ATOM      8  C   UNL     1     175.450 174.687 163.510  1.00  0.00     0.099 A 
ATOM      9  C   UNL     1     176.757 174.572 165.509  1.00  0.00     0.253 A 
ATOM     10  N   UNL     1     176.022 175.592 166.023  1.00  0.00    -0.274 N 
ATOM     11  O   UNL     1     177.687 174.058 166.186  1.00  0.00    -0.269 OA
ATOM     12  C   UNL     1     175.013 176.164 165.310  1.00  0.00     0.330 A 
ATOM     13  H   UNL     1     176.239 175.947 166.983  1.00  0.00     0.175 HD
ATOM     14  O   UNL     1     174.372 177.120 165.823  1.00  0.00    -0.248 OA
ENDBRANCH   1   6
BRANCH   2  15
ATOM     15  O   UNL     1     172.286 174.421 163.995  1.00  0.00    -0.386 OA
ATOM     16  H   UNL     1     172.033 174.386 164.954  1.00  0.00     0.211 HD
ENDBRANCH   2  15
BRANCH   3  17
ATOM     17  O   UNL     1     170.534 174.946 162.098  1.00  0.00    -0.387 OA
ATOM     18  H   UNL     1     170.575 174.365 162.902  1.00  0.00     0.211 HD
ENDBRANCH   3  17
BRANCH   4  19
ATOM     19  C   UNL     1     172.574 174.771 160.263  1.00  0.00     0.191 C 
BRANCH  19  20
ATOM     20  O   UNL     1     171.644 174.968 159.232  1.00  0.00    -0.394 OA
ATOM     21  H   UNL     1     171.903 174.355 158.495  1.00  0.00     0.210 HD
ENDBRANCH  19  20
ENDBRANCH   4  19
TORSDOF 5
ENDMDL
MODEL 6
REMARK VINA RESULT:    -3.860     19.247     20.610
REMARK INTER + INTRA:          -5.020
REMARK INTER:                  -4.639
REMARK INTRA:                  -0.381
REMARK UNBOUND:                -0.369
REMARK SMILES O=c1ccn([C@H]2O[C@@H](CO)[C@@H](O)[C@H]2O)c(=O)[nH]1
REMARK SMILES IDX 6 1 13 2 11 3 8 4 7 5 5 6 3 7 4 8 2 9 17 10 1 11 15 12 16 14
REMARK SMILES IDX 14 15 12 17 9 19 10 20
REMARK H PARENT 17 13 14 16 12 18 10 21
REMARK Flexibility Score: inf
ROOT
ATOM      1  C   UNL     1     160.904 173.643 163.216  1.00  0.00     0.255 C 
ATOM      2  C   UNL     1     161.439 172.262 163.586  1.00  0.00     0.196 C 
ATOM      3  C   UNL     1     161.246 171.492 162.298  1.00  0.00     0.179 C 
ATOM      4  C   UNL     1     161.213 172.593 161.216  1.00  0.00     0.178 C 
ATOM      5  O   UNL     1     161.130 173.860 161.841  1.00  0.00    -0.347 OA
ENDROOT
BRANCH   1   6
ATOM      6  N   UNL     1     161.494 174.715 164.052  1.00  0.00    -0.271 N 
ATOM      7  C   UNL     1     163.085 176.504 164.225  1.00  0.00     0.090 A 
ATOM      8  C   UNL     1     162.500 175.466 163.507  1.00  0.00     0.099 A 
ATOM      9  C   UNL     1     162.620 176.773 165.506  1.00  0.00     0.253 A 
ATOM     10  N   UNL     1     161.610 176.029 166.027  1.00  0.00    -0.274 N 
ATOM     11  O   UNL     1     163.132 177.706 166.180  1.00  0.00    -0.269 OA
ATOM     12  C   UNL     1     161.041 175.015 165.317  1.00  0.00     0.330 A 
ATOM     13  H   UNL     1     161.260 176.242 166.990  1.00  0.00     0.175 HD
ATOM     14  O   UNL     1     160.094 174.366 165.838  1.00  0.00    -0.248 OA
ENDBRANCH   1   6
BRANCH   2  15
ATOM     15  O   UNL     1     162.787 172.299 163.999  1.00  0.00    -0.386 OA
ATOM     16  H   UNL     1     162.958 171.509 164.575  1.00  0.00     0.211 HD
ENDBRANCH   2  15
BRANCH   3  17
ATOM     17  O   UNL     1     162.264 170.541 162.107  1.00  0.00    -0.387 OA
ATOM     18  H   UNL     1     162.118 170.148 161.207  1.00  0.00     0.211 HD
ENDBRANCH   3  17
BRANCH   4  19
ATOM     19  C   UNL     1     162.424 172.578 160.268  1.00  0.00     0.191 C 
BRANCH  19  20
ATOM     20  O   UNL     1     162.226 171.649 159.236  1.00  0.00    -0.394 OA
ATOM     21  H   UNL     1     162.796 170.864 159.447  1.00  0.00     0.210 HD
ENDBRANCH  19  20
ENDBRANCH   4  19
TORSDOF 5
ENDMDL
MODEL 7
REMARK VINA RESULT:    -3.815      8.631     11.591
REMARK INTER + INTRA:          -4.965
REMARK INTER:                  -4.355
REMARK INTRA:                  -0.610
REMARK UNBOUND:                -0.369
REMARK SMILES O=c1ccn([C@H]2O[C@@H](CO)[C@@H](O)[C@H]2O)c(=O)[nH]1
REMARK SMILES IDX 6 1 13 2 11 3 8 4 7 5 5 6 3 7 4 8 2 9 17 10 1 11 15 12 16 14
REMARK SMILES IDX 14 15 12 17 9 19 10 20
REMARK H PARENT 17 13 14 16 12 18 10 21
REMARK Flexibility Score: inf
ROOT
ATOM      1  C   UNL     1     176.238 163.501 163.001  1.00  0.00     0.255 C 
ATOM      2  C   UNL     1     175.943 164.914 163.497  1.00  0.00     0.196 C 
ATOM      3  C   UNL     1     176.022 165.721 162.219  1.00  0.00     0.179 C 
ATOM      4  C   UNL     1     175.748 164.680 161.112  1.00  0.00     0.178 C 
ATOM      5  O   UNL     1     175.773 163.382 161.675  1.00  0.00    -0.347 OA
ENDROOT
BRANCH   1   6
ATOM      6  N   UNL     1     175.662 162.464 163.887  1.00  0.00    -0.271 N 
ATOM      7  C   UNL     1     174.006 160.753 164.191  1.00  0.00     0.090 A 
ATOM      8  C   UNL     1     174.586 161.757 163.423  1.00  0.00     0.099 A 
ATOM      9  C   UNL     1     174.549 160.471 165.439  1.00  0.00     0.253 A 
ATOM     10  N   UNL     1     175.626 161.171 165.880  1.00  0.00    -0.274 N 
ATOM     11  O   UNL     1     174.044 159.568 166.157  1.00  0.00    -0.269 OA
ATOM     12  C   UNL     1     176.189 162.152 165.120  1.00  0.00     0.330 A 
ATOM     13  H   UNL     1     176.034 160.949 166.817  1.00  0.00     0.175 HD
ATOM     14  O   UNL     1     177.200 162.760 165.566  1.00  0.00    -0.248 OA
ENDBRANCH   1   6
BRANCH   2  15
ATOM     15  O   UNL     1     174.684 165.014 164.123  1.00  0.00    -0.386 OA
ATOM     16  H   UNL     1     174.670 165.845 164.665  1.00  0.00     0.211 HD
ENDBRANCH   2  15
BRANCH   3  17
ATOM     17  O   UNL     1     175.113 166.793 162.227  1.00  0.00    -0.387 OA
ATOM     18  H   UNL     1     174.206 166.395 162.151  1.00  0.00     0.211 HD
ENDBRANCH   3  17
BRANCH   4  19
ATOM     19  C   UNL     1     174.413 164.885 160.376  1.00  0.00     0.191 C 
BRANCH  19  20
ATOM     20  O   UNL     1     173.341 164.813 161.278  1.00  0.00    -0.394 OA
ATOM     21  H   UNL     1     173.653 164.269 162.047  1.00  0.00     0.210 HD
ENDBRANCH  19  20
ENDBRANCH   4  19
TORSDOF 5
ENDMDL
MODEL 8
REMARK VINA RESULT:    -3.782     14.012     15.852
REMARK INTER + INTRA:          -4.925
REMARK INTER:                  -4.307
REMARK INTRA:                  -0.618
REMARK UNBOUND:                -0.369
REMARK SMILES O=c1ccn([C@H]2O[C@@H](CO)[C@@H](O)[C@H]2O)c(=O)[nH]1
REMARK SMILES IDX 6 1 13 2 11 3 8 4 7 5 5 6 3 7 4 8 2 9 17 10 1 11 15 12 16 14
REMARK SMILES IDX 14 15 12 17 9 19 10 20
REMARK H PARENT 17 13 14 16 12 18 10 21
REMARK Flexibility Score: inf
ROOT
ATOM      1  C   UNL     1     163.544 161.012 162.970  1.00  0.00     0.255 C 
ATOM      2  C   UNL     1     164.948 161.341 163.472  1.00  0.00     0.196 C 
ATOM      3  C   UNL     1     165.763 161.280 162.199  1.00  0.00     0.179 C 
ATOM      4  C   UNL     1     164.722 161.527 161.086  1.00  0.00     0.178 C 
ATOM      5  O   UNL     1     163.422 161.472 161.642  1.00  0.00    -0.347 OA
ENDROOT
BRANCH   1   6
ATOM      6  N   UNL     1     162.489 161.566 163.849  1.00  0.00    -0.271 N 
ATOM      7  C   UNL     1     160.763 163.205 164.157  1.00  0.00     0.090 A 
ATOM      8  C   UNL     1     161.783 162.645 163.394  1.00  0.00     0.099 A 
ATOM      9  C   UNL     1     160.465 162.637 165.389  1.00  0.00     0.253 A 
ATOM     10  N   UNL     1     161.165 161.555 165.821  1.00  0.00    -0.274 N 
ATOM     11  O   UNL     1     159.547 163.122 166.102  1.00  0.00    -0.269 OA
ATOM     12  C   UNL     1     162.161 161.013 165.067  1.00  0.00     0.330 A 
ATOM     13  H   UNL     1     160.930 161.129 166.747  1.00  0.00     0.175 HD
ATOM     14  O   UNL     1     162.769 159.998 165.504  1.00  0.00    -0.248 OA
ENDBRANCH   1   6
BRANCH   2  15
ATOM     15  O   UNL     1     165.014 162.604 164.097  1.00  0.00    -0.386 OA
ATOM     16  H   UNL     1     165.248 162.468 165.051  1.00  0.00     0.211 HD
ENDBRANCH   2  15
BRANCH   3  17
ATOM     17  O   UNL     1     166.813 162.215 162.211  1.00  0.00    -0.387 OA
ATOM     18  H   UNL     1     167.572 161.781 162.681  1.00  0.00     0.211 HD
ENDBRANCH   3  17
BRANCH   4  19
ATOM     19  C   UNL     1     164.898 162.865 160.348  1.00  0.00     0.191 C 
BRANCH  19  20
ATOM     20  O   UNL     1     164.816 163.936 161.250  1.00  0.00    -0.394 OA
ATOM     21  H   UNL     1     164.541 164.731 160.724  1.00  0.00     0.210 HD
ENDBRANCH  19  20
ENDBRANCH   4  19
TORSDOF 5
ENDMDL
MODEL 9
REMARK VINA RESULT:    -3.723     17.049     18.062
REMARK INTER + INTRA:          -4.854
REMARK INTER:                  -4.232
REMARK INTRA:                  -0.622
REMARK UNBOUND:                -0.369
REMARK SMILES O=c1ccn([C@H]2O[C@@H](CO)[C@@H](O)[C@H]2O)c(=O)[nH]1
REMARK SMILES IDX 6 1 13 2 11 3 8 4 7 5 5 6 3 7 4 8 2 9 17 10 1 11 15 12 16 14
REMARK SMILES IDX 14 15 12 17 9 19 10 20
REMARK H PARENT 17 13 14 16 12 18 10 21
REMARK Flexibility Score: inf
ROOT
ATOM      1  C   UNL     1     173.060 174.163 161.768  1.00  0.00     0.255 C 
ATOM      2  C   UNL     1     172.703 174.769 160.414  1.00  0.00     0.196 C 
ATOM      3  C   UNL     1     172.004 173.618 159.725  1.00  0.00     0.179 C 
ATOM      4  C   UNL     1     171.508 172.740 160.894  1.00  0.00     0.178 C 
ATOM      5  O   UNL     1     172.086 173.200 162.101  1.00  0.00    -0.347 OA
ENDROOT
BRANCH   1   6
ATOM      6  N   UNL     1     173.207 175.192 162.823  1.00  0.00    -0.271 N 
ATOM      7  C   UNL     1     172.215 176.342 164.682  1.00  0.00     0.090 A 
ATOM      8  C   UNL     1     172.142 175.406 163.655  1.00  0.00     0.099 A 
ATOM      9  C   UNL     1     173.398 177.050 164.855  1.00  0.00     0.253 A 
ATOM     10  N   UNL     1     174.452 176.815 164.030  1.00  0.00    -0.274 N 
ATOM     11  O   UNL     1     173.493 177.904 165.776  1.00  0.00    -0.269 OA
ATOM     12  C   UNL     1     174.373 175.896 163.028  1.00  0.00     0.330 A 
ATOM     13  H   UNL     1     175.342 177.347 164.172  1.00  0.00     0.175 HD
ATOM     14  O   UNL     1     175.384 175.701 162.301  1.00  0.00    -0.248 OA
ENDBRANCH   1   6
BRANCH   2  15
ATOM     15  O   UNL     1     171.880 175.908 160.533  1.00  0.00    -0.386 OA
ATOM     16  H   UNL     1     170.942 175.606 160.640  1.00  0.00     0.211 HD
ENDBRANCH   2  15
BRANCH   3  17
ATOM     17  O   UNL     1     170.976 174.068 158.878  1.00  0.00    -0.387 OA
ATOM     18  H   UNL     1     171.365 174.794 158.324  1.00  0.00     0.211 HD
ENDBRANCH   3  17
BRANCH   4  19
ATOM     19  C   UNL     1     169.978 172.707 161.049  1.00  0.00     0.191 C 
BRANCH  19  20
ATOM     20  O   UNL     1     169.510 173.936 161.537  1.00  0.00    -0.394 OA
ATOM     21  H   UNL     1     168.860 173.726 162.258  1.00  0.00     0.210 HD
ENDBRANCH  19  20
ENDBRANCH   4  19
TORSDOF 5
ENDMDL
