MODEL 1
REMARK VINA RESULT:    -4.631      0.000      0.000
REMARK INTER + INTRA:          -5.459
REMARK INTER:                  -5.307
REMARK INTRA:                  -0.151
REMARK UNBOUND:                -0.151
REMARK SMILES CC=Cc1ccc(O)c(OC)c1
REMARK SMILES IDX 4 1 12 2 9 3 7 4 6 5 5 6 3 7 1 8 2 9 10 10 11 11 8 12
REMARK H PARENT 8 13
REMARK Flexibility Score: inf
ROOT
ATOM      1  C   UNL     1     116.405 116.821 116.060  1.00  0.00    -0.022 A 
ATOM      2  C   UNL     1     117.055 115.692 116.588  1.00  0.00     0.058 A 
ATOM      3  C   UNL     1     117.186 115.518 117.981  1.00  0.00     0.161 A 
ATOM      4  C   UNL     1     116.666 116.496 118.846  1.00  0.00     0.157 A 
ATOM      5  C   UNL     1     116.032 117.626 118.325  1.00  0.00     0.051 A 
ATOM      6  C   UNL     1     115.904 117.794 116.945  1.00  0.00     0.012 A 
ENDROOT
BRANCH   1   7
ATOM      7  C   UNL     1     116.305 116.957 114.586  1.00  0.00     0.003 C 
ATOM      8  C   UNL     1     116.860 116.427 112.245  1.00  0.00     0.035 C 
ATOM      9  C   UNL     1     117.006 116.219 113.718  1.00  0.00    -0.030 C 
ENDBRANCH   1   7
BRANCH   3  10
ATOM     10  O   UNL     1     117.822 114.394 118.533  1.00  0.00    -0.493 OA
ATOM     11  C   UNL     1     118.587 113.452 117.789  1.00  0.00     0.278 C 
ENDBRANCH   3  10
BRANCH   4  12
ATOM     12  O   UNL     1     116.773 116.363 120.231  1.00  0.00    -0.504 OA
ATOM     13  H   UNL     1     117.433 115.728 120.664  1.00  0.00     0.293 HD
ENDBRANCH   4  12
TORSDOF 3
ENDMDL
MODEL 2
REMARK VINA RESULT:    -4.626      1.679      2.096
REMARK INTER + INTRA:          -5.454
REMARK INTER:                  -5.302
REMARK INTRA:                  -0.151
REMARK UNBOUND:                -0.151
REMARK SMILES CC=Cc1ccc(O)c(OC)c1
REMARK SMILES IDX 4 1 12 2 9 3 7 4 6 5 5 6 3 7 1 8 2 9 10 10 11 11 8 12
REMARK H PARENT 8 13
REMARK Flexibility Score: inf
ROOT
ATOM      1  C   UNL     1     116.348 116.400 116.027  1.00  0.00    -0.022 A 
ATOM      2  C   UNL     1     117.488 117.034 116.550  1.00  0.00     0.058 A 
ATOM      3  C   UNL     1     117.678 117.150 117.942  1.00  0.00     0.161 A 
ATOM      4  C   UNL     1     116.702 116.631 118.812  1.00  0.00     0.157 A 
ATOM      5  C   UNL     1     115.561 116.013 118.296  1.00  0.00     0.051 A 
ATOM      6  C   UNL     1     115.378 115.901 116.916  1.00  0.00     0.012 A 
ENDROOT
BRANCH   1   7
ATOM      7  C   UNL     1     116.197 116.316 114.553  1.00  0.00     0.003 C 
ATOM      8  C   UNL     1     116.715 116.884 112.212  1.00  0.00     0.035 C 
ATOM      9  C   UNL     1     116.939 117.013 113.685  1.00  0.00    -0.030 C 
ENDBRANCH   1   7
BRANCH   3  10
ATOM     10  O   UNL     1     118.813 117.769 118.490  1.00  0.00    -0.493 OA
ATOM     11  C   UNL     1     119.757 118.529 117.744  1.00  0.00     0.278 C 
ENDBRANCH   3  10
BRANCH   4  12
ATOM     12  O   UNL     1     116.850 116.723 120.197  1.00  0.00    -0.504 OA
ATOM     13  H   UNL     1     116.805 115.910 120.800  1.00  0.00     0.293 HD
ENDBRANCH   4  12
TORSDOF 3
ENDMDL
MODEL 3
REMARK VINA RESULT:    -4.607      1.327      3.013
REMARK INTER + INTRA:          -5.431
REMARK INTER:                  -5.282
REMARK INTRA:                  -0.149
REMARK UNBOUND:                -0.151
REMARK SMILES CC=Cc1ccc(O)c(OC)c1
REMARK SMILES IDX 4 1 12 2 9 3 7 4 6 5 5 6 3 7 1 8 2 9 10 10 11 11 8 12
REMARK H PARENT 8 13
REMARK Flexibility Score: inf
ROOT
ATOM      1  C   UNL     1     116.648 116.638 115.954  1.00  0.00    -0.022 A 
ATOM      2  C   UNL     1     115.912 117.631 116.623  1.00  0.00     0.058 A 
ATOM      3  C   UNL     1     115.591 117.498 117.989  1.00  0.00     0.161 A 
ATOM      4  C   UNL     1     116.009 116.348 118.682  1.00  0.00     0.157 A 
ATOM      5  C   UNL     1     116.728 115.353 118.017  1.00  0.00     0.051 A 
ATOM      6  C   UNL     1     117.044 115.490 116.664  1.00  0.00     0.012 A 
ENDROOT
BRANCH   1   7
ATOM      7  C   UNL     1     116.948 116.828 114.513  1.00  0.00     0.003 C 
ATOM      8  C   UNL     1     116.635 116.477 112.095  1.00  0.00     0.035 C 
ATOM      9  C   UNL     1     116.260 116.247 113.523  1.00  0.00    -0.030 C 
ENDBRANCH   1   7
BRANCH   3  10
ATOM     10  O   UNL     1     114.866 118.480 118.682  1.00  0.00    -0.493 OA
ATOM     11  C   UNL     1     114.410 119.702 118.111  1.00  0.00     0.278 C 
ENDBRANCH   3  10
BRANCH   4  12
ATOM     12  O   UNL     1     115.714 116.176 120.035  1.00  0.00    -0.504 OA
ATOM     13  H   UNL     1     115.007 116.725 120.508  1.00  0.00     0.293 HD
ENDBRANCH   4  12
TORSDOF 3
ENDMDL
MODEL 4
REMARK VINA RESULT:    -4.585      1.946      2.987
REMARK INTER + INTRA:          -5.406
REMARK INTER:                  -5.237
REMARK INTRA:                  -0.169
REMARK UNBOUND:                -0.151
REMARK SMILES CC=Cc1ccc(O)c(OC)c1
REMARK SMILES IDX 4 1 12 2 9 3 7 4 6 5 5 6 3 7 1 8 2 9 10 10 11 11 8 12
REMARK H PARENT 8 13
REMARK Flexibility Score: inf
ROOT
ATOM      1  C   UNL     1     116.599 116.014 116.472  1.00  0.00    -0.022 A 
ATOM      2  C   UNL     1     115.305 116.182 116.995  1.00  0.00     0.058 A 
ATOM      3  C   UNL     1     114.899 115.494 118.157  1.00  0.00     0.161 A 
ATOM      4  C   UNL     1     115.804 114.622 118.788  1.00  0.00     0.157 A 
ATOM      5  C   UNL     1     117.085 114.441 118.263  1.00  0.00     0.051 A 
ATOM      6  C   UNL     1     117.482 115.125 117.112  1.00  0.00     0.012 A 
ENDROOT
BRANCH   1   7
ATOM      7  C   UNL     1     116.967 116.756 115.241  1.00  0.00     0.003 C 
ATOM      8  C   UNL     1     117.067 117.157 112.812  1.00  0.00     0.035 C 
ATOM      9  C   UNL     1     116.645 116.360 114.004  1.00  0.00    -0.030 C 
ENDBRANCH   1   7
BRANCH   3  10
ATOM     10  O   UNL     1     113.617 115.653 118.705  1.00  0.00    -0.493 OA
ATOM     11  C   UNL     1     113.177 116.806 119.414  1.00  0.00     0.278 C 
ENDBRANCH   3  10
BRANCH   4  12
ATOM     12  O   UNL     1     115.444 113.922 119.941  1.00  0.00    -0.504 OA
ATOM     13  H   UNL     1     114.492 113.903 120.287  1.00  0.00     0.293 HD
ENDBRANCH   4  12
TORSDOF 3
ENDMDL
MODEL 5
REMARK VINA RESULT:    -4.554      1.610      1.994
REMARK INTER + INTRA:          -5.371
REMARK INTER:                  -5.220
REMARK INTRA:                  -0.151
REMARK UNBOUND:                -0.151
REMARK SMILES CC=Cc1ccc(O)c(OC)c1
REMARK SMILES IDX 4 1 12 2 9 3 7 4 6 5 5 6 3 7 1 8 2 9 10 10 11 11 8 12
REMARK H PARENT 8 13
REMARK Flexibility Score: inf
ROOT
ATOM      1  C   UNL     1     116.493 116.587 115.974  1.00  0.00    -0.022 A 
ATOM      2  C   UNL     1     115.534 115.876 116.717  1.00  0.00     0.058 A 
ATOM      3  C   UNL     1     115.722 115.628 118.092  1.00  0.00     0.161 A 
ATOM      4  C   UNL     1     116.892 116.092 118.719  1.00  0.00     0.157 A 
ATOM      5  C   UNL     1     117.853 116.787 117.981  1.00  0.00     0.051 A 
ATOM      6  C   UNL     1     117.662 117.030 116.619  1.00  0.00     0.012 A 
ENDROOT
BRANCH   1   7
ATOM      7  C   UNL     1     116.246 116.810 114.528  1.00  0.00     0.003 C 
ATOM      8  C   UNL     1     116.686 116.562 112.116  1.00  0.00     0.035 C 
ATOM      9  C   UNL     1     116.990 116.276 113.552  1.00  0.00    -0.030 C 
ENDBRANCH   1   7
BRANCH   3  10
ATOM     10  O   UNL     1     114.775 114.929 118.857  1.00  0.00    -0.493 OA
ATOM     11  C   UNL     1     113.693 114.178 118.317  1.00  0.00     0.278 C 
ENDBRANCH   3  10
BRANCH   4  12
ATOM     12  O   UNL     1     117.118 115.870 120.078  1.00  0.00    -0.504 OA
ATOM     13  H   UNL     1     116.364 115.845 120.754  1.00  0.00     0.293 HD
ENDBRANCH   4  12
TORSDOF 3
ENDMDL
MODEL 6
REMARK VINA RESULT:    -4.149      1.768      2.304
REMARK INTER + INTRA:          -4.907
REMARK INTER:                  -4.762
REMARK INTRA:                  -0.145
REMARK UNBOUND:                -0.151
REMARK SMILES CC=Cc1ccc(O)c(OC)c1
REMARK SMILES IDX 4 1 12 2 9 3 7 4 6 5 5 6 3 7 1 8 2 9 10 10 11 11 8 12
REMARK H PARENT 8 13
REMARK Flexibility Score: inf
ROOT
ATOM      1  C   UNL     1     116.807 115.437 117.132  1.00  0.00    -0.022 A 
ATOM      2  C   UNL     1     117.957 114.716 117.498  1.00  0.00     0.058 A 
ATOM      3  C   UNL     1     117.925 113.795 118.565  1.00  0.00     0.161 A 
ATOM      4  C   UNL     1     116.726 113.609 119.274  1.00  0.00     0.157 A 
ATOM      5  C   UNL     1     115.585 114.334 118.923  1.00  0.00     0.051 A 
ATOM      6  C   UNL     1     115.621 115.245 117.865  1.00  0.00     0.012 A 
ENDROOT
BRANCH   1   7
ATOM      7  C   UNL     1     116.902 116.400 116.007  1.00  0.00     0.003 C 
ATOM      8  C   UNL     1     116.721 117.127 113.660  1.00  0.00     0.035 C 
ATOM      9  C   UNL     1     116.584 116.104 114.741  1.00  0.00    -0.030 C 
ENDBRANCH   1   7
BRANCH   3  10
ATOM     10  O   UNL     1     119.057 113.056 118.942  1.00  0.00    -0.493 OA
ATOM     11  C   UNL     1     120.321 113.121 118.290  1.00  0.00     0.278 C 
ENDBRANCH   3  10
BRANCH   4  12
ATOM     12  O   UNL     1     116.649 112.707 120.336  1.00  0.00    -0.504 OA
ATOM     13  H   UNL     1     115.811 112.599 120.894  1.00  0.00     0.293 HD
ENDBRANCH   4  12
TORSDOF 3
ENDMDL
MODEL 7
REMARK VINA RESULT:    -3.911      2.567      2.885
REMARK INTER + INTRA:          -4.634
REMARK INTER:                  -4.478
REMARK INTRA:                  -0.156
REMARK UNBOUND:                -0.151
REMARK SMILES CC=Cc1ccc(O)c(OC)c1
REMARK SMILES IDX 4 1 12 2 9 3 7 4 6 5 5 6 3 7 1 8 2 9 10 10 11 11 8 12
REMARK H PARENT 8 13
REMARK Flexibility Score: inf
ROOT
ATOM      1  C   UNL     1     115.478 116.183 117.022  1.00  0.00    -0.022 A 
ATOM      2  C   UNL     1     114.707 115.155 117.590  1.00  0.00     0.058 A 
ATOM      3  C   UNL     1     114.009 115.356 118.798  1.00  0.00     0.161 A 
ATOM      4  C   UNL     1     114.100 116.603 119.442  1.00  0.00     0.157 A 
ATOM      5  C   UNL     1     114.877 117.622 118.888  1.00  0.00     0.051 A 
ATOM      6  C   UNL     1     115.566 117.418 117.691  1.00  0.00     0.012 A 
ENDROOT
BRANCH   1   7
ATOM      7  C   UNL     1     116.199 115.911 115.753  1.00  0.00     0.003 C 
ATOM      8  C   UNL     1     116.994 116.415 113.476  1.00  0.00     0.035 C 
ATOM      9  C   UNL     1     116.259 116.770 114.728  1.00  0.00    -0.030 C 
ENDBRANCH   1   7
BRANCH   3  10
ATOM     10  O   UNL     1     113.224 114.348 119.380  1.00  0.00    -0.493 OA
ATOM     11  C   UNL     1     113.114 113.019 118.881  1.00  0.00     0.278 C 
ENDBRANCH   3  10
BRANCH   4  12
ATOM     12  O   UNL     1     113.425 116.846 120.639  1.00  0.00    -0.504 OA
ATOM     13  H   UNL     1     112.995 116.103 121.177  1.00  0.00     0.293 HD
ENDBRANCH   4  12
TORSDOF 3
ENDMDL
MODEL 8
REMARK VINA RESULT:    -3.713      3.092      4.498
REMARK INTER + INTRA:          -4.407
REMARK INTER:                  -4.254
REMARK INTRA:                  -0.153
REMARK UNBOUND:                -0.151
REMARK SMILES CC=Cc1ccc(O)c(OC)c1
REMARK SMILES IDX 4 1 12 2 9 3 7 4 6 5 5 6 3 7 1 8 2 9 10 10 11 11 8 12
REMARK H PARENT 8 13
REMARK Flexibility Score: inf
ROOT
ATOM      1  C   UNL     1     116.913 114.353 118.257  1.00  0.00    -0.022 A 
ATOM      2  C   UNL     1     115.915 113.580 118.874  1.00  0.00     0.058 A 
ATOM      3  C   UNL     1     114.553 113.920 118.746  1.00  0.00     0.161 A 
ATOM      4  C   UNL     1     114.197 115.055 117.997  1.00  0.00     0.157 A 
ATOM      5  C   UNL     1     115.187 115.835 117.394  1.00  0.00     0.051 A 
ATOM      6  C   UNL     1     116.535 115.494 117.524  1.00  0.00     0.012 A 
ENDROOT
BRANCH   1   7
ATOM      7  C   UNL     1     118.331 113.954 118.435  1.00  0.00     0.003 C 
ATOM      8  C   UNL     1     120.431 112.817 117.828  1.00  0.00     0.035 C 
ATOM      9  C   UNL     1     119.006 113.188 117.569  1.00  0.00    -0.030 C 
ENDBRANCH   1   7
BRANCH   3  10
ATOM     10  O   UNL     1     113.537 113.158 119.344  1.00  0.00    -0.493 OA
ATOM     11  C   UNL     1     112.874 112.063 118.721  1.00  0.00     0.278 C 
ENDBRANCH   3  10
BRANCH   4  12
ATOM     12  O   UNL     1     112.861 115.428 117.843  1.00  0.00    -0.504 OA
ATOM     13  H   UNL     1     112.317 115.813 118.605  1.00  0.00     0.293 HD
ENDBRANCH   4  12
TORSDOF 3
ENDMDL
MODEL 9
REMARK VINA RESULT:    -3.703      2.655      4.395
REMARK INTER + INTRA:          -4.396
REMARK INTER:                  -4.242
REMARK INTRA:                  -0.154
REMARK UNBOUND:                -0.151
REMARK SMILES CC=Cc1ccc(O)c(OC)c1
REMARK SMILES IDX 4 1 12 2 9 3 7 4 6 5 5 6 3 7 1 8 2 9 10 10 11 11 8 12
REMARK H PARENT 8 13
REMARK Flexibility Score: inf
ROOT
ATOM      1  C   UNL     1     115.354 119.271 117.837  1.00  0.00    -0.022 A 
ATOM      2  C   UNL     1     115.570 118.152 117.015  1.00  0.00     0.058 A 
ATOM      3  C   UNL     1     116.754 117.394 117.119  1.00  0.00     0.161 A 
ATOM      4  C   UNL     1     117.732 117.777 118.054  1.00  0.00     0.157 A 
ATOM      5  C   UNL     1     117.527 118.897 118.863  1.00  0.00     0.051 A 
ATOM      6  C   UNL     1     116.352 119.644 118.756  1.00  0.00     0.012 A 
ENDROOT
BRANCH   1   7
ATOM      7  C   UNL     1     114.093 120.037 117.676  1.00  0.00     0.003 C 
ATOM      8  C   UNL     1     111.802 120.730 118.263  1.00  0.00     0.035 C 
ATOM      9  C   UNL     1     113.045 119.934 118.502  1.00  0.00    -0.030 C 
ENDBRANCH   1   7
BRANCH   3  10
ATOM     10  O   UNL     1     116.989 116.267 116.316  1.00  0.00    -0.493 OA
ATOM     11  C   UNL     1     116.796 116.223 114.907  1.00  0.00     0.278 C 
ENDBRANCH   3  10
BRANCH   4  12
ATOM     12  O   UNL     1     118.918 117.055 118.192  1.00  0.00    -0.504 OA
ATOM     13  H   UNL     1     119.774 117.327 117.722  1.00  0.00     0.293 HD
ENDBRANCH   4  12
TORSDOF 3
ENDMDL
