MODEL 1
REMARK VINA RESULT:    -2.207      0.000      0.000
REMARK INTER + INTRA:          -3.355
REMARK INTER:                  -3.239
REMARK INTRA:                  -0.116
REMARK UNBOUND:                -0.116
REMARK SMILES O=c1c(O[C@@H]2O[C@@H](CO)[C@H](O)[C@@H](O)[C@@H]2O)c(-c2ccc(O)c(O)c2)oc2cc(O)cc(O)c12
REMARK SMILES IDX 4 1 3 2 16 3 25 4 2 5 26 6 1 7 33 8 27 9 31 10 28 11 30 12
REMARK SMILES IDX 17 13 18 14 19 15 20 16 24 17 22 18 21 19 23 21 32 23 29 25
REMARK SMILES IDX 5 27 14 28 6 29 12 30 7 31 10 32 15 33 13 35 8 37 9 38 11 40
REMARK H PARENT 21 20 23 22 32 24 29 26 15 34 13 36 9 39 11 41
REMARK Flexibility Score: inf
ROOT
ATOM      1  O   UNL     1     -10.546  62.609  40.372  1.00  0.00    -0.454 OA
ENDROOT
BRANCH   1   2
ATOM      2  C   UNL     1     -11.867  62.200  40.500  1.00  0.00     0.214 A 
ATOM      3  C   UNL     1     -12.239  61.059  41.236  1.00  0.00     0.180 A 
ATOM      4  O   UNL     1     -13.347  60.402  40.912  1.00  0.00    -0.452 OA
ATOM      5  C   UNL     1     -12.885  62.896  39.873  1.00  0.00     0.239 A 
ATOM      6  C   UNL     1     -14.219  60.896  40.011  1.00  0.00     0.146 A 
ATOM      7  O   UNL     1     -12.968  64.118  40.078  1.00  0.00    -0.285 OA
ATOM      8  C   UNL     1     -14.006  62.175  39.440  1.00  0.00     0.111 A 
ATOM      9  C   UNL     1     -15.385  60.195  39.716  1.00  0.00     0.094 A 
ATOM     10  C   UNL     1     -14.953  62.700  38.528  1.00  0.00     0.134 A 
ATOM     11  C   UNL     1     -16.360  60.757  38.898  1.00  0.00     0.123 A 
ATOM     12  C   UNL     1     -16.123  61.980  38.257  1.00  0.00     0.093 A 
BRANCH   3  13
ATOM     13  C   UNL     1     -11.639  60.867  42.577  1.00  0.00     0.025 A 
ATOM     14  C   UNL     1     -12.336  60.040  43.453  1.00  0.00     0.016 A 
ATOM     15  C   UNL     1     -11.921  59.875  44.772  1.00  0.00     0.051 A 
ATOM     16  C   UNL     1     -10.823  60.603  45.254  1.00  0.00     0.157 A 
ATOM     17  C   UNL     1     -10.519  61.587  43.039  1.00  0.00     0.062 A 
ATOM     18  C   UNL     1     -10.101  61.424  44.372  1.00  0.00     0.158 A 
BRANCH  16  19
ATOM     19  O   UNL     1     -10.439  60.497  46.608  1.00  0.00    -0.504 OA
ATOM     20  H   UNL     1      -9.518  60.766  46.920  1.00  0.00     0.293 HD
ENDBRANCH  16  19
BRANCH  18  21
ATOM     21  O   UNL     1      -9.016  62.141  44.856  1.00  0.00    -0.504 OA
ATOM     22  H   UNL     1      -9.166  63.006  45.369  1.00  0.00     0.293 HD
ENDBRANCH  18  21
ENDBRANCH   3  13
BRANCH  10  23
ATOM     23  O   UNL     1     -14.735  63.898  37.875  1.00  0.00    -0.507 OA
ATOM     24  H   UNL     1     -13.917  64.465  38.120  1.00  0.00     0.293 HD
ENDBRANCH  10  23
BRANCH  11  25
ATOM     25  O   UNL     1     -17.625  60.182  38.827  1.00  0.00    -0.508 OA
ATOM     26  H   UNL     1     -18.459  60.709  39.101  1.00  0.00     0.293 HD
ENDBRANCH  11  25
ENDBRANCH   1   2
BRANCH   1  27
ATOM     27  C   UNL     1     -10.271  63.907  39.802  1.00  0.00     0.339 C 
ATOM     28  C   UNL     1      -9.985  64.914  40.935  1.00  0.00     0.214 C 
ATOM     29  O   UNL     1      -9.221  63.735  38.851  1.00  0.00    -0.332 OA
ATOM     30  C   UNL     1      -8.540  64.742  41.343  1.00  0.00     0.180 C 
ATOM     31  C   UNL     1      -8.223  64.737  38.766  1.00  0.00     0.179 C 
ATOM     32  C   UNL     1      -7.594  65.088  40.151  1.00  0.00     0.177 C 
BRANCH  28  33
ATOM     33  O   UNL     1     -10.840  64.693  42.029  1.00  0.00    -0.384 OA
ATOM     34  H   UNL     1     -11.386  63.903  41.774  1.00  0.00     0.211 HD
ENDBRANCH  28  33
BRANCH  30  35
ATOM     35  O   UNL     1      -8.221  65.504  42.479  1.00  0.00    -0.387 OA
ATOM     36  H   UNL     1      -9.081  65.802  42.872  1.00  0.00     0.211 HD
ENDBRANCH  30  35
BRANCH  31  37
ATOM     37  C   UNL     1      -8.704  65.913  37.876  1.00  0.00     0.191 C 
BRANCH  37  38
ATOM     38  O   UNL     1      -8.510  67.123  38.573  1.00  0.00    -0.394 OA
ATOM     39  H   UNL     1      -7.545  67.203  38.814  1.00  0.00     0.210 HD
ENDBRANCH  37  38
ENDBRANCH  31  37
BRANCH  32  40
ATOM     40  O   UNL     1      -6.365  64.408  40.338  1.00  0.00    -0.387 OA
ATOM     41  H   UNL     1      -6.295  63.664  39.658  1.00  0.00     0.211 HD
ENDBRANCH  32  40
ENDBRANCH   1  27
TORSDOF 12
ENDMDL
MODEL 2
REMARK VINA RESULT:    -1.538      1.570      6.345
REMARK INTER + INTRA:          -2.374
REMARK INTER:                  -1.350
REMARK INTRA:                  -1.024
REMARK UNBOUND:                -0.116
REMARK SMILES O=c1c(O[C@@H]2O[C@@H](CO)[C@H](O)[C@@H](O)[C@@H]2O)c(-c2ccc(O)c(O)c2)oc2cc(O)cc(O)c12
REMARK SMILES IDX 4 1 3 2 16 3 25 4 2 5 26 6 1 7 33 8 27 9 31 10 28 11 30 12
REMARK SMILES IDX 17 13 18 14 19 15 20 16 24 17 22 18 21 19 23 21 32 23 29 25
REMARK SMILES IDX 5 27 14 28 6 29 12 30 7 31 10 32 15 33 13 35 8 37 9 38 11 40
REMARK H PARENT 21 20 23 22 32 24 29 26 15 34 13 36 9 39 11 41
REMARK Flexibility Score: inf
ROOT
ATOM      1  O   UNL     1     -11.960  61.612  40.270  1.00  0.00    -0.454 OA
ENDROOT
BRANCH   1   2
ATOM      2  C   UNL     1     -10.878  62.345  40.736  1.00  0.00     0.214 A 
ATOM      3  C   UNL     1     -10.765  62.760  42.077  1.00  0.00     0.180 A 
ATOM      4  O   UNL     1     -10.070  63.854  42.369  1.00  0.00    -0.452 OA
ATOM      5  C   UNL     1      -9.861  62.728  39.879  1.00  0.00     0.239 A 
ATOM      6  C   UNL     1      -9.323  64.481  41.439  1.00  0.00     0.146 A 
ATOM      7  O   UNL     1      -9.308  61.846  39.201  1.00  0.00    -0.285 OA
ATOM      8  C   UNL     1      -9.202  63.937  40.136  1.00  0.00     0.111 A 
ATOM      9  C   UNL     1      -8.584  65.609  41.786  1.00  0.00     0.094 A 
ATOM     10  C   UNL     1      -8.379  64.583  39.182  1.00  0.00     0.134 A 
ATOM     11  C   UNL     1      -7.699  66.182  40.878  1.00  0.00     0.123 A 
ATOM     12  C   UNL     1      -7.638  65.709  39.560  1.00  0.00     0.093 A 
BRANCH   3  13
ATOM     13  C   UNL     1     -11.055  61.771  43.141  1.00  0.00     0.025 A 
ATOM     14  C   UNL     1     -10.009  61.475  44.011  1.00  0.00     0.016 A 
ATOM     15  C   UNL     1     -10.137  60.483  44.979  1.00  0.00     0.051 A 
ATOM     16  C   UNL     1     -11.311  59.717  45.043  1.00  0.00     0.157 A 
ATOM     17  C   UNL     1     -12.250  61.027  43.208  1.00  0.00     0.062 A 
ATOM     18  C   UNL     1     -12.378  60.022  44.182  1.00  0.00     0.158 A 
BRANCH  16  19
ATOM     19  O   UNL     1     -11.422  58.661  45.974  1.00  0.00    -0.504 OA
ATOM     20  H   UNL     1     -12.187  58.611  46.629  1.00  0.00     0.293 HD
ENDBRANCH  16  19
BRANCH  18  21
ATOM     21  O   UNL     1     -13.536  59.260  44.251  1.00  0.00    -0.504 OA
ATOM     22  H   UNL     1     -14.391  59.592  43.811  1.00  0.00     0.293 HD
ENDBRANCH  18  21
ENDBRANCH   3  13
BRANCH  10  23
ATOM     23  O   UNL     1      -8.312  64.142  37.875  1.00  0.00    -0.507 OA
ATOM     24  H   UNL     1      -8.655  63.205  37.639  1.00  0.00     0.293 HD
ENDBRANCH  10  23
BRANCH  11  25
ATOM     25  O   UNL     1      -6.773  67.125  41.309  1.00  0.00    -0.508 OA
ATOM     26  H   UNL     1      -6.175  66.944  42.120  1.00  0.00     0.293 HD
ENDBRANCH  11  25
ENDBRANCH   1   2
BRANCH   1  27
ATOM     27  C   UNL     1     -12.729  62.133  39.163  1.00  0.00     0.339 C 
ATOM     28  C   UNL     1     -13.228  60.963  38.290  1.00  0.00     0.214 C 
ATOM     29  O   UNL     1     -13.745  62.970  39.713  1.00  0.00    -0.332 OA
ATOM     30  C   UNL     1     -14.472  60.407  38.945  1.00  0.00     0.180 C 
ATOM     31  C   UNL     1     -15.033  62.936  39.124  1.00  0.00     0.179 C 
ATOM     32  C   UNL     1     -15.598  61.488  38.980  1.00  0.00     0.177 C 
BRANCH  28  33
ATOM     33  O   UNL     1     -12.242  59.969  38.172  1.00  0.00    -0.384 OA
ATOM     34  H   UNL     1     -11.394  60.464  38.012  1.00  0.00     0.211 HD
ENDBRANCH  28  33
BRANCH  30  35
ATOM     35  O   UNL     1     -14.917  59.234  38.314  1.00  0.00    -0.387 OA
ATOM     36  H   UNL     1     -15.628  58.853  38.890  1.00  0.00     0.211 HD
ENDBRANCH  30  35
BRANCH  31  37
ATOM     37  C   UNL     1     -15.088  63.856  37.877  1.00  0.00     0.191 C 
BRANCH  37  38
ATOM     38  O   UNL     1     -15.599  65.113  38.257  1.00  0.00    -0.394 OA
ATOM     39  H   UNL     1     -16.589  65.108  38.129  1.00  0.00     0.210 HD
ENDBRANCH  37  38
ENDBRANCH  31  37
BRANCH  32  40
ATOM     40  O   UNL     1     -16.486  61.181  40.040  1.00  0.00    -0.387 OA
ATOM     41  H   UNL     1     -17.153  61.933  40.138  1.00  0.00     0.211 HD
ENDBRANCH  32  40
ENDBRANCH   1  27
TORSDOF 12
ENDMDL
MODEL 3
REMARK VINA RESULT:    -1.200      1.918      6.042
REMARK INTER + INTRA:          -1.878
REMARK INTER:                  -3.519
REMARK INTRA:                   1.641
REMARK UNBOUND:                -0.116
REMARK SMILES O=c1c(O[C@@H]2O[C@@H](CO)[C@H](O)[C@@H](O)[C@@H]2O)c(-c2ccc(O)c(O)c2)oc2cc(O)cc(O)c12
REMARK SMILES IDX 4 1 3 2 16 3 25 4 2 5 26 6 1 7 33 8 27 9 31 10 28 11 30 12
REMARK SMILES IDX 17 13 18 14 19 15 20 16 24 17 22 18 21 19 23 21 32 23 29 25
REMARK SMILES IDX 5 27 14 28 6 29 12 30 7 31 10 32 15 33 13 35 8 37 9 38 11 40
REMARK H PARENT 21 20 23 22 32 24 29 26 15 34 13 36 9 39 11 41
REMARK Flexibility Score: inf
ROOT
ATOM      1  O   UNL     1     -11.235  61.369  42.318  1.00  0.00    -0.454 OA
ENDROOT
BRANCH   1   2
ATOM      2  C   UNL     1     -10.287  62.324  41.975  1.00  0.00     0.214 A 
ATOM      3  C   UNL     1      -9.876  63.337  42.863  1.00  0.00     0.180 A 
ATOM      4  O   UNL     1      -9.431  64.491  42.381  1.00  0.00    -0.452 OA
ATOM      5  C   UNL     1      -9.719  62.336  40.714  1.00  0.00     0.239 A 
ATOM      6  C   UNL     1      -9.195  64.659  41.065  1.00  0.00     0.146 A 
ATOM      7  O   UNL     1      -9.196  61.288  40.300  1.00  0.00    -0.285 OA
ATOM      8  C   UNL     1      -9.348  63.572  40.169  1.00  0.00     0.111 A 
ATOM      9  C   UNL     1      -8.700  65.873  40.597  1.00  0.00     0.094 A 
ATOM     10  C   UNL     1      -9.054  63.751  38.796  1.00  0.00     0.134 A 
ATOM     11  C   UNL     1      -8.318  66.016  39.267  1.00  0.00     0.123 A 
ATOM     12  C   UNL     1      -8.548  64.979  38.352  1.00  0.00     0.093 A 
BRANCH   3  13
ATOM     13  C   UNL     1      -9.559  62.954  44.259  1.00  0.00     0.025 A 
ATOM     14  C   UNL     1      -9.758  61.617  44.594  1.00  0.00     0.016 A 
ATOM     15  C   UNL     1      -9.595  61.172  45.903  1.00  0.00     0.051 A 
ATOM     16  C   UNL     1      -9.291  62.089  46.920  1.00  0.00     0.157 A 
ATOM     17  C   UNL     1      -9.229  63.884  45.266  1.00  0.00     0.062 A 
ATOM     18  C   UNL     1      -9.069  63.435  46.588  1.00  0.00     0.158 A 
BRANCH  16  19
ATOM     19  O   UNL     1      -9.195  61.657  48.261  1.00  0.00    -0.504 OA
ATOM     20  H   UNL     1      -8.387  61.865  48.828  1.00  0.00     0.293 HD
ENDBRANCH  16  19
BRANCH  18  21
ATOM     21  O   UNL     1      -8.769  64.336  47.600  1.00  0.00    -0.504 OA
ATOM     22  H   UNL     1      -7.850  64.325  48.036  1.00  0.00     0.293 HD
ENDBRANCH  18  21
ENDBRANCH   3  13
BRANCH  10  23
ATOM     23  O   UNL     1      -9.284  62.747  37.875  1.00  0.00    -0.507 OA
ATOM     24  H   UNL     1      -8.900  62.832  36.928  1.00  0.00     0.293 HD
ENDBRANCH  10  23
BRANCH  11  25
ATOM     25  O   UNL     1      -7.579  67.125  38.870  1.00  0.00    -0.508 OA
ATOM     26  H   UNL     1      -8.041  67.993  38.585  1.00  0.00     0.293 HD
ENDBRANCH  11  25
ENDBRANCH   1   2
BRANCH   1  27
ATOM     27  C   UNL     1     -11.775  60.521  41.281  1.00  0.00     0.339 C 
ATOM     28  C   UNL     1     -13.178  60.034  41.697  1.00  0.00     0.214 C 
ATOM     29  O   UNL     1     -11.714  61.258  40.061  1.00  0.00    -0.332 OA
ATOM     30  C   UNL     1     -14.158  61.135  41.364  1.00  0.00     0.180 C 
ATOM     31  C   UNL     1     -12.796  61.142  39.153  1.00  0.00     0.179 C 
ATOM     32  C   UNL     1     -14.183  61.394  39.824  1.00  0.00     0.177 C 
BRANCH  28  33
ATOM     33  O   UNL     1     -13.218  59.731  43.069  1.00  0.00    -0.384 OA
ATOM     34  H   UNL     1     -12.364  59.256  43.253  1.00  0.00     0.211 HD
ENDBRANCH  28  33
BRANCH  30  35
ATOM     35  O   UNL     1     -15.447  60.855  41.849  1.00  0.00    -0.387 OA
ATOM     36  H   UNL     1     -15.918  61.724  41.921  1.00  0.00     0.211 HD
ENDBRANCH  30  35
BRANCH  31  37
ATOM     37  C   UNL     1     -12.642  59.870  38.279  1.00  0.00     0.191 C 
BRANCH  37  38
ATOM     38  O   UNL     1     -13.919  59.434  37.875  1.00  0.00    -0.394 OA
ATOM     39  H   UNL     1     -14.357  60.164  37.354  1.00  0.00     0.210 HD
ENDBRANCH  37  38
ENDBRANCH  31  37
BRANCH  32  40
ATOM     40  O   UNL     1     -14.624  62.721  39.597  1.00  0.00    -0.387 OA
ATOM     41  H   UNL     1     -14.610  63.226  40.472  1.00  0.00     0.211 HD
ENDBRANCH  32  40
ENDBRANCH   1  27
TORSDOF 12
ENDMDL
MODEL 4
REMARK VINA RESULT:    -0.994      1.541      2.707
REMARK INTER + INTRA:          -1.575
REMARK INTER:                  -2.629
REMARK INTRA:                   1.054
REMARK UNBOUND:                -0.116
REMARK SMILES O=c1c(O[C@@H]2O[C@@H](CO)[C@H](O)[C@@H](O)[C@@H]2O)c(-c2ccc(O)c(O)c2)oc2cc(O)cc(O)c12
REMARK SMILES IDX 4 1 3 2 16 3 25 4 2 5 26 6 1 7 33 8 27 9 31 10 28 11 30 12
REMARK SMILES IDX 17 13 18 14 19 15 20 16 24 17 22 18 21 19 23 21 32 23 29 25
REMARK SMILES IDX 5 27 14 28 6 29 12 30 7 31 10 32 15 33 13 35 8 37 9 38 11 40
REMARK H PARENT 21 20 23 22 32 24 29 26 15 34 13 36 9 39 11 41
REMARK Flexibility Score: inf
ROOT
ATOM      1  O   UNL     1      -8.822  62.893  40.671  1.00  0.00    -0.454 OA
ENDROOT
BRANCH   1   2
ATOM      2  C   UNL     1     -10.143  62.526  40.891  1.00  0.00     0.214 A 
ATOM      3  C   UNL     1     -10.520  61.624  41.904  1.00  0.00     0.180 A 
ATOM      4  O   UNL     1     -11.622  60.897  41.759  1.00  0.00    -0.452 OA
ATOM      5  C   UNL     1     -11.157  63.021  40.090  1.00  0.00     0.239 A 
ATOM      6  C   UNL     1     -12.486  61.125  40.749  1.00  0.00     0.146 A 
ATOM      7  O   UNL     1     -11.245  64.253  39.956  1.00  0.00    -0.285 OA
ATOM      8  C   UNL     1     -12.270  62.204  39.857  1.00  0.00     0.111 A 
ATOM      9  C   UNL     1     -13.646  60.363  40.643  1.00  0.00     0.094 A 
ATOM     10  C   UNL     1     -13.209  62.457  38.828  1.00  0.00     0.134 A 
ATOM     11  C   UNL     1     -14.614  60.678  39.695  1.00  0.00     0.123 A 
ATOM     12  C   UNL     1     -14.374  61.684  38.750  1.00  0.00     0.093 A 
BRANCH   3  13
ATOM     13  C   UNL     1      -9.934  61.805  43.253  1.00  0.00     0.025 A 
ATOM     14  C   UNL     1      -9.906  60.678  44.070  1.00  0.00     0.016 A 
ATOM     15  C   UNL     1      -9.477  60.758  45.393  1.00  0.00     0.051 A 
ATOM     16  C   UNL     1      -9.129  62.002  45.939  1.00  0.00     0.157 A 
ATOM     17  C   UNL     1      -9.564  63.058  43.780  1.00  0.00     0.062 A 
ATOM     18  C   UNL     1      -9.135  63.141  45.117  1.00  0.00     0.158 A 
BRANCH  16  19
ATOM     19  O   UNL     1      -8.762  62.104  47.299  1.00  0.00    -0.504 OA
ATOM     20  H   UNL     1      -7.909  62.560  47.584  1.00  0.00     0.293 HD
ENDBRANCH  16  19
BRANCH  18  21
ATOM     21  O   UNL     1      -8.790  64.368  45.664  1.00  0.00    -0.504 OA
ATOM     22  H   UNL     1      -8.758  64.484  46.674  1.00  0.00     0.293 HD
ENDBRANCH  18  21
ENDBRANCH   3  13
BRANCH  10  23
ATOM     23  O   UNL     1     -12.987  63.436  37.878  1.00  0.00    -0.507 OA
ATOM     24  H   UNL     1     -12.653  64.359  38.172  1.00  0.00     0.293 HD
ENDBRANCH  10  23
BRANCH  11  25
ATOM     25  O   UNL     1     -15.876  60.098  39.770  1.00  0.00    -0.508 OA
ATOM     26  H   UNL     1     -16.032  59.133  39.465  1.00  0.00     0.293 HD
ENDBRANCH  11  25
ENDBRANCH   1   2
BRANCH   1  27
ATOM     27  C   UNL     1      -8.342  64.135  41.230  1.00  0.00     0.339 C 
ATOM     28  C   UNL     1      -7.190  64.678  40.359  1.00  0.00     0.214 C 
ATOM     29  O   UNL     1      -9.470  64.998  41.370  1.00  0.00    -0.332 OA
ATOM     30  C   UNL     1      -7.811  65.400  39.185  1.00  0.00     0.180 C 
ATOM     31  C   UNL     1      -9.303  66.373  41.075  1.00  0.00     0.179 C 
ATOM     32  C   UNL     1      -8.650  66.621  39.679  1.00  0.00     0.177 C 
BRANCH  28  33
ATOM     33  O   UNL     1      -6.359  63.634  39.918  1.00  0.00    -0.384 OA
ATOM     34  H   UNL     1      -5.967  63.249  40.746  1.00  0.00     0.211 HD
ENDBRANCH  28  33
BRANCH  30  35
ATOM     35  O   UNL     1      -6.847  65.797  38.244  1.00  0.00    -0.387 OA
ATOM     36  H   UNL     1      -6.018  65.295  38.457  1.00  0.00     0.211 HD
ENDBRANCH  30  35
BRANCH  31  37
ATOM     37  C   UNL     1      -8.701  67.124  42.292  1.00  0.00     0.191 C 
BRANCH  37  38
ATOM     38  O   UNL     1      -8.627  66.238  43.386  1.00  0.00    -0.394 OA
ATOM     39  H   UNL     1      -9.412  66.398  43.981  1.00  0.00     0.210 HD
ENDBRANCH  37  38
ENDBRANCH  31  37
BRANCH  32  40
ATOM     40  O   UNL     1      -9.634  66.916  38.703  1.00  0.00    -0.387 OA
ATOM     41  H   UNL     1      -9.501  67.863  38.379  1.00  0.00     0.211 HD
ENDBRANCH  32  40
ENDBRANCH   1  27
TORSDOF 12
ENDMDL
MODEL 5
REMARK VINA RESULT:    -0.627      1.665      6.855
REMARK INTER + INTRA:          -1.036
REMARK INTER:                  -1.564
REMARK INTRA:                   0.528
REMARK UNBOUND:                -0.116
REMARK SMILES O=c1c(O[C@@H]2O[C@@H](CO)[C@H](O)[C@@H](O)[C@@H]2O)c(-c2ccc(O)c(O)c2)oc2cc(O)cc(O)c12
REMARK SMILES IDX 4 1 3 2 16 3 25 4 2 5 26 6 1 7 33 8 27 9 31 10 28 11 30 12
REMARK SMILES IDX 17 13 18 14 19 15 20 16 24 17 22 18 21 19 23 21 32 23 29 25
REMARK SMILES IDX 5 27 14 28 6 29 12 30 7 31 10 32 15 33 13 35 8 37 9 38 11 40
REMARK H PARENT 21 20 23 22 32 24 29 26 15 34 13 36 9 39 11 41
REMARK Flexibility Score: inf
ROOT
ATOM      1  O   UNL     1     -11.387  60.631  39.999  1.00  0.00    -0.454 OA
ENDROOT
BRANCH   1   2
ATOM      2  C   UNL     1     -11.171  61.140  41.272  1.00  0.00     0.214 A 
ATOM      3  C   UNL     1     -10.114  62.022  41.566  1.00  0.00     0.180 A 
ATOM      4  O   UNL     1      -9.610  62.056  42.794  1.00  0.00    -0.452 OA
ATOM      5  C   UNL     1     -11.985  60.771  42.329  1.00  0.00     0.239 A 
ATOM      6  C   UNL     1     -10.196  61.397  43.813  1.00  0.00     0.146 A 
ATOM      7  O   UNL     1     -13.212  60.911  42.196  1.00  0.00    -0.285 OA
ATOM      8  C   UNL     1     -11.417  60.708  43.608  1.00  0.00     0.111 A 
ATOM      9  C   UNL     1      -9.657  61.477  45.094  1.00  0.00     0.094 A 
ATOM     10  C   UNL     1     -12.043  60.056  44.697  1.00  0.00     0.134 A 
ATOM     11  C   UNL     1     -10.327  60.921  46.180  1.00  0.00     0.123 A 
ATOM     12  C   UNL     1     -11.487  60.162  45.978  1.00  0.00     0.093 A 
BRANCH   3  13
ATOM     13  C   UNL     1      -9.877  63.158  40.646  1.00  0.00     0.025 A 
ATOM     14  C   UNL     1      -9.651  62.835  39.310  1.00  0.00     0.016 A 
ATOM     15  C   UNL     1      -9.311  63.814  38.380  1.00  0.00     0.051 A 
ATOM     16  C   UNL     1      -9.124  65.139  38.798  1.00  0.00     0.157 A 
ATOM     17  C   UNL     1      -9.717  64.491  41.077  1.00  0.00     0.062 A 
ATOM     18  C   UNL     1      -9.369  65.479  40.139  1.00  0.00     0.158 A 
BRANCH  16  19
ATOM     19  O   UNL     1      -8.709  66.124  37.875  1.00  0.00    -0.504 OA
ATOM     20  H   UNL     1      -9.368  66.602  37.279  1.00  0.00     0.293 HD
ENDBRANCH  16  19
BRANCH  18  21
ATOM     21  O   UNL     1      -9.183  66.792  40.545  1.00  0.00    -0.504 OA
ATOM     22  H   UNL     1      -8.672  66.992  41.402  1.00  0.00     0.293 HD
ENDBRANCH  18  21
ENDBRANCH   3  13
BRANCH  10  23
ATOM     23  O   UNL     1     -13.181  59.293  44.520  1.00  0.00    -0.507 OA
ATOM     24  H   UNL     1     -13.624  58.848  45.330  1.00  0.00     0.293 HD
ENDBRANCH  10  23
BRANCH  11  25
ATOM     25  O   UNL     1      -9.933  61.235  47.476  1.00  0.00    -0.508 OA
ATOM     26  H   UNL     1     -10.196  62.127  47.905  1.00  0.00     0.293 HD
ENDBRANCH  11  25
ENDBRANCH   1   2
BRANCH   1  27
ATOM     27  C   UNL     1     -12.139  61.421  39.052  1.00  0.00     0.339 C 
ATOM     28  C   UNL     1     -13.025  60.492  38.197  1.00  0.00     0.214 C 
ATOM     29  O   UNL     1     -12.832  62.423  39.795  1.00  0.00    -0.332 OA
ATOM     30  C   UNL     1     -14.271  60.192  38.997  1.00  0.00     0.180 C 
ATOM     31  C   UNL     1     -14.153  62.754  39.405  1.00  0.00     0.179 C 
ATOM     32  C   UNL     1     -15.076  61.503  39.263  1.00  0.00     0.177 C 
BRANCH  28  33
ATOM     33  O   UNL     1     -12.343  59.306  37.876  1.00  0.00    -0.384 OA
ATOM     34  H   UNL     1     -13.054  58.664  37.609  1.00  0.00     0.211 HD
ENDBRANCH  28  33
BRANCH  30  35
ATOM     35  O   UNL     1     -15.075  59.224  38.373  1.00  0.00    -0.387 OA
ATOM     36  H   UNL     1     -16.011  59.418  38.636  1.00  0.00     0.211 HD
ENDBRANCH  30  35
BRANCH  31  37
ATOM     37  C   UNL     1     -14.138  63.772  38.235  1.00  0.00     0.191 C 
BRANCH  37  38
ATOM     38  O   UNL     1     -15.331  64.522  38.265  1.00  0.00    -0.394 OA
ATOM     39  H   UNL     1     -15.101  65.485  38.390  1.00  0.00     0.210 HD
ENDBRANCH  37  38
ENDBRANCH  31  37
BRANCH  32  40
ATOM     40  O   UNL     1     -15.866  61.320  40.425  1.00  0.00    -0.387 OA
ATOM     41  H   UNL     1     -15.584  60.466  40.883  1.00  0.00     0.211 HD
ENDBRANCH  32  40
ENDBRANCH   1  27
TORSDOF 12
ENDMDL
MODEL 6
REMARK VINA RESULT:    -0.412      8.690     13.660
REMARK INTER + INTRA:          -0.721
REMARK INTER:                   0.043
REMARK INTRA:                  -0.764
REMARK UNBOUND:                -0.116
REMARK SMILES O=c1c(O[C@@H]2O[C@@H](CO)[C@H](O)[C@@H](O)[C@@H]2O)c(-c2ccc(O)c(O)c2)oc2cc(O)cc(O)c12
REMARK SMILES IDX 4 1 3 2 16 3 25 4 2 5 26 6 1 7 33 8 27 9 31 10 28 11 30 12
REMARK SMILES IDX 17 13 18 14 19 15 20 16 24 17 22 18 21 19 23 21 32 23 29 25
REMARK SMILES IDX 5 27 14 28 6 29 12 30 7 31 10 32 15 33 13 35 8 37 9 38 11 40
REMARK H PARENT 21 20 23 22 32 24 29 26 15 34 13 36 9 39 11 41
REMARK Flexibility Score: inf
ROOT
ATOM      1  O   UNL     1      -7.255  62.524  53.105  1.00  0.00    -0.454 OA
ENDROOT
BRANCH   1   2
ATOM      2  C   UNL     1      -7.097  63.318  51.978  1.00  0.00     0.214 A 
ATOM      3  C   UNL     1      -7.229  62.813  50.671  1.00  0.00     0.180 A 
ATOM      4  O   UNL     1      -6.572  63.393  49.673  1.00  0.00    -0.452 OA
ATOM      5  C   UNL     1      -6.769  64.657  52.097  1.00  0.00     0.239 A 
ATOM      6  C   UNL     1      -5.920  64.561  49.846  1.00  0.00     0.146 A 
ATOM      7  O   UNL     1      -7.483  65.370  52.821  1.00  0.00    -0.285 OA
ATOM      8  C   UNL     1      -5.986  65.236  51.090  1.00  0.00     0.111 A 
ATOM      9  C   UNL     1      -5.266  65.157  48.772  1.00  0.00     0.094 A 
ATOM     10  C   UNL     1      -5.332  66.483  51.243  1.00  0.00     0.134 A 
ATOM     11  C   UNL     1      -4.711  66.427  48.898  1.00  0.00     0.123 A 
ATOM     12  C   UNL     1      -4.691  67.066  50.144  1.00  0.00     0.093 A 
BRANCH   3  13
ATOM     13  C   UNL     1      -8.388  61.939  50.374  1.00  0.00     0.025 A 
ATOM     14  C   UNL     1      -8.641  60.917  51.285  1.00  0.00     0.016 A 
ATOM     15  C   UNL     1      -9.636  59.972  51.050  1.00  0.00     0.051 A 
ATOM     16  C   UNL     1     -10.356  60.003  49.846  1.00  0.00     0.157 A 
ATOM     17  C   UNL     1      -9.120  61.998  49.171  1.00  0.00     0.062 A 
ATOM     18  C   UNL     1     -10.123  61.041  48.931  1.00  0.00     0.158 A 
BRANCH  16  19
ATOM     19  O   UNL     1     -11.318  59.006  49.568  1.00  0.00    -0.504 OA
ATOM     20  H   UNL     1     -11.136  58.030  49.748  1.00  0.00     0.293 HD
ENDBRANCH  16  19
BRANCH  18  21
ATOM     21  O   UNL     1     -10.839  61.065  47.743  1.00  0.00    -0.504 OA
ATOM     22  H   UNL     1     -10.365  61.272  46.866  1.00  0.00     0.293 HD
ENDBRANCH  18  21
ENDBRANCH   3  13
BRANCH  10  23
ATOM     23  O   UNL     1      -5.289  67.125  52.466  1.00  0.00    -0.507 OA
ATOM     24  H   UNL     1      -5.377  66.578  53.328  1.00  0.00     0.293 HD
ENDBRANCH  10  23
BRANCH  11  25
ATOM     25  O   UNL     1      -4.307  67.125  47.765  1.00  0.00    -0.508 OA
ATOM     26  H   UNL     1      -4.854  67.091  46.901  1.00  0.00     0.293 HD
ENDBRANCH  11  25
ENDBRANCH   1   2
BRANCH   1  27
ATOM     27  C   UNL     1      -6.182  62.462  54.070  1.00  0.00     0.339 C 
ATOM     28  C   UNL     1      -6.751  62.061  55.446  1.00  0.00     0.214 C 
ATOM     29  O   UNL     1      -5.186  61.590  53.537  1.00  0.00    -0.332 OA
ATOM     30  C   UNL     1      -6.900  60.557  55.455  1.00  0.00     0.180 C 
ATOM     31  C   UNL     1      -4.521  60.709  54.424  1.00  0.00     0.179 C 
ATOM     32  C   UNL     1      -5.506  59.872  55.300  1.00  0.00     0.177 C 
BRANCH  28  33
ATOM     33  O   UNL     1      -7.990  62.684  55.677  1.00  0.00    -0.384 OA
ATOM     34  H   UNL     1      -8.653  62.131  55.185  1.00  0.00     0.211 HD
ENDBRANCH  28  33
BRANCH  30  35
ATOM     35  O   UNL     1      -7.561  60.102  56.608  1.00  0.00    -0.387 OA
ATOM     36  H   UNL     1      -7.338  60.740  57.334  1.00  0.00     0.211 HD
ENDBRANCH  30  35
BRANCH  31  37
ATOM     37  C   UNL     1      -3.357  61.436  55.147  1.00  0.00     0.191 C 
BRANCH  37  38
ATOM     38  O   UNL     1      -3.081  60.768  56.357  1.00  0.00    -0.394 OA
ATOM     39  H   UNL     1      -2.729  59.858  56.147  1.00  0.00     0.210 HD
ENDBRANCH  37  38
ENDBRANCH  31  37
BRANCH  32  40
ATOM     40  O   UNL     1      -5.697  58.578  54.755  1.00  0.00    -0.387 OA
ATOM     41  H   UNL     1      -6.553  58.571  54.219  1.00  0.00     0.211 HD
ENDBRANCH  32  40
ENDBRANCH   1  27
TORSDOF 12
ENDMDL
MODEL 7
REMARK VINA RESULT:    -0.221      1.638      7.083
REMARK INTER + INTRA:          -0.440
REMARK INTER:                  -1.136
REMARK INTRA:                   0.696
REMARK UNBOUND:                -0.116
REMARK SMILES O=c1c(O[C@@H]2O[C@@H](CO)[C@H](O)[C@@H](O)[C@@H]2O)c(-c2ccc(O)c(O)c2)oc2cc(O)cc(O)c12
REMARK SMILES IDX 4 1 3 2 16 3 25 4 2 5 26 6 1 7 33 8 27 9 31 10 28 11 30 12
REMARK SMILES IDX 17 13 18 14 19 15 20 16 24 17 22 18 21 19 23 21 32 23 29 25
REMARK SMILES IDX 5 27 14 28 6 29 12 30 7 31 10 32 15 33 13 35 8 37 9 38 11 40
REMARK H PARENT 21 20 23 22 32 24 29 26 15 34 13 36 9 39 11 41
REMARK Flexibility Score: inf
ROOT
ATOM      1  O   UNL     1     -11.225  63.008  42.790  1.00  0.00    -0.454 OA
ENDROOT
BRANCH   1   2
ATOM      2  C   UNL     1     -10.642  63.550  41.653  1.00  0.00     0.214 A 
ATOM      3  C   UNL     1     -10.571  62.852  40.432  1.00  0.00     0.180 A 
ATOM      4  O   UNL     1      -9.591  63.123  39.577  1.00  0.00    -0.452 OA
ATOM      5  C   UNL     1     -10.073  64.811  41.682  1.00  0.00     0.239 A 
ATOM      6  C   UNL     1      -8.764  64.171  39.766  1.00  0.00     0.146 A 
ATOM      7  O   UNL     1     -10.767  65.754  42.096  1.00  0.00    -0.285 OA
ATOM      8  C   UNL     1      -8.972  65.057  40.852  1.00  0.00     0.111 A 
ATOM      9  C   UNL     1      -7.765  64.444  38.835  1.00  0.00     0.094 A 
ATOM     10  C   UNL     1      -8.121  66.177  41.013  1.00  0.00     0.134 A 
ATOM     11  C   UNL     1      -6.997  65.599  38.940  1.00  0.00     0.123 A 
ATOM     12  C   UNL     1      -7.132  66.435  40.056  1.00  0.00     0.093 A 
BRANCH   3  13
ATOM     13  C   UNL     1     -11.788  62.156  39.954  1.00  0.00     0.025 A 
ATOM     14  C   UNL     1     -11.741  60.764  39.948  1.00  0.00     0.016 A 
ATOM     15  C   UNL     1     -12.786  60.011  39.419  1.00  0.00     0.051 A 
ATOM     16  C   UNL     1     -13.878  60.656  38.820  1.00  0.00     0.157 A 
ATOM     17  C   UNL     1     -12.889  62.819  39.377  1.00  0.00     0.062 A 
ATOM     18  C   UNL     1     -13.943  62.059  38.839  1.00  0.00     0.158 A 
BRANCH  16  19
ATOM     19  O   UNL     1     -14.907  59.901  38.216  1.00  0.00    -0.504 OA
ATOM     20  H   UNL     1     -15.875  60.179  38.281  1.00  0.00     0.293 HD
ENDBRANCH  16  19
BRANCH  18  21
ATOM     21  O   UNL     1     -15.026  62.691  38.244  1.00  0.00    -0.504 OA
ATOM     22  H   UNL     1     -15.217  62.549  37.255  1.00  0.00     0.293 HD
ENDBRANCH  18  21
ENDBRANCH   3  13
BRANCH  10  23
ATOM     23  O   UNL     1      -8.228  67.008  42.111  1.00  0.00    -0.507 OA
ATOM     24  H   UNL     1      -9.127  67.091  42.597  1.00  0.00     0.293 HD
ENDBRANCH  10  23
BRANCH  11  25
ATOM     25  O   UNL     1      -6.200  66.004  37.875  1.00  0.00    -0.508 OA
ATOM     26  H   UNL     1      -6.515  65.890  36.908  1.00  0.00     0.293 HD
ENDBRANCH  11  25
ENDBRANCH   1   2
BRANCH   1  27
ATOM     27  C   UNL     1     -11.146  61.581  43.001  1.00  0.00     0.339 C 
ATOM     28  C   UNL     1      -9.676  61.179  43.242  1.00  0.00     0.214 C 
ATOM     29  O   UNL     1     -12.054  61.260  44.053  1.00  0.00    -0.332 OA
ATOM     30  C   UNL     1      -9.364  61.451  44.695  1.00  0.00     0.180 C 
ATOM     31  C   UNL     1     -11.663  60.284  45.002  1.00  0.00     0.179 C 
ATOM     32  C   UNL     1     -10.257  60.564  45.619  1.00  0.00     0.177 C 
BRANCH  28  33
ATOM     33  O   UNL     1      -8.813  61.905  42.403  1.00  0.00    -0.384 OA
ATOM     34  H   UNL     1      -8.202  62.390  43.020  1.00  0.00     0.211 HD
ENDBRANCH  28  33
BRANCH  30  35
ATOM     35  O   UNL     1      -8.001  61.267  44.982  1.00  0.00    -0.387 OA
ATOM     36  H   UNL     1      -7.496  61.657  44.223  1.00  0.00     0.211 HD
ENDBRANCH  30  35
BRANCH  31  37
ATOM     37  C   UNL     1     -11.938  58.856  44.462  1.00  0.00     0.191 C 
BRANCH  37  38
ATOM     38  O   UNL     1     -11.870  57.940  45.531  1.00  0.00    -0.394 OA
ATOM     39  H   UNL     1     -10.980  57.489  45.511  1.00  0.00     0.210 HD
ENDBRANCH  37  38
ENDBRANCH  31  37
BRANCH  32  40
ATOM     40  O   UNL     1     -10.373  61.200  46.880  1.00  0.00    -0.387 OA
ATOM     41  H   UNL     1      -9.466  61.547  47.158  1.00  0.00     0.211 HD
ENDBRANCH  32  40
ENDBRANCH   1  27
TORSDOF 12
ENDMDL
