MODEL 1
REMARK VINA RESULT:    -5.145      0.000      0.000
REMARK INTER + INTRA:          -5.640
REMARK INTER:                  -5.596
REMARK INTRA:                  -0.044
REMARK UNBOUND:                -0.044
REMARK SMILES COc1cc2ccc(=O)oc2cc1O
REMARK SMILES IDX 3 1 13 2 12 3 11 4 5 5 4 6 6 7 7 8 8 9 9 10 10 11 2 12 1 13
REMARK SMILES IDX 14 14
REMARK H PARENT 14 15
REMARK Flexibility Score: inf
ROOT
ATOM      1  C   UNL     1       7.887  -6.955  -6.625  1.00  0.00     0.161 A 
ATOM      2  C   UNL     1       8.031  -5.603  -6.995  1.00  0.00     0.161 A 
ATOM      3  C   UNL     1       8.117  -5.246  -8.345  1.00  0.00     0.098 A 
ATOM      4  C   UNL     1       8.060  -6.224  -9.340  1.00  0.00     0.142 A 
ATOM      5  C   UNL     1       7.916  -7.580  -8.981  1.00  0.00     0.022 A 
ATOM      6  C   UNL     1       7.830  -7.942  -7.631  1.00  0.00     0.062 A 
ATOM      7  C   UNL     1       7.862  -8.537 -10.000  1.00  0.00     0.019 A 
ATOM      8  C   UNL     1       7.952  -8.128 -11.330  1.00  0.00     0.094 A 
ATOM      9  C   UNL     1       8.094  -6.764 -11.611  1.00  0.00     0.336 A 
ATOM     10  O   UNL     1       8.176  -6.374 -12.805  1.00  0.00    -0.246 OA
ATOM     11  O   UNL     1       8.142  -5.875 -10.623  1.00  0.00    -0.423 OA
ENDROOT
BRANCH   1  12
ATOM     12  O   UNL     1       7.804  -7.278  -5.261  1.00  0.00    -0.493 OA
ATOM     13  C   UNL     1       7.408  -8.548  -4.754  1.00  0.00     0.278 C 
ENDBRANCH   1  12
BRANCH   2  14
ATOM     14  O   UNL     1       8.092  -4.597  -6.030  1.00  0.00    -0.504 OA
ATOM     15  H   UNL     1       8.961  -4.141  -5.778  1.00  0.00     0.293 HD
ENDBRANCH   2  14
TORSDOF 2
ENDMDL
MODEL 2
REMARK VINA RESULT:    -4.963      1.520      1.537
REMARK INTER + INTRA:          -5.442
REMARK INTER:                  -5.393
REMARK INTRA:                  -0.049
REMARK UNBOUND:                -0.044
REMARK SMILES COc1cc2ccc(=O)oc2cc1O
REMARK SMILES IDX 3 1 13 2 12 3 11 4 5 5 4 6 6 7 7 8 8 9 9 10 10 11 2 12 1 13
REMARK SMILES IDX 14 14
REMARK H PARENT 14 15
REMARK Flexibility Score: inf
ROOT
ATOM      1  C   UNL     1       8.579  -6.765  -6.977  1.00  0.00     0.161 A 
ATOM      2  C   UNL     1       9.757  -6.104  -7.377  1.00  0.00     0.161 A 
ATOM      3  C   UNL     1      10.215  -6.212  -8.695  1.00  0.00     0.098 A 
ATOM      4  C   UNL     1       9.510  -6.976  -9.628  1.00  0.00     0.142 A 
ATOM      5  C   UNL     1       8.330  -7.642  -9.238  1.00  0.00     0.022 A 
ATOM      6  C   UNL     1       7.868  -7.536  -7.920  1.00  0.00     0.062 A 
ATOM      7  C   UNL     1       7.646  -8.399 -10.195  1.00  0.00     0.019 A 
ATOM      8  C   UNL     1       8.145  -8.473 -11.495  1.00  0.00     0.094 A 
ATOM      9  C   UNL     1       9.322  -7.786 -11.808  1.00  0.00     0.336 A 
ATOM     10  O   UNL     1       9.789  -7.840 -12.976  1.00  0.00    -0.246 OA
ATOM     11  O   UNL     1       9.953  -7.073 -10.879  1.00  0.00    -0.423 OA
ENDROOT
BRANCH   1  12
ATOM     12  O   UNL     1       8.149  -6.635  -5.647  1.00  0.00    -0.493 OA
ATOM     13  C   UNL     1       7.641  -7.704  -4.854  1.00  0.00     0.278 C 
ENDBRANCH   1  12
BRANCH   2  14
ATOM     14  O   UNL     1      10.489  -5.332  -6.474  1.00  0.00    -0.504 OA
ATOM     15  H   UNL     1      11.015  -4.515  -6.762  1.00  0.00     0.293 HD
ENDBRANCH   2  14
TORSDOF 2
ENDMDL
MODEL 3
REMARK VINA RESULT:    -4.896      2.114      2.441
REMARK INTER + INTRA:          -5.369
REMARK INTER:                  -5.320
REMARK INTRA:                  -0.049
REMARK UNBOUND:                -0.044
REMARK SMILES COc1cc2ccc(=O)oc2cc1O
REMARK SMILES IDX 3 1 13 2 12 3 11 4 5 5 4 6 6 7 7 8 8 9 9 10 10 11 2 12 1 13
REMARK SMILES IDX 14 14
REMARK H PARENT 14 15
REMARK Flexibility Score: inf
ROOT
ATOM      1  C   UNL     1       8.059  -5.710  -7.127  1.00  0.00     0.161 A 
ATOM      2  C   UNL     1       7.405  -5.222  -8.275  1.00  0.00     0.161 A 
ATOM      3  C   UNL     1       7.900  -5.519  -9.549  1.00  0.00     0.098 A 
ATOM      4  C   UNL     1       9.048  -6.300  -9.698  1.00  0.00     0.142 A 
ATOM      5  C   UNL     1       9.711  -6.794  -8.556  1.00  0.00     0.022 A 
ATOM      6  C   UNL     1       9.219  -6.499  -7.278  1.00  0.00     0.062 A 
ATOM      7  C   UNL     1      10.858  -7.574  -8.736  1.00  0.00     0.019 A 
ATOM      8  C   UNL     1      11.309  -7.840 -10.028  1.00  0.00     0.094 A 
ATOM      9  C   UNL     1      10.600  -7.316 -11.115  1.00  0.00     0.336 A 
ATOM     10  O   UNL     1      10.990  -7.545 -12.290  1.00  0.00    -0.246 OA
ATOM     11  O   UNL     1       9.512  -6.577 -10.915  1.00  0.00    -0.423 OA
ENDROOT
BRANCH   1  12
ATOM     12  O   UNL     1       7.536  -5.393  -5.864  1.00  0.00    -0.493 OA
ATOM     13  C   UNL     1       8.319  -5.029  -4.732  1.00  0.00     0.278 C 
ENDBRANCH   1  12
BRANCH   2  14
ATOM     14  O   UNL     1       6.256  -4.438  -8.168  1.00  0.00    -0.504 OA
ATOM     15  H   UNL     1       5.859  -4.179  -7.272  1.00  0.00     0.293 HD
ENDBRANCH   2  14
TORSDOF 2
ENDMDL
MODEL 4
REMARK VINA RESULT:    -4.885      1.332      2.430
REMARK INTER + INTRA:          -5.357
REMARK INTER:                  -5.309
REMARK INTRA:                  -0.048
REMARK UNBOUND:                -0.044
REMARK SMILES COc1cc2ccc(=O)oc2cc1O
REMARK SMILES IDX 3 1 13 2 12 3 11 4 5 5 4 6 6 7 7 8 8 9 9 10 10 11 2 12 1 13
REMARK SMILES IDX 14 14
REMARK H PARENT 14 15
REMARK Flexibility Score: inf
ROOT
ATOM      1  C   UNL     1       8.128  -6.776  -6.876  1.00  0.00     0.161 A 
ATOM      2  C   UNL     1       8.458  -8.104  -7.210  1.00  0.00     0.161 A 
ATOM      3  C   UNL     1       8.668  -8.464  -8.545  1.00  0.00     0.098 A 
ATOM      4  C   UNL     1       8.553  -7.514  -9.562  1.00  0.00     0.142 A 
ATOM      5  C   UNL     1       8.223  -6.181  -9.238  1.00  0.00     0.022 A 
ATOM      6  C   UNL     1       8.012  -5.816  -7.903  1.00  0.00     0.062 A 
ATOM      7  C   UNL     1       8.115  -5.251 -10.278  1.00  0.00     0.019 A 
ATOM      8  C   UNL     1       8.335  -5.663 -11.592  1.00  0.00     0.094 A 
ATOM      9  C   UNL     1       8.658  -7.003 -11.836  1.00  0.00     0.336 A 
ATOM     10  O   UNL     1       8.861  -7.395 -13.015  1.00  0.00    -0.246 OA
ATOM     11  O   UNL     1       8.755  -7.867 -10.829  1.00  0.00    -0.423 OA
ENDROOT
BRANCH   1  12
ATOM     12  O   UNL     1       7.924  -6.448  -5.527  1.00  0.00    -0.493 OA
ATOM     13  C   UNL     1       8.359  -5.238  -4.914  1.00  0.00     0.278 C 
ENDBRANCH   1  12
BRANCH   2  14
ATOM     14  O   UNL     1       8.582  -9.083  -6.223  1.00  0.00    -0.504 OA
ATOM     15  H   UNL     1       9.468  -9.299  -5.784  1.00  0.00     0.293 HD
ENDBRANCH   2  14
TORSDOF 2
ENDMDL
MODEL 5
REMARK VINA RESULT:    -4.841      1.229      4.798
REMARK INTER + INTRA:          -5.309
REMARK INTER:                  -5.250
REMARK INTRA:                  -0.059
REMARK UNBOUND:                -0.044
REMARK SMILES COc1cc2ccc(=O)oc2cc1O
REMARK SMILES IDX 3 1 13 2 12 3 11 4 5 5 4 6 6 7 7 8 8 9 9 10 10 11 2 12 1 13
REMARK SMILES IDX 14 14
REMARK H PARENT 14 15
REMARK Flexibility Score: inf
ROOT
ATOM      1  C   UNL     1       8.050  -7.640 -10.431  1.00  0.00     0.161 A 
ATOM      2  C   UNL     1       8.257  -6.251 -10.538  1.00  0.00     0.161 A 
ATOM      3  C   UNL     1       8.312  -5.454  -9.390  1.00  0.00     0.098 A 
ATOM      4  C   UNL     1       8.162  -6.026  -8.125  1.00  0.00     0.142 A 
ATOM      5  C   UNL     1       7.954  -7.416  -8.005  1.00  0.00     0.022 A 
ATOM      6  C   UNL     1       7.898  -8.217  -9.153  1.00  0.00     0.062 A 
ATOM      7  C   UNL     1       7.808  -7.959  -6.725  1.00  0.00     0.019 A 
ATOM      8  C   UNL     1       7.871  -7.121  -5.613  1.00  0.00     0.094 A 
ATOM      9  C   UNL     1       8.080  -5.751  -5.808  1.00  0.00     0.336 A 
ATOM     10  O   UNL     1       8.141  -4.977  -4.817  1.00  0.00    -0.246 OA
ATOM     11  O   UNL     1       8.216  -5.260  -7.037  1.00  0.00    -0.423 OA
ENDROOT
BRANCH   1  12
ATOM     12  O   UNL     1       7.999  -8.409 -11.604  1.00  0.00    -0.493 OA
ATOM     13  C   UNL     1       6.853  -9.125 -12.053  1.00  0.00     0.278 C 
ENDBRANCH   1  12
BRANCH   2  14
ATOM     14  O   UNL     1       8.411  -5.642 -11.785  1.00  0.00    -0.504 OA
ATOM     15  H   UNL     1       8.218  -6.129 -12.652  1.00  0.00     0.293 HD
ENDBRANCH   2  14
TORSDOF 2
ENDMDL
MODEL 6
REMARK VINA RESULT:    -4.813      2.871      5.399
REMARK INTER + INTRA:          -5.279
REMARK INTER:                  -5.219
REMARK INTRA:                  -0.060
REMARK UNBOUND:                -0.044
REMARK SMILES COc1cc2ccc(=O)oc2cc1O
REMARK SMILES IDX 3 1 13 2 12 3 11 4 5 5 4 6 6 7 7 8 8 9 9 10 10 11 2 12 1 13
REMARK SMILES IDX 14 14
REMARK H PARENT 14 15
REMARK Flexibility Score: inf
ROOT
ATOM      1  C   UNL     1      11.205  -6.761  -9.160  1.00  0.00     0.161 A 
ATOM      2  C   UNL     1      10.926  -8.105  -9.477  1.00  0.00     0.161 A 
ATOM      3  C   UNL     1       9.934  -8.803  -8.779  1.00  0.00     0.098 A 
ATOM      4  C   UNL     1       9.211  -8.177  -7.762  1.00  0.00     0.142 A 
ATOM      5  C   UNL     1       9.482  -6.832  -7.437  1.00  0.00     0.022 A 
ATOM      6  C   UNL     1      10.474  -6.129  -8.133  1.00  0.00     0.062 A 
ATOM      7  C   UNL     1       8.741  -6.231  -6.413  1.00  0.00     0.019 A 
ATOM      8  C   UNL     1       7.764  -6.973  -5.749  1.00  0.00     0.094 A 
ATOM      9  C   UNL     1       7.551  -8.303  -6.126  1.00  0.00     0.336 A 
ATOM     10  O   UNL     1       6.673  -8.989  -5.540  1.00  0.00    -0.246 OA
ATOM     11  O   UNL     1       8.269  -8.850  -7.103  1.00  0.00    -0.423 OA
ENDROOT
BRANCH   1  12
ATOM     12  O   UNL     1      12.206  -6.090  -9.880  1.00  0.00    -0.493 OA
ATOM     13  C   UNL     1      11.974  -5.296 -11.040  1.00  0.00     0.278 C 
ENDBRANCH   1  12
BRANCH   2  14
ATOM     14  O   UNL     1      11.627  -8.765 -10.486  1.00  0.00    -0.504 OA
ATOM     15  H   UNL     1      11.197  -9.016 -11.368  1.00  0.00     0.293 HD
ENDBRANCH   2  14
TORSDOF 2
ENDMDL
MODEL 7
REMARK VINA RESULT:    -4.804      2.252      5.259
REMARK INTER + INTRA:          -5.269
REMARK INTER:                  -5.225
REMARK INTRA:                  -0.044
REMARK UNBOUND:                -0.044
REMARK SMILES COc1cc2ccc(=O)oc2cc1O
REMARK SMILES IDX 3 1 13 2 12 3 11 4 5 5 4 6 6 7 7 8 8 9 9 10 10 11 2 12 1 13
REMARK SMILES IDX 14 14
REMARK H PARENT 14 15
REMARK Flexibility Score: inf
ROOT
ATOM      1  C   UNL     1      10.043  -6.987 -10.882  1.00  0.00     0.161 A 
ATOM      2  C   UNL     1      11.230  -6.825 -10.141  1.00  0.00     0.161 A 
ATOM      3  C   UNL     1      11.176  -6.422  -8.803  1.00  0.00     0.098 A 
ATOM      4  C   UNL     1       9.948  -6.174  -8.187  1.00  0.00     0.142 A 
ATOM      5  C   UNL     1       8.753  -6.332  -8.920  1.00  0.00     0.022 A 
ATOM      6  C   UNL     1       8.802  -6.736 -10.260  1.00  0.00     0.062 A 
ATOM      7  C   UNL     1       7.538  -6.076  -8.276  1.00  0.00     0.019 A 
ATOM      8  C   UNL     1       7.541  -5.676  -6.940  1.00  0.00     0.094 A 
ATOM      9  C   UNL     1       8.766  -5.540  -6.276  1.00  0.00     0.336 A 
ATOM     10  O   UNL     1       8.790  -5.181  -5.070  1.00  0.00    -0.246 OA
ATOM     11  O   UNL     1       9.907  -5.790  -6.912  1.00  0.00    -0.423 OA
ENDROOT
BRANCH   1  12
ATOM     12  O   UNL     1      10.132  -7.393 -12.223  1.00  0.00    -0.493 OA
ATOM     13  C   UNL     1       9.053  -7.935 -12.978  1.00  0.00     0.278 C 
ENDBRANCH   1  12
BRANCH   2  14
ATOM     14  O   UNL     1      12.477  -7.063 -10.721  1.00  0.00    -0.504 OA
ATOM     15  H   UNL     1      13.333  -7.067 -10.180  1.00  0.00     0.293 HD
ENDBRANCH   2  14
TORSDOF 2
ENDMDL
MODEL 8
REMARK VINA RESULT:    -4.795      1.406      5.354
REMARK INTER + INTRA:          -5.259
REMARK INTER:                  -5.207
REMARK INTRA:                  -0.052
REMARK UNBOUND:                -0.044
REMARK SMILES COc1cc2ccc(=O)oc2cc1O
REMARK SMILES IDX 3 1 13 2 12 3 11 4 5 5 4 6 6 7 7 8 8 9 9 10 10 11 2 12 1 13
REMARK SMILES IDX 14 14
REMARK H PARENT 14 15
REMARK Flexibility Score: inf
ROOT
ATOM      1  C   UNL     1       8.321  -6.368 -10.454  1.00  0.00     0.161 A 
ATOM      2  C   UNL     1       8.138  -7.763 -10.397  1.00  0.00     0.161 A 
ATOM      3  C   UNL     1       7.945  -8.400  -9.166  1.00  0.00     0.098 A 
ATOM      4  C   UNL     1       7.933  -7.661  -7.981  1.00  0.00     0.142 A 
ATOM      5  C   UNL     1       8.115  -6.263  -8.027  1.00  0.00     0.022 A 
ATOM      6  C   UNL     1       8.309  -5.622  -9.257  1.00  0.00     0.062 A 
ATOM      7  C   UNL     1       8.098  -5.550  -6.824  1.00  0.00     0.019 A 
ATOM      8  C   UNL     1       7.902  -6.233  -5.625  1.00  0.00     0.094 A 
ATOM      9  C   UNL     1       7.728  -7.621  -5.657  1.00  0.00     0.336 A 
ATOM     10  O   UNL     1       7.549  -8.257  -4.585  1.00  0.00    -0.246 OA
ATOM     11  O   UNL     1       7.749  -8.276  -6.815  1.00  0.00    -0.423 OA
ENDROOT
BRANCH   1  12
ATOM     12  O   UNL     1       8.512  -5.761 -11.705  1.00  0.00    -0.493 OA
ATOM     13  C   UNL     1       7.800  -4.617 -12.166  1.00  0.00     0.278 C 
ENDBRANCH   1  12
BRANCH   2  14
ATOM     14  O   UNL     1       8.145  -8.537 -11.558  1.00  0.00    -0.504 OA
ATOM     15  H   UNL     1       8.999  -8.909 -11.956  1.00  0.00     0.293 HD
ENDBRANCH   2  14
TORSDOF 2
ENDMDL
MODEL 9
REMARK VINA RESULT:    -4.785     13.290     14.326
REMARK INTER + INTRA:          -5.248
REMARK INTER:                  -5.185
REMARK INTRA:                  -0.063
REMARK UNBOUND:                -0.044
REMARK SMILES COc1cc2ccc(=O)oc2cc1O
REMARK SMILES IDX 3 1 13 2 12 3 11 4 5 5 4 6 6 7 7 8 8 9 9 10 10 11 2 12 1 13
REMARK SMILES IDX 14 14
REMARK H PARENT 14 15
REMARK Flexibility Score: inf
ROOT
ATOM      1  C   UNL     1      19.363  -2.425  -8.177  1.00  0.00     0.161 A 
ATOM      2  C   UNL     1      18.988  -2.864  -6.892  1.00  0.00     0.161 A 
ATOM      3  C   UNL     1      19.962  -3.274  -5.975  1.00  0.00     0.098 A 
ATOM      4  C   UNL     1      21.314  -3.252  -6.322  1.00  0.00     0.142 A 
ATOM      5  C   UNL     1      21.700  -2.813  -7.605  1.00  0.00     0.022 A 
ATOM      6  C   UNL     1      20.729  -2.402  -8.527  1.00  0.00     0.062 A 
ATOM      7  C   UNL     1      23.062  -2.802  -7.924  1.00  0.00     0.019 A 
ATOM      8  C   UNL     1      23.992  -3.221  -6.972  1.00  0.00     0.094 A 
ATOM      9  C   UNL     1      23.535  -3.643  -5.719  1.00  0.00     0.336 A 
ATOM     10  O   UNL     1      24.358  -4.024  -4.846  1.00  0.00    -0.246 OA
ATOM     11  O   UNL     1      22.234  -3.643  -5.442  1.00  0.00    -0.423 OA
ENDROOT
BRANCH   1  12
ATOM     12  O   UNL     1      18.360  -2.021  -9.073  1.00  0.00    -0.493 OA
ATOM     13  C   UNL     1      17.960  -2.757 -10.224  1.00  0.00     0.278 C 
ENDBRANCH   1  12
BRANCH   2  14
ATOM     14  O   UNL     1      17.647  -2.901  -6.508  1.00  0.00    -0.504 OA
ATOM     15  H   UNL     1      17.182  -3.763  -6.249  1.00  0.00     0.293 HD
ENDBRANCH   2  14
TORSDOF 2
ENDMDL
