MODEL 1
REMARK VINA RESULT:    -4.774      0.000      0.000
REMARK INTER + INTRA:          -6.994
REMARK INTER:                  -6.449
REMARK INTRA:                  -0.546
REMARK UNBOUND:                -0.546
REMARK SMILES COc1ccc(-c2cc(=O)c3c(OC)c(OC)c(OC)c(OC)c3o2)cc1
REMARK SMILES IDX 7 1 8 2 9 3 10 4 11 5 24 6 25 7 21 8 18 9 15 10 12 11 6 12
REMARK SMILES IDX 3 13 4 14 27 15 5 16 26 17 2 18 1 19 22 20 23 21 13 22 14 23
REMARK SMILES IDX 19 24 20 25 16 26 17 27
REMARK H PARENT
REMARK Flexibility Score: inf
ROOT
ATOM      1  C   UNL     1      -8.929   2.806 -19.217  1.00  0.00     0.138 A 
ATOM      2  C   UNL     1      -9.457   1.724 -19.928  1.00  0.00     0.100 A 
ATOM      3  C   UNL     1      -9.312   0.439 -19.415  1.00  0.00     0.197 A 
ATOM      4  O   UNL     1      -9.796  -0.528 -20.064  1.00  0.00    -0.289 OA
ATOM      5  C   UNL     1      -8.632   0.244 -18.191  1.00  0.00     0.115 A 
ATOM      6  C   UNL     1      -8.122   1.385 -17.528  1.00  0.00     0.188 A 
ATOM      7  O   UNL     1      -8.303   2.590 -18.065  1.00  0.00    -0.452 OA
ATOM      8  C   UNL     1      -7.413   1.247 -16.307  1.00  0.00     0.209 A 
ATOM      9  C   UNL     1      -7.240  -0.044 -15.740  1.00  0.00     0.211 A 
ATOM     10  C   UNL     1      -7.779  -1.180 -16.398  1.00  0.00     0.208 A 
ATOM     11  C   UNL     1      -8.438  -1.034 -17.630  1.00  0.00     0.179 A 
ENDROOT
BRANCH   1  12
ATOM     12  C   UNL     1      -9.056   4.193 -19.722  1.00  0.00     0.018 A 
ATOM     13  C   UNL     1      -9.307   6.817 -20.735  1.00  0.00     0.118 A 
ATOM     14  C   UNL     1      -9.875   6.475 -19.495  1.00  0.00     0.047 A 
ATOM     15  C   UNL     1      -8.619   5.838 -21.461  1.00  0.00     0.047 A 
ATOM     16  C   UNL     1      -9.751   5.176 -18.995  1.00  0.00     0.016 A 
ATOM     17  C   UNL     1      -8.497   4.538 -20.964  1.00  0.00     0.016 A 
BRANCH  13  18
ATOM     18  O   UNL     1      -9.404   8.106 -21.280  1.00  0.00    -0.497 OA
ATOM     19  C   UNL     1     -10.005   9.214 -20.619  1.00  0.00     0.278 C 
ENDBRANCH  13  18
ENDBRANCH   1  12
BRANCH   8  20
ATOM     20  O   UNL     1      -6.865   2.352 -15.629  1.00  0.00    -0.490 OA
ATOM     21  C   UNL     1      -5.586   2.943 -15.825  1.00  0.00     0.278 C 
ENDBRANCH   8  20
BRANCH  11  22
ATOM     22  O   UNL     1      -8.932  -2.166 -18.295  1.00  0.00    -0.492 OA
ATOM     23  C   UNL     1     -10.067  -2.897 -17.839  1.00  0.00     0.278 C 
ENDBRANCH  11  22
BRANCH   9  24
ATOM     24  O   UNL     1      -6.545  -0.253 -14.533  1.00  0.00    -0.490 OA
ATOM     25  C   UNL     1      -5.149  -0.467 -14.351  1.00  0.00     0.279 C 
ENDBRANCH   9  24
BRANCH  10  26
ATOM     26  O   UNL     1      -7.715  -2.485 -15.870  1.00  0.00    -0.490 OA
ATOM     27  C   UNL     1      -6.676  -3.443 -16.044  1.00  0.00     0.278 C 
ENDBRANCH  10  26
TORSDOF 6
ENDMDL
MODEL 2
REMARK VINA RESULT:    -4.662      9.990     12.913
REMARK INTER + INTRA:          -6.843
REMARK INTER:                  -6.252
REMARK INTRA:                  -0.591
REMARK UNBOUND:                -0.546
REMARK SMILES COc1ccc(-c2cc(=O)c3c(OC)c(OC)c(OC)c(OC)c3o2)cc1
REMARK SMILES IDX 7 1 8 2 9 3 10 4 11 5 24 6 25 7 21 8 18 9 15 10 12 11 6 12
REMARK SMILES IDX 3 13 4 14 27 15 5 16 26 17 2 18 1 19 22 20 23 21 13 22 14 23
REMARK SMILES IDX 19 24 20 25 16 26 17 27
REMARK H PARENT
REMARK Flexibility Score: inf
ROOT
ATOM      1  C   UNL     1      -2.013   0.095  -8.041  1.00  0.00     0.138 A 
ATOM      2  C   UNL     1      -3.243   0.544  -8.529  1.00  0.00     0.100 A 
ATOM      3  C   UNL     1      -4.251  -0.381  -8.783  1.00  0.00     0.197 A 
ATOM      4  O   UNL     1      -5.358   0.038  -9.220  1.00  0.00    -0.289 OA
ATOM      5  C   UNL     1      -4.018  -1.755  -8.550  1.00  0.00     0.115 A 
ATOM      6  C   UNL     1      -2.748  -2.138  -8.058  1.00  0.00     0.188 A 
ATOM      7  O   UNL     1      -1.828  -1.203  -7.824  1.00  0.00    -0.452 OA
ATOM      8  C   UNL     1      -2.451  -3.504  -7.825  1.00  0.00     0.209 A 
ATOM      9  C   UNL     1      -3.447  -4.488  -8.067  1.00  0.00     0.211 A 
ATOM     10  C   UNL     1      -4.728  -4.094  -8.535  1.00  0.00     0.208 A 
ATOM     11  C   UNL     1      -4.993  -2.741  -8.805  1.00  0.00     0.179 A 
ENDROOT
BRANCH   1  12
ATOM     12  C   UNL     1      -0.907   1.040  -7.756  1.00  0.00     0.018 A 
ATOM     13  C   UNL     1       1.166   2.882  -7.226  1.00  0.00     0.118 A 
ATOM     14  C   UNL     1       0.980   1.761  -6.397  1.00  0.00     0.047 A 
ATOM     15  C   UNL     1       0.307   3.073  -8.313  1.00  0.00     0.047 A 
ATOM     16  C   UNL     1      -0.047   0.850  -6.660  1.00  0.00     0.016 A 
ATOM     17  C   UNL     1      -0.722   2.165  -8.575  1.00  0.00     0.016 A 
BRANCH  13  18
ATOM     18  O   UNL     1       2.181   3.824  -7.004  1.00  0.00    -0.497 OA
ATOM     19  C   UNL     1       2.139   4.828  -5.996  1.00  0.00     0.278 C 
ENDBRANCH  13  18
ENDBRANCH   1  12
BRANCH   8  20
ATOM     20  O   UNL     1      -1.192  -3.930  -7.363  1.00  0.00    -0.490 OA
ATOM     21  C   UNL     1      -0.789  -4.143  -6.014  1.00  0.00     0.278 C 
ENDBRANCH   8  20
BRANCH  11  22
ATOM     22  O   UNL     1      -6.248  -2.362  -9.306  1.00  0.00    -0.492 OA
ATOM     23  C   UNL     1      -6.637  -2.579 -10.658  1.00  0.00     0.278 C 
ENDBRANCH  11  22
BRANCH   9  24
ATOM     24  O   UNL     1      -3.219  -5.863  -7.860  1.00  0.00    -0.490 OA
ATOM     25  C   UNL     1      -2.670  -6.807  -8.773  1.00  0.00     0.279 C 
ENDBRANCH   9  24
BRANCH  10  26
ATOM     26  O   UNL     1      -5.794  -4.994  -8.731  1.00  0.00    -0.490 OA
ATOM     27  C   UNL     1      -6.681  -5.517  -7.747  1.00  0.00     0.278 C 
ENDBRANCH  10  26
TORSDOF 6
ENDMDL
MODEL 3
REMARK VINA RESULT:    -4.644      9.142     14.135
REMARK INTER + INTRA:          -6.818
REMARK INTER:                  -6.272
REMARK INTRA:                  -0.546
REMARK UNBOUND:                -0.546
REMARK SMILES COc1ccc(-c2cc(=O)c3c(OC)c(OC)c(OC)c(OC)c3o2)cc1
REMARK SMILES IDX 7 1 8 2 9 3 10 4 11 5 24 6 25 7 21 8 18 9 15 10 12 11 6 12
REMARK SMILES IDX 3 13 4 14 27 15 5 16 26 17 2 18 1 19 22 20 23 21 13 22 14 23
REMARK SMILES IDX 19 24 20 25 16 26 17 27
REMARK H PARENT
REMARK Flexibility Score: inf
ROOT
ATOM      1  C   UNL     1       0.703  -0.349  -7.751  1.00  0.00     0.138 A 
ATOM      2  C   UNL     1      -0.166  -0.374  -6.656  1.00  0.00     0.100 A 
ATOM      3  C   UNL     1      -1.529  -0.553  -6.875  1.00  0.00     0.197 A 
ATOM      4  O   UNL     1      -2.301  -0.578  -5.879  1.00  0.00    -0.289 OA
ATOM      5  C   UNL     1      -2.014  -0.702  -8.195  1.00  0.00     0.115 A 
ATOM      6  C   UNL     1      -1.077  -0.663  -9.253  1.00  0.00     0.188 A 
ATOM      7  O   UNL     1       0.216  -0.500  -8.979  1.00  0.00    -0.452 OA
ATOM      8  C   UNL     1      -1.509  -0.786 -10.598  1.00  0.00     0.209 A 
ATOM      9  C   UNL     1      -2.890  -0.973 -10.875  1.00  0.00     0.211 A 
ATOM     10  C   UNL     1      -3.821  -1.038  -9.805  1.00  0.00     0.208 A 
ATOM     11  C   UNL     1      -3.384  -0.868  -8.481  1.00  0.00     0.179 A 
ENDROOT
BRANCH   1  12
ATOM     12  C   UNL     1       2.162  -0.158  -7.571  1.00  0.00     0.018 A 
ATOM     13  C   UNL     1       4.944   0.224  -7.280  1.00  0.00     0.118 A 
ATOM     14  C   UNL     1       4.066   0.555  -6.231  1.00  0.00     0.047 A 
ATOM     15  C   UNL     1       4.418  -0.292  -8.469  1.00  0.00     0.047 A 
ATOM     16  C   UNL     1       2.689   0.366  -6.377  1.00  0.00     0.016 A 
ATOM     17  C   UNL     1       3.042  -0.479  -8.617  1.00  0.00     0.016 A 
BRANCH  13  18
ATOM     18  O   UNL     1       6.333   0.395  -7.183  1.00  0.00    -0.497 OA
ATOM     19  C   UNL     1       7.111   1.180  -8.080  1.00  0.00     0.278 C 
ENDBRANCH  13  18
ENDBRANCH   1  12
BRANCH   8  20
ATOM     20  O   UNL     1      -0.614  -0.725 -11.683  1.00  0.00    -0.490 OA
ATOM     21  C   UNL     1       0.133  -1.794 -12.252  1.00  0.00     0.278 C 
ENDBRANCH   8  20
BRANCH  11  22
ATOM     22  O   UNL     1      -4.314  -0.893  -7.431  1.00  0.00    -0.492 OA
ATOM     23  C   UNL     1      -5.077   0.246  -7.047  1.00  0.00     0.278 C 
ENDBRANCH  11  22
BRANCH   9  24
ATOM     24  O   UNL     1      -3.389  -1.100 -12.186  1.00  0.00    -0.490 OA
ATOM     25  C   UNL     1      -3.561  -2.291 -12.947  1.00  0.00     0.279 C 
ENDBRANCH   9  24
BRANCH  10  26
ATOM     26  O   UNL     1      -5.195  -1.293  -9.986  1.00  0.00    -0.490 OA
ATOM     27  C   UNL     1      -6.196  -0.382 -10.429  1.00  0.00     0.278 C 
ENDBRANCH  10  26
TORSDOF 6
ENDMDL
MODEL 4
REMARK VINA RESULT:    -4.630      2.768      8.171
REMARK INTER + INTRA:          -6.800
REMARK INTER:                  -6.188
REMARK INTRA:                  -0.612
REMARK UNBOUND:                -0.546
REMARK SMILES COc1ccc(-c2cc(=O)c3c(OC)c(OC)c(OC)c(OC)c3o2)cc1
REMARK SMILES IDX 7 1 8 2 9 3 10 4 11 5 24 6 25 7 21 8 18 9 15 10 12 11 6 12
REMARK SMILES IDX 3 13 4 14 27 15 5 16 26 17 2 18 1 19 22 20 23 21 13 22 14 23
REMARK SMILES IDX 19 24 20 25 16 26 17 27
REMARK H PARENT
REMARK Flexibility Score: inf
ROOT
ATOM      1  C   UNL     1      -6.357  -1.093 -13.423  1.00  0.00     0.138 A 
ATOM      2  C   UNL     1      -6.750  -2.356 -13.874  1.00  0.00     0.100 A 
ATOM      3  C   UNL     1      -7.353  -2.474 -15.123  1.00  0.00     0.197 A 
ATOM      4  O   UNL     1      -7.699  -3.620 -15.519  1.00  0.00    -0.289 OA
ATOM      5  C   UNL     1      -7.563  -1.321 -15.913  1.00  0.00     0.115 A 
ATOM      6  C   UNL     1      -7.142  -0.076 -15.392  1.00  0.00     0.188 A 
ATOM      7  O   UNL     1      -6.561  -0.029 -14.194  1.00  0.00    -0.452 OA
ATOM      8  C   UNL     1      -7.346   1.117 -16.132  1.00  0.00     0.209 A 
ATOM      9  C   UNL     1      -7.954   1.050 -17.414  1.00  0.00     0.211 A 
ATOM     10  C   UNL     1      -8.349  -0.208 -17.941  1.00  0.00     0.208 A 
ATOM     11  C   UNL     1      -8.183  -1.375 -17.177  1.00  0.00     0.179 A 
ENDROOT
BRANCH   1  12
ATOM     12  C   UNL     1      -5.714  -0.913 -12.100  1.00  0.00     0.018 A 
ATOM     13  C   UNL     1      -4.533  -0.596  -9.556  1.00  0.00     0.118 A 
ATOM     14  C   UNL     1      -3.760  -1.021 -10.651  1.00  0.00     0.047 A 
ATOM     15  C   UNL     1      -5.894  -0.336  -9.744  1.00  0.00     0.047 A 
ATOM     16  C   UNL     1      -4.346  -1.179 -11.910  1.00  0.00     0.016 A 
ATOM     17  C   UNL     1      -6.482  -0.497 -11.001  1.00  0.00     0.016 A 
BRANCH  13  18
ATOM     18  O   UNL     1      -3.992  -0.422  -8.273  1.00  0.00    -0.497 OA
ATOM     19  C   UNL     1      -4.692   0.157  -7.177  1.00  0.00     0.278 C 
ENDBRANCH  13  18
ENDBRANCH   1  12
BRANCH   8  20
ATOM     20  O   UNL     1      -6.968   2.380 -15.639  1.00  0.00    -0.490 OA
ATOM     21  C   UNL     1      -5.681   2.985 -15.700  1.00  0.00     0.278 C 
ENDBRANCH   8  20
BRANCH  11  22
ATOM     22  O   UNL     1      -8.612  -2.610 -17.688  1.00  0.00    -0.492 OA
ATOM     23  C   UNL     1      -9.984  -2.985 -17.751  1.00  0.00     0.278 C 
ENDBRANCH  11  22
BRANCH   9  24
ATOM     24  O   UNL     1      -8.189   2.193 -18.201  1.00  0.00    -0.490 OA
ATOM     25  C   UNL     1      -7.294   2.834 -19.105  1.00  0.00     0.279 C 
ENDBRANCH   9  24
BRANCH  10  26
ATOM     26  O   UNL     1      -8.892  -0.373 -19.231  1.00  0.00    -0.490 OA
ATOM     27  C   UNL     1      -8.185  -0.561 -20.453  1.00  0.00     0.278 C 
ENDBRANCH  10  26
TORSDOF 6
ENDMDL
MODEL 5
REMARK VINA RESULT:    -4.623     11.260     14.690
REMARK INTER + INTRA:          -6.789
REMARK INTER:                  -6.151
REMARK INTRA:                  -0.638
REMARK UNBOUND:                -0.546
REMARK SMILES COc1ccc(-c2cc(=O)c3c(OC)c(OC)c(OC)c(OC)c3o2)cc1
REMARK SMILES IDX 7 1 8 2 9 3 10 4 11 5 24 6 25 7 21 8 18 9 15 10 12 11 6 12
REMARK SMILES IDX 3 13 4 14 27 15 5 16 26 17 2 18 1 19 22 20 23 21 13 22 14 23
REMARK SMILES IDX 19 24 20 25 16 26 17 27
REMARK H PARENT
REMARK Flexibility Score: inf
ROOT
ATOM      1  C   UNL     1      -0.323   0.374  -7.742  1.00  0.00     0.138 A 
ATOM      2  C   UNL     1       0.541   0.471  -6.647  1.00  0.00     0.100 A 
ATOM      3  C   UNL     1       1.902   0.653  -6.871  1.00  0.00     0.197 A 
ATOM      4  O   UNL     1       2.670   0.743  -5.875  1.00  0.00    -0.289 OA
ATOM      5  C   UNL     1       2.392   0.732  -8.195  1.00  0.00     0.115 A 
ATOM      6  C   UNL     1       1.460   0.623  -9.253  1.00  0.00     0.188 A 
ATOM      7  O   UNL     1       0.167   0.461  -8.974  1.00  0.00    -0.452 OA
ATOM      8  C   UNL     1       1.897   0.675 -10.601  1.00  0.00     0.209 A 
ATOM      9  C   UNL     1       3.276   0.862 -10.884  1.00  0.00     0.211 A 
ATOM     10  C   UNL     1       4.201   0.998  -9.815  1.00  0.00     0.208 A 
ATOM     11  C   UNL     1       3.761   0.899  -8.485  1.00  0.00     0.179 A 
ENDROOT
BRANCH   1  12
ATOM     12  C   UNL     1      -1.780   0.177  -7.557  1.00  0.00     0.018 A 
ATOM     13  C   UNL     1      -4.551  -0.179  -7.151  1.00  0.00     0.118 A 
ATOM     14  C   UNL     1      -4.073   0.372  -8.354  1.00  0.00     0.047 A 
ATOM     15  C   UNL     1      -3.636  -0.544  -6.159  1.00  0.00     0.047 A 
ATOM     16  C   UNL     1      -2.701   0.549  -8.553  1.00  0.00     0.016 A 
ATOM     17  C   UNL     1      -2.265  -0.365  -6.355  1.00  0.00     0.016 A 
BRANCH  13  18
ATOM     18  O   UNL     1      -5.918  -0.377  -6.903  1.00  0.00    -0.497 OA
ATOM     19  C   UNL     1      -6.800  -1.076  -7.775  1.00  0.00     0.278 C 
ENDBRANCH  13  18
ENDBRANCH   1  12
BRANCH   8  20
ATOM     20  O   UNL     1       1.007   0.542 -11.684  1.00  0.00    -0.490 OA
ATOM     21  C   UNL     1       0.250   1.569 -12.315  1.00  0.00     0.278 C 
ENDBRANCH   8  20
BRANCH  11  22
ATOM     22  O   UNL     1       4.686   0.994  -7.435  1.00  0.00    -0.492 OA
ATOM     23  C   UNL     1       5.556  -0.074  -7.072  1.00  0.00     0.278 C 
ENDBRANCH  11  22
BRANCH   9  24
ATOM     24  O   UNL     1       3.779   0.920 -12.198  1.00  0.00    -0.490 OA
ATOM     25  C   UNL     1       3.904   2.062 -13.038  1.00  0.00     0.279 C 
ENDBRANCH   9  24
BRANCH  10  26
ATOM     26  O   UNL     1       5.573   1.258 -10.005  1.00  0.00    -0.490 OA
ATOM     27  C   UNL     1       6.208   2.528 -10.122  1.00  0.00     0.278 C 
ENDBRANCH  10  26
TORSDOF 6
ENDMDL
MODEL 6
REMARK VINA RESULT:    -4.614     15.282     17.320
REMARK INTER + INTRA:          -6.778
REMARK INTER:                  -6.164
REMARK INTRA:                  -0.614
REMARK UNBOUND:                -0.546
REMARK SMILES COc1ccc(-c2cc(=O)c3c(OC)c(OC)c(OC)c(OC)c3o2)cc1
REMARK SMILES IDX 7 1 8 2 9 3 10 4 11 5 24 6 25 7 21 8 18 9 15 10 12 11 6 12
REMARK SMILES IDX 3 13 4 14 27 15 5 16 26 17 2 18 1 19 22 20 23 21 13 22 14 23
REMARK SMILES IDX 19 24 20 25 16 26 17 27
REMARK H PARENT
REMARK Flexibility Score: inf
ROOT
ATOM      1  C   UNL     1       6.575   1.046 -13.331  1.00  0.00     0.138 A 
ATOM      2  C   UNL     1       6.937   2.320 -13.777  1.00  0.00     0.100 A 
ATOM      3  C   UNL     1       7.522   2.460 -15.032  1.00  0.00     0.197 A 
ATOM      4  O   UNL     1       7.841   3.615 -15.423  1.00  0.00    -0.289 OA
ATOM      5  C   UNL     1       7.744   1.317 -15.833  1.00  0.00     0.115 A 
ATOM      6  C   UNL     1       7.355   0.059 -15.317  1.00  0.00     0.188 A 
ATOM      7  O   UNL     1       6.789  -0.008 -14.112  1.00  0.00    -0.452 OA
ATOM      8  C   UNL     1       7.572  -1.123 -16.068  1.00  0.00     0.209 A 
ATOM      9  C   UNL     1       8.164  -1.035 -17.357  1.00  0.00     0.211 A 
ATOM     10  C   UNL     1       8.527   0.234 -17.879  1.00  0.00     0.208 A 
ATOM     11  C   UNL     1       8.348   1.392 -17.105  1.00  0.00     0.179 A 
ENDROOT
BRANCH   1  12
ATOM     12  C   UNL     1       5.951   0.844 -12.001  1.00  0.00     0.018 A 
ATOM     13  C   UNL     1       4.809   0.483  -9.445  1.00  0.00     0.118 A 
ATOM     14  C   UNL     1       4.025   0.950 -10.516  1.00  0.00     0.047 A 
ATOM     15  C   UNL     1       6.162   0.204  -9.664  1.00  0.00     0.047 A 
ATOM     16  C   UNL     1       4.592   1.130 -11.781  1.00  0.00     0.016 A 
ATOM     17  C   UNL     1       6.730   0.386 -10.927  1.00  0.00     0.016 A 
BRANCH  13  18
ATOM     18  O   UNL     1       4.287   0.286  -8.158  1.00  0.00    -0.497 OA
ATOM     19  C   UNL     1       5.060  -0.106  -7.029  1.00  0.00     0.278 C 
ENDBRANCH  13  18
ENDBRANCH   1  12
BRANCH   8  20
ATOM     20  O   UNL     1       7.225  -2.397 -15.580  1.00  0.00    -0.490 OA
ATOM     21  C   UNL     1       5.951  -3.028 -15.633  1.00  0.00     0.278 C 
ENDBRANCH   8  20
BRANCH  11  22
ATOM     22  O   UNL     1       8.747   2.639 -17.611  1.00  0.00    -0.492 OA
ATOM     23  C   UNL     1      10.112   3.033 -17.707  1.00  0.00     0.278 C 
ENDBRANCH  11  22
BRANCH   9  24
ATOM     24  O   UNL     1       8.411  -2.168 -18.156  1.00  0.00    -0.490 OA
ATOM     25  C   UNL     1       7.518  -2.820 -19.053  1.00  0.00     0.279 C 
ENDBRANCH   9  24
BRANCH  10  26
ATOM     26  O   UNL     1       9.051   0.419 -19.174  1.00  0.00    -0.490 OA
ATOM     27  C   UNL     1       8.326   0.594 -20.388  1.00  0.00     0.278 C 
ENDBRANCH  10  26
TORSDOF 6
ENDMDL
MODEL 7
REMARK VINA RESULT:    -4.603     14.100     16.658
REMARK INTER + INTRA:          -6.763
REMARK INTER:                  -6.171
REMARK INTRA:                  -0.592
REMARK UNBOUND:                -0.546
REMARK SMILES COc1ccc(-c2cc(=O)c3c(OC)c(OC)c(OC)c(OC)c3o2)cc1
REMARK SMILES IDX 7 1 8 2 9 3 10 4 11 5 24 6 25 7 21 8 18 9 15 10 12 11 6 12
REMARK SMILES IDX 3 13 4 14 27 15 5 16 26 17 2 18 1 19 22 20 23 21 13 22 14 23
REMARK SMILES IDX 19 24 20 25 16 26 17 27
REMARK H PARENT
REMARK Flexibility Score: inf
ROOT
ATOM      1  C   UNL     1       2.253   0.084  -8.004  1.00  0.00     0.138 A 
ATOM      2  C   UNL     1       3.471  -0.391  -8.499  1.00  0.00     0.100 A 
ATOM      3  C   UNL     1       4.488   0.516  -8.785  1.00  0.00     0.197 A 
ATOM      4  O   UNL     1       5.582   0.074  -9.227  1.00  0.00    -0.289 OA
ATOM      5  C   UNL     1       4.275   1.897  -8.577  1.00  0.00     0.115 A 
ATOM      6  C   UNL     1       3.017   2.306  -8.076  1.00  0.00     0.188 A 
ATOM      7  O   UNL     1       2.088   1.389  -7.811  1.00  0.00    -0.452 OA
ATOM      8  C   UNL     1       2.740   3.681  -7.867  1.00  0.00     0.209 A 
ATOM      9  C   UNL     1       3.746   4.647  -8.141  1.00  0.00     0.211 A 
ATOM     10  C   UNL     1       5.015   4.226  -8.618  1.00  0.00     0.208 A 
ATOM     11  C   UNL     1       5.259   2.864  -8.864  1.00  0.00     0.179 A 
ENDROOT
BRANCH   1  12
ATOM     12  C   UNL     1       1.139  -0.840  -7.686  1.00  0.00     0.018 A 
ATOM     13  C   UNL     1      -0.951  -2.644  -7.093  1.00  0.00     0.118 A 
ATOM     14  C   UNL     1      -0.723  -1.523  -6.273  1.00  0.00     0.047 A 
ATOM     15  C   UNL     1      -0.125  -2.853  -8.203  1.00  0.00     0.047 A 
ATOM     16  C   UNL     1       0.313  -0.632  -6.567  1.00  0.00     0.016 A 
ATOM     17  C   UNL     1       0.912  -1.964  -8.496  1.00  0.00     0.016 A 
BRANCH  13  18
ATOM     18  O   UNL     1      -1.976  -3.567  -6.840  1.00  0.00    -0.497 OA
ATOM     19  C   UNL     1      -1.761  -4.920  -6.454  1.00  0.00     0.278 C 
ENDBRANCH  13  18
ENDBRANCH   1  12
BRANCH   8  20
ATOM     20  O   UNL     1       1.493   4.133  -7.397  1.00  0.00    -0.490 OA
ATOM     21  C   UNL     1       1.094   4.326  -6.045  1.00  0.00     0.278 C 
ENDBRANCH   8  20
BRANCH  11  22
ATOM     22  O   UNL     1       6.502   2.460  -9.373  1.00  0.00    -0.492 OA
ATOM     23  C   UNL     1       6.871   2.630 -10.738  1.00  0.00     0.278 C 
ENDBRANCH  11  22
BRANCH   9  24
ATOM     24  O   UNL     1       3.539   6.028  -7.959  1.00  0.00    -0.490 OA
ATOM     25  C   UNL     1       3.029   6.968  -8.899  1.00  0.00     0.279 C 
ENDBRANCH   9  24
BRANCH  10  26
ATOM     26  O   UNL     1       6.090   5.108  -8.846  1.00  0.00    -0.490 OA
ATOM     27  C   UNL     1       6.978   5.663  -7.880  1.00  0.00     0.278 C 
ENDBRANCH  10  26
TORSDOF 6
ENDMDL
MODEL 8
REMARK VINA RESULT:    -4.599      8.306     13.259
REMARK INTER + INTRA:          -6.757
REMARK INTER:                  -6.206
REMARK INTRA:                  -0.551
REMARK UNBOUND:                -0.546
REMARK SMILES COc1ccc(-c2cc(=O)c3c(OC)c(OC)c(OC)c(OC)c3o2)cc1
REMARK SMILES IDX 7 1 8 2 9 3 10 4 11 5 24 6 25 7 21 8 18 9 15 10 12 11 6 12
REMARK SMILES IDX 3 13 4 14 27 15 5 16 26 17 2 18 1 19 22 20 23 21 13 22 14 23
REMARK SMILES IDX 19 24 20 25 16 26 17 27
REMARK H PARENT
REMARK Flexibility Score: inf
ROOT
ATOM      1  C   UNL     1       0.128  -0.551  -9.084  1.00  0.00     0.138 A 
ATOM      2  C   UNL     1       0.168  -0.981 -10.413  1.00  0.00     0.100 A 
ATOM      3  C   UNL     1      -1.026  -1.166 -11.103  1.00  0.00     0.197 A 
ATOM      4  O   UNL     1      -0.975  -1.551 -12.303  1.00  0.00    -0.289 OA
ATOM      5  C   UNL     1      -2.257  -0.922 -10.454  1.00  0.00     0.115 A 
ATOM      6  C   UNL     1      -2.222  -0.490  -9.107  1.00  0.00     0.188 A 
ATOM      7  O   UNL     1      -1.046  -0.321  -8.504  1.00  0.00    -0.452 OA
ATOM      8  C   UNL     1      -3.427  -0.250  -8.400  1.00  0.00     0.209 A 
ATOM      9  C   UNL     1      -4.673  -0.421  -9.060  1.00  0.00     0.211 A 
ATOM     10  C   UNL     1      -4.699  -0.828 -10.420  1.00  0.00     0.208 A 
ATOM     11  C   UNL     1      -3.499  -1.107 -11.095  1.00  0.00     0.179 A 
ENDROOT
BRANCH   1  12
ATOM     12  C   UNL     1       1.371  -0.341  -8.305  1.00  0.00     0.018 A 
ATOM     13  C   UNL     1       3.764   0.080  -6.866  1.00  0.00     0.118 A 
ATOM     14  C   UNL     1       2.518   0.350  -6.271  1.00  0.00     0.047 A 
ATOM     15  C   UNL     1       3.800  -0.395  -8.181  1.00  0.00     0.047 A 
ATOM     16  C   UNL     1       1.334   0.142  -6.984  1.00  0.00     0.016 A 
ATOM     17  C   UNL     1       2.618  -0.601  -8.896  1.00  0.00     0.016 A 
BRANCH  13  18
ATOM     18  O   UNL     1       4.979   0.272  -6.192  1.00  0.00    -0.497 OA
ATOM     19  C   UNL     1       5.618   1.534  -6.032  1.00  0.00     0.278 C 
ENDBRANCH  13  18
ENDBRANCH   1  12
BRANCH   8  20
ATOM     20  O   UNL     1      -3.437   0.153  -7.051  1.00  0.00    -0.490 OA
ATOM     21  C   UNL     1      -3.423  -0.679  -5.897  1.00  0.00     0.278 C 
ENDBRANCH   8  20
BRANCH  11  22
ATOM     22  O   UNL     1      -3.533  -1.548 -12.426  1.00  0.00    -0.492 OA
ATOM     23  C   UNL     1      -3.849  -0.688 -13.517  1.00  0.00     0.278 C 
ENDBRANCH  11  22
BRANCH   9  24
ATOM     24  O   UNL     1      -5.907  -0.203  -8.418  1.00  0.00    -0.490 OA
ATOM     25  C   UNL     1      -6.737  -1.159  -7.767  1.00  0.00     0.279 C 
ENDBRANCH   9  24
BRANCH  10  26
ATOM     26  O   UNL     1      -5.885  -0.952 -11.171  1.00  0.00    -0.490 OA
ATOM     27  C   UNL     1      -6.711  -2.105 -11.306  1.00  0.00     0.278 C 
ENDBRANCH  10  26
TORSDOF 6
ENDMDL
MODEL 9
REMARK VINA RESULT:    -4.596     11.837     14.999
REMARK INTER + INTRA:          -6.754
REMARK INTER:                  -6.268
REMARK INTRA:                  -0.485
REMARK UNBOUND:                -0.546
REMARK SMILES COc1ccc(-c2cc(=O)c3c(OC)c(OC)c(OC)c(OC)c3o2)cc1
REMARK SMILES IDX 7 1 8 2 9 3 10 4 11 5 24 6 25 7 21 8 18 9 15 10 12 11 6 12
REMARK SMILES IDX 3 13 4 14 27 15 5 16 26 17 2 18 1 19 22 20 23 21 13 22 14 23
REMARK SMILES IDX 19 24 20 25 16 26 17 27
REMARK H PARENT
REMARK Flexibility Score: inf
ROOT
ATOM      1  C   UNL     1      -0.277   0.340  -7.912  1.00  0.00     0.138 A 
ATOM      2  C   UNL     1       0.475  -0.715  -8.438  1.00  0.00     0.100 A 
ATOM      3  C   UNL     1       1.819  -0.510  -8.733  1.00  0.00     0.197 A 
ATOM      4  O   UNL     1       2.487  -1.471  -9.203  1.00  0.00    -0.289 OA
ATOM      5  C   UNL     1       2.403   0.756  -8.502  1.00  0.00     0.115 A 
ATOM      6  C   UNL     1       1.582   1.778  -7.970  1.00  0.00     0.188 A 
ATOM      7  O   UNL     1       0.304   1.516  -7.698  1.00  0.00    -0.452 OA
ATOM      8  C   UNL     1       2.109   3.073  -7.737  1.00  0.00     0.209 A 
ATOM      9  C   UNL     1       3.477   3.334  -8.018  1.00  0.00     0.211 A 
ATOM     10  C   UNL     1       4.301   2.295  -8.526  1.00  0.00     0.208 A 
ATOM     11  C   UNL     1       3.754   1.030  -8.796  1.00  0.00     0.179 A 
ENDROOT
BRANCH   1  12
ATOM     12  C   UNL     1      -1.713   0.173  -7.585  1.00  0.00     0.018 A 
ATOM     13  C   UNL     1      -4.457  -0.163  -7.012  1.00  0.00     0.118 A 
ATOM     14  C   UNL     1      -3.481  -0.542  -6.072  1.00  0.00     0.047 A 
ATOM     15  C   UNL     1      -4.047   0.378  -8.235  1.00  0.00     0.047 A 
ATOM     16  C   UNL     1      -2.123  -0.376  -6.357  1.00  0.00     0.016 A 
ATOM     17  C   UNL     1      -2.690   0.542  -8.522  1.00  0.00     0.016 A 
BRANCH  13  18
ATOM     18  O   UNL     1      -5.831  -0.310  -6.774  1.00  0.00    -0.497 OA
ATOM     19  C   UNL     1      -6.722  -1.025  -7.622  1.00  0.00     0.278 C 
ENDBRANCH  13  18
ENDBRANCH   1  12
BRANCH   8  20
ATOM     20  O   UNL     1       1.320   4.125  -7.235  1.00  0.00    -0.490 OA
ATOM     21  C   UNL     1       1.146   4.507  -5.875  1.00  0.00     0.278 C 
ENDBRANCH   8  20
BRANCH  11  22
ATOM     22  O   UNL     1       4.565   0.020  -9.336  1.00  0.00    -0.492 OA
ATOM     23  C   UNL     1       5.542  -0.679  -8.570  1.00  0.00     0.278 C 
ENDBRANCH  11  22
BRANCH   9  24
ATOM     24  O   UNL     1       4.065   4.597  -7.814  1.00  0.00    -0.490 OA
ATOM     25  C   UNL     1       3.937   5.764  -8.619  1.00  0.00     0.279 C 
ENDBRANCH   9  24
BRANCH  10  26
ATOM     26  O   UNL     1       5.682   2.447  -8.764  1.00  0.00    -0.490 OA
ATOM     27  C   UNL     1       6.310   2.985  -9.924  1.00  0.00     0.278 C 
ENDBRANCH  10  26
TORSDOF 6
ENDMDL
