MODEL 1
REMARK VINA RESULT:    -4.018      0.000      0.000
REMARK INTER + INTRA:          -4.270
REMARK INTER:                  -4.252
REMARK INTRA:                  -0.017
REMARK UNBOUND:                -0.017
REMARK SMILES O=C([O-])c1cccnc1
REMARK SMILES IDX 4 1 5 2 9 3 6 4 8 5 7 6 2 7 1 8 3 9
REMARK H PARENT
REMARK Flexibility Score: inf
ROOT
ATOM      1  C   UNL     1      -0.413  18.043  30.467  1.00  0.00     0.016 A 
ATOM      2  C   UNL     1      -0.780  18.358  31.786  1.00  0.00     0.013 A 
ATOM      3  C   UNL     1      -0.406  19.075  29.511  1.00  0.00     0.120 A 
ATOM      4  C   UNL     1      -1.124  19.668  32.125  1.00  0.00     0.021 A 
ATOM      5  N   UNL     1      -0.747  20.342  29.867  1.00  0.00    -0.264 NA
ATOM      6  C   UNL     1      -1.103  20.658  31.140  1.00  0.00     0.111 A 
ENDROOT
BRANCH   1   7
ATOM      7  C   UNL     1      -0.046  16.659  30.098  1.00  0.00     0.073 C 
ATOM      8  O   UNL     1       1.009  16.136  30.547  1.00  0.00    -0.545 OA
ATOM      9  O   UNL     1      -0.860  15.917  29.251  1.00  0.00    -0.545 OA
ENDBRANCH   1   7
TORSDOF 1
ENDMDL
MODEL 2
REMARK VINA RESULT:    -3.968     21.512     22.483
REMARK INTER + INTRA:          -4.217
REMARK INTER:                  -4.195
REMARK INTRA:                  -0.022
REMARK UNBOUND:                -0.017
REMARK SMILES O=C([O-])c1cccnc1
REMARK SMILES IDX 4 1 5 2 9 3 6 4 8 5 7 6 2 7 1 8 3 9
REMARK H PARENT
REMARK Flexibility Score: inf
ROOT
ATOM      1  C   UNL     1       7.055   6.960  13.204  1.00  0.00     0.016 A 
ATOM      2  C   UNL     1       5.656   7.093  13.188  1.00  0.00     0.013 A 
ATOM      3  C   UNL     1       7.630   5.863  12.538  1.00  0.00     0.120 A 
ATOM      4  C   UNL     1       4.871   6.151  12.522  1.00  0.00     0.021 A 
ATOM      5  N   UNL     1       6.842   4.960  11.897  1.00  0.00    -0.264 NA
ATOM      6  C   UNL     1       5.488   5.078  11.875  1.00  0.00     0.111 A 
ENDROOT
BRANCH   1   7
ATOM      7  C   UNL     1       7.897   7.953  13.906  1.00  0.00     0.073 C 
ATOM      8  O   UNL     1       7.440   8.602  14.884  1.00  0.00    -0.545 OA
ATOM      9  O   UNL     1       9.205   8.183  13.496  1.00  0.00    -0.545 OA
ENDBRANCH   1   7
TORSDOF 1
ENDMDL
MODEL 3
REMARK VINA RESULT:    -3.874     21.322     22.549
REMARK INTER + INTRA:          -4.118
REMARK INTER:                  -4.096
REMARK INTRA:                  -0.022
REMARK UNBOUND:                -0.017
REMARK SMILES O=C([O-])c1cccnc1
REMARK SMILES IDX 4 1 5 2 9 3 6 4 8 5 7 6 2 7 1 8 3 9
REMARK H PARENT
REMARK Flexibility Score: inf
ROOT
ATOM      1  C   UNL     1       7.110   6.903  13.210  1.00  0.00     0.016 A 
ATOM      2  C   UNL     1       7.745   5.864  12.509  1.00  0.00     0.013 A 
ATOM      3  C   UNL     1       5.704   6.920  13.250  1.00  0.00     0.120 A 
ATOM      4  C   UNL     1       6.986   4.879  11.875  1.00  0.00     0.021 A 
ATOM      5  N   UNL     1       4.988   5.948  12.624  1.00  0.00    -0.264 NA
ATOM      6  C   UNL     1       5.592   4.939  11.943  1.00  0.00     0.111 A 
ENDROOT
BRANCH   1   7
ATOM      7  C   UNL     1       7.904   7.951  13.885  1.00  0.00     0.073 C 
ATOM      8  O   UNL     1       7.427   8.585  14.864  1.00  0.00    -0.545 OA
ATOM      9  O   UNL     1       9.190   8.251  13.449  1.00  0.00    -0.545 OA
ENDBRANCH   1   7
TORSDOF 1
ENDMDL
MODEL 4
REMARK VINA RESULT:    -3.436     21.126     22.144
REMARK INTER + INTRA:          -3.654
REMARK INTER:                  -3.631
REMARK INTRA:                  -0.022
REMARK UNBOUND:                -0.017
REMARK SMILES O=C([O-])c1cccnc1
REMARK SMILES IDX 4 1 5 2 9 3 6 4 8 5 7 6 2 7 1 8 3 9
REMARK H PARENT
REMARK Flexibility Score: inf
ROOT
ATOM      1  C   UNL     1       6.330   6.688  13.012  1.00  0.00     0.016 A 
ATOM      2  C   UNL     1       6.299   7.537  14.130  1.00  0.00     0.013 A 
ATOM      3  C   UNL     1       7.526   6.591  12.279  1.00  0.00     0.120 A 
ATOM      4  C   UNL     1       7.437   8.259  14.493  1.00  0.00     0.021 A 
ATOM      5  N   UNL     1       8.620   7.305  12.654  1.00  0.00    -0.264 NA
ATOM      6  C   UNL     1       8.602   8.130  13.734  1.00  0.00     0.111 A 
ENDROOT
BRANCH   1   7
ATOM      7  C   UNL     1       5.130   5.918  12.618  1.00  0.00     0.073 C 
ATOM      8  O   UNL     1       5.239   4.876  11.919  1.00  0.00    -0.545 OA
ATOM      9  O   UNL     1       3.865   6.334  13.016  1.00  0.00    -0.545 OA
ENDBRANCH   1   7
TORSDOF 1
ENDMDL
MODEL 5
REMARK VINA RESULT:    -3.318     13.113     13.731
REMARK INTER + INTRA:          -3.529
REMARK INTER:                  -3.512
REMARK INTRA:                  -0.016
REMARK UNBOUND:                -0.017
REMARK SMILES O=C([O-])c1cccnc1
REMARK SMILES IDX 4 1 5 2 9 3 6 4 8 5 7 6 2 7 1 8 3 9
REMARK H PARENT
REMARK Flexibility Score: inf
ROOT
ATOM      1  C   UNL     1       0.795  15.349  17.529  1.00  0.00     0.016 A 
ATOM      2  C   UNL     1       1.554  14.217  17.866  1.00  0.00     0.013 A 
ATOM      3  C   UNL     1      -0.568  15.369  17.877  1.00  0.00     0.120 A 
ATOM      4  C   UNL     1       0.957  13.145  18.532  1.00  0.00     0.021 A 
ATOM      5  N   UNL     1      -1.125  14.311  18.525  1.00  0.00    -0.264 NA
ATOM      6  C   UNL     1      -0.400  13.211  18.857  1.00  0.00     0.111 A 
ENDROOT
BRANCH   1   7
ATOM      7  C   UNL     1       1.418  16.490  16.824  1.00  0.00     0.073 C 
ATOM      8  O   UNL     1       1.271  16.631  15.580  1.00  0.00    -0.545 OA
ATOM      9  O   UNL     1       2.173  17.424  17.524  1.00  0.00    -0.545 OA
ENDBRANCH   1   7
TORSDOF 1
ENDMDL
MODEL 6
REMARK VINA RESULT:    -3.217     14.018     15.106
REMARK INTER + INTRA:          -3.422
REMARK INTER:                  -3.401
REMARK INTRA:                  -0.021
REMARK UNBOUND:                -0.017
REMARK SMILES O=C([O-])c1cccnc1
REMARK SMILES IDX 4 1 5 2 9 3 6 4 8 5 7 6 2 7 1 8 3 9
REMARK H PARENT
REMARK Flexibility Score: inf
ROOT
ATOM      1  C   UNL     1       0.946  17.323  16.088  1.00  0.00     0.016 A 
ATOM      2  C   UNL     1       1.174  18.017  14.888  1.00  0.00     0.013 A 
ATOM      3  C   UNL     1      -0.170  16.472  16.166  1.00  0.00     0.120 A 
ATOM      4  C   UNL     1       0.305  17.854  13.808  1.00  0.00     0.021 A 
ATOM      5  N   UNL     1      -1.002  16.331  15.100  1.00  0.00    -0.264 NA
ATOM      6  C   UNL     1      -0.791  16.997  13.934  1.00  0.00     0.111 A 
ENDROOT
BRANCH   1   7
ATOM      7  C   UNL     1       1.861  17.488  17.238  1.00  0.00     0.073 C 
ATOM      8  O   UNL     1       2.131  16.511  17.987  1.00  0.00    -0.545 OA
ATOM      9  O   UNL     1       2.437  18.724  17.509  1.00  0.00    -0.545 OA
ENDBRANCH   1   7
TORSDOF 1
ENDMDL
MODEL 7
REMARK VINA RESULT:    -3.186     14.467     15.543
REMARK INTER + INTRA:          -3.390
REMARK INTER:                  -3.373
REMARK INTRA:                  -0.016
REMARK UNBOUND:                -0.017
REMARK SMILES O=C([O-])c1cccnc1
REMARK SMILES IDX 4 1 5 2 9 3 6 4 8 5 7 6 2 7 1 8 3 9
REMARK H PARENT
REMARK Flexibility Score: inf
ROOT
ATOM      1  C   UNL     1       1.612  15.440  16.061  1.00  0.00     0.016 A 
ATOM      2  C   UNL     1       2.313  14.224  16.012  1.00  0.00     0.013 A 
ATOM      3  C   UNL     1       1.406  16.141  14.859  1.00  0.00     0.120 A 
ATOM      4  C   UNL     1       2.785  13.735  14.793  1.00  0.00     0.021 A 
ATOM      5  N   UNL     1       1.876  15.642  13.685  1.00  0.00    -0.264 NA
ATOM      6  C   UNL     1       2.555  14.467  13.626  1.00  0.00     0.111 A 
ENDROOT
BRANCH   1   7
ATOM      7  C   UNL     1       1.108  15.967  17.347  1.00  0.00     0.073 C 
ATOM      8  O   UNL     1       1.767  16.828  17.988  1.00  0.00    -0.545 OA
ATOM      9  O   UNL     1      -0.102  15.520  17.866  1.00  0.00    -0.545 OA
ENDBRANCH   1   7
TORSDOF 1
ENDMDL
MODEL 8
REMARK VINA RESULT:    -3.138     21.328     22.540
REMARK INTER + INTRA:          -3.338
REMARK INTER:                  -3.321
REMARK INTRA:                  -0.018
REMARK UNBOUND:                -0.017
REMARK SMILES O=C([O-])c1cccnc1
REMARK SMILES IDX 4 1 5 2 9 3 6 4 8 5 7 6 2 7 1 8 3 9
REMARK H PARENT
REMARK Flexibility Score: inf
ROOT
ATOM      1  C   UNL     1       5.664   7.103  12.540  1.00  0.00     0.016 A 
ATOM      2  C   UNL     1       5.484   5.717  12.398  1.00  0.00     0.013 A 
ATOM      3  C   UNL     1       6.975   7.612  12.526  1.00  0.00     0.120 A 
ATOM      4  C   UNL     1       6.590   4.879  12.246  1.00  0.00     0.021 A 
ATOM      5  N   UNL     1       8.035   6.773  12.377  1.00  0.00    -0.264 NA
ATOM      6  C   UNL     1       7.873   5.431  12.238  1.00  0.00     0.111 A 
ENDROOT
BRANCH   1   7
ATOM      7  C   UNL     1       4.500   8.000  12.701  1.00  0.00     0.073 C 
ATOM      8  O   UNL     1       4.287   8.928  11.876  1.00  0.00    -0.545 OA
ATOM      9  O   UNL     1       3.623   7.832  13.767  1.00  0.00    -0.545 OA
ENDBRANCH   1   7
TORSDOF 1
ENDMDL
