MODEL 1
REMARK VINA RESULT:    -5.159      0.000      0.000
REMARK INTER + INTRA:          -7.025
REMARK INTER:                  -6.365
REMARK INTRA:                  -0.660
REMARK UNBOUND:                -0.660
REMARK SMILES C=C(CCC=C(C)C)[C@@H]1CC=C(C)CC1
REMARK SMILES IDX 3 1 2 2 1 3 9 4 13 5 12 6 11 7 14 8 10 9 15 10 4 11 5 12
REMARK SMILES IDX 6 13 7 14 8 15
REMARK H PARENT
REMARK Flexibility Score: inf
ROOT
ATOM      1  C   UNL     1      18.609  64.280  14.907  1.00  0.00     0.035 C 
ENDROOT
BRANCH   1   2
ATOM      2  C   UNL     1      19.638  64.046  16.004  1.00  0.00    -0.074 C 
ATOM      3  C   UNL     1      19.516  64.694  17.176  1.00  0.00     0.008 C 
BRANCH   2   4
ATOM      4  C   UNL     1      20.898  63.227  15.731  1.00  0.00     0.018 C 
ATOM      5  C   UNL     1      24.675  61.397  14.954  1.00  0.00     0.039 C 
ATOM      6  C   UNL     1      23.541  62.368  15.133  1.00  0.00    -0.077 C 
ATOM      7  C   UNL     1      23.255  62.838  16.359  1.00  0.00    -0.027 C 
ATOM      8  C   UNL     1      22.755  62.859  13.933  1.00  0.00     0.031 C 
ATOM      9  C   UNL     1      22.081  63.753  16.558  1.00  0.00     0.035 C 
ATOM     10  C   UNL     1      21.260  63.152  14.223  1.00  0.00     0.013 C 
ENDBRANCH   2   4
ENDBRANCH   1   2
BRANCH   1  11
ATOM     11  C   UNL     1      17.649  65.454  15.176  1.00  0.00     0.032 C 
BRANCH  11  12
ATOM     12  C   UNL     1      16.192  65.094  14.996  1.00  0.00    -0.028 C 
ATOM     13  C   UNL     1      15.354  64.876  16.032  1.00  0.00    -0.080 C 
ATOM     14  C   UNL     1      15.821  64.990  17.464  1.00  0.00     0.039 C 
ATOM     15  C   UNL     1      13.922  64.510  15.741  1.00  0.00     0.039 C 
ENDBRANCH  11  12
ENDBRANCH   1  11
TORSDOF 4
ENDMDL
MODEL 2
REMARK VINA RESULT:    -4.986      0.459      1.374
REMARK INTER + INTRA:          -6.812
REMARK INTER:                  -6.176
REMARK INTRA:                  -0.636
REMARK UNBOUND:                -0.660
REMARK SMILES C=C(CCC=C(C)C)[C@@H]1CC=C(C)CC1
REMARK SMILES IDX 3 1 2 2 1 3 9 4 13 5 12 6 11 7 14 8 10 9 15 10 4 11 5 12
REMARK SMILES IDX 6 13 7 14 8 15
REMARK H PARENT
REMARK Flexibility Score: inf
ROOT
ATOM      1  C   UNL     1      18.586  64.269  14.948  1.00  0.00     0.035 C 
ENDROOT
BRANCH   1   2
ATOM      2  C   UNL     1      19.689  64.126  15.987  1.00  0.00    -0.074 C 
ATOM      3  C   UNL     1      19.424  64.398  17.277  1.00  0.00     0.008 C 
BRANCH   2   4
ATOM      4  C   UNL     1      21.130  63.852  15.562  1.00  0.00     0.018 C 
ATOM      5  C   UNL     1      25.012  62.583  14.323  1.00  0.00     0.039 C 
ATOM      6  C   UNL     1      23.586  62.643  14.794  1.00  0.00    -0.077 C 
ATOM      7  C   UNL     1      22.593  62.762  13.896  1.00  0.00    -0.027 C 
ATOM      8  C   UNL     1      23.259  62.517  16.269  1.00  0.00     0.031 C 
ATOM      9  C   UNL     1      21.171  62.893  14.360  1.00  0.00     0.035 C 
ATOM     10  C   UNL     1      22.019  63.331  16.723  1.00  0.00     0.013 C 
ENDBRANCH   2   4
ENDBRANCH   1   2
BRANCH   1  11
ATOM     11  C   UNL     1      17.629  65.452  15.195  1.00  0.00     0.032 C 
BRANCH  11  12
ATOM     12  C   UNL     1      16.174  65.103  14.988  1.00  0.00    -0.028 C 
ATOM     13  C   UNL     1      15.322  64.860  16.007  1.00  0.00    -0.080 C 
ATOM     14  C   UNL     1      15.771  64.934  17.447  1.00  0.00     0.039 C 
ATOM     15  C   UNL     1      13.892  64.509  15.688  1.00  0.00     0.039 C 
ENDBRANCH  11  12
ENDBRANCH   1  11
TORSDOF 4
ENDMDL
MODEL 3
REMARK VINA RESULT:    -4.984      1.364      2.508
REMARK INTER + INTRA:          -6.810
REMARK INTER:                  -6.228
REMARK INTRA:                  -0.582
REMARK UNBOUND:                -0.660
REMARK SMILES C=C(CCC=C(C)C)[C@@H]1CC=C(C)CC1
REMARK SMILES IDX 3 1 2 2 1 3 9 4 13 5 12 6 11 7 14 8 10 9 15 10 4 11 5 12
REMARK SMILES IDX 6 13 7 14 8 15
REMARK H PARENT
REMARK Flexibility Score: inf
ROOT
ATOM      1  C   UNL     1      18.740  65.019  14.678  1.00  0.00     0.035 C 
ENDROOT
BRANCH   1   2
ATOM      2  C   UNL     1      19.739  63.877  14.808  1.00  0.00    -0.074 C 
ATOM      3  C   UNL     1      19.577  62.767  14.065  1.00  0.00     0.008 C 
BRANCH   2   4
ATOM      4  C   UNL     1      20.812  63.900  15.894  1.00  0.00     0.018 C 
ATOM      5  C   UNL     1      23.867  63.448  18.841  1.00  0.00     0.039 C 
ATOM      6  C   UNL     1      22.793  63.214  17.815  1.00  0.00    -0.077 C 
ATOM      7  C   UNL     1      23.107  63.223  16.508  1.00  0.00    -0.027 C 
ATOM      8  C   UNL     1      21.370  62.918  18.248  1.00  0.00     0.031 C 
ATOM      9  C   UNL     1      22.030  63.061  15.475  1.00  0.00     0.035 C 
ATOM     10  C   UNL     1      20.281  63.458  17.285  1.00  0.00     0.013 C 
ENDBRANCH   2   4
ENDBRANCH   1   2
BRANCH   1  11
ATOM     11  C   UNL     1      17.290  64.639  15.033  1.00  0.00     0.032 C 
BRANCH  11  12
ATOM     12  C   UNL     1      16.838  65.173  16.373  1.00  0.00    -0.028 C 
ATOM     13  C   UNL     1      15.544  65.195  16.758  1.00  0.00    -0.080 C 
ATOM     14  C   UNL     1      14.444  64.669  15.866  1.00  0.00     0.039 C 
ATOM     15  C   UNL     1      15.201  65.761  18.112  1.00  0.00     0.039 C 
ENDBRANCH  11  12
ENDBRANCH   1  11
TORSDOF 4
ENDMDL
MODEL 4
REMARK VINA RESULT:    -4.923      1.748      3.597
REMARK INTER + INTRA:          -6.734
REMARK INTER:                  -5.966
REMARK INTRA:                  -0.768
REMARK UNBOUND:                -0.660
REMARK SMILES C=C(CCC=C(C)C)[C@@H]1CC=C(C)CC1
REMARK SMILES IDX 3 1 2 2 1 3 9 4 13 5 12 6 11 7 14 8 10 9 15 10 4 11 5 12
REMARK SMILES IDX 6 13 7 14 8 15
REMARK H PARENT
REMARK Flexibility Score: inf
ROOT
ATOM      1  C   UNL     1      18.501  64.002  14.647  1.00  0.00     0.035 C 
ENDROOT
BRANCH   1   2
ATOM      2  C   UNL     1      19.783  63.859  15.456  1.00  0.00    -0.074 C 
ATOM      3  C   UNL     1      20.837  63.219  14.920  1.00  0.00     0.008 C 
BRANCH   2   4
ATOM      4  C   UNL     1      19.827  64.273  16.926  1.00  0.00     0.018 C 
ATOM      5  C   UNL     1      20.449  65.577  20.942  1.00  0.00     0.039 C 
ATOM      6  C   UNL     1      20.620  65.158  19.508  1.00  0.00    -0.077 C 
ATOM      7  C   UNL     1      20.434  66.055  18.525  1.00  0.00    -0.027 C 
ATOM      8  C   UNL     1      21.053  63.745  19.170  1.00  0.00     0.031 C 
ATOM      9  C   UNL     1      20.534  65.629  17.089  1.00  0.00     0.035 C 
ATOM     10  C   UNL     1      20.467  63.196  17.843  1.00  0.00     0.013 C 
ENDBRANCH   2   4
ENDBRANCH   1   2
BRANCH   1  11
ATOM     11  C   UNL     1      17.649  65.230  15.017  1.00  0.00     0.032 C 
BRANCH  11  12
ATOM     12  C   UNL     1      16.161  64.969  14.969  1.00  0.00    -0.028 C 
ATOM     13  C   UNL     1      15.408  64.798  16.076  1.00  0.00    -0.080 C 
ATOM     14  C   UNL     1      16.008  64.869  17.460  1.00  0.00     0.039 C 
ATOM     15  C   UNL     1      13.934  64.530  15.915  1.00  0.00     0.039 C 
ENDBRANCH  11  12
ENDBRANCH   1  11
TORSDOF 4
ENDMDL
MODEL 5
REMARK VINA RESULT:    -4.786      1.437      6.991
REMARK INTER + INTRA:          -6.565
REMARK INTER:                  -5.846
REMARK INTRA:                  -0.719
REMARK UNBOUND:                -0.660
REMARK SMILES C=C(CCC=C(C)C)[C@@H]1CC=C(C)CC1
REMARK SMILES IDX 3 1 2 2 1 3 9 4 13 5 12 6 11 7 14 8 10 9 15 10 4 11 5 12
REMARK SMILES IDX 6 13 7 14 8 15
REMARK H PARENT
REMARK Flexibility Score: inf
ROOT
ATOM      1  C   UNL     1      19.756  64.564  17.952  1.00  0.00     0.035 C 
ENDROOT
BRANCH   1   2
ATOM      2  C   UNL     1      19.132  64.987  16.629  1.00  0.00    -0.074 C 
ATOM      3  C   UNL     1      19.839  65.750  15.777  1.00  0.00     0.008 C 
BRANCH   2   4
ATOM      4  C   UNL     1      17.659  64.710  16.338  1.00  0.00     0.018 C 
ATOM      5  C   UNL     1      13.509  64.438  15.379  1.00  0.00     0.039 C 
ATOM      6  C   UNL     1      14.900  64.919  15.682  1.00  0.00    -0.077 C 
ATOM      7  C   UNL     1      15.822  64.949  14.704  1.00  0.00    -0.027 C 
ATOM      8  C   UNL     1      15.254  65.417  17.069  1.00  0.00     0.031 C 
ATOM      9  C   UNL     1      17.233  65.361  15.013  1.00  0.00     0.035 C 
ATOM     10  C   UNL     1      16.718  65.135  17.498  1.00  0.00     0.013 C 
ENDBRANCH   2   4
ENDBRANCH   1   2
BRANCH   1  11
ATOM     11  C   UNL     1      20.294  63.121  17.968  1.00  0.00     0.032 C 
BRANCH  11  12
ATOM     12  C   UNL     1      21.750  63.025  18.360  1.00  0.00    -0.028 C 
ATOM     13  C   UNL     1      22.754  62.985  17.457  1.00  0.00    -0.080 C 
ATOM     14  C   UNL     1      22.486  63.048  15.972  1.00  0.00     0.039 C 
ATOM     15  C   UNL     1      24.172  62.876  17.955  1.00  0.00     0.039 C 
ENDBRANCH  11  12
ENDBRANCH   1  11
TORSDOF 4
ENDMDL
MODEL 6
REMARK VINA RESULT:    -4.741      1.855      6.583
REMARK INTER + INTRA:          -6.510
REMARK INTER:                  -5.572
REMARK INTRA:                  -0.938
REMARK UNBOUND:                -0.660
REMARK SMILES C=C(CCC=C(C)C)[C@@H]1CC=C(C)CC1
REMARK SMILES IDX 3 1 2 2 1 3 9 4 13 5 12 6 11 7 14 8 10 9 15 10 4 11 5 12
REMARK SMILES IDX 6 13 7 14 8 15
REMARK H PARENT
REMARK Flexibility Score: inf
ROOT
ATOM      1  C   UNL     1      20.239  65.933  15.640  1.00  0.00     0.035 C 
ENDROOT
BRANCH   1   2
ATOM      2  C   UNL     1      19.079  64.977  15.399  1.00  0.00    -0.074 C 
ATOM      3  C   UNL     1      19.303  63.809  14.771  1.00  0.00     0.008 C 
BRANCH   2   4
ATOM      4  C   UNL     1      17.643  65.403  15.697  1.00  0.00     0.018 C 
ATOM      5  C   UNL     1      13.574  66.124  16.762  1.00  0.00     0.039 C 
ATOM      6  C   UNL     1      14.915  65.502  16.492  1.00  0.00    -0.077 C 
ATOM      7  C   UNL     1      15.883  65.577  17.421  1.00  0.00    -0.027 C 
ATOM      8  C   UNL     1      15.165  64.749  15.200  1.00  0.00     0.031 C 
ATOM      9  C   UNL     1      17.248  65.021  17.132  1.00  0.00     0.035 C 
ATOM     10  C   UNL     1      16.618  64.850  14.669  1.00  0.00     0.013 C 
ENDBRANCH   2   4
ENDBRANCH   1   2
BRANCH   1  11
ATOM     11  C   UNL     1      20.927  65.765  17.009  1.00  0.00     0.032 C 
BRANCH  11  12
ATOM     12  C   UNL     1      21.963  64.664  17.032  1.00  0.00    -0.028 C 
ATOM     13  C   UNL     1      21.749  63.464  17.612  1.00  0.00    -0.080 C 
ATOM     14  C   UNL     1      20.435  63.130  18.277  1.00  0.00     0.039 C 
ATOM     15  C   UNL     1      22.855  62.441  17.589  1.00  0.00     0.039 C 
ENDBRANCH  11  12
ENDBRANCH   1  11
TORSDOF 4
ENDMDL
MODEL 7
REMARK VINA RESULT:    -4.674      1.105      6.931
REMARK INTER + INTRA:          -6.428
REMARK INTER:                  -5.993
REMARK INTRA:                  -0.434
REMARK UNBOUND:                -0.660
REMARK SMILES C=C(CCC=C(C)C)[C@@H]1CC=C(C)CC1
REMARK SMILES IDX 3 1 2 2 1 3 9 4 13 5 12 6 11 7 14 8 10 9 15 10 4 11 5 12
REMARK SMILES IDX 6 13 7 14 8 15
REMARK H PARENT
REMARK Flexibility Score: inf
ROOT
ATOM      1  C   UNL     1      19.160  63.508  14.561  1.00  0.00     0.035 C 
ENDROOT
BRANCH   1   2
ATOM      2  C   UNL     1      18.760  64.974  14.663  1.00  0.00    -0.074 C 
ATOM      3  C   UNL     1      19.618  65.925  14.253  1.00  0.00     0.008 C 
BRANCH   2   4
ATOM      4  C   UNL     1      17.478  65.384  15.386  1.00  0.00     0.018 C 
ATOM      5  C   UNL     1      13.920  66.061  17.644  1.00  0.00     0.039 C 
ATOM      6  C   UNL     1      15.122  65.454  16.975  1.00  0.00    -0.077 C 
ATOM      7  C   UNL     1      16.327  65.539  17.565  1.00  0.00    -0.027 C 
ATOM      8  C   UNL     1      14.974  64.702  15.667  1.00  0.00     0.031 C 
ATOM      9  C   UNL     1      17.544  64.998  16.872  1.00  0.00     0.035 C 
ATOM     10  C   UNL     1      16.195  64.819  14.718  1.00  0.00     0.013 C 
ENDBRANCH   2   4
ENDBRANCH   1   2
BRANCH   1  11
ATOM     11  C   UNL     1      20.624  63.277  14.142  1.00  0.00     0.032 C 
BRANCH  11  12
ATOM     12  C   UNL     1      21.581  63.202  15.309  1.00  0.00    -0.028 C 
ATOM     13  C   UNL     1      22.867  62.808  15.184  1.00  0.00    -0.080 C 
ATOM     14  C   UNL     1      23.448  62.420  13.844  1.00  0.00     0.039 C 
ATOM     15  C   UNL     1      23.732  62.758  16.415  1.00  0.00     0.039 C 
ENDBRANCH  11  12
ENDBRANCH   1  11
TORSDOF 4
ENDMDL
MODEL 8
REMARK VINA RESULT:    -4.599      1.993      5.593
REMARK INTER + INTRA:          -6.335
REMARK INTER:                  -5.040
REMARK INTRA:                  -1.295
REMARK UNBOUND:                -0.660
REMARK SMILES C=C(CCC=C(C)C)[C@@H]1CC=C(C)CC1
REMARK SMILES IDX 3 1 2 2 1 3 9 4 13 5 12 6 11 7 14 8 10 9 15 10 4 11 5 12
REMARK SMILES IDX 6 13 7 14 8 15
REMARK H PARENT
REMARK Flexibility Score: inf
ROOT
ATOM      1  C   UNL     1      19.717  63.198  14.575  1.00  0.00     0.035 C 
ENDROOT
BRANCH   1   2
ATOM      2  C   UNL     1      19.119  64.258  15.488  1.00  0.00    -0.074 C 
ATOM      3  C   UNL     1      18.351  65.229  14.963  1.00  0.00     0.008 C 
BRANCH   2   4
ATOM      4  C   UNL     1      19.522  64.338  16.959  1.00  0.00     0.018 C 
ATOM      5  C   UNL     1      21.114  64.741  20.899  1.00  0.00     0.039 C 
ATOM      6  C   UNL     1      20.929  64.655  19.410  1.00  0.00    -0.077 C 
ATOM      7  C   UNL     1      20.530  65.741  18.725  1.00  0.00    -0.027 C 
ATOM      8  C   UNL     1      21.239  63.368  18.671  1.00  0.00     0.031 C 
ATOM      9  C   UNL     1      20.275  65.646  17.248  1.00  0.00     0.035 C 
ATOM     10  C   UNL     1      20.341  63.106  17.434  1.00  0.00     0.013 C 
ENDBRANCH   2   4
ENDBRANCH   1   2
BRANCH   1  11
ATOM     11  C   UNL     1      21.019  63.626  13.871  1.00  0.00     0.032 C 
BRANCH  11  12
ATOM     12  C   UNL     1      22.171  62.676  14.105  1.00  0.00    -0.028 C 
ATOM     13  C   UNL     1      23.217  62.970  14.906  1.00  0.00    -0.080 C 
ATOM     14  C   UNL     1      23.303  64.284  15.646  1.00  0.00     0.039 C 
ATOM     15  C   UNL     1      24.320  61.954  15.060  1.00  0.00     0.039 C 
ENDBRANCH  11  12
ENDBRANCH   1  11
TORSDOF 4
ENDMDL
MODEL 9
REMARK VINA RESULT:    -4.598      2.827      5.274
REMARK INTER + INTRA:          -6.333
REMARK INTER:                  -5.403
REMARK INTRA:                  -0.931
REMARK UNBOUND:                -0.660
REMARK SMILES C=C(CCC=C(C)C)[C@@H]1CC=C(C)CC1
REMARK SMILES IDX 3 1 2 2 1 3 9 4 13 5 12 6 11 7 14 8 10 9 15 10 4 11 5 12
REMARK SMILES IDX 6 13 7 14 8 15
REMARK H PARENT
REMARK Flexibility Score: inf
ROOT
ATOM      1  C   UNL     1      23.856  62.400  15.028  1.00  0.00     0.035 C 
ENDROOT
BRANCH   1   2
ATOM      2  C   UNL     1      24.026  62.123  16.515  1.00  0.00    -0.074 C 
ATOM      3  C   UNL     1      24.453  60.914  16.920  1.00  0.00     0.008 C 
BRANCH   2   4
ATOM      4  C   UNL     1      23.550  63.135  17.556  1.00  0.00     0.018 C 
ATOM      5  C   UNL     1      22.492  65.680  20.815  1.00  0.00     0.039 C 
ATOM      6  C   UNL     1      22.990  64.550  19.957  1.00  0.00    -0.077 C 
ATOM      7  C   UNL     1      24.219  64.616  19.416  1.00  0.00    -0.027 C 
ATOM      8  C   UNL     1      22.135  63.316  19.743  1.00  0.00     0.031 C 
ATOM      9  C   UNL     1      24.697  63.525  18.502  1.00  0.00     0.035 C 
ATOM     10  C   UNL     1      22.309  62.650  18.354  1.00  0.00     0.013 C 
ENDBRANCH   2   4
ENDBRANCH   1   2
BRANCH   1  11
ATOM     11  C   UNL     1      22.844  63.514  14.700  1.00  0.00     0.032 C 
BRANCH  11  12
ATOM     12  C   UNL     1      21.568  63.005  14.070  1.00  0.00    -0.028 C 
ATOM     13  C   UNL     1      20.345  63.233  14.595  1.00  0.00    -0.080 C 
ATOM     14  C   UNL     1      20.166  64.037  15.862  1.00  0.00     0.039 C 
ATOM     15  C   UNL     1      19.138  62.668  13.893  1.00  0.00     0.039 C 
ENDBRANCH  11  12
ENDBRANCH   1  11
TORSDOF 4
ENDMDL
