MODEL 1
REMARK VINA RESULT:    -4.708      0.000      0.000
REMARK INTER + INTRA:          -7.318
REMARK INTER:                  -6.910
REMARK INTRA:                  -0.409
REMARK UNBOUND:                -0.409
REMARK SMILES O=C([O-])CCCCCCCC(=O)[O-]
REMARK SMILES IDX 7 1 6 2 5 3 4 4 2 5 1 6 3 7 8 8 9 9 10 10 11 11 12 12 13 13
REMARK H PARENT
REMARK Flexibility Score: inf
ROOT
ATOM      1  C   UNL     1     118.481 165.686 123.355  1.00  0.00     0.000 C 
ENDROOT
BRANCH   1   2
ATOM      2  C   UNL     1     117.663 166.988 123.460  1.00  0.00     0.000 C 
BRANCH   2   3
ATOM      3  C   UNL     1     116.157 166.788 123.721  1.00  0.00     0.006 C 
BRANCH   3   4
ATOM      4  C   UNL     1     115.835 166.053 125.032  1.00  0.00     0.053 C 
BRANCH   4   5
ATOM      5  C   UNL     1     115.599 167.007 126.163  1.00  0.00     0.041 C 
ATOM      6  O   UNL     1     114.428 167.253 126.552  1.00  0.00    -0.550 OA
ATOM      7  O   UNL     1     116.674 167.649 126.766  1.00  0.00    -0.550 OA
ENDBRANCH   4   5
ENDBRANCH   3   4
ENDBRANCH   2   3
ENDBRANCH   1   2
BRANCH   1   8
ATOM      8  C   UNL     1     118.702 165.207 121.905  1.00  0.00     0.000 C 
BRANCH   8   9
ATOM      9  C   UNL     1     117.556 164.309 121.406  1.00  0.00     0.006 C 
BRANCH   9  10
ATOM     10  C   UNL     1     117.605 164.098 119.887  1.00  0.00     0.053 C 
BRANCH  10  11
ATOM     11  C   UNL     1     116.942 165.221 119.150  1.00  0.00     0.041 C 
ATOM     12  O   UNL     1     115.937 165.797 119.644  1.00  0.00    -0.550 OA
ATOM     13  O   UNL     1     117.414 165.611 117.902  1.00  0.00    -0.550 OA
ENDBRANCH  10  11
ENDBRANCH   9  10
ENDBRANCH   8   9
ENDBRANCH   1   8
TORSDOF 8
ENDMDL
MODEL 2
REMARK VINA RESULT:    -4.510      1.522      2.153
REMARK INTER + INTRA:          -7.027
REMARK INTER:                  -6.733
REMARK INTRA:                  -0.294
REMARK UNBOUND:                -0.409
REMARK SMILES O=C([O-])CCCCCCCC(=O)[O-]
REMARK SMILES IDX 7 1 6 2 5 3 4 4 2 5 1 6 3 7 8 8 9 9 10 10 11 11 12 12 13 13
REMARK H PARENT
REMARK Flexibility Score: inf
ROOT
ATOM      1  C   UNL     1     118.078 164.769 121.401  1.00  0.00     0.000 C 
ENDROOT
BRANCH   1   2
ATOM      2  C   UNL     1     117.550 165.752 122.464  1.00  0.00     0.000 C 
BRANCH   2   3
ATOM      3  C   UNL     1     116.015 165.855 122.547  1.00  0.00     0.006 C 
BRANCH   3   4
ATOM      4  C   UNL     1     115.506 167.034 123.392  1.00  0.00     0.053 C 
BRANCH   4   5
ATOM      5  C   UNL     1     115.967 166.941 124.814  1.00  0.00     0.041 C 
ATOM      6  O   UNL     1     115.728 165.909 125.494  1.00  0.00    -0.550 OA
ATOM      7  O   UNL     1     116.633 168.011 125.399  1.00  0.00    -0.550 OA
ENDBRANCH   4   5
ENDBRANCH   3   4
ENDBRANCH   2   3
ENDBRANCH   1   2
BRANCH   1   8
ATOM      8  C   UNL     1     117.003 164.307 120.394  1.00  0.00     0.000 C 
BRANCH   8   9
ATOM      9  C   UNL     1     116.921 165.229 119.165  1.00  0.00     0.006 C 
BRANCH   9  10
ATOM     10  C   UNL     1     117.732 164.689 117.980  1.00  0.00     0.053 C 
BRANCH  10  11
ATOM     11  C   UNL     1     117.711 165.634 116.818  1.00  0.00     0.041 C 
ATOM     12  O   UNL     1     117.115 166.739 116.911  1.00  0.00    -0.550 OA
ATOM     13  O   UNL     1     118.323 165.281 115.621  1.00  0.00    -0.550 OA
ENDBRANCH  10  11
ENDBRANCH   9  10
ENDBRANCH   8   9
ENDBRANCH   1   8
TORSDOF 8
ENDMDL
MODEL 3
REMARK VINA RESULT:    -4.482      0.923      5.981
REMARK INTER + INTRA:          -6.987
REMARK INTER:                  -6.767
REMARK INTRA:                  -0.220
REMARK UNBOUND:                -0.409
REMARK SMILES O=C([O-])CCCCCCCC(=O)[O-]
REMARK SMILES IDX 7 1 6 2 5 3 4 4 2 5 1 6 3 7 8 8 9 9 10 10 11 11 12 12 13 13
REMARK H PARENT
REMARK Flexibility Score: inf
ROOT
ATOM      1  C   UNL     1     118.989 165.219 122.859  1.00  0.00     0.000 C 
ENDROOT
BRANCH   1   2
ATOM      2  C   UNL     1     118.441 165.196 121.419  1.00  0.00     0.000 C 
BRANCH   2   3
ATOM      3  C   UNL     1     117.762 163.877 121.004  1.00  0.00     0.006 C 
BRANCH   3   4
ATOM      4  C   UNL     1     117.261 163.854 119.551  1.00  0.00     0.053 C 
BRANCH   4   5
ATOM      5  C   UNL     1     116.865 165.219 119.076  1.00  0.00     0.041 C 
ATOM      6  O   UNL     1     115.905 165.826 119.618  1.00  0.00    -0.550 OA
ATOM      7  O   UNL     1     117.538 165.806 118.011  1.00  0.00    -0.550 OA
ENDBRANCH   4   5
ENDBRANCH   3   4
ENDBRANCH   2   3
ENDBRANCH   1   2
BRANCH   1   8
ATOM      8  C   UNL     1     118.599 166.486 123.651  1.00  0.00     0.000 C 
BRANCH   8   9
ATOM      9  C   UNL     1     117.109 166.838 123.490  1.00  0.00     0.006 C 
BRANCH   9  10
ATOM     10  C   UNL     1     116.565 167.619 124.693  1.00  0.00     0.053 C 
BRANCH  10  11
ATOM     11  C   UNL     1     115.650 166.778 125.530  1.00  0.00     0.041 C 
ATOM     12  O   UNL     1     115.761 165.524 125.525  1.00  0.00    -0.550 OA
ATOM     13  O   UNL     1     114.655 167.377 126.293  1.00  0.00    -0.550 OA
ENDBRANCH  10  11
ENDBRANCH   9  10
ENDBRANCH   8   9
ENDBRANCH   1   8
TORSDOF 8
ENDMDL
MODEL 4
REMARK VINA RESULT:    -4.327     13.549     15.165
REMARK INTER + INTRA:          -6.759
REMARK INTER:                  -6.287
REMARK INTRA:                  -0.471
REMARK UNBOUND:                -0.409
REMARK SMILES O=C([O-])CCCCCCCC(=O)[O-]
REMARK SMILES IDX 7 1 6 2 5 3 4 4 2 5 1 6 3 7 8 8 9 9 10 10 11 11 12 12 13 13
REMARK H PARENT
REMARK Flexibility Score: inf
ROOT
ATOM      1  C   UNL     1     123.334 179.200 126.933  1.00  0.00     0.000 C 
ENDROOT
BRANCH   1   2
ATOM      2  C   UNL     1     121.820 179.372 126.703  1.00  0.00     0.000 C 
BRANCH   2   3
ATOM      3  C   UNL     1     121.192 178.357 125.729  1.00  0.00     0.006 C 
BRANCH   3   4
ATOM      4  C   UNL     1     121.599 178.557 124.260  1.00  0.00     0.053 C 
BRANCH   4   5
ATOM      5  C   UNL     1     120.514 179.218 123.465  1.00  0.00     0.041 C 
ATOM      6  O   UNL     1     120.767 179.717 122.338  1.00  0.00    -0.550 OA
ATOM      7  O   UNL     1     119.230 179.312 123.987  1.00  0.00    -0.550 OA
ENDBRANCH   4   5
ENDBRANCH   3   4
ENDBRANCH   2   3
ENDBRANCH   1   2
BRANCH   1   8
ATOM      8  C   UNL     1     123.719 179.007 128.415  1.00  0.00     0.000 C 
BRANCH   8   9
ATOM      9  C   UNL     1     122.490 178.997 129.341  1.00  0.00     0.006 C 
BRANCH   9  10
ATOM     10  C   UNL     1     122.495 177.799 130.299  1.00  0.00     0.053 C 
BRANCH  10  11
ATOM     11  C   UNL     1     121.227 177.007 130.202  1.00  0.00     0.041 C 
ATOM     12  O   UNL     1     120.911 176.203 131.118  1.00  0.00    -0.550 OA
ATOM     13  O   UNL     1     120.410 177.134 129.085  1.00  0.00    -0.550 OA
ENDBRANCH  10  11
ENDBRANCH   9  10
ENDBRANCH   8   9
ENDBRANCH   1   8
TORSDOF 8
ENDMDL
MODEL 5
REMARK VINA RESULT:    -4.315     13.247     14.573
REMARK INTER + INTRA:          -6.742
REMARK INTER:                  -6.123
REMARK INTRA:                  -0.619
REMARK UNBOUND:                -0.409
REMARK SMILES O=C([O-])CCCCCCCC(=O)[O-]
REMARK SMILES IDX 7 1 6 2 5 3 4 4 2 5 1 6 3 7 8 8 9 9 10 10 11 11 12 12 13 13
REMARK H PARENT
REMARK Flexibility Score: inf
ROOT
ATOM      1  C   UNL     1     122.570 179.278 127.020  1.00  0.00     0.000 C 
ENDROOT
BRANCH   1   2
ATOM      2  C   UNL     1     123.434 178.023 126.788  1.00  0.00     0.000 C 
BRANCH   2   3
ATOM      3  C   UNL     1     124.081 177.930 125.392  1.00  0.00     0.006 C 
BRANCH   3   4
ATOM      4  C   UNL     1     123.232 177.184 124.351  1.00  0.00     0.053 C 
BRANCH   4   5
ATOM      5  C   UNL     1     123.859 177.218 122.991  1.00  0.00     0.041 C 
ATOM      6  O   UNL     1     123.145 177.371 121.966  1.00  0.00    -0.550 OA
ATOM      7  O   UNL     1     125.231 177.048 122.855  1.00  0.00    -0.550 OA
ENDBRANCH   4   5
ENDBRANCH   3   4
ENDBRANCH   2   3
ENDBRANCH   1   2
BRANCH   1   8
ATOM      8  C   UNL     1     121.138 178.965 127.504  1.00  0.00     0.000 C 
BRANCH   8   9
ATOM      9  C   UNL     1     120.066 179.518 126.549  1.00  0.00     0.006 C 
BRANCH   9  10
ATOM     10  C   UNL     1     120.674 180.082 125.259  1.00  0.00     0.053 C 
BRANCH  10  11
ATOM     11  C   UNL     1     120.025 179.500 124.040  1.00  0.00     0.041 C 
ATOM     12  O   UNL     1     118.877 178.989 124.117  1.00  0.00    -0.550 OA
ATOM     13  O   UNL     1     120.701 179.493 122.826  1.00  0.00    -0.550 OA
ENDBRANCH  10  11
ENDBRANCH   9  10
ENDBRANCH   8   9
ENDBRANCH   1   8
TORSDOF 8
ENDMDL
MODEL 6
REMARK VINA RESULT:    -4.311     13.501     14.145
REMARK INTER + INTRA:          -6.736
REMARK INTER:                  -6.196
REMARK INTRA:                  -0.540
REMARK UNBOUND:                -0.409
REMARK SMILES O=C([O-])CCCCCCCC(=O)[O-]
REMARK SMILES IDX 7 1 6 2 5 3 4 4 2 5 1 6 3 7 8 8 9 9 10 10 11 11 12 12 13 13
REMARK H PARENT
REMARK Flexibility Score: inf
ROOT
ATOM      1  C   UNL     1     123.682 178.255 125.921  1.00  0.00     0.000 C 
ENDROOT
BRANCH   1   2
ATOM      2  C   UNL     1     123.324 179.355 126.939  1.00  0.00     0.000 C 
BRANCH   2   3
ATOM      3  C   UNL     1     123.724 179.048 128.395  1.00  0.00     0.006 C 
BRANCH   3   4
ATOM      4  C   UNL     1     122.534 178.839 129.346  1.00  0.00     0.053 C 
BRANCH   4   5
ATOM      5  C   UNL     1     121.800 177.567 129.051  1.00  0.00     0.041 C 
ATOM      6  O   UNL     1     120.572 177.591 128.777  1.00  0.00    -0.550 OA
ATOM      7  O   UNL     1     122.468 176.350 129.111  1.00  0.00    -0.550 OA
ENDBRANCH   4   5
ENDBRANCH   3   4
ENDBRANCH   2   3
ENDBRANCH   1   2
BRANCH   1   8
ATOM      8  C   UNL     1     122.577 177.992 124.876  1.00  0.00     0.000 C 
BRANCH   8   9
ATOM      9  C   UNL     1     121.195 178.470 125.355  1.00  0.00     0.006 C 
BRANCH   9  10
ATOM     10  C   UNL     1     120.709 179.704 124.585  1.00  0.00     0.053 C 
BRANCH  10  11
ATOM     11  C   UNL     1     120.166 179.337 123.238  1.00  0.00     0.041 C 
ATOM     12  O   UNL     1     118.981 178.929 123.122  1.00  0.00    -0.550 OA
ATOM     13  O   UNL     1     120.979 179.417 122.113  1.00  0.00    -0.550 OA
ENDBRANCH  10  11
ENDBRANCH   9  10
ENDBRANCH   8   9
ENDBRANCH   1   8
TORSDOF 8
ENDMDL
MODEL 7
REMARK VINA RESULT:    -4.300     13.154     14.960
REMARK INTER + INTRA:          -6.719
REMARK INTER:                  -6.105
REMARK INTRA:                  -0.614
REMARK UNBOUND:                -0.409
REMARK SMILES O=C([O-])CCCCCCCC(=O)[O-]
REMARK SMILES IDX 7 1 6 2 5 3 4 4 2 5 1 6 3 7 8 8 9 9 10 10 11 11 12 12 13 13
REMARK H PARENT
REMARK Flexibility Score: inf
ROOT
ATOM      1  C   UNL     1     121.785 178.122 125.582  1.00  0.00     0.000 C 
ENDROOT
BRANCH   1   2
ATOM      2  C   UNL     1     120.996 178.987 124.580  1.00  0.00     0.000 C 
BRANCH   2   3
ATOM      3  C   UNL     1     120.172 180.125 125.214  1.00  0.00     0.006 C 
BRANCH   3   4
ATOM      4  C   UNL     1     118.934 179.651 125.991  1.00  0.00     0.053 C 
BRANCH   4   5
ATOM      5  C   UNL     1     118.024 178.821 125.138  1.00  0.00     0.041 C 
ATOM      6  O   UNL     1     117.461 179.325 124.132  1.00  0.00    -0.550 OA
ATOM      7  O   UNL     1     117.773 177.496 125.475  1.00  0.00    -0.550 OA
ENDBRANCH   4   5
ENDBRANCH   3   4
ENDBRANCH   2   3
ENDBRANCH   1   2
BRANCH   1   8
ATOM      8  C   UNL     1     123.174 178.695 125.937  1.00  0.00     0.000 C 
BRANCH   8   9
ATOM      9  C   UNL     1     123.325 178.968 127.444  1.00  0.00     0.006 C 
BRANCH   9  10
ATOM     10  C   UNL     1     122.029 178.685 128.216  1.00  0.00     0.053 C 
BRANCH  10  11
ATOM     11  C   UNL     1     122.282 178.535 129.685  1.00  0.00     0.041 C 
ATOM     12  O   UNL     1     123.070 179.320 130.276  1.00  0.00    -0.550 OA
ATOM     13  O   UNL     1     121.671 177.509 130.396  1.00  0.00    -0.550 OA
ENDBRANCH  10  11
ENDBRANCH   9  10
ENDBRANCH   8   9
ENDBRANCH   1   8
TORSDOF 8
ENDMDL
MODEL 8
REMARK VINA RESULT:    -4.298     13.172     14.170
REMARK INTER + INTRA:          -6.716
REMARK INTER:                  -6.047
REMARK INTRA:                  -0.669
REMARK UNBOUND:                -0.409
REMARK SMILES O=C([O-])CCCCCCCC(=O)[O-]
REMARK SMILES IDX 7 1 6 2 5 3 4 4 2 5 1 6 3 7 8 8 9 9 10 10 11 11 12 12 13 13
REMARK H PARENT
REMARK Flexibility Score: inf
ROOT
ATOM      1  C   UNL     1     121.731 178.169 125.727  1.00  0.00     0.000 C 
ENDROOT
BRANCH   1   2
ATOM      2  C   UNL     1     122.995 178.867 126.265  1.00  0.00     0.000 C 
BRANCH   2   3
ATOM      3  C   UNL     1     123.173 178.798 127.795  1.00  0.00     0.006 C 
BRANCH   3   4
ATOM      4  C   UNL     1     121.873 178.993 128.591  1.00  0.00     0.053 C 
BRANCH   4   5
ATOM      5  C   UNL     1     121.569 177.812 129.461  1.00  0.00     0.041 C 
ATOM      6  O   UNL     1     120.910 176.842 129.006  1.00  0.00    -0.550 OA
ATOM      7  O   UNL     1     121.988 177.799 130.786  1.00  0.00    -0.550 OA
ENDBRANCH   4   5
ENDBRANCH   3   4
ENDBRANCH   2   3
ENDBRANCH   1   2
BRANCH   1   8
ATOM      8  C   UNL     1     120.996 178.973 124.633  1.00  0.00     0.000 C 
BRANCH   8   9
ATOM      9  C   UNL     1     120.161 180.125 125.218  1.00  0.00     0.006 C 
BRANCH   9  10
ATOM     10  C   UNL     1     118.970 179.617 126.041  1.00  0.00     0.053 C 
BRANCH  10  11
ATOM     11  C   UNL     1     118.015 178.823 125.203  1.00  0.00     0.041 C 
ATOM     12  O   UNL     1     117.418 179.366 124.236  1.00  0.00    -0.550 OA
ATOM     13  O   UNL     1     117.761 177.491 125.508  1.00  0.00    -0.550 OA
ENDBRANCH  10  11
ENDBRANCH   9  10
ENDBRANCH   8   9
ENDBRANCH   1   8
TORSDOF 8
ENDMDL
MODEL 9
REMARK VINA RESULT:    -4.242     12.963     14.547
REMARK INTER + INTRA:          -6.634
REMARK INTER:                  -5.764
REMARK INTRA:                  -0.870
REMARK UNBOUND:                -0.409
REMARK SMILES O=C([O-])CCCCCCCC(=O)[O-]
REMARK SMILES IDX 7 1 6 2 5 3 4 4 2 5 1 6 3 7 8 8 9 9 10 10 11 11 12 12 13 13
REMARK H PARENT
REMARK Flexibility Score: inf
ROOT
ATOM      1  C   UNL     1     123.305 178.981 129.447  1.00  0.00     0.000 C 
ENDROOT
BRANCH   1   2
ATOM      2  C   UNL     1     123.718 179.051 127.964  1.00  0.00     0.000 C 
BRANCH   2   3
ATOM      3  C   UNL     1     122.545 179.103 126.965  1.00  0.00     0.006 C 
BRANCH   3   4
ATOM      4  C   UNL     1     121.156 179.056 127.621  1.00  0.00     0.053 C 
BRANCH   4   5
ATOM      5  C   UNL     1     120.396 177.825 127.231  1.00  0.00     0.041 C 
ATOM      6  O   UNL     1     121.010 176.773 126.914  1.00  0.00    -0.550 OA
ATOM      7  O   UNL     1     119.007 177.850 127.186  1.00  0.00    -0.550 OA
ENDBRANCH   4   5
ENDBRANCH   3   4
ENDBRANCH   2   3
ENDBRANCH   1   2
BRANCH   1   8
ATOM      8  C   UNL     1     123.781 177.698 130.163  1.00  0.00     0.000 C 
BRANCH   8   9
ATOM      9  C   UNL     1     122.797 176.529 129.980  1.00  0.00     0.006 C 
BRANCH   9  10
ATOM     10  C   UNL     1     121.514 176.718 130.799  1.00  0.00     0.053 C 
BRANCH  10  11
ATOM     11  C   UNL     1     120.410 175.830 130.311  1.00  0.00     0.041 C 
ATOM     12  O   UNL     1     120.661 174.656 129.932  1.00  0.00    -0.550 OA
ATOM     13  O   UNL     1     119.107 176.311 130.244  1.00  0.00    -0.550 OA
ENDBRANCH  10  11
ENDBRANCH   9  10
ENDBRANCH   8   9
ENDBRANCH   1   8
TORSDOF 8
ENDMDL
