MODEL 1
REMARK VINA RESULT:    -3.842      0.000      0.000
REMARK INTER + INTRA:          -4.309
REMARK INTER:                  -4.179
REMARK INTRA:                  -0.130
REMARK UNBOUND:                -0.130
REMARK SMILES C=C(C)[C@H]1CC[C@H](C)C[C@@H]1O
REMARK SMILES IDX 8 1 7 2 6 3 5 4 4 5 10 6 9 7 11 8 2 10 1 11 3 12
REMARK H PARENT 11 9
REMARK Flexibility Score: inf
ROOT
ATOM      1  C   UNL     1     131.487 130.895 136.463  1.00  0.00     0.008 C 
ATOM      2  C   UNL     1     132.216 132.147 136.961  1.00  0.00    -0.012 C 
ATOM      3  C   UNL     1     132.147 132.237 138.496  1.00  0.00     0.004 C 
ATOM      4  C   UNL     1     132.889 133.479 139.008  1.00  0.00     0.011 C 
ATOM      5  C   UNL     1     134.355 133.482 138.531  1.00  0.00     0.043 C 
ATOM      6  C   UNL     1     134.435 133.390 136.989  1.00  0.00     0.121 C 
ATOM      7  C   UNL     1     133.683 132.144 136.485  1.00  0.00     0.035 C 
ENDROOT
BRANCH   6   8
ATOM      8  O   UNL     1     135.781 133.315 136.596  1.00  0.00    -0.392 OA
ATOM      9  H   UNL     1     135.912 133.997 135.885  1.00  0.00     0.210 HD
ENDBRANCH   6   8
BRANCH   5  10
ATOM     10  C   UNL     1     135.100 134.702 139.062  1.00  0.00    -0.075 C 
ATOM     11  C   UNL     1     136.297 134.584 139.661  1.00  0.00     0.008 C 
ATOM     12  C   UNL     1     134.495 136.076 138.924  1.00  0.00     0.039 C 
ENDBRANCH   5  10
TORSDOF 2
ENDMDL
MODEL 2
REMARK VINA RESULT:    -3.837      1.740      2.579
REMARK INTER + INTRA:          -4.304
REMARK INTER:                  -4.108
REMARK INTRA:                  -0.196
REMARK UNBOUND:                -0.130
REMARK SMILES C=C(C)[C@H]1CC[C@H](C)C[C@@H]1O
REMARK SMILES IDX 8 1 7 2 6 3 5 4 4 5 10 6 9 7 11 8 2 10 1 11 3 12
REMARK H PARENT 11 9
REMARK Flexibility Score: inf
ROOT
ATOM      1  C   UNL     1     133.997 131.084 134.080  1.00  0.00     0.008 C 
ATOM      2  C   UNL     1     134.395 131.685 135.433  1.00  0.00    -0.012 C 
ATOM      3  C   UNL     1     135.165 133.003 135.233  1.00  0.00     0.004 C 
ATOM      4  C   UNL     1     135.553 133.623 136.581  1.00  0.00     0.011 C 
ATOM      5  C   UNL     1     134.309 133.851 137.464  1.00  0.00     0.043 C 
ATOM      6  C   UNL     1     133.529 132.533 137.669  1.00  0.00     0.121 C 
ATOM      7  C   UNL     1     133.148 131.915 136.310  1.00  0.00     0.035 C 
ENDROOT
BRANCH   6   8
ATOM      8  O   UNL     1     132.363 132.792 138.408  1.00  0.00    -0.392 OA
ATOM      9  H   UNL     1     132.623 132.788 139.367  1.00  0.00     0.210 HD
ENDBRANCH   6   8
BRANCH   5  10
ATOM     10  C   UNL     1     134.693 134.493 138.792  1.00  0.00    -0.075 C 
ATOM     11  C   UNL     1     135.556 133.897 139.633  1.00  0.00     0.008 C 
ATOM     12  C   UNL     1     134.100 135.821 139.189  1.00  0.00     0.039 C 
ENDBRANCH   5  10
TORSDOF 2
ENDMDL
MODEL 3
REMARK VINA RESULT:    -3.723      1.393      4.103
REMARK INTER + INTRA:          -4.180
REMARK INTER:                  -4.064
REMARK INTRA:                  -0.116
REMARK UNBOUND:                -0.130
REMARK SMILES C=C(C)[C@H]1CC[C@H](C)C[C@@H]1O
REMARK SMILES IDX 8 1 7 2 6 3 5 4 4 5 10 6 9 7 11 8 2 10 1 11 3 12
REMARK H PARENT 11 9
REMARK Flexibility Score: inf
ROOT
ATOM      1  C   UNL     1     137.913 134.133 140.019  1.00  0.00     0.008 C 
ATOM      2  C   UNL     1     136.497 133.750 139.578  1.00  0.00    -0.012 C 
ATOM      3  C   UNL     1     135.461 134.711 140.189  1.00  0.00     0.004 C 
ATOM      4  C   UNL     1     134.041 134.347 139.740  1.00  0.00     0.011 C 
ATOM      5  C   UNL     1     133.931 134.341 138.202  1.00  0.00     0.043 C 
ATOM      6  C   UNL     1     134.968 133.379 137.578  1.00  0.00     0.121 C 
ATOM      7  C   UNL     1     136.391 133.749 138.040  1.00  0.00     0.035 C 
ENDROOT
BRANCH   6   8
ATOM      8  O   UNL     1     134.896 133.459 136.178  1.00  0.00    -0.392 OA
ATOM      9  H   UNL     1     133.971 133.199 135.923  1.00  0.00     0.210 HD
ENDBRANCH   6   8
BRANCH   5  10
ATOM     10  C   UNL     1     132.512 134.007 137.756  1.00  0.00    -0.075 C 
ATOM     11  C   UNL     1     131.637 134.973 137.428  1.00  0.00     0.008 C 
ATOM     12  C   UNL     1     132.064 132.570 137.678  1.00  0.00     0.039 C 
ENDBRANCH   5  10
TORSDOF 2
ENDMDL
MODEL 4
REMARK VINA RESULT:    -3.553      1.311      1.792
REMARK INTER + INTRA:          -3.995
REMARK INTER:                  -3.902
REMARK INTRA:                  -0.093
REMARK UNBOUND:                -0.130
REMARK SMILES C=C(C)[C@H]1CC[C@H](C)C[C@@H]1O
REMARK SMILES IDX 8 1 7 2 6 3 5 4 4 5 10 6 9 7 11 8 2 10 1 11 3 12
REMARK H PARENT 11 9
REMARK Flexibility Score: inf
ROOT
ATOM      1  C   UNL     1     134.143 131.254 134.354  1.00  0.00     0.008 C 
ATOM      2  C   UNL     1     134.028 132.355 135.415  1.00  0.00    -0.012 C 
ATOM      3  C   UNL     1     133.206 131.860 136.619  1.00  0.00     0.004 C 
ATOM      4  C   UNL     1     133.098 132.948 137.695  1.00  0.00     0.011 C 
ATOM      5  C   UNL     1     134.496 133.417 138.149  1.00  0.00     0.043 C 
ATOM      6  C   UNL     1     135.330 133.914 136.946  1.00  0.00     0.121 C 
ATOM      7  C   UNL     1     135.427 132.817 135.868  1.00  0.00     0.035 C 
ENDROOT
BRANCH   6   8
ATOM      8  O   UNL     1     136.620 134.256 137.382  1.00  0.00    -0.392 OA
ATOM      9  H   UNL     1     136.578 135.199 137.692  1.00  0.00     0.210 HD
ENDBRANCH   6   8
BRANCH   5  10
ATOM     10  C   UNL     1     134.389 134.478 139.238  1.00  0.00    -0.075 C 
ATOM     11  C   UNL     1     135.170 134.438 140.331  1.00  0.00     0.008 C 
ATOM     12  C   UNL     1     133.392 135.600 139.104  1.00  0.00     0.039 C 
ENDBRANCH   5  10
TORSDOF 2
ENDMDL
MODEL 5
REMARK VINA RESULT:    -3.069      1.831      4.551
REMARK INTER + INTRA:          -3.468
REMARK INTER:                  -3.859
REMARK INTRA:                   0.391
REMARK UNBOUND:                -0.130
REMARK SMILES C=C(C)[C@H]1CC[C@H](C)C[C@@H]1O
REMARK SMILES IDX 8 1 7 2 6 3 5 4 4 5 10 6 9 7 11 8 2 10 1 11 3 12
REMARK H PARENT 11 9
REMARK Flexibility Score: inf
ROOT
ATOM      1  C   UNL     1     134.587 136.120 139.251  1.00  0.00     0.008 C 
ATOM      2  C   UNL     1     134.106 135.092 138.222  1.00  0.00    -0.012 C 
ATOM      3  C   UNL     1     135.287 134.251 137.704  1.00  0.00     0.004 C 
ATOM      4  C   UNL     1     134.814 133.207 136.685  1.00  0.00     0.011 C 
ATOM      5  C   UNL     1     133.727 132.297 137.291  1.00  0.00     0.043 C 
ATOM      6  C   UNL     1     132.536 133.132 137.815  1.00  0.00     0.121 C 
ATOM      7  C   UNL     1     133.021 134.182 138.832  1.00  0.00     0.035 C 
ENDROOT
BRANCH   6   8
ATOM      8  O   UNL     1     131.604 132.281 138.430  1.00  0.00    -0.392 OA
ATOM      9  H   UNL     1     132.122 131.553 138.865  1.00  0.00     0.210 HD
ENDBRANCH   6   8
BRANCH   5  10
ATOM     10  C   UNL     1     133.277 131.241 136.287  1.00  0.00    -0.075 C 
ATOM     11  C   UNL     1     132.400 130.281 136.628  1.00  0.00     0.008 C 
ATOM     12  C   UNL     1     133.817 131.257 134.880  1.00  0.00     0.039 C 
ENDBRANCH   5  10
TORSDOF 2
ENDMDL
MODEL 6
REMARK VINA RESULT:    -2.973      1.902      4.579
REMARK INTER + INTRA:          -3.364
REMARK INTER:                  -3.295
REMARK INTRA:                  -0.069
REMARK UNBOUND:                -0.130
REMARK SMILES C=C(C)[C@H]1CC[C@H](C)C[C@@H]1O
REMARK SMILES IDX 8 1 7 2 6 3 5 4 4 5 10 6 9 7 11 8 2 10 1 11 3 12
REMARK H PARENT 11 9
REMARK Flexibility Score: inf
ROOT
ATOM      1  C   UNL     1     138.123 134.250 139.626  1.00  0.00     0.008 C 
ATOM      2  C   UNL     1     136.726 134.414 139.018  1.00  0.00    -0.012 C 
ATOM      3  C   UNL     1     136.510 133.400 137.880  1.00  0.00     0.004 C 
ATOM      4  C   UNL     1     135.108 133.544 137.275  1.00  0.00     0.011 C 
ATOM      5  C   UNL     1     134.019 133.384 138.356  1.00  0.00     0.043 C 
ATOM      6  C   UNL     1     134.230 134.398 139.505  1.00  0.00     0.121 C 
ATOM      7  C   UNL     1     135.642 134.250 140.102  1.00  0.00     0.035 C 
ENDROOT
BRANCH   6   8
ATOM      8  O   UNL     1     133.272 134.171 140.507  1.00  0.00    -0.392 OA
ATOM      9  H   UNL     1     133.299 133.200 140.716  1.00  0.00     0.210 HD
ENDBRANCH   6   8
BRANCH   5  10
ATOM     10  C   UNL     1     132.625 133.499 137.750  1.00  0.00    -0.075 C 
ATOM     11  C   UNL     1     132.051 134.696 137.541  1.00  0.00     0.008 C 
ATOM     12  C   UNL     1     131.860 132.256 137.375  1.00  0.00     0.039 C 
ENDBRANCH   5  10
TORSDOF 2
ENDMDL
MODEL 7
REMARK VINA RESULT:    -2.897      1.055      4.091
REMARK INTER + INTRA:          -3.282
REMARK INTER:                  -3.752
REMARK INTRA:                   0.470
REMARK UNBOUND:                -0.130
REMARK SMILES C=C(C)[C@H]1CC[C@H](C)C[C@@H]1O
REMARK SMILES IDX 8 1 7 2 6 3 5 4 4 5 10 6 9 7 11 8 2 10 1 11 3 12
REMARK H PARENT 11 9
REMARK Flexibility Score: inf
ROOT
ATOM      1  C   UNL     1     134.827 136.098 139.679  1.00  0.00     0.008 C 
ATOM      2  C   UNL     1     134.538 134.698 139.128  1.00  0.00    -0.012 C 
ATOM      3  C   UNL     1     133.023 134.421 139.124  1.00  0.00     0.004 C 
ATOM      4  C   UNL     1     132.721 133.027 138.558  1.00  0.00     0.011 C 
ATOM      5  C   UNL     1     133.304 132.868 137.139  1.00  0.00     0.043 C 
ATOM      6  C   UNL     1     134.825 133.146 137.133  1.00  0.00     0.121 C 
ATOM      7  C   UNL     1     135.119 134.544 137.708  1.00  0.00     0.035 C 
ENDROOT
BRANCH   6   8
ATOM      8  O   UNL     1     135.307 133.071 135.816  1.00  0.00    -0.392 OA
ATOM      9  H   UNL     1     134.583 132.669 135.267  1.00  0.00     0.210 HD
ENDBRANCH   6   8
BRANCH   5  10
ATOM     10  C   UNL     1     132.979 131.493 136.566  1.00  0.00    -0.075 C 
ATOM     11  C   UNL     1     133.422 131.119 135.354  1.00  0.00     0.008 C 
ATOM     12  C   UNL     1     132.144 130.522 137.361  1.00  0.00     0.039 C 
ENDBRANCH   5  10
TORSDOF 2
ENDMDL
MODEL 8
REMARK VINA RESULT:    -2.753      1.539      2.242
REMARK INTER + INTRA:          -3.125
REMARK INTER:                  -3.663
REMARK INTRA:                   0.538
REMARK UNBOUND:                -0.130
REMARK SMILES C=C(C)[C@H]1CC[C@H](C)C[C@@H]1O
REMARK SMILES IDX 8 1 7 2 6 3 5 4 4 5 10 6 9 7 11 8 2 10 1 11 3 12
REMARK H PARENT 11 9
REMARK Flexibility Score: inf
ROOT
ATOM      1  C   UNL     1     131.373 131.064 136.504  1.00  0.00     0.008 C 
ATOM      2  C   UNL     1     132.300 131.859 137.430  1.00  0.00    -0.012 C 
ATOM      3  C   UNL     1     133.752 131.800 136.922  1.00  0.00     0.004 C 
ATOM      4  C   UNL     1     134.686 132.607 137.832  1.00  0.00     0.011 C 
ATOM      5  C   UNL     1     134.214 134.070 137.952  1.00  0.00     0.043 C 
ATOM      6  C   UNL     1     132.755 134.140 138.461  1.00  0.00     0.121 C 
ATOM      7  C   UNL     1     131.826 133.322 137.544  1.00  0.00     0.035 C 
ENDROOT
BRANCH   6   8
ATOM      8  O   UNL     1     132.332 135.478 138.481  1.00  0.00    -0.392 OA
ATOM      9  H   UNL     1     131.480 135.503 138.992  1.00  0.00     0.210 HD
ENDBRANCH   6   8
BRANCH   5  10
ATOM     10  C   UNL     1     135.158 134.879 138.835  1.00  0.00    -0.075 C 
ATOM     11  C   UNL     1     134.849 136.125 139.231  1.00  0.00     0.008 C 
ATOM     12  C   UNL     1     136.470 134.285 139.280  1.00  0.00     0.039 C 
ENDBRANCH   5  10
TORSDOF 2
ENDMDL
MODEL 9
REMARK VINA RESULT:    -2.000      1.834      2.910
REMARK INTER + INTRA:          -2.306
REMARK INTER:                  -2.716
REMARK INTRA:                   0.410
REMARK UNBOUND:                -0.130
REMARK SMILES C=C(C)[C@H]1CC[C@H](C)C[C@@H]1O
REMARK SMILES IDX 8 1 7 2 6 3 5 4 4 5 10 6 9 7 11 8 2 10 1 11 3 12
REMARK H PARENT 11 9
REMARK Flexibility Score: inf
ROOT
ATOM      1  C   UNL     1     130.514 130.597 138.450  1.00  0.00     0.008 C 
ATOM      2  C   UNL     1     131.934 131.057 138.104  1.00  0.00    -0.012 C 
ATOM      3  C   UNL     1     132.228 130.825 136.610  1.00  0.00     0.004 C 
ATOM      4  C   UNL     1     133.641 131.298 136.248  1.00  0.00     0.011 C 
ATOM      5  C   UNL     1     133.839 132.783 136.614  1.00  0.00     0.043 C 
ATOM      6  C   UNL     1     133.545 133.026 138.112  1.00  0.00     0.121 C 
ATOM      7  C   UNL     1     132.126 132.543 138.468  1.00  0.00     0.035 C 
ENDROOT
BRANCH   6   8
ATOM      8  O   UNL     1     133.655 134.398 138.391  1.00  0.00    -0.392 OA
ATOM      9  H   UNL     1     132.785 134.812 138.148  1.00  0.00     0.210 HD
ENDBRANCH   6   8
BRANCH   5  10
ATOM     10  C   UNL     1     135.234 133.260 136.228  1.00  0.00    -0.075 C 
ATOM     11  C   UNL     1     135.677 133.173 134.962  1.00  0.00     0.008 C 
ATOM     12  C   UNL     1     136.150 133.841 137.275  1.00  0.00     0.039 C 
ENDBRANCH   5  10
TORSDOF 2
ENDMDL
