MODEL 1
REMARK VINA RESULT:    -0.171      0.000      0.000
REMARK INTER + INTRA:           0.505
REMARK INTER:                  -0.261
REMARK INTRA:                   0.766
REMARK UNBOUND:                 0.766
REMARK SMILES CC(=O)CCC=C(C)CCC=C(C)CCC=C(C)C
REMARK SMILES IDX 10 1 11 2 12 3 13 4 14 5 15 6 16 7 18 8 17 9 19 10 9 11 7 12
REMARK SMILES IDX 6 13 8 14 5 15 4 16 2 17 3 18 1 19
REMARK H PARENT
REMARK Flexibility Score: inf
ROOT
ATOM      1  C   UNL     1      26.597  12.310  22.616  1.00  0.00     0.032 C 
ENDROOT
BRANCH   1   2
ATOM      2  C   UNL     1      27.315  11.621  23.751  1.00  0.00    -0.028 C 
ATOM      3  C   UNL     1      27.109  11.930  25.050  1.00  0.00    -0.077 C 
ATOM      4  C   UNL     1      26.122  12.996  25.461  1.00  0.00     0.039 C 
BRANCH   3   5
ATOM      5  C   UNL     1      27.843  11.156  26.125  1.00  0.00     0.034 C 
BRANCH   5   6
ATOM      6  C   UNL     1      29.366  11.238  25.945  1.00  0.00     0.032 C 
BRANCH   6   7
ATOM      7  C   UNL     1      29.987   9.879  25.714  1.00  0.00    -0.028 C 
ATOM      8  C   UNL     1      27.838   8.642  26.072  1.00  0.00     0.039 C 
ATOM      9  C   UNL     1      29.322   8.706  25.800  1.00  0.00    -0.080 C 
ATOM     10  C   UNL     1      30.096   7.429  25.598  1.00  0.00     0.039 C 
ENDBRANCH   6   7
ENDBRANCH   5   6
ENDBRANCH   3   5
ENDBRANCH   1   2
BRANCH   1  11
ATOM     11  C   UNL     1      27.525  12.505  21.412  1.00  0.00     0.034 C 
BRANCH  11  12
ATOM     12  C   UNL     1      28.895  11.921  21.692  1.00  0.00    -0.077 C 
ATOM     13  C   UNL     1      30.037  12.636  21.585  1.00  0.00    -0.028 C 
ATOM     14  C   UNL     1      28.998  10.459  22.047  1.00  0.00     0.039 C 
BRANCH  13  15
ATOM     15  C   UNL     1      30.108  14.113  21.275  1.00  0.00     0.035 C 
BRANCH  15  16
ATOM     16  C   UNL     1      29.131  14.920  22.140  1.00  0.00     0.079 C 
BRANCH  16  17
ATOM     17  C   UNL     1      29.804  15.465  23.374  1.00  0.00     0.130 C 
ATOM     18  O   UNL     1      30.125  16.643  23.414  1.00  0.00    -0.300 OA
ATOM     19  C   UNL     1      30.092  14.589  24.557  1.00  0.00     0.087 C 
ENDBRANCH  16  17
ENDBRANCH  15  16
ENDBRANCH  13  15
ENDBRANCH  11  12
ENDBRANCH   1  11
TORSDOF 9
ENDMDL
MODEL 2
REMARK VINA RESULT:     0.568      2.301      5.990
REMARK INTER + INTRA:           1.633
REMARK INTER:                   0.474
REMARK INTRA:                   1.159
REMARK UNBOUND:                 0.766
REMARK SMILES CC(=O)CCC=C(C)CCC=C(C)CCC=C(C)C
REMARK SMILES IDX 10 1 11 2 12 3 13 4 14 5 15 6 16 7 18 8 17 9 19 10 9 11 7 12
REMARK SMILES IDX 6 13 8 14 5 15 4 16 2 17 3 18 1 19
REMARK H PARENT
REMARK Flexibility Score: inf
ROOT
ATOM      1  C   UNL     1      26.593  12.274  22.933  1.00  0.00     0.032 C 
ENDROOT
BRANCH   1   2
ATOM      2  C   UNL     1      27.838  13.126  22.886  1.00  0.00    -0.028 C 
ATOM      3  C   UNL     1      28.934  12.792  22.169  1.00  0.00    -0.077 C 
ATOM      4  C   UNL     1      28.983  11.528  21.346  1.00  0.00     0.039 C 
BRANCH   3   5
ATOM      5  C   UNL     1      30.123  13.730  22.146  1.00  0.00     0.034 C 
BRANCH   5   6
ATOM      6  C   UNL     1      29.782  15.063  21.464  1.00  0.00     0.032 C 
BRANCH   6   7
ATOM      7  C   UNL     1      29.931  16.239  22.403  1.00  0.00    -0.028 C 
ATOM      8  C   UNL     1      30.103  14.805  24.450  1.00  0.00     0.039 C 
ATOM      9  C   UNL     1      30.042  16.140  23.746  1.00  0.00    -0.080 C 
ATOM     10  C   UNL     1      30.125  17.410  24.552  1.00  0.00     0.039 C 
ENDBRANCH   6   7
ENDBRANCH   5   6
ENDBRANCH   3   5
ENDBRANCH   1   2
BRANCH   1  11
ATOM     11  C   UNL     1      26.519  11.475  24.239  1.00  0.00     0.034 C 
BRANCH  11  12
ATOM     12  C   UNL     1      26.988  12.318  25.408  1.00  0.00    -0.077 C 
ATOM     13  C   UNL     1      28.194  12.153  25.998  1.00  0.00    -0.028 C 
ATOM     14  C   UNL     1      26.047  13.345  25.983  1.00  0.00     0.039 C 
BRANCH  13  15
ATOM     15  C   UNL     1      29.264  11.197  25.526  1.00  0.00     0.035 C 
BRANCH  15  16
ATOM     16  C   UNL     1      28.673  10.057  24.686  1.00  0.00     0.079 C 
BRANCH  16  17
ATOM     17  C   UNL     1      28.622   8.766  25.463  1.00  0.00     0.130 C 
ATOM     18  O   UNL     1      27.565   8.401  25.954  1.00  0.00    -0.300 OA
ATOM     19  C   UNL     1      29.845   7.918  25.648  1.00  0.00     0.087 C 
ENDBRANCH  16  17
ENDBRANCH  15  16
ENDBRANCH  13  15
ENDBRANCH  11  12
ENDBRANCH   1  11
TORSDOF 9
ENDMDL
MODEL 3
REMARK VINA RESULT:     0.784      1.105      2.934
REMARK INTER + INTRA:           1.963
REMARK INTER:                   1.146
REMARK INTRA:                   0.816
REMARK UNBOUND:                 0.766
REMARK SMILES CC(=O)CCC=C(C)CCC=C(C)CCC=C(C)C
REMARK SMILES IDX 10 1 11 2 12 3 13 4 14 5 15 6 16 7 18 8 17 9 19 10 9 11 7 12
REMARK SMILES IDX 6 13 8 14 5 15 4 16 2 17 3 18 1 19
REMARK H PARENT
REMARK Flexibility Score: inf
ROOT
ATOM      1  C   UNL     1      26.968  11.946  22.410  1.00  0.00     0.032 C 
ENDROOT
BRANCH   1   2
ATOM      2  C   UNL     1      27.917  10.987  23.084  1.00  0.00    -0.028 C 
ATOM      3  C   UNL     1      29.198  10.815  22.687  1.00  0.00    -0.077 C 
ATOM      4  C   UNL     1      29.776  11.594  21.529  1.00  0.00     0.039 C 
BRANCH   3   5
ATOM      5  C   UNL     1      30.093   9.862  23.450  1.00  0.00     0.034 C 
BRANCH   5   6
ATOM      6  C   UNL     1      30.122  10.187  24.951  1.00  0.00     0.032 C 
BRANCH   6   7
ATOM      7  C   UNL     1      28.867   9.729  25.659  1.00  0.00    -0.028 C 
ATOM      8  C   UNL     1      28.676   7.617  24.325  1.00  0.00     0.039 C 
ATOM      9  C   UNL     1      28.190   8.597  25.366  1.00  0.00    -0.080 C 
ATOM     10  C   UNL     1      26.921   8.307  26.124  1.00  0.00     0.039 C 
ENDBRANCH   6   7
ENDBRANCH   5   6
ENDBRANCH   3   5
ENDBRANCH   1   2
BRANCH   1  11
ATOM     11  C   UNL     1      27.028  13.333  23.060  1.00  0.00     0.034 C 
BRANCH  11  12
ATOM     12  C   UNL     1      27.186  13.212  24.563  1.00  0.00    -0.077 C 
ATOM     13  C   UNL     1      28.390  13.198  25.178  1.00  0.00    -0.028 C 
ATOM     14  C   UNL     1      25.950  13.036  25.408  1.00  0.00     0.039 C 
BRANCH  13  15
ATOM     15  C   UNL     1      29.718  13.397  24.486  1.00  0.00     0.035 C 
BRANCH  15  16
ATOM     16  C   UNL     1      30.125  14.876  24.457  1.00  0.00     0.079 C 
BRANCH  16  17
ATOM     17  C   UNL     1      29.912  15.483  23.093  1.00  0.00     0.130 C 
ATOM     18  O   UNL     1      29.622  16.665  22.999  1.00  0.00    -0.300 OA
ATOM     19  C   UNL     1      30.048  14.662  21.845  1.00  0.00     0.087 C 
ENDBRANCH  16  17
ENDBRANCH  15  16
ENDBRANCH  13  15
ENDBRANCH  11  12
ENDBRANCH   1  11
TORSDOF 9
ENDMDL
MODEL 4
REMARK VINA RESULT:     0.847      1.799      3.364
REMARK INTER + INTRA:           2.059
REMARK INTER:                  -0.750
REMARK INTRA:                   2.809
REMARK UNBOUND:                 0.766
REMARK SMILES CC(=O)CCC=C(C)CCC=C(C)CCC=C(C)C
REMARK SMILES IDX 10 1 11 2 12 3 13 4 14 5 15 6 16 7 18 8 17 9 19 10 9 11 7 12
REMARK SMILES IDX 6 13 8 14 5 15 4 16 2 17 3 18 1 19
REMARK H PARENT
REMARK Flexibility Score: inf
ROOT
ATOM      1  C   UNL     1      28.257  13.479  21.013  1.00  0.00     0.032 C 
ENDROOT
BRANCH   1   2
ATOM      2  C   UNL     1      27.411  12.935  22.137  1.00  0.00    -0.028 C 
ATOM      3  C   UNL     1      27.674  11.763  22.758  1.00  0.00    -0.077 C 
ATOM      4  C   UNL     1      28.858  10.912  22.366  1.00  0.00     0.039 C 
BRANCH   3   5
ATOM      5  C   UNL     1      26.796  11.315  23.907  1.00  0.00     0.034 C 
BRANCH   5   6
ATOM      6  C   UNL     1      26.859   9.794  24.112  1.00  0.00     0.032 C 
BRANCH   6   7
ATOM      7  C   UNL     1      28.256   9.321  24.444  1.00  0.00    -0.028 C 
ATOM      8  C   UNL     1      27.472   7.589  26.075  1.00  0.00     0.039 C 
ATOM      9  C   UNL     1      28.548   8.357  25.345  1.00  0.00    -0.080 C 
ATOM     10  C   UNL     1      29.997   8.038  25.607  1.00  0.00     0.039 C 
ENDBRANCH   6   7
ENDBRANCH   5   6
ENDBRANCH   3   5
ENDBRANCH   1   2
BRANCH   1  11
ATOM     11  C   UNL     1      29.715  13.658  21.453  1.00  0.00     0.034 C 
BRANCH  11  12
ATOM     12  C   UNL     1      29.858  14.873  22.348  1.00  0.00    -0.077 C 
ATOM     13  C   UNL     1      29.995  14.786  23.691  1.00  0.00    -0.028 C 
ATOM     14  C   UNL     1      29.782  16.242  21.724  1.00  0.00     0.039 C 
BRANCH  13  15
ATOM     15  C   UNL     1      30.123  13.497  24.467  1.00  0.00     0.035 C 
BRANCH  15  16
ATOM     16  C   UNL     1      29.478  13.606  25.855  1.00  0.00     0.079 C 
BRANCH  16  17
ATOM     17  C   UNL     1      28.224  12.775  25.951  1.00  0.00     0.130 C 
ATOM     18  O   UNL     1      28.312  11.559  26.015  1.00  0.00    -0.300 OA
ATOM     19  C   UNL     1      26.866  13.412  25.967  1.00  0.00     0.087 C 
ENDBRANCH  16  17
ENDBRANCH  15  16
ENDBRANCH  13  15
ENDBRANCH  11  12
ENDBRANCH   1  11
TORSDOF 9
ENDMDL
MODEL 5
REMARK VINA RESULT:     1.284      2.427      4.889
REMARK INTER + INTRA:           2.727
REMARK INTER:                   1.234
REMARK INTRA:                   1.493
REMARK UNBOUND:                 0.766
REMARK SMILES CC(=O)CCC=C(C)CCC=C(C)CCC=C(C)C
REMARK SMILES IDX 10 1 11 2 12 3 13 4 14 5 15 6 16 7 18 8 17 9 19 10 9 11 7 12
REMARK SMILES IDX 6 13 8 14 5 15 4 16 2 17 3 18 1 19
REMARK H PARENT
REMARK Flexibility Score: inf
ROOT
ATOM      1  C   UNL     1      27.592  13.263  21.815  1.00  0.00     0.032 C 
ENDROOT
BRANCH   1   2
ATOM      2  C   UNL     1      28.310  14.145  22.805  1.00  0.00    -0.028 C 
ATOM      3  C   UNL     1      29.437  14.828  22.504  1.00  0.00    -0.077 C 
ATOM      4  C   UNL     1      30.057  14.760  21.129  1.00  0.00     0.039 C 
BRANCH   3   5
ATOM      5  C   UNL     1      30.067  15.724  23.549  1.00  0.00     0.034 C 
BRANCH   5   6
ATOM      6  C   UNL     1      29.626  15.339  24.969  1.00  0.00     0.032 C 
BRANCH   6   7
ATOM      7  C   UNL     1      30.125  13.969  25.369  1.00  0.00    -0.028 C 
ATOM      8  C   UNL     1      27.824  13.004  25.595  1.00  0.00     0.039 C 
ATOM      9  C   UNL     1      29.330  12.923  25.685  1.00  0.00    -0.080 C 
ATOM     10  C   UNL     1      29.980  11.636  26.121  1.00  0.00     0.039 C 
ENDBRANCH   6   7
ENDBRANCH   5   6
ENDBRANCH   3   5
ENDBRANCH   1   2
BRANCH   1  11
ATOM     11  C   UNL     1      27.872  11.781  22.089  1.00  0.00     0.034 C 
BRANCH  11  12
ATOM     12  C   UNL     1      29.341  11.468  21.884  1.00  0.00    -0.077 C 
ATOM     13  C   UNL     1      30.093  10.829  22.809  1.00  0.00    -0.028 C 
ATOM     14  C   UNL     1      30.012  11.943  20.622  1.00  0.00     0.039 C 
BRANCH  13  15
ATOM     15  C   UNL     1      29.571  10.259  24.106  1.00  0.00     0.035 C 
BRANCH  15  16
ATOM     16  C   UNL     1      28.690   9.025  23.868  1.00  0.00     0.079 C 
BRANCH  16  17
ATOM     17  C   UNL     1      28.300   8.364  25.165  1.00  0.00     0.130 C 
ATOM     18  O   UNL     1      29.171   7.996  25.939  1.00  0.00    -0.300 OA
ATOM     19  C   UNL     1      26.861   8.147  25.528  1.00  0.00     0.087 C 
ENDBRANCH  16  17
ENDBRANCH  15  16
ENDBRANCH  13  15
ENDBRANCH  11  12
ENDBRANCH   1  11
TORSDOF 9
ENDMDL
MODEL 6
REMARK VINA RESULT:     1.394      1.849      2.515
REMARK INTER + INTRA:           2.893
REMARK INTER:                   0.517
REMARK INTRA:                   2.376
REMARK UNBOUND:                 0.766
REMARK SMILES CC(=O)CCC=C(C)CCC=C(C)CCC=C(C)C
REMARK SMILES IDX 10 1 11 2 12 3 13 4 14 5 15 6 16 7 18 8 17 9 19 10 9 11 7 12
REMARK SMILES IDX 6 13 8 14 5 15 4 16 2 17 3 18 1 19
REMARK H PARENT
REMARK Flexibility Score: inf
ROOT
ATOM      1  C   UNL     1      27.549  12.920  21.603  1.00  0.00     0.032 C 
ENDROOT
BRANCH   1   2
ATOM      2  C   UNL     1      27.336  13.070  23.089  1.00  0.00    -0.028 C 
ATOM      3  C   UNL     1      26.784  12.104  23.857  1.00  0.00    -0.077 C 
ATOM      4  C   UNL     1      26.345  10.785  23.270  1.00  0.00     0.039 C 
BRANCH   3   5
ATOM      5  C   UNL     1      26.649  12.326  25.349  1.00  0.00     0.034 C 
BRANCH   5   6
ATOM      6  C   UNL     1      26.656  11.000  26.124  1.00  0.00     0.032 C 
BRANCH   6   7
ATOM      7  C   UNL     1      27.932  10.219  25.908  1.00  0.00    -0.028 C 
ATOM      8  C   UNL     1      26.741   8.123  25.227  1.00  0.00     0.039 C 
ATOM      9  C   UNL     1      27.985   8.921  25.537  1.00  0.00    -0.080 C 
ATOM     10  C   UNL     1      29.337   8.266  25.418  1.00  0.00     0.039 C 
ENDBRANCH   6   7
ENDBRANCH   5   6
ENDBRANCH   3   5
ENDBRANCH   1   2
BRANCH   1  11
ATOM     11  C   UNL     1      29.019  13.139  21.230  1.00  0.00     0.034 C 
BRANCH  11  12
ATOM     12  C   UNL     1      29.668  11.830  20.824  1.00  0.00    -0.077 C 
ATOM     13  C   UNL     1      30.125  10.926  21.720  1.00  0.00    -0.028 C 
ATOM     14  C   UNL     1      29.872  11.549  19.358  1.00  0.00     0.039 C 
BRANCH  13  15
ATOM     15  C   UNL     1      29.970  11.037  23.218  1.00  0.00     0.035 C 
BRANCH  15  16
ATOM     16  C   UNL     1      29.974  12.501  23.680  1.00  0.00     0.079 C 
BRANCH  16  17
ATOM     17  C   UNL     1      30.042  12.608  25.182  1.00  0.00     0.130 C 
ATOM     18  O   UNL     1      30.090  11.590  25.856  1.00  0.00    -0.300 OA
ATOM     19  C   UNL     1      30.050  13.941  25.869  1.00  0.00     0.087 C 
ENDBRANCH  16  17
ENDBRANCH  15  16
ENDBRANCH  13  15
ENDBRANCH  11  12
ENDBRANCH   1  11
TORSDOF 9
ENDMDL
MODEL 7
REMARK VINA RESULT:     1.736      1.516      2.831
REMARK INTER + INTRA:           3.415
REMARK INTER:                   2.224
REMARK INTRA:                   1.191
REMARK UNBOUND:                 0.766
REMARK SMILES CC(=O)CCC=C(C)CCC=C(C)CCC=C(C)C
REMARK SMILES IDX 10 1 11 2 12 3 13 4 14 5 15 6 16 7 18 8 17 9 19 10 9 11 7 12
REMARK SMILES IDX 6 13 8 14 5 15 4 16 2 17 3 18 1 19
REMARK H PARENT
REMARK Flexibility Score: inf
ROOT
ATOM      1  C   UNL     1      27.641  10.996  21.841  1.00  0.00     0.032 C 
ENDROOT
BRANCH   1   2
ATOM      2  C   UNL     1      27.718  11.114  23.343  1.00  0.00    -0.028 C 
ATOM      3  C   UNL     1      27.756  10.043  24.167  1.00  0.00    -0.077 C 
ATOM      4  C   UNL     1      27.733   8.633  23.628  1.00  0.00     0.039 C 
BRANCH   3   5
ATOM      5  C   UNL     1      27.877  10.257  25.661  1.00  0.00     0.034 C 
BRANCH   5   6
ATOM      6  C   UNL     1      29.341  10.216  26.125  1.00  0.00     0.032 C 
BRANCH   6   7
ATOM      7  C   UNL     1      29.996  11.578  26.065  1.00  0.00    -0.028 C 
ATOM      8  C   UNL     1      27.819  12.816  26.018  1.00  0.00     0.039 C 
ATOM      9  C   UNL     1      29.327  12.749  25.984  1.00  0.00    -0.080 C 
ATOM     10  C   UNL     1      30.125  14.022  25.873  1.00  0.00     0.039 C 
ENDBRANCH   6   7
ENDBRANCH   5   6
ENDBRANCH   3   5
ENDBRANCH   1   2
BRANCH   1  11
ATOM     11  C   UNL     1      28.929  10.397  21.266  1.00  0.00     0.034 C 
BRANCH  11  12
ATOM     12  C   UNL     1      29.659  11.417  20.414  1.00  0.00    -0.077 C 
ATOM     13  C   UNL     1      30.125  12.588  20.905  1.00  0.00    -0.028 C 
ATOM     14  C   UNL     1      29.820  11.145  18.941  1.00  0.00     0.039 C 
BRANCH  13  15
ATOM     15  C   UNL     1      30.076  12.999  22.357  1.00  0.00     0.035 C 
BRANCH  15  16
ATOM     16  C   UNL     1      29.066  14.131  22.592  1.00  0.00     0.079 C 
BRANCH  16  17
ATOM     17  C   UNL     1      29.657  15.477  22.259  1.00  0.00     0.130 C 
ATOM     18  O   UNL     1      29.903  15.755  21.095  1.00  0.00    -0.300 OA
ATOM     19  C   UNL     1      29.951  16.486  23.329  1.00  0.00     0.087 C 
ENDBRANCH  16  17
ENDBRANCH  15  16
ENDBRANCH  13  15
ENDBRANCH  11  12
ENDBRANCH   1  11
TORSDOF 9
ENDMDL
