MODEL 1
REMARK VINA RESULT:    -4.387      0.000      0.000
REMARK INTER + INTRA:         -16.673
REMARK INTER:                 -11.568
REMARK INTRA:                  -5.106
REMARK UNBOUND:                -5.106
REMARK SMILES CCCCCCCCCCCCCCCCCCCCCCCCCCCCCC(=O)[O-]
REMARK SMILES IDX 16 1 17 2 18 3 19 4 20 5 21 6 22 7 23 8 24 9 25 10 26 11
REMARK SMILES IDX 27 12 28 13 29 14 30 15 31 16 32 17 15 18 14 19 13 20 12 21
REMARK SMILES IDX 11 22 10 23 9 24 8 25 7 26 6 27 5 28 4 29 3 30 2 31 1 32
REMARK H PARENT
REMARK Flexibility Score: inf
ROOT
ATOM      1  C   UNL     1      -1.583 -21.690 -13.278  1.00  0.00     0.000 C 
ENDROOT
BRANCH   1   2
ATOM      2  C   UNL     1      -0.342 -20.787 -13.348  1.00  0.00     0.000 C 
BRANCH   2   3
ATOM      3  C   UNL     1       0.769 -21.376 -14.238  1.00  0.00     0.000 C 
BRANCH   3   4
ATOM      4  C   UNL     1       0.366 -21.445 -15.721  1.00  0.00     0.000 C 
BRANCH   4   5
ATOM      5  C   UNL     1       0.441 -22.850 -16.349  1.00  0.00     0.000 C 
BRANCH   5   6
ATOM      6  C   UNL     1      -0.932 -23.537 -16.517  1.00  0.00     0.000 C 
BRANCH   6   7
ATOM      7  C   UNL     1      -1.225 -24.547 -15.393  1.00  0.00     0.000 C 
BRANCH   7   8
ATOM      8  C   UNL     1       0.054 -25.080 -14.729  1.00  0.00     0.000 C 
BRANCH   8   9
ATOM      9  C   UNL     1      -0.127 -25.344 -13.226  1.00  0.00     0.000 C 
BRANCH   9  10
ATOM     10  C   UNL     1       0.950 -24.619 -12.408  1.00  0.00     0.000 C 
BRANCH  10  11
ATOM     11  C   UNL     1       0.368 -23.865 -11.200  1.00  0.00     0.000 C 
BRANCH  11  12
ATOM     12  C   UNL     1       1.312 -22.774 -10.674  1.00  0.00     0.000 C 
BRANCH  12  13
ATOM     13  C   UNL     1       2.781 -23.168 -10.889  1.00  0.00     0.006 C 
BRANCH  13  14
ATOM     14  C   UNL     1       3.747 -22.024 -10.547  1.00  0.00     0.053 C 
BRANCH  14  15
ATOM     15  C   UNL     1       4.090 -21.207 -11.755  1.00  0.00     0.041 C 
ATOM     16  O   UNL     1       5.172 -21.406 -12.368  1.00  0.00    -0.550 OA
ATOM     17  O   UNL     1       3.231 -20.203 -12.183  1.00  0.00    -0.550 OA
ENDBRANCH  14  15
ENDBRANCH  13  14
ENDBRANCH  12  13
ENDBRANCH  11  12
ENDBRANCH  10  11
ENDBRANCH   9  10
ENDBRANCH   8   9
ENDBRANCH   7   8
ENDBRANCH   6   7
ENDBRANCH   5   6
ENDBRANCH   4   5
ENDBRANCH   3   4
ENDBRANCH   2   3
ENDBRANCH   1   2
BRANCH   1  18
ATOM     18  C   UNL     1      -2.884 -20.892 -13.076  1.00  0.00     0.000 C 
BRANCH  18  19
ATOM     19  C   UNL     1      -3.247 -20.026 -14.296  1.00  0.00     0.000 C 
BRANCH  19  20
ATOM     20  C   UNL     1      -3.160 -20.750 -15.654  1.00  0.00     0.000 C 
BRANCH  20  21
ATOM     21  C   UNL     1      -4.505 -21.265 -16.202  1.00  0.00     0.000 C 
BRANCH  21  22
ATOM     22  C   UNL     1      -4.527 -22.762 -16.569  1.00  0.00     0.000 C 
BRANCH  22  23
ATOM     23  C   UNL     1      -5.469 -23.632 -15.716  1.00  0.00     0.000 C 
BRANCH  23  24
ATOM     24  C   UNL     1      -5.774 -23.015 -14.340  1.00  0.00    -0.000 C 
BRANCH  24  25
ATOM     25  C   UNL     1      -7.280 -22.796 -14.103  1.00  0.00    -0.000 C 
BRANCH  25  26
ATOM     26  C   UNL     1      -8.034 -22.099 -15.255  1.00  0.00    -0.000 C 
BRANCH  26  27
ATOM     27  C   UNL     1      -8.473 -20.651 -14.972  1.00  0.00    -0.000 C 
BRANCH  27  28
ATOM     28  C   UNL     1      -7.482 -19.609 -15.510  1.00  0.00    -0.000 C 
BRANCH  28  29
ATOM     29  C   UNL     1      -6.764 -18.891 -14.361  1.00  0.00    -0.000 C 
BRANCH  29  30
ATOM     30  C   UNL     1      -6.255 -17.514 -14.804  1.00  0.00    -0.000 C 
BRANCH  30  31
ATOM     31  C   UNL     1      -5.660 -16.742 -13.621  1.00  0.00    -0.003 C 
ATOM     32  C   UNL     1      -6.436 -15.456 -13.353  1.00  0.00     0.004 C 
ENDBRANCH  30  31
ENDBRANCH  29  30
ENDBRANCH  28  29
ENDBRANCH  27  28
ENDBRANCH  26  27
ENDBRANCH  25  26
ENDBRANCH  24  25
ENDBRANCH  23  24
ENDBRANCH  22  23
ENDBRANCH  21  22
ENDBRANCH  20  21
ENDBRANCH  19  20
ENDBRANCH  18  19
ENDBRANCH   1  18
TORSDOF 28
ENDMDL
MODEL 2
REMARK VINA RESULT:    -4.352      6.119      9.430
REMARK INTER + INTRA:         -16.581
REMARK INTER:                 -11.177
REMARK INTRA:                  -5.404
REMARK UNBOUND:                -5.106
REMARK SMILES CCCCCCCCCCCCCCCCCCCCCCCCCCCCCC(=O)[O-]
REMARK SMILES IDX 16 1 17 2 18 3 19 4 20 5 21 6 22 7 23 8 24 9 25 10 26 11
REMARK SMILES IDX 27 12 28 13 29 14 30 15 31 16 32 17 15 18 14 19 13 20 12 21
REMARK SMILES IDX 11 22 10 23 9 24 8 25 7 26 6 27 5 28 4 29 3 30 2 31 1 32
REMARK H PARENT
REMARK Flexibility Score: inf
ROOT
ATOM      1  C   UNL     1      -6.586 -14.980 -13.288  1.00  0.00     0.000 C 
ENDROOT
BRANCH   1   2
ATOM      2  C   UNL     1      -6.814 -16.348 -12.628  1.00  0.00     0.000 C 
BRANCH   2   3
ATOM      3  C   UNL     1      -7.440 -16.231 -11.225  1.00  0.00     0.000 C 
BRANCH   3   4
ATOM      4  C   UNL     1      -7.556 -17.588 -10.513  1.00  0.00     0.000 C 
BRANCH   4   5
ATOM      5  C   UNL     1      -6.695 -17.730  -9.242  1.00  0.00     0.000 C 
BRANCH   5   6
ATOM      6  C   UNL     1      -6.393 -19.192  -8.848  1.00  0.00     0.000 C 
BRANCH   6   7
ATOM      7  C   UNL     1      -6.562 -19.442  -7.340  1.00  0.00     0.000 C 
BRANCH   7   8
ATOM      8  C   UNL     1      -6.844 -18.151  -6.555  1.00  0.00     0.000 C 
BRANCH   8   9
ATOM      9  C   UNL     1      -8.105 -18.254  -5.683  1.00  0.00     0.000 C 
BRANCH   9  10
ATOM     10  C   UNL     1      -8.952 -19.471  -6.082  1.00  0.00     0.000 C 
BRANCH  10  11
ATOM     11  C   UNL     1     -10.162 -19.089  -6.951  1.00  0.00     0.000 C 
BRANCH  11  12
ATOM     12  C   UNL     1     -10.092 -19.696  -8.360  1.00  0.00     0.000 C 
BRANCH  12  13
ATOM     13  C   UNL     1      -9.775 -21.198  -8.297  1.00  0.00     0.006 C 
BRANCH  13  14
ATOM     14  C   UNL     1      -9.098 -21.705  -9.577  1.00  0.00     0.053 C 
BRANCH  14  15
ATOM     15  C   UNL     1      -9.642 -23.034 -10.005  1.00  0.00     0.041 C 
ATOM     16  O   UNL     1     -10.062 -23.198 -11.181  1.00  0.00    -0.550 OA
ATOM     17  O   UNL     1      -9.717 -24.081  -9.095  1.00  0.00    -0.550 OA
ENDBRANCH  14  15
ENDBRANCH  13  14
ENDBRANCH  12  13
ENDBRANCH  11  12
ENDBRANCH  10  11
ENDBRANCH   9  10
ENDBRANCH   8   9
ENDBRANCH   7   8
ENDBRANCH   6   7
ENDBRANCH   5   6
ENDBRANCH   4   5
ENDBRANCH   3   4
ENDBRANCH   2   3
ENDBRANCH   1   2
BRANCH   1  18
ATOM     18  C   UNL     1      -5.628 -15.056 -14.491  1.00  0.00     0.000 C 
BRANCH  18  19
ATOM     19  C   UNL     1      -6.367 -15.050 -15.842  1.00  0.00     0.000 C 
BRANCH  19  20
ATOM     20  C   UNL     1      -5.662 -15.829 -16.969  1.00  0.00     0.000 C 
BRANCH  20  21
ATOM     21  C   UNL     1      -6.414 -17.081 -17.462  1.00  0.00     0.000 C 
BRANCH  21  22
ATOM     22  C   UNL     1      -7.444 -17.654 -16.469  1.00  0.00     0.000 C 
BRANCH  22  23
ATOM     23  C   UNL     1      -7.074 -19.016 -15.853  1.00  0.00     0.000 C 
BRANCH  23  24
ATOM     24  C   UNL     1      -5.751 -19.582 -16.399  1.00  0.00    -0.000 C 
BRANCH  24  25
ATOM     25  C   UNL     1      -4.738 -19.915 -15.287  1.00  0.00    -0.000 C 
BRANCH  25  26
ATOM     26  C   UNL     1      -4.623 -18.864 -14.163  1.00  0.00    -0.000 C 
BRANCH  26  27
ATOM     27  C   UNL     1      -4.960 -19.374 -12.750  1.00  0.00    -0.000 C 
BRANCH  27  28
ATOM     28  C   UNL     1      -5.815 -20.648 -12.761  1.00  0.00    -0.000 C 
BRANCH  28  29
ATOM     29  C   UNL     1      -7.292 -20.319 -12.512  1.00  0.00    -0.000 C 
BRANCH  29  30
ATOM     30  C   UNL     1      -8.208 -21.317 -13.230  1.00  0.00    -0.000 C 
BRANCH  30  31
ATOM     31  C   UNL     1      -7.390 -22.408 -13.930  1.00  0.00    -0.003 C 
ATOM     32  C   UNL     1      -7.838 -22.593 -15.377  1.00  0.00     0.004 C 
ENDBRANCH  30  31
ENDBRANCH  29  30
ENDBRANCH  28  29
ENDBRANCH  27  28
ENDBRANCH  26  27
ENDBRANCH  25  26
ENDBRANCH  24  25
ENDBRANCH  23  24
ENDBRANCH  22  23
ENDBRANCH  21  22
ENDBRANCH  20  21
ENDBRANCH  19  20
ENDBRANCH  18  19
ENDBRANCH   1  18
TORSDOF 28
ENDMDL
MODEL 3
REMARK VINA RESULT:    -4.312      3.989      8.552
REMARK INTER + INTRA:         -16.477
REMARK INTER:                 -11.022
REMARK INTRA:                  -5.455
REMARK UNBOUND:                -5.106
REMARK SMILES CCCCCCCCCCCCCCCCCCCCCCCCCCCCCC(=O)[O-]
REMARK SMILES IDX 16 1 17 2 18 3 19 4 20 5 21 6 22 7 23 8 24 9 25 10 26 11
REMARK SMILES IDX 27 12 28 13 29 14 30 15 31 16 32 17 15 18 14 19 13 20 12 21
REMARK SMILES IDX 11 22 10 23 9 24 8 25 7 26 6 27 5 28 4 29 3 30 2 31 1 32
REMARK H PARENT
REMARK Flexibility Score: inf
ROOT
ATOM      1  C   UNL     1      -2.153 -20.720 -12.043  1.00  0.00     0.000 C 
ENDROOT
BRANCH   1   2
ATOM      2  C   UNL     1      -3.408 -20.921 -12.906  1.00  0.00     0.000 C 
BRANCH   2   3
ATOM      3  C   UNL     1      -3.292 -22.135 -13.846  1.00  0.00     0.000 C 
BRANCH   3   4
ATOM      4  C   UNL     1      -3.940 -21.887 -15.218  1.00  0.00     0.000 C 
BRANCH   4   5
ATOM      5  C   UNL     1      -4.043 -20.405 -15.630  1.00  0.00     0.000 C 
BRANCH   5   6
ATOM      6  C   UNL     1      -5.441 -19.991 -16.136  1.00  0.00     0.000 C 
BRANCH   6   7
ATOM      7  C   UNL     1      -6.414 -19.677 -14.986  1.00  0.00     0.000 C 
BRANCH   7   8
ATOM      8  C   UNL     1      -7.787 -20.342 -15.175  1.00  0.00     0.000 C 
BRANCH   8   9
ATOM      9  C   UNL     1      -7.697 -21.874 -15.239  1.00  0.00     0.000 C 
BRANCH   9  10
ATOM     10  C   UNL     1      -8.040 -22.502 -13.880  1.00  0.00     0.000 C 
BRANCH  10  11
ATOM     11  C   UNL     1      -6.804 -22.684 -12.984  1.00  0.00     0.000 C 
BRANCH  11  12
ATOM     12  C   UNL     1      -6.878 -21.846 -11.699  1.00  0.00     0.000 C 
BRANCH  12  13
ATOM     13  C   UNL     1      -8.297 -21.299 -11.480  1.00  0.00     0.006 C 
BRANCH  13  14
ATOM     14  C   UNL     1      -8.905 -21.774 -10.153  1.00  0.00     0.053 C 
BRANCH  14  15
ATOM     15  C   UNL     1      -9.662 -23.057 -10.316  1.00  0.00     0.041 C 
ATOM     16  O   UNL     1     -10.306 -23.282 -11.375  1.00  0.00    -0.550 OA
ATOM     17  O   UNL     1      -9.684 -23.989  -9.286  1.00  0.00    -0.550 OA
ENDBRANCH  14  15
ENDBRANCH  13  14
ENDBRANCH  12  13
ENDBRANCH  11  12
ENDBRANCH  10  11
ENDBRANCH   9  10
ENDBRANCH   8   9
ENDBRANCH   7   8
ENDBRANCH   6   7
ENDBRANCH   5   6
ENDBRANCH   4   5
ENDBRANCH   3   4
ENDBRANCH   2   3
ENDBRANCH   1   2
BRANCH   1  18
ATOM     18  C   UNL     1      -1.602 -22.043 -11.483  1.00  0.00     0.000 C 
BRANCH  18  19
ATOM     19  C   UNL     1      -0.063 -22.103 -11.504  1.00  0.00     0.000 C 
BRANCH  19  20
ATOM     20  C   UNL     1       0.528 -23.329 -12.227  1.00  0.00     0.000 C 
BRANCH  20  21
ATOM     21  C   UNL     1      -0.507 -24.376 -12.682  1.00  0.00     0.000 C 
BRANCH  21  22
ATOM     22  C   UNL     1      -0.004 -25.366 -13.751  1.00  0.00     0.000 C 
BRANCH  22  23
ATOM     23  C   UNL     1       0.351 -24.738 -15.112  1.00  0.00     0.000 C 
BRANCH  23  24
ATOM     24  C   UNL     1      -0.852 -24.061 -15.793  1.00  0.00    -0.000 C 
BRANCH  24  25
ATOM     25  C   UNL     1      -0.443 -22.890 -16.704  1.00  0.00    -0.000 C 
BRANCH  25  26
ATOM     26  C   UNL     1       0.536 -21.876 -16.076  1.00  0.00    -0.000 C 
BRANCH  26  27
ATOM     27  C   UNL     1      -0.100 -20.861 -15.108  1.00  0.00    -0.000 C 
BRANCH  27  28
ATOM     28  C   UNL     1       0.940 -20.074 -14.297  1.00  0.00    -0.000 C 
BRANCH  28  29
ATOM     29  C   UNL     1       2.276 -20.826 -14.242  1.00  0.00    -0.000 C 
BRANCH  29  30
ATOM     30  C   UNL     1       3.295 -20.076 -13.378  1.00  0.00    -0.000 C 
BRANCH  30  31
ATOM     31  C   UNL     1       3.932 -21.011 -12.343  1.00  0.00    -0.003 C 
ATOM     32  C   UNL     1       3.583 -20.581 -10.921  1.00  0.00     0.004 C 
ENDBRANCH  30  31
ENDBRANCH  29  30
ENDBRANCH  28  29
ENDBRANCH  27  28
ENDBRANCH  26  27
ENDBRANCH  25  26
ENDBRANCH  24  25
ENDBRANCH  23  24
ENDBRANCH  22  23
ENDBRANCH  21  22
ENDBRANCH  20  21
ENDBRANCH  19  20
ENDBRANCH  18  19
ENDBRANCH   1  18
TORSDOF 28
ENDMDL
MODEL 4
REMARK VINA RESULT:    -4.224      2.725      5.135
REMARK INTER + INTRA:         -16.243
REMARK INTER:                 -11.750
REMARK INTRA:                  -4.493
REMARK UNBOUND:                -5.106
REMARK SMILES CCCCCCCCCCCCCCCCCCCCCCCCCCCCCC(=O)[O-]
REMARK SMILES IDX 16 1 17 2 18 3 19 4 20 5 21 6 22 7 23 8 24 9 25 10 26 11
REMARK SMILES IDX 27 12 28 13 29 14 30 15 31 16 32 17 15 18 14 19 13 20 12 21
REMARK SMILES IDX 11 22 10 23 9 24 8 25 7 26 6 27 5 28 4 29 3 30 2 31 1 32
REMARK H PARENT
REMARK Flexibility Score: inf
ROOT
ATOM      1  C   UNL     1      -3.744 -21.970 -12.356  1.00  0.00     0.000 C 
ENDROOT
BRANCH   1   2
ATOM      2  C   UNL     1      -2.910 -21.846 -13.640  1.00  0.00     0.000 C 
BRANCH   2   3
ATOM      3  C   UNL     1      -3.773 -21.552 -14.881  1.00  0.00     0.000 C 
BRANCH   3   4
ATOM      4  C   UNL     1      -3.278 -22.291 -16.135  1.00  0.00     0.000 C 
BRANCH   4   5
ATOM      5  C   UNL     1      -3.581 -23.802 -16.161  1.00  0.00     0.000 C 
BRANCH   5   6
ATOM      6  C   UNL     1      -2.338 -24.687 -16.399  1.00  0.00     0.000 C 
BRANCH   6   7
ATOM      7  C   UNL     1      -1.459 -24.817 -15.143  1.00  0.00     0.000 C 
BRANCH   7   8
ATOM      8  C   UNL     1      -0.023 -24.321 -15.373  1.00  0.00     0.000 C 
BRANCH   8   9
ATOM      9  C   UNL     1       0.052 -23.189 -16.409  1.00  0.00     0.000 C 
BRANCH   9  10
ATOM     10  C   UNL     1       1.112 -22.151 -16.013  1.00  0.00     0.000 C 
BRANCH  10  11
ATOM     11  C   UNL     1       0.581 -21.120 -15.002  1.00  0.00     0.000 C 
BRANCH  11  12
ATOM     12  C   UNL     1       1.283 -21.214 -13.640  1.00  0.00     0.000 C 
BRANCH  12  13
ATOM     13  C   UNL     1       2.680 -20.576 -13.696  1.00  0.00     0.006 C 
BRANCH  13  14
ATOM     14  C   UNL     1       3.067 -19.905 -12.370  1.00  0.00     0.053 C 
BRANCH  14  15
ATOM     15  C   UNL     1       4.248 -20.572 -11.734  1.00  0.00     0.041 C 
ATOM     16  O   UNL     1       4.506 -20.377 -10.517  1.00  0.00    -0.550 OA
ATOM     17  O   UNL     1       5.084 -21.381 -12.493  1.00  0.00    -0.550 OA
ENDBRANCH  14  15
ENDBRANCH  13  14
ENDBRANCH  12  13
ENDBRANCH  11  12
ENDBRANCH  10  11
ENDBRANCH   9  10
ENDBRANCH   8   9
ENDBRANCH   7   8
ENDBRANCH   6   7
ENDBRANCH   5   6
ENDBRANCH   4   5
ENDBRANCH   3   4
ENDBRANCH   2   3
ENDBRANCH   1   2
BRANCH   1  18
ATOM     18  C   UNL     1      -4.810 -23.076 -12.447  1.00  0.00     0.000 C 
BRANCH  18  19
ATOM     19  C   UNL     1      -6.245 -22.532 -12.321  1.00  0.00     0.000 C 
BRANCH  19  20
ATOM     20  C   UNL     1      -7.131 -22.747 -13.564  1.00  0.00     0.000 C 
BRANCH  20  21
ATOM     21  C   UNL     1      -6.705 -23.918 -14.470  1.00  0.00     0.000 C 
BRANCH  21  22
ATOM     22  C   UNL     1      -7.233 -23.847 -15.917  1.00  0.00     0.000 C 
BRANCH  22  23
ATOM     23  C   UNL     1      -8.406 -24.793 -16.234  1.00  0.00     0.000 C 
BRANCH  23  24
ATOM     24  C   UNL     1      -9.768 -24.227 -15.795  1.00  0.00    -0.000 C 
BRANCH  24  25
ATOM     25  C   UNL     1     -10.327 -24.921 -14.539  1.00  0.00    -0.000 C 
BRANCH  25  26
ATOM     26  C   UNL     1      -9.872 -26.382 -14.334  1.00  0.00    -0.000 C 
BRANCH  26  27
ATOM     27  C   UNL     1      -9.428 -26.737 -12.904  1.00  0.00    -0.000 C 
BRANCH  27  28
ATOM     28  C   UNL     1      -9.391 -25.520 -11.968  1.00  0.00    -0.000 C 
BRANCH  28  29
ATOM     29  C   UNL     1      -8.054 -25.444 -11.220  1.00  0.00    -0.000 C 
BRANCH  29  30
ATOM     30  C   UNL     1      -7.051 -26.460 -11.779  1.00  0.00    -0.000 C 
BRANCH  30  31
ATOM     31  C   UNL     1      -6.177 -27.041 -10.662  1.00  0.00    -0.003 C 
ATOM     32  C   UNL     1      -6.035 -28.553 -10.801  1.00  0.00     0.004 C 
ENDBRANCH  30  31
ENDBRANCH  29  30
ENDBRANCH  28  29
ENDBRANCH  27  28
ENDBRANCH  26  27
ENDBRANCH  25  26
ENDBRANCH  24  25
ENDBRANCH  23  24
ENDBRANCH  22  23
ENDBRANCH  21  22
ENDBRANCH  20  21
ENDBRANCH  19  20
ENDBRANCH  18  19
ENDBRANCH   1  18
TORSDOF 28
ENDMDL
MODEL 5
REMARK VINA RESULT:    -4.204      4.564      8.674
REMARK INTER + INTRA:         -16.191
REMARK INTER:                 -10.953
REMARK INTRA:                  -5.238
REMARK UNBOUND:                -5.106
REMARK SMILES CCCCCCCCCCCCCCCCCCCCCCCCCCCCCC(=O)[O-]
REMARK SMILES IDX 16 1 17 2 18 3 19 4 20 5 21 6 22 7 23 8 24 9 25 10 26 11
REMARK SMILES IDX 27 12 28 13 29 14 30 15 31 16 32 17 15 18 14 19 13 20 12 21
REMARK SMILES IDX 11 22 10 23 9 24 8 25 7 26 6 27 5 28 4 29 3 30 2 31 1 32
REMARK H PARENT
REMARK Flexibility Score: inf
ROOT
ATOM      1  C   UNL     1      -7.206 -22.685 -12.422  1.00  0.00     0.000 C 
ENDROOT
BRANCH   1   2
ATOM      2  C   UNL     1      -8.579 -22.216 -12.928  1.00  0.00     0.000 C 
BRANCH   2   3
ATOM      3  C   UNL     1      -8.534 -20.801 -13.535  1.00  0.00     0.000 C 
BRANCH   3   4
ATOM      4  C   UNL     1      -8.225 -20.812 -15.041  1.00  0.00     0.000 C 
BRANCH   4   5
ATOM      5  C   UNL     1      -7.725 -19.470 -15.611  1.00  0.00     0.000 C 
BRANCH   5   6
ATOM      6  C   UNL     1      -6.189 -19.374 -15.735  1.00  0.00     0.000 C 
BRANCH   6   7
ATOM      7  C   UNL     1      -5.534 -18.775 -14.478  1.00  0.00     0.000 C 
BRANCH   7   8
ATOM      8  C   UNL     1      -4.991 -19.851 -13.525  1.00  0.00     0.000 C 
BRANCH   8   9
ATOM      9  C   UNL     1      -5.314 -19.553 -12.053  1.00  0.00     0.000 C 
BRANCH   9  10
ATOM     10  C   UNL     1      -6.208 -18.311 -11.927  1.00  0.00     0.000 C 
BRANCH  10  11
ATOM     11  C   UNL     1      -7.426 -18.549 -11.019  1.00  0.00     0.000 C 
BRANCH  11  12
ATOM     12  C   UNL     1      -7.098 -19.440  -9.812  1.00  0.00     0.000 C 
BRANCH  12  13
ATOM     13  C   UNL     1      -8.192 -20.496  -9.594  1.00  0.00     0.006 C 
BRANCH  13  14
ATOM     14  C   UNL     1      -8.702 -20.518  -8.147  1.00  0.00     0.053 C 
BRANCH  14  15
ATOM     15  C   UNL     1     -10.171 -20.236  -8.071  1.00  0.00     0.041 C 
ATOM     16  O   UNL     1     -10.736 -19.568  -8.976  1.00  0.00    -0.550 OA
ATOM     17  O   UNL     1     -10.911 -20.683  -6.983  1.00  0.00    -0.550 OA
ENDBRANCH  14  15
ENDBRANCH  13  14
ENDBRANCH  12  13
ENDBRANCH  11  12
ENDBRANCH  10  11
ENDBRANCH   9  10
ENDBRANCH   8   9
ENDBRANCH   7   8
ENDBRANCH   6   7
ENDBRANCH   5   6
ENDBRANCH   4   5
ENDBRANCH   3   4
ENDBRANCH   2   3
ENDBRANCH   1   2
BRANCH   1  18
ATOM     18  C   UNL     1      -6.500 -23.626 -13.415  1.00  0.00     0.000 C 
BRANCH  18  19
ATOM     19  C   UNL     1      -7.292 -24.921 -13.674  1.00  0.00     0.000 C 
BRANCH  19  20
ATOM     20  C   UNL     1      -7.791 -25.096 -15.121  1.00  0.00     0.000 C 
BRANCH  20  21
ATOM     21  C   UNL     1      -7.290 -24.030 -16.115  1.00  0.00     0.000 C 
BRANCH  21  22
ATOM     22  C   UNL     1      -6.364 -24.561 -17.227  1.00  0.00     0.000 C 
BRANCH  22  23
ATOM     23  C   UNL     1      -4.921 -24.023 -17.193  1.00  0.00     0.000 C 
BRANCH  23  24
ATOM     24  C   UNL     1      -4.810 -22.649 -16.510  1.00  0.00    -0.000 C 
BRANCH  24  25
ATOM     25  C   UNL     1      -3.452 -22.434 -15.816  1.00  0.00    -0.000 C 
BRANCH  25  26
ATOM     26  C   UNL     1      -3.154 -23.389 -14.641  1.00  0.00    -0.000 C 
BRANCH  26  27
ATOM     27  C   UNL     1      -1.969 -24.348 -14.857  1.00  0.00    -0.000 C 
BRANCH  27  28
ATOM     28  C   UNL     1      -1.183 -24.048 -16.142  1.00  0.00    -0.000 C 
BRANCH  28  29
ATOM     29  C   UNL     1       0.291 -23.763 -15.829  1.00  0.00    -0.000 C 
BRANCH  29  30
ATOM     30  C   UNL     1       0.726 -22.412 -16.407  1.00  0.00    -0.000 C 
BRANCH  30  31
ATOM     31  C   UNL     1       1.021 -21.405 -15.289  1.00  0.00    -0.003 C 
ATOM     32  C   UNL     1      -0.267 -20.835 -14.704  1.00  0.00     0.004 C 
ENDBRANCH  30  31
ENDBRANCH  29  30
ENDBRANCH  28  29
ENDBRANCH  27  28
ENDBRANCH  26  27
ENDBRANCH  25  26
ENDBRANCH  24  25
ENDBRANCH  23  24
ENDBRANCH  22  23
ENDBRANCH  21  22
ENDBRANCH  20  21
ENDBRANCH  19  20
ENDBRANCH  18  19
ENDBRANCH   1  18
TORSDOF 28
ENDMDL
MODEL 6
REMARK VINA RESULT:    -4.183      6.610      9.256
REMARK INTER + INTRA:         -16.135
REMARK INTER:                 -11.629
REMARK INTRA:                  -4.507
REMARK UNBOUND:                -5.106
REMARK SMILES CCCCCCCCCCCCCCCCCCCCCCCCCCCCCC(=O)[O-]
REMARK SMILES IDX 16 1 17 2 18 3 19 4 20 5 21 6 22 7 23 8 24 9 25 10 26 11
REMARK SMILES IDX 27 12 28 13 29 14 30 15 31 16 32 17 15 18 14 19 13 20 12 21
REMARK SMILES IDX 11 22 10 23 9 24 8 25 7 26 6 27 5 28 4 29 3 30 2 31 1 32
REMARK H PARENT
REMARK Flexibility Score: inf
ROOT
ATOM      1  C   UNL     1      -8.127 -22.204 -13.967  1.00  0.00     0.000 C 
ENDROOT
BRANCH   1   2
ATOM      2  C   UNL     1      -8.095 -20.669 -13.923  1.00  0.00     0.000 C 
BRANCH   2   3
ATOM      3  C   UNL     1      -8.291 -20.033 -15.312  1.00  0.00     0.000 C 
BRANCH   3   4
ATOM      4  C   UNL     1      -7.185 -19.025 -15.664  1.00  0.00     0.000 C 
BRANCH   4   5
ATOM      5  C   UNL     1      -5.791 -19.365 -15.098  1.00  0.00     0.000 C 
BRANCH   5   6
ATOM      6  C   UNL     1      -5.307 -18.396 -13.999  1.00  0.00     0.000 C 
BRANCH   6   7
ATOM      7  C   UNL     1      -6.058 -17.053 -14.025  1.00  0.00     0.000 C 
BRANCH   7   8
ATOM      8  C   UNL     1      -6.741 -16.732 -12.687  1.00  0.00     0.000 C 
BRANCH   8   9
ATOM      9  C   UNL     1      -6.748 -17.930 -11.725  1.00  0.00     0.000 C 
BRANCH   9  10
ATOM     10  C   UNL     1      -7.552 -17.610 -10.456  1.00  0.00     0.000 C 
BRANCH  10  11
ATOM     11  C   UNL     1      -7.831 -18.859  -9.603  1.00  0.00     0.000 C 
BRANCH  11  12
ATOM     12  C   UNL     1      -7.167 -20.122 -10.170  1.00  0.00     0.000 C 
BRANCH  12  13
ATOM     13  C   UNL     1      -8.172 -21.280 -10.259  1.00  0.00     0.006 C 
BRANCH  13  14
ATOM     14  C   UNL     1      -9.514 -20.938  -9.598  1.00  0.00     0.053 C 
BRANCH  14  15
ATOM     15  C   UNL     1      -9.817 -21.852  -8.450  1.00  0.00     0.041 C 
ATOM     16  O   UNL     1     -10.509 -21.443  -7.480  1.00  0.00    -0.550 OA
ATOM     17  O   UNL     1      -9.306 -23.144  -8.434  1.00  0.00    -0.550 OA
ENDBRANCH  14  15
ENDBRANCH  13  14
ENDBRANCH  12  13
ENDBRANCH  11  12
ENDBRANCH  10  11
ENDBRANCH   9  10
ENDBRANCH   8   9
ENDBRANCH   7   8
ENDBRANCH   6   7
ENDBRANCH   5   6
ENDBRANCH   4   5
ENDBRANCH   3   4
ENDBRANCH   2   3
ENDBRANCH   1   2
BRANCH   1  18
ATOM     18  C   UNL     1      -8.340 -22.752 -15.389  1.00  0.00     0.000 C 
BRANCH  18  19
ATOM     19  C   UNL     1      -7.394 -23.919 -15.725  1.00  0.00     0.000 C 
BRANCH  19  20
ATOM     20  C   UNL     1      -7.968 -24.955 -16.712  1.00  0.00     0.000 C 
BRANCH  20  21
ATOM     21  C   UNL     1      -9.415 -24.684 -17.169  1.00  0.00     0.000 C 
BRANCH  21  22
ATOM     22  C   UNL     1      -9.838 -25.417 -18.457  1.00  0.00     0.000 C 
BRANCH  22  23
ATOM     23  C   UNL     1      -9.694 -26.950 -18.417  1.00  0.00     0.000 C 
BRANCH  23  24
ATOM     24  C   UNL     1     -10.550 -27.605 -17.318  1.00  0.00    -0.000 C 
BRANCH  24  25
ATOM     25  C   UNL     1      -9.777 -28.664 -16.510  1.00  0.00    -0.000 C 
BRANCH  25  26
ATOM     26  C   UNL     1      -9.705 -28.412 -14.990  1.00  0.00    -0.000 C 
BRANCH  26  27
ATOM     27  C   UNL     1      -8.400 -27.764 -14.492  1.00  0.00    -0.000 C 
BRANCH  27  28
ATOM     28  C   UNL     1      -8.456 -27.365 -13.011  1.00  0.00    -0.000 C 
BRANCH  28  29
ATOM     29  C   UNL     1      -8.086 -25.888 -12.827  1.00  0.00    -0.000 C 
BRANCH  29  30
ATOM     30  C   UNL     1      -9.205 -25.124 -12.110  1.00  0.00    -0.000 C 
BRANCH  30  31
ATOM     31  C   UNL     1     -10.584 -25.588 -12.593  1.00  0.00    -0.003 C 
ATOM     32  C   UNL     1     -10.973 -24.899 -13.898  1.00  0.00     0.004 C 
ENDBRANCH  30  31
ENDBRANCH  29  30
ENDBRANCH  28  29
ENDBRANCH  27  28
ENDBRANCH  26  27
ENDBRANCH  25  26
ENDBRANCH  24  25
ENDBRANCH  23  24
ENDBRANCH  22  23
ENDBRANCH  21  22
ENDBRANCH  20  21
ENDBRANCH  19  20
ENDBRANCH  18  19
ENDBRANCH   1  18
TORSDOF 28
ENDMDL
MODEL 7
REMARK VINA RESULT:    -4.144      9.150     14.066
REMARK INTER + INTRA:         -16.034
REMARK INTER:                 -11.371
REMARK INTRA:                  -4.663
REMARK UNBOUND:                -5.106
REMARK SMILES CCCCCCCCCCCCCCCCCCCCCCCCCCCCCC(=O)[O-]
REMARK SMILES IDX 16 1 17 2 18 3 19 4 20 5 21 6 22 7 23 8 24 9 25 10 26 11
REMARK SMILES IDX 27 12 28 13 29 14 30 15 31 16 32 17 15 18 14 19 13 20 12 21
REMARK SMILES IDX 11 22 10 23 9 24 8 25 7 26 6 27 5 28 4 29 3 30 2 31 1 32
REMARK H PARENT
REMARK Flexibility Score: inf
ROOT
ATOM      1  C   UNL     1       3.645 -28.920  -4.008  1.00  0.00     0.000 C 
ENDROOT
BRANCH   1   2
ATOM      2  C   UNL     1       2.194 -28.499  -4.282  1.00  0.00     0.000 C 
BRANCH   2   3
ATOM      3  C   UNL     1       2.095 -27.327  -5.276  1.00  0.00     0.000 C 
BRANCH   3   4
ATOM      4  C   UNL     1       3.237 -26.311  -5.110  1.00  0.00     0.000 C 
BRANCH   4   5
ATOM      5  C   UNL     1       3.220 -25.526  -3.783  1.00  0.00     0.000 C 
BRANCH   5   6
ATOM      6  C   UNL     1       4.534 -24.773  -3.483  1.00  0.00     0.000 C 
BRANCH   6   7
ATOM      7  C   UNL     1       4.333 -23.249  -3.404  1.00  0.00     0.000 C 
BRANCH   7   8
ATOM      8  C   UNL     1       3.335 -22.841  -2.310  1.00  0.00     0.000 C 
BRANCH   8   9
ATOM      9  C   UNL     1       2.016 -22.301  -2.884  1.00  0.00     0.000 C 
BRANCH   9  10
ATOM     10  C   UNL     1       2.266 -21.075  -3.775  1.00  0.00     0.000 C 
BRANCH  10  11
ATOM     11  C   UNL     1       1.782 -21.286  -5.219  1.00  0.00     0.000 C 
BRANCH  11  12
ATOM     12  C   UNL     1       1.525 -22.764  -5.546  1.00  0.00     0.000 C 
BRANCH  12  13
ATOM     13  C   UNL     1       1.991 -23.102  -6.970  1.00  0.00     0.006 C 
BRANCH  13  14
ATOM     14  C   UNL     1       3.476 -22.779  -7.189  1.00  0.00     0.053 C 
BRANCH  14  15
ATOM     15  C   UNL     1       3.759 -22.405  -8.612  1.00  0.00     0.041 C 
ATOM     16  O   UNL     1       3.737 -23.283  -9.515  1.00  0.00    -0.550 OA
ATOM     17  O   UNL     1       4.080 -21.093  -8.936  1.00  0.00    -0.550 OA
ENDBRANCH  14  15
ENDBRANCH  13  14
ENDBRANCH  12  13
ENDBRANCH  11  12
ENDBRANCH  10  11
ENDBRANCH   9  10
ENDBRANCH   8   9
ENDBRANCH   7   8
ENDBRANCH   6   7
ENDBRANCH   5   6
ENDBRANCH   4   5
ENDBRANCH   3   4
ENDBRANCH   2   3
ENDBRANCH   1   2
BRANCH   1  18
ATOM     18  C   UNL     1       3.742 -30.283  -3.299  1.00  0.00     0.000 C 
BRANCH  18  19
ATOM     19  C   UNL     1       4.140 -30.155  -1.816  1.00  0.00     0.000 C 
BRANCH  19  20
ATOM     20  C   UNL     1       4.392 -28.713  -1.335  1.00  0.00     0.000 C 
BRANCH  20  21
ATOM     21  C   UNL     1       3.715 -28.347   0.000  1.00  0.00     0.000 C 
BRANCH  21  22
ATOM     22  C   UNL     1       2.229 -27.953  -0.110  1.00  0.00     0.000 C 
BRANCH  22  23
ATOM     23  C   UNL     1       1.226 -29.080   0.199  1.00  0.00     0.000 C 
BRANCH  23  24
ATOM     24  C   UNL     1       0.731 -29.806  -1.065  1.00  0.00    -0.000 C 
BRANCH  24  25
ATOM     25  C   UNL     1      -0.422 -30.786  -0.779  1.00  0.00    -0.000 C 
BRANCH  25  26
ATOM     26  C   UNL     1      -0.465 -32.036  -1.683  1.00  0.00    -0.000 C 
BRANCH  26  27
ATOM     27  C   UNL     1       0.791 -32.269  -2.542  1.00  0.00    -0.000 C 
BRANCH  27  28
ATOM     28  C   UNL     1       0.558 -31.988  -4.033  1.00  0.00    -0.000 C 
BRANCH  28  29
ATOM     29  C   UNL     1      -0.941 -31.920  -4.350  1.00  0.00    -0.000 C 
BRANCH  29  30
ATOM     30  C   UNL     1      -1.287 -30.629  -5.100  1.00  0.00    -0.000 C 
BRANCH  30  31
ATOM     31  C   UNL     1      -2.281 -29.779  -4.300  1.00  0.00    -0.003 C 
ATOM     32  C   UNL     1      -1.584 -28.603  -3.623  1.00  0.00     0.004 C 
ENDBRANCH  30  31
ENDBRANCH  29  30
ENDBRANCH  28  29
ENDBRANCH  27  28
ENDBRANCH  26  27
ENDBRANCH  25  26
ENDBRANCH  24  25
ENDBRANCH  23  24
ENDBRANCH  22  23
ENDBRANCH  21  22
ENDBRANCH  20  21
ENDBRANCH  19  20
ENDBRANCH  18  19
ENDBRANCH   1  18
TORSDOF 28
ENDMDL
MODEL 8
REMARK VINA RESULT:    -4.137      2.078      3.735
REMARK INTER + INTRA:         -16.014
REMARK INTER:                 -11.044
REMARK INTRA:                  -4.970
REMARK UNBOUND:                -5.106
REMARK SMILES CCCCCCCCCCCCCCCCCCCCCCCCCCCCCC(=O)[O-]
REMARK SMILES IDX 16 1 17 2 18 3 19 4 20 5 21 6 22 7 23 8 24 9 25 10 26 11
REMARK SMILES IDX 27 12 28 13 29 14 30 15 31 16 32 17 15 18 14 19 13 20 12 21
REMARK SMILES IDX 11 22 10 23 9 24 8 25 7 26 6 27 5 28 4 29 3 30 2 31 1 32
REMARK H PARENT
REMARK Flexibility Score: inf
ROOT
ATOM      1  C   UNL     1      -4.057 -22.431 -13.441  1.00  0.00     0.000 C 
ENDROOT
BRANCH   1   2
ATOM      2  C   UNL     1      -3.729 -21.154 -14.229  1.00  0.00     0.000 C 
BRANCH   2   3
ATOM      3  C   UNL     1      -3.745 -21.378 -15.753  1.00  0.00     0.000 C 
BRANCH   3   4
ATOM      4  C   UNL     1      -3.428 -22.832 -16.142  1.00  0.00     0.000 C 
BRANCH   4   5
ATOM      5  C   UNL     1      -1.937 -23.125 -16.399  1.00  0.00     0.000 C 
BRANCH   5   6
ATOM      6  C   UNL     1      -1.432 -24.428 -15.743  1.00  0.00     0.000 C 
BRANCH   6   7
ATOM      7  C   UNL     1       0.031 -24.323 -15.276  1.00  0.00     0.000 C 
BRANCH   7   8
ATOM      8  C   UNL     1       0.214 -24.738 -13.808  1.00  0.00     0.000 C 
BRANCH   8   9
ATOM      9  C   UNL     1      -0.605 -23.869 -12.842  1.00  0.00     0.000 C 
BRANCH   9  10
ATOM     10  C   UNL     1       0.179 -22.613 -12.434  1.00  0.00     0.000 C 
BRANCH  10  11
ATOM     11  C   UNL     1      -0.195 -21.384 -13.280  1.00  0.00     0.000 C 
BRANCH  11  12
ATOM     12  C   UNL     1       1.036 -20.666 -13.853  1.00  0.00     0.000 C 
BRANCH  12  13
ATOM     13  C   UNL     1       2.327 -21.177 -13.196  1.00  0.00     0.006 C 
BRANCH  13  14
ATOM     14  C   UNL     1       3.410 -20.092 -13.117  1.00  0.00     0.053 C 
BRANCH  14  15
ATOM     15  C   UNL     1       4.509 -20.472 -12.172  1.00  0.00     0.041 C 
ATOM     16  O   UNL     1       5.332 -21.373 -12.487  1.00  0.00    -0.550 OA
ATOM     17  O   UNL     1       4.605 -19.857 -10.930  1.00  0.00    -0.550 OA
ENDBRANCH  14  15
ENDBRANCH  13  14
ENDBRANCH  12  13
ENDBRANCH  11  12
ENDBRANCH  10  11
ENDBRANCH   9  10
ENDBRANCH   8   9
ENDBRANCH   7   8
ENDBRANCH   6   7
ENDBRANCH   5   6
ENDBRANCH   4   5
ENDBRANCH   3   4
ENDBRANCH   2   3
ENDBRANCH   1   2
BRANCH   1  18
ATOM     18  C   UNL     1      -4.737 -22.137 -12.093  1.00  0.00     0.000 C 
BRANCH  18  19
ATOM     19  C   UNL     1      -5.458 -23.366 -11.509  1.00  0.00     0.000 C 
BRANCH  19  20
ATOM     20  C   UNL     1      -6.997 -23.284 -11.528  1.00  0.00     0.000 C 
BRANCH  20  21
ATOM     21  C   UNL     1      -7.708 -24.552 -12.040  1.00  0.00     0.000 C 
BRANCH  21  22
ATOM     22  C   UNL     1      -9.246 -24.462 -12.089  1.00  0.00     0.000 C 
BRANCH  22  23
ATOM     23  C   UNL     1      -9.953 -25.657 -12.754  1.00  0.00     0.000 C 
BRANCH  23  24
ATOM     24  C   UNL     1     -10.655 -25.282 -14.071  1.00  0.00    -0.000 C 
BRANCH  24  25
ATOM     25  C   UNL     1      -9.861 -25.714 -15.318  1.00  0.00    -0.000 C 
BRANCH  25  26
ATOM     26  C   UNL     1      -9.105 -24.582 -16.044  1.00  0.00    -0.000 C 
BRANCH  26  27
ATOM     27  C   UNL     1      -7.592 -24.519 -15.768  1.00  0.00    -0.000 C 
BRANCH  27  28
ATOM     28  C   UNL     1      -7.102 -23.104 -15.432  1.00  0.00    -0.000 C 
BRANCH  28  29
ATOM     29  C   UNL     1      -8.264 -22.219 -14.961  1.00  0.00    -0.000 C 
BRANCH  29  30
ATOM     30  C   UNL     1      -7.890 -20.734 -15.034  1.00  0.00    -0.000 C 
BRANCH  30  31
ATOM     31  C   UNL     1      -7.473 -20.205 -13.657  1.00  0.00    -0.003 C 
ATOM     32  C   UNL     1      -6.667 -18.915 -13.782  1.00  0.00     0.004 C 
ENDBRANCH  30  31
ENDBRANCH  29  30
ENDBRANCH  28  29
ENDBRANCH  27  28
ENDBRANCH  26  27
ENDBRANCH  25  26
ENDBRANCH  24  25
ENDBRANCH  23  24
ENDBRANCH  22  23
ENDBRANCH  21  22
ENDBRANCH  20  21
ENDBRANCH  19  20
ENDBRANCH  18  19
ENDBRANCH   1  18
TORSDOF 28
ENDMDL
MODEL 9
REMARK VINA RESULT:    -4.109      2.347      4.601
REMARK INTER + INTRA:         -15.941
REMARK INTER:                 -11.754
REMARK INTRA:                  -4.187
REMARK UNBOUND:                -5.106
REMARK SMILES CCCCCCCCCCCCCCCCCCCCCCCCCCCCCC(=O)[O-]
REMARK SMILES IDX 16 1 17 2 18 3 19 4 20 5 21 6 22 7 23 8 24 9 25 10 26 11
REMARK SMILES IDX 27 12 28 13 29 14 30 15 31 16 32 17 15 18 14 19 13 20 12 21
REMARK SMILES IDX 11 22 10 23 9 24 8 25 7 26 6 27 5 28 4 29 3 30 2 31 1 32
REMARK H PARENT
REMARK Flexibility Score: inf
ROOT
ATOM      1  C   UNL     1      -4.077 -21.141 -15.554  1.00  0.00     0.000 C 
ENDROOT
BRANCH   1   2
ATOM      2  C   UNL     1      -3.186 -21.528 -14.363  1.00  0.00     0.000 C 
BRANCH   2   3
ATOM      3  C   UNL     1      -3.947 -22.326 -13.289  1.00  0.00     0.000 C 
BRANCH   3   4
ATOM      4  C   UNL     1      -3.246 -23.645 -12.922  1.00  0.00     0.000 C 
BRANCH   4   5
ATOM      5  C   UNL     1      -1.763 -23.728 -13.332  1.00  0.00     0.000 C 
BRANCH   5   6
ATOM      6  C   UNL     1      -1.443 -24.888 -14.299  1.00  0.00     0.000 C 
BRANCH   6   7
ATOM      7  C   UNL     1      -0.394 -24.502 -15.356  1.00  0.00     0.000 C 
BRANCH   7   8
ATOM      8  C   UNL     1      -0.972 -23.607 -16.463  1.00  0.00     0.000 C 
BRANCH   8   9
ATOM      9  C   UNL     1       0.022 -22.535 -16.935  1.00  0.00     0.000 C 
BRANCH   9  10
ATOM     10  C   UNL     1       1.036 -22.202 -15.831  1.00  0.00     0.000 C 
BRANCH  10  11
ATOM     11  C   UNL     1       0.629 -20.969 -15.007  1.00  0.00     0.000 C 
BRANCH  11  12
ATOM     12  C   UNL     1       1.245 -20.969 -13.600  1.00  0.00     0.000 C 
BRANCH  12  13
ATOM     13  C   UNL     1       2.653 -20.353 -13.616  1.00  0.00     0.006 C 
BRANCH  13  14
ATOM     14  C   UNL     1       3.221 -20.162 -12.203  1.00  0.00     0.053 C 
BRANCH  14  15
ATOM     15  C   UNL     1       4.315 -21.141 -11.907  1.00  0.00     0.041 C 
ATOM     16  O   UNL     1       4.076 -22.172 -11.223  1.00  0.00    -0.550 OA
ATOM     17  O   UNL     1       5.607 -20.899 -12.357  1.00  0.00    -0.550 OA
ENDBRANCH  14  15
ENDBRANCH  13  14
ENDBRANCH  12  13
ENDBRANCH  11  12
ENDBRANCH  10  11
ENDBRANCH   9  10
ENDBRANCH   8   9
ENDBRANCH   7   8
ENDBRANCH   6   7
ENDBRANCH   5   6
ENDBRANCH   4   5
ENDBRANCH   3   4
ENDBRANCH   2   3
ENDBRANCH   1   2
BRANCH   1  18
ATOM     18  C   UNL     1      -4.680 -19.733 -15.409  1.00  0.00     0.000 C 
BRANCH  18  19
ATOM     19  C   UNL     1      -6.031 -19.737 -14.670  1.00  0.00     0.000 C 
BRANCH  19  20
ATOM     20  C   UNL     1      -7.170 -20.468 -15.407  1.00  0.00     0.000 C 
BRANCH  20  21
ATOM     21  C   UNL     1      -7.561 -21.833 -14.807  1.00  0.00     0.000 C 
BRANCH  21  22
ATOM     22  C   UNL     1      -6.959 -23.056 -15.526  1.00  0.00     0.000 C 
BRANCH  22  23
ATOM     23  C   UNL     1      -7.802 -24.342 -15.451  1.00  0.00     0.000 C 
BRANCH  23  24
ATOM     24  C   UNL     1      -9.316 -24.068 -15.453  1.00  0.00    -0.000 C 
BRANCH  24  25
ATOM     25  C   UNL     1     -10.144 -25.279 -14.984  1.00  0.00    -0.000 C 
BRANCH  25  26
ATOM     26  C   UNL     1     -10.542 -25.269 -13.493  1.00  0.00    -0.000 C 
BRANCH  26  27
ATOM     27  C   UNL     1     -10.172 -26.539 -12.705  1.00  0.00    -0.000 C 
BRANCH  27  28
ATOM     28  C   UNL     1      -8.703 -26.948 -12.884  1.00  0.00    -0.000 C 
BRANCH  28  29
ATOM     29  C   UNL     1      -7.845 -26.431 -11.722  1.00  0.00    -0.000 C 
BRANCH  29  30
ATOM     30  C   UNL     1      -6.955 -25.266 -12.170  1.00  0.00    -0.000 C 
BRANCH  30  31
ATOM     31  C   UNL     1      -7.514 -23.926 -11.677  1.00  0.00    -0.003 C 
ATOM     32  C   UNL     1      -6.553 -23.252 -10.703  1.00  0.00     0.004 C 
ENDBRANCH  30  31
ENDBRANCH  29  30
ENDBRANCH  28  29
ENDBRANCH  27  28
ENDBRANCH  26  27
ENDBRANCH  25  26
ENDBRANCH  24  25
ENDBRANCH  23  24
ENDBRANCH  22  23
ENDBRANCH  21  22
ENDBRANCH  20  21
ENDBRANCH  19  20
ENDBRANCH  18  19
ENDBRANCH   1  18
TORSDOF 28
ENDMDL
