MODEL 1
REMARK VINA RESULT:    -2.995      0.000      0.000
REMARK INTER + INTRA:          -3.339
REMARK INTER:                  -3.170
REMARK INTRA:                  -0.169
REMARK UNBOUND:                -0.169
REMARK SMILES CC(C)[C@@H]1CC[C@@H](C)CC1=O
REMARK SMILES IDX 8 1 7 2 6 3 5 4 4 5 10 6 11 7 9 8 2 9 1 10 3 11
REMARK H PARENT
REMARK Flexibility Score: inf
ROOT
ATOM      1  C   UNL     1     147.595 160.881 138.393  1.00  0.00     0.008 C 
ATOM      2  C   UNL     1     147.646 159.355 138.275  1.00  0.00    -0.007 C 
ATOM      3  C   UNL     1     146.699 158.864 137.160  1.00  0.00     0.004 C 
ATOM      4  C   UNL     1     146.720 157.329 137.031  1.00  0.00     0.012 C 
ATOM      5  C   UNL     1     146.344 156.636 138.364  1.00  0.00     0.058 C 
ATOM      6  C   UNL     1     147.247 157.206 139.445  1.00  0.00     0.136 C 
ATOM      7  O   UNL     1     147.991 156.497 140.108  1.00  0.00    -0.299 OA
ATOM      8  C   UNL     1     147.288 158.696 139.620  1.00  0.00     0.079 C 
ENDROOT
BRANCH   5   9
ATOM      9  C   UNL     1     146.398 155.074 138.286  1.00  0.00    -0.007 C 
ATOM     10  C   UNL     1     146.810 154.561 136.894  1.00  0.00     0.008 C 
ATOM     11  C   UNL     1     145.034 154.459 138.649  1.00  0.00     0.008 C 
ENDBRANCH   5   9
TORSDOF 1
ENDMDL
MODEL 2
REMARK VINA RESULT:    -2.978     10.503     11.084
REMARK INTER + INTRA:          -3.321
REMARK INTER:                  -3.151
REMARK INTRA:                  -0.170
REMARK UNBOUND:                -0.169
REMARK SMILES CC(C)[C@@H]1CC[C@@H](C)CC1=O
REMARK SMILES IDX 8 1 7 2 6 3 5 4 4 5 10 6 11 7 9 8 2 9 1 10 3 11
REMARK H PARENT
REMARK Flexibility Score: inf
ROOT
ATOM      1  C   UNL     1     160.836 153.746 138.270  1.00  0.00     0.008 C 
ATOM      2  C   UNL     1     159.309 153.687 138.170  1.00  0.00    -0.007 C 
ATOM      3  C   UNL     1     158.797 154.659 137.087  1.00  0.00     0.004 C 
ATOM      4  C   UNL     1     157.260 154.631 136.978  1.00  0.00     0.012 C 
ATOM      5  C   UNL     1     156.583 154.967 138.330  1.00  0.00     0.058 C 
ATOM      6  C   UNL     1     157.173 154.039 139.379  1.00  0.00     0.136 C 
ATOM      7  O   UNL     1     156.478 153.273 140.030  1.00  0.00    -0.299 OA
ATOM      8  C   UNL     1     158.665 154.004 139.533  1.00  0.00     0.079 C 
ENDROOT
BRANCH   5   9
ATOM      9  C   UNL     1     155.020 154.904 138.270  1.00  0.00    -0.007 C 
ATOM     10  C   UNL     1     154.494 154.447 136.897  1.00  0.00     0.008 C 
ATOM     11  C   UNL     1     154.403 156.276 138.598  1.00  0.00     0.008 C 
ENDBRANCH   5   9
TORSDOF 1
ENDMDL
MODEL 3
REMARK VINA RESULT:    -2.927     11.202     11.870
REMARK INTER + INTRA:          -3.267
REMARK INTER:                  -3.099
REMARK INTRA:                  -0.168
REMARK UNBOUND:                -0.169
REMARK SMILES CC(C)[C@@H]1CC[C@@H](C)CC1=O
REMARK SMILES IDX 8 1 7 2 6 3 5 4 4 5 10 6 11 7 9 8 2 9 1 10 3 11
REMARK H PARENT
REMARK Flexibility Score: inf
ROOT
ATOM      1  C   UNL     1     155.117 155.490 138.403  1.00  0.00     0.008 C 
ATOM      2  C   UNL     1     156.104 154.490 139.014  1.00  0.00    -0.007 C 
ATOM      3  C   UNL     1     157.516 154.692 138.427  1.00  0.00     0.004 C 
ATOM      4  C   UNL     1     158.525 153.687 139.013  1.00  0.00     0.012 C 
ATOM      5  C   UNL     1     158.078 152.223 138.780  1.00  0.00     0.058 C 
ATOM      6  C   UNL     1     156.657 152.091 139.302  1.00  0.00     0.136 C 
ATOM      7  O   UNL     1     156.362 151.293 140.180  1.00  0.00    -0.299 OA
ATOM      8  C   UNL     1     155.622 153.046 138.784  1.00  0.00     0.079 C 
ENDROOT
BRANCH   5   9
ATOM      9  C   UNL     1     159.056 151.172 139.402  1.00  0.00    -0.007 C 
ATOM     10  C   UNL     1     160.291 151.819 140.054  1.00  0.00     0.008 C 
ATOM     11  C   UNL     1     159.536 150.170 138.336  1.00  0.00     0.008 C 
ENDBRANCH   5   9
TORSDOF 1
ENDMDL
MODEL 4
REMARK VINA RESULT:    -2.927      2.021      4.564
REMARK INTER + INTRA:          -3.267
REMARK INTER:                  -3.099
REMARK INTRA:                  -0.168
REMARK UNBOUND:                -0.169
REMARK SMILES CC(C)[C@@H]1CC[C@@H](C)CC1=O
REMARK SMILES IDX 8 1 7 2 6 3 5 4 4 5 10 6 11 7 9 8 2 9 1 10 3 11
REMARK H PARENT
REMARK Flexibility Score: inf
ROOT
ATOM      1  C   UNL     1     145.769 155.113 138.408  1.00  0.00     0.008 C 
ATOM      2  C   UNL     1     146.782 156.096 139.003  1.00  0.00    -0.007 C 
ATOM      3  C   UNL     1     146.598 157.501 138.394  1.00  0.00     0.004 C 
ATOM      4  C   UNL     1     147.616 158.506 138.964  1.00  0.00     0.012 C 
ATOM      5  C   UNL     1     149.074 158.037 138.736  1.00  0.00     0.058 C 
ATOM      6  C   UNL     1     149.189 156.623 139.281  1.00  0.00     0.136 C 
ATOM      7  O   UNL     1     149.983 156.331 140.163  1.00  0.00    -0.299 OA
ATOM      8  C   UNL     1     148.220 155.592 138.780  1.00  0.00     0.079 C 
ENDROOT
BRANCH   5   9
ATOM      9  C   UNL     1     150.139 159.011 139.343  1.00  0.00    -0.007 C 
ATOM     10  C   UNL     1     149.509 160.270 139.967  1.00  0.00     0.008 C 
ATOM     11  C   UNL     1     151.152 159.453 138.271  1.00  0.00     0.008 C 
ENDBRANCH   5   9
TORSDOF 1
ENDMDL
MODEL 5
REMARK VINA RESULT:    -2.921     13.357     14.896
REMARK INTER + INTRA:          -3.261
REMARK INTER:                  -3.093
REMARK INTRA:                  -0.168
REMARK UNBOUND:                -0.169
REMARK SMILES CC(C)[C@@H]1CC[C@@H](C)CC1=O
REMARK SMILES IDX 8 1 7 2 6 3 5 4 4 5 10 6 11 7 9 8 2 9 1 10 3 11
REMARK H PARENT
REMARK Flexibility Score: inf
ROOT
ATOM      1  C   UNL     1     155.489 146.147 138.402  1.00  0.00     0.008 C 
ATOM      2  C   UNL     1     154.498 145.157 139.022  1.00  0.00    -0.007 C 
ATOM      3  C   UNL     1     154.711 143.742 138.447  1.00  0.00     0.004 C 
ATOM      4  C   UNL     1     153.715 142.730 139.043  1.00  0.00     0.012 C 
ATOM      5  C   UNL     1     152.247 143.163 138.807  1.00  0.00     0.058 C 
ATOM      6  C   UNL     1     152.104 144.587 139.317  1.00  0.00     0.136 C 
ATOM      7  O   UNL     1     151.305 144.884 140.193  1.00  0.00    -0.299 OA
ATOM      8  C   UNL     1     153.050 145.625 138.789  1.00  0.00     0.079 C 
ENDROOT
BRANCH   5   9
ATOM      9  C   UNL     1     151.204 142.182 139.439  1.00  0.00    -0.007 C 
ATOM     10  C   UNL     1     151.862 140.957 140.101  1.00  0.00     0.008 C 
ATOM     11  C   UNL     1     150.205 141.684 138.377  1.00  0.00     0.008 C 
ENDBRANCH   5   9
TORSDOF 1
ENDMDL
MODEL 6
REMARK VINA RESULT:    -2.919      8.137     10.036
REMARK INTER + INTRA:          -3.259
REMARK INTER:                  -3.092
REMARK INTRA:                  -0.166
REMARK UNBOUND:                -0.169
REMARK SMILES CC(C)[C@@H]1CC[C@@H](C)CC1=O
REMARK SMILES IDX 8 1 7 2 6 3 5 4 4 5 10 6 11 7 9 8 2 9 1 10 3 11
REMARK H PARENT
REMARK Flexibility Score: inf
ROOT
ATOM      1  C   UNL     1     146.279 145.770 138.285  1.00  0.00     0.008 C 
ATOM      2  C   UNL     1     145.281 146.748 138.913  1.00  0.00    -0.007 C 
ATOM      3  C   UNL     1     143.878 146.560 138.301  1.00  0.00     0.004 C 
ATOM      4  C   UNL     1     142.858 147.544 138.906  1.00  0.00     0.012 C 
ATOM      5  C   UNL     1     143.303 149.016 138.724  1.00  0.00     0.058 C 
ATOM      6  C   UNL     1     144.717 149.135 139.270  1.00  0.00     0.136 C 
ATOM      7  O   UNL     1     144.998 149.905 140.177  1.00  0.00    -0.299 OA
ATOM      8  C   UNL     1     145.762 148.200 138.736  1.00  0.00     0.079 C 
ENDROOT
BRANCH   5   9
ATOM      9  C   UNL     1     142.314 150.044 139.367  1.00  0.00    -0.007 C 
ATOM     10  C   UNL     1     141.038 149.381 139.916  1.00  0.00     0.008 C 
ATOM     11  C   UNL     1     141.904 151.122 138.345  1.00  0.00     0.008 C 
ENDBRANCH   5   9
TORSDOF 1
ENDMDL
MODEL 7
REMARK VINA RESULT:    -2.846      1.745      4.616
REMARK INTER + INTRA:          -3.181
REMARK INTER:                  -3.019
REMARK INTRA:                  -0.162
REMARK UNBOUND:                -0.169
REMARK SMILES CC(C)[C@@H]1CC[C@@H](C)CC1=O
REMARK SMILES IDX 8 1 7 2 6 3 5 4 4 5 10 6 11 7 9 8 2 9 1 10 3 11
REMARK H PARENT
REMARK Flexibility Score: inf
ROOT
ATOM      1  C   UNL     1     145.885 154.985 137.530  1.00  0.00     0.008 C 
ATOM      2  C   UNL     1     146.800 156.161 137.887  1.00  0.00    -0.007 C 
ATOM      3  C   UNL     1     146.641 156.541 139.373  1.00  0.00     0.004 C 
ATOM      4  C   UNL     1     147.540 157.732 139.754  1.00  0.00     0.012 C 
ATOM      5  C   UNL     1     147.252 158.974 138.874  1.00  0.00     0.058 C 
ATOM      6  C   UNL     1     147.343 158.534 137.422  1.00  0.00     0.136 C 
ATOM      7  O   UNL     1     148.132 159.044 136.640  1.00  0.00    -0.299 OA
ATOM      8  C   UNL     1     146.504 157.370 136.982  1.00  0.00     0.079 C 
ENDROOT
BRANCH   5   9
ATOM      9  C   UNL     1     148.179 160.192 139.201  1.00  0.00    -0.007 C 
ATOM     10  C   UNL     1     149.554 159.765 139.745  1.00  0.00     0.008 C 
ATOM     11  C   UNL     1     147.515 161.125 140.231  1.00  0.00     0.008 C 
ENDBRANCH   5   9
TORSDOF 1
ENDMDL
MODEL 8
REMARK VINA RESULT:    -2.846     11.793     12.353
REMARK INTER + INTRA:          -3.181
REMARK INTER:                  -3.022
REMARK INTRA:                  -0.159
REMARK UNBOUND:                -0.169
REMARK SMILES CC(C)[C@@H]1CC[C@@H](C)CC1=O
REMARK SMILES IDX 8 1 7 2 6 3 5 4 4 5 10 6 11 7 9 8 2 9 1 10 3 11
REMARK H PARENT
REMARK Flexibility Score: inf
ROOT
ATOM      1  C   UNL     1     155.128 155.449 138.462  1.00  0.00     0.008 C 
ATOM      2  C   UNL     1     156.627 155.130 138.450  1.00  0.00    -0.007 C 
ATOM      3  C   UNL     1     157.002 154.330 137.185  1.00  0.00     0.004 C 
ATOM      4  C   UNL     1     158.502 153.983 137.156  1.00  0.00     0.012 C 
ATOM      5  C   UNL     1     158.930 153.185 138.413  1.00  0.00     0.058 C 
ATOM      6  C   UNL     1     158.473 153.970 139.630  1.00  0.00     0.136 C 
ATOM      7  O   UNL     1     159.258 154.361 140.482  1.00  0.00    -0.299 OA
ATOM      8  C   UNL     1     157.025 154.356 139.720  1.00  0.00     0.079 C 
ENDROOT
BRANCH   5   9
ATOM      9  C   UNL     1     160.459 152.852 138.442  1.00  0.00    -0.007 C 
ATOM     10  C   UNL     1     161.125 152.982 137.060  1.00  0.00     0.008 C 
ATOM     11  C   UNL     1     160.700 151.424 138.968  1.00  0.00     0.008 C 
ENDBRANCH   5   9
TORSDOF 1
ENDMDL
MODEL 9
REMARK VINA RESULT:    -2.842      1.320      4.408
REMARK INTER + INTRA:          -3.176
REMARK INTER:                  -3.025
REMARK INTRA:                  -0.151
REMARK UNBOUND:                -0.169
REMARK SMILES CC(C)[C@@H]1CC[C@@H](C)CC1=O
REMARK SMILES IDX 8 1 7 2 6 3 5 4 4 5 10 6 11 7 9 8 2 9 1 10 3 11
REMARK H PARENT
REMARK Flexibility Score: inf
ROOT
ATOM      1  C   UNL     1     145.813 155.124 138.502  1.00  0.00     0.008 C 
ATOM      2  C   UNL     1     146.126 156.624 138.506  1.00  0.00    -0.007 C 
ATOM      3  C   UNL     1     146.928 157.015 137.248  1.00  0.00     0.004 C 
ATOM      4  C   UNL     1     147.269 158.517 137.237  1.00  0.00     0.012 C 
ATOM      5  C   UNL     1     148.061 158.936 138.500  1.00  0.00     0.058 C 
ATOM      6  C   UNL     1     147.273 158.463 139.710  1.00  0.00     0.136 C 
ATOM      7  O   UNL     1     146.876 159.237 140.568  1.00  0.00    -0.299 OA
ATOM      8  C   UNL     1     146.893 157.012 139.783  1.00  0.00     0.079 C 
ENDROOT
BRANCH   5   9
ATOM      9  C   UNL     1     148.386 160.466 138.546  1.00  0.00    -0.007 C 
ATOM     10  C   UNL     1     148.363 161.123 137.154  1.00  0.00     0.008 C 
ATOM     11  C   UNL     1     149.768 160.714 139.180  1.00  0.00     0.008 C 
ENDBRANCH   5   9
TORSDOF 1
ENDMDL
