MODEL 1
REMARK VINA RESULT:    -3.742      0.000      0.000
REMARK INTER + INTRA:          -4.610
REMARK INTER:                  -4.398
REMARK INTRA:                  -0.211
REMARK UNBOUND:                -0.211
REMARK SMILES [NH3+][C@@H](CO)C(=O)[O-]
REMARK SMILES IDX 3 1 2 2 1 3 5 7 6 8 7 9 4 10
REMARK H PARENT 1 4 1 5 1 6 4 11
REMARK Flexibility Score: inf
ROOT
ATOM      1  C   UNL     1     110.622 108.987 122.271  1.00  0.00     0.227 C 
ENDROOT
BRANCH   1   2
ATOM      2  C   UNL     1     110.925 108.798 123.769  1.00  0.00     0.253 C 
BRANCH   2   3
ATOM      3  N   UNL     1     112.109 109.564 124.178  1.00  0.00    -0.348 N 
ATOM      4  H   UNL     1     111.858 110.552 124.410  1.00  0.00     0.345 HD
ATOM      5  H   UNL     1     112.547 109.115 125.016  1.00  0.00     0.345 HD
ATOM      6  H   UNL     1     112.812 109.564 123.404  1.00  0.00     0.345 HD
ENDBRANCH   2   3
BRANCH   2   7
ATOM      7  C   UNL     1     111.091 107.338 124.100  1.00  0.00     0.102 C 
ATOM      8  O   UNL     1     112.045 106.962 124.830  1.00  0.00    -0.544 OA
ATOM      9  O   UNL     1     110.172 106.402 123.640  1.00  0.00    -0.544 OA
ENDBRANCH   2   7
ENDBRANCH   1   2
BRANCH   1  10
ATOM     10  O   UNL     1     109.254 108.828 122.001  1.00  0.00    -0.390 OA
ATOM     11  H   UNL     1     108.774 109.529 122.514  1.00  0.00     0.210 HD
ENDBRANCH   1  10
TORSDOF 4
ENDMDL
MODEL 2
REMARK VINA RESULT:    -3.625      2.013      2.436
REMARK INTER + INTRA:          -4.472
REMARK INTER:                  -4.113
REMARK INTRA:                  -0.358
REMARK UNBOUND:                -0.211
REMARK SMILES [NH3+][C@@H](CO)C(=O)[O-]
REMARK SMILES IDX 3 1 2 2 1 3 5 7 6 8 7 9 4 10
REMARK H PARENT 1 4 1 5 1 6 4 11
REMARK Flexibility Score: inf
ROOT
ATOM      1  C   UNL     1     111.453 109.460 123.263  1.00  0.00     0.227 C 
ENDROOT
BRANCH   1   2
ATOM      2  C   UNL     1     110.804 108.370 122.392  1.00  0.00     0.253 C 
BRANCH   2   3
ATOM      3  N   UNL     1     109.363 108.601 122.227  1.00  0.00    -0.348 N 
ATOM      4  H   UNL     1     108.960 107.964 121.502  1.00  0.00     0.345 HD
ATOM      5  H   UNL     1     108.872 108.439 123.137  1.00  0.00     0.345 HD
ATOM      6  H   UNL     1     109.197 109.592 121.939  1.00  0.00     0.345 HD
ENDBRANCH   2   3
BRANCH   2   7
ATOM      7  C   UNL     1     111.063 107.002 122.967  1.00  0.00     0.102 C 
ATOM      8  O   UNL     1     110.153 106.398 123.593  1.00  0.00    -0.544 OA
ATOM      9  O   UNL     1     112.291 106.378 122.775  1.00  0.00    -0.544 OA
ENDBRANCH   2   7
ENDBRANCH   1   2
BRANCH   1  10
ATOM     10  O   UNL     1     111.903 108.939 124.486  1.00  0.00    -0.390 OA
ATOM     11  H   UNL     1     112.225 108.017 124.306  1.00  0.00     0.210 HD
ENDBRANCH   1  10
TORSDOF 4
ENDMDL
MODEL 3
REMARK VINA RESULT:    -3.539      2.047      2.112
REMARK INTER + INTRA:          -4.371
REMARK INTER:                  -4.166
REMARK INTRA:                  -0.205
REMARK UNBOUND:                -0.211
REMARK SMILES [NH3+][C@@H](CO)C(=O)[O-]
REMARK SMILES IDX 3 1 2 2 1 3 5 7 6 8 7 9 4 10
REMARK H PARENT 1 4 1 5 1 6 4 11
REMARK Flexibility Score: inf
ROOT
ATOM      1  C   UNL     1     110.695 108.708 122.120  1.00  0.00     0.227 C 
ENDROOT
BRANCH   1   2
ATOM      2  C   UNL     1     111.366 107.324 122.073  1.00  0.00     0.253 C 
BRANCH   2   3
ATOM      3  N   UNL     1     110.568 106.365 121.298  1.00  0.00    -0.348 N 
ATOM      4  H   UNL     1     111.112 105.989 120.489  1.00  0.00     0.345 HD
ATOM      5  H   UNL     1     110.274 105.571 121.913  1.00  0.00     0.345 HD
ATOM      6  H   UNL     1     109.706 106.836 120.939  1.00  0.00     0.345 HD
ENDBRANCH   2   3
BRANCH   2   7
ATOM      7  C   UNL     1     111.621 106.805 123.465  1.00  0.00     0.102 C 
ATOM      8  O   UNL     1     112.650 106.122 123.705  1.00  0.00    -0.544 OA
ATOM      9  O   UNL     1     110.746 107.112 124.502  1.00  0.00    -0.544 OA
ENDBRANCH   2   7
ENDBRANCH   1   2
BRANCH   1  10
ATOM     10  O   UNL     1     109.298 108.597 122.203  1.00  0.00    -0.390 OA
ATOM     11  H   UNL     1     109.096 108.119 123.049  1.00  0.00     0.210 HD
ENDBRANCH   1  10
TORSDOF 4
ENDMDL
MODEL 4
REMARK VINA RESULT:    -3.497      2.607      3.143
REMARK INTER + INTRA:          -4.322
REMARK INTER:                  -4.109
REMARK INTRA:                  -0.212
REMARK UNBOUND:                -0.211
REMARK SMILES [NH3+][C@@H](CO)C(=O)[O-]
REMARK SMILES IDX 3 1 2 2 1 3 5 7 6 8 7 9 4 10
REMARK H PARENT 1 4 1 5 1 6 4 11
REMARK Flexibility Score: inf
ROOT
ATOM      1  C   UNL     1     110.374 106.548 122.390  1.00  0.00     0.227 C 
ENDROOT
BRANCH   1   2
ATOM      2  C   UNL     1     110.549 108.064 122.592  1.00  0.00     0.253 C 
BRANCH   2   3
ATOM      3  N   UNL     1     109.339 108.801 122.206  1.00  0.00    -0.348 N 
ATOM      4  H   UNL     1     108.477 108.304 122.528  1.00  0.00     0.345 HD
ATOM      5  H   UNL     1     109.360 109.760 122.626  1.00  0.00     0.345 HD
ATOM      6  H   UNL     1     109.306 108.900 121.166  1.00  0.00     0.345 HD
ENDBRANCH   2   3
BRANCH   2   7
ATOM      7  C   UNL     1     111.748 108.569 121.832  1.00  0.00     0.102 C 
ATOM      8  O   UNL     1     112.303 107.838 120.972  1.00  0.00    -0.544 OA
ATOM      9  O   UNL     1     112.224 109.859 122.043  1.00  0.00    -0.544 OA
ENDBRANCH   2   7
ENDBRANCH   1   2
BRANCH   1  10
ATOM     10  O   UNL     1     109.683 106.266 121.202  1.00  0.00    -0.390 OA
ATOM     11  H   UNL     1     108.849 106.805 121.218  1.00  0.00     0.210 HD
ENDBRANCH   1  10
TORSDOF 4
ENDMDL
MODEL 5
REMARK VINA RESULT:    -3.471     12.620     13.011
REMARK INTER + INTRA:          -4.292
REMARK INTER:                  -4.286
REMARK INTRA:                  -0.006
REMARK UNBOUND:                -0.211
REMARK SMILES [NH3+][C@@H](CO)C(=O)[O-]
REMARK SMILES IDX 3 1 2 2 1 3 5 7 6 8 7 9 4 10
REMARK H PARENT 1 4 1 5 1 6 4 11
REMARK Flexibility Score: inf
ROOT
ATOM      1  C   UNL     1     110.946  98.564 130.918  1.00  0.00     0.227 C 
ENDROOT
BRANCH   1   2
ATOM      2  C   UNL     1     111.972  97.852 131.817  1.00  0.00     0.253 C 
BRANCH   2   3
ATOM      3  N   UNL     1     111.404  97.534 133.133  1.00  0.00    -0.348 N 
ATOM      4  H   UNL     1     111.095  96.535 133.179  1.00  0.00     0.345 HD
ATOM      5  H   UNL     1     112.119  97.706 133.878  1.00  0.00     0.345 HD
ATOM      6  H   UNL     1     110.582  98.152 133.320  1.00  0.00     0.345 HD
ENDBRANCH   2   3
BRANCH   2   7
ATOM      7  C   UNL     1     113.222  98.681 131.961  1.00  0.00     0.102 C 
ATOM      8  O   UNL     1     114.267  98.361 131.335  1.00  0.00    -0.544 OA
ATOM      9  O   UNL     1     113.221  99.827 132.749  1.00  0.00    -0.544 OA
ENDBRANCH   2   7
ENDBRANCH   1   2
BRANCH   1  10
ATOM     10  O   UNL     1     110.210  97.645 130.153  1.00  0.00    -0.390 OA
ATOM     11  H   UNL     1     110.294  97.926 129.205  1.00  0.00     0.210 HD
ENDBRANCH   1  10
TORSDOF 4
ENDMDL
MODEL 6
REMARK VINA RESULT:    -3.450      2.290      2.684
REMARK INTER + INTRA:          -4.266
REMARK INTER:                  -4.041
REMARK INTRA:                  -0.225
REMARK UNBOUND:                -0.211
REMARK SMILES [NH3+][C@@H](CO)C(=O)[O-]
REMARK SMILES IDX 3 1 2 2 1 3 5 7 6 8 7 9 4 10
REMARK H PARENT 1 4 1 5 1 6 4 11
REMARK Flexibility Score: inf
ROOT
ATOM      1  C   UNL     1     110.676 106.332 121.499  1.00  0.00     0.227 C 
ENDROOT
BRANCH   1   2
ATOM      2  C   UNL     1     110.053 107.085 122.688  1.00  0.00     0.253 C 
BRANCH   2   3
ATOM      3  N   UNL     1     109.472 108.366 122.268  1.00  0.00    -0.348 N 
ATOM      4  H   UNL     1     109.800 108.634 121.312  1.00  0.00     0.345 HD
ATOM      5  H   UNL     1     108.427 108.297 122.264  1.00  0.00     0.345 HD
ATOM      6  H   UNL     1     109.746 109.115 122.943  1.00  0.00     0.345 HD
ENDBRANCH   2   3
BRANCH   2   7
ATOM      7  C   UNL     1     111.069 107.292 123.781  1.00  0.00     0.102 C 
ATOM      8  O   UNL     1     110.702 107.336 124.984  1.00  0.00    -0.544 OA
ATOM      9  O   UNL     1     112.422 107.393 123.476  1.00  0.00    -0.544 OA
ENDBRANCH   2   7
ENDBRANCH   1   2
BRANCH   1  10
ATOM     10  O   UNL     1     111.174 105.079 121.890  1.00  0.00    -0.390 OA
ATOM     11  H   UNL     1     111.588 105.199 122.783  1.00  0.00     0.210 HD
ENDBRANCH   1  10
TORSDOF 4
ENDMDL
MODEL 7
REMARK VINA RESULT:    -3.431      1.585      1.958
REMARK INTER + INTRA:          -4.245
REMARK INTER:                  -4.221
REMARK INTRA:                  -0.023
REMARK UNBOUND:                -0.211
REMARK SMILES [NH3+][C@@H](CO)C(=O)[O-]
REMARK SMILES IDX 3 1 2 2 1 3 5 7 6 8 7 9 4 10
REMARK H PARENT 1 4 1 5 1 6 4 11
REMARK Flexibility Score: inf
ROOT
ATOM      1  C   UNL     1     110.171 106.666 123.062  1.00  0.00     0.227 C 
ENDROOT
BRANCH   1   2
ATOM      2  C   UNL     1     110.875 107.485 124.159  1.00  0.00     0.253 C 
BRANCH   2   3
ATOM      3  N   UNL     1     110.481 108.899 124.109  1.00  0.00    -0.348 N 
ATOM      4  H   UNL     1     110.629 109.364 125.034  1.00  0.00     0.345 HD
ATOM      5  H   UNL     1     111.043 109.397 123.380  1.00  0.00     0.345 HD
ATOM      6  H   UNL     1     109.471 108.973 123.849  1.00  0.00     0.345 HD
ENDBRANCH   2   3
BRANCH   2   7
ATOM      7  C   UNL     1     112.371 107.343 124.055  1.00  0.00     0.102 C 
ATOM      8  O   UNL     1     113.000 106.657 124.903  1.00  0.00    -0.544 OA
ATOM      9  O   UNL     1     113.063 107.931 123.003  1.00  0.00    -0.544 OA
ENDBRANCH   2   7
ENDBRANCH   1   2
BRANCH   1  10
ATOM     10  O   UNL     1     109.392 107.485 122.230  1.00  0.00    -0.390 OA
ATOM     11  H   UNL     1     108.949 108.153 122.816  1.00  0.00     0.210 HD
ENDBRANCH   1  10
TORSDOF 4
ENDMDL
MODEL 8
REMARK VINA RESULT:    -3.298      4.193      5.712
REMARK INTER + INTRA:          -4.088
REMARK INTER:                  -4.080
REMARK INTRA:                  -0.007
REMARK UNBOUND:                -0.211
REMARK SMILES [NH3+][C@@H](CO)C(=O)[O-]
REMARK SMILES IDX 3 1 2 2 1 3 5 7 6 8 7 9 4 10
REMARK H PARENT 1 4 1 5 1 6 4 11
REMARK Flexibility Score: inf
ROOT
ATOM      1  C   UNL     1     114.878 106.058 127.187  1.00  0.00     0.227 C 
ENDROOT
BRANCH   1   2
ATOM      2  C   UNL     1     115.448 106.551 125.844  1.00  0.00     0.253 C 
BRANCH   2   3
ATOM      3  N   UNL     1     115.816 107.971 125.906  1.00  0.00    -0.348 N 
ATOM      4  H   UNL     1     116.635 108.121 126.539  1.00  0.00     0.345 HD
ATOM      5  H   UNL     1     116.056 108.316 124.947  1.00  0.00     0.345 HD
ATOM      6  H   UNL     1     115.006 108.529 126.259  1.00  0.00     0.345 HD
ENDBRANCH   2   3
BRANCH   2   7
ATOM      7  C   UNL     1     114.471 106.300 124.725  1.00  0.00     0.102 C 
ATOM      8  O   UNL     1     113.234 106.403 124.932  1.00  0.00    -0.544 OA
ATOM      9  O   UNL     1     114.927 105.995 123.447  1.00  0.00    -0.544 OA
ENDBRANCH   2   7
ENDBRANCH   1   2
BRANCH   1  10
ATOM     10  O   UNL     1     115.894 105.591 128.034  1.00  0.00    -0.390 OA
ATOM     11  H   UNL     1     116.707 105.478 127.476  1.00  0.00     0.210 HD
ENDBRANCH   1  10
TORSDOF 4
ENDMDL
MODEL 9
REMARK VINA RESULT:    -3.258      2.451      2.758
REMARK INTER + INTRA:          -4.041
REMARK INTER:                  -3.843
REMARK INTRA:                  -0.198
REMARK UNBOUND:                -0.211
REMARK SMILES [NH3+][C@@H](CO)C(=O)[O-]
REMARK SMILES IDX 3 1 2 2 1 3 5 7 6 8 7 9 4 10
REMARK H PARENT 1 4 1 5 1 6 4 11
REMARK Flexibility Score: inf
ROOT
ATOM      1  C   UNL     1     110.578 108.381 122.842  1.00  0.00     0.227 C 
ENDROOT
BRANCH   1   2
ATOM      2  C   UNL     1     111.697 107.994 121.859  1.00  0.00     0.253 C 
BRANCH   2   3
ATOM      3  N   UNL     1     111.765 108.928 120.728  1.00  0.00    -0.348 N 
ATOM      4  H   UNL     1     112.744 109.260 120.571  1.00  0.00     0.345 HD
ATOM      5  H   UNL     1     111.419 108.457 119.859  1.00  0.00     0.345 HD
ATOM      6  H   UNL     1     111.152 109.753 120.917  1.00  0.00     0.345 HD
ENDBRANCH   2   3
BRANCH   2   7
ATOM      7  C   UNL     1     111.516 106.579 121.374  1.00  0.00     0.102 C 
ATOM      8  O   UNL     1     110.723 105.805 121.970  1.00  0.00    -0.544 OA
ATOM      9  O   UNL     1     112.188 106.131 120.242  1.00  0.00    -0.544 OA
ENDBRANCH   2   7
ENDBRANCH   1   2
BRANCH   1  10
ATOM     10  O   UNL     1     109.365 108.610 122.174  1.00  0.00    -0.390 OA
ATOM     11  H   UNL     1     109.138 109.567 122.308  1.00  0.00     0.210 HD
ENDBRANCH   1  10
TORSDOF 4
ENDMDL
