MODEL 1
REMARK VINA RESULT:    -5.005      0.000      0.000
REMARK INTER + INTRA:          -5.005
REMARK INTER:                  -5.005
REMARK INTRA:                   0.000
REMARK UNBOUND:                 0.000
REMARK SMILES CC1=CC[C@@H]2[C@@H](C1)C2(C)C
REMARK SMILES IDX 1 1 2 2 3 3 4 4 5 5 6 6 7 7 8 8 9 9 10 10
REMARK H PARENT
REMARK Flexibility Score: inf
ROOT
ATOM      1  C   UNL     1      -1.750  -0.893  14.154  1.00  0.00     0.039 C 
ATOM      2  C   UNL     1      -1.449   0.320  13.320  1.00  0.00    -0.077 C 
ATOM      3  C   UNL     1      -1.376   0.199  11.961  1.00  0.00    -0.028 C 
ATOM      4  C   UNL     1      -1.050   1.389  11.061  1.00  0.00     0.031 C 
ATOM      5  C   UNL     1      -0.299   2.425  11.904  1.00  0.00     0.003 C 
ATOM      6  C   UNL     1      -1.386   2.780  12.988  1.00  0.00     0.003 C 
ATOM      7  C   UNL     1      -1.166   1.659  14.011  1.00  0.00     0.034 C 
ATOM      8  C   UNL     1      -0.536   3.852  12.345  1.00  0.00    -0.029 C 
ATOM      9  C   UNL     1      -1.220   4.757  11.317  1.00  0.00     0.012 C 
ATOM     10  C   UNL     1       0.527   4.485  13.248  1.00  0.00     0.012 C 
ENDROOT
TORSDOF 0
ENDMDL
MODEL 2
REMARK VINA RESULT:    -4.945      1.306      1.453
REMARK INTER + INTRA:          -4.945
REMARK INTER:                  -4.945
REMARK INTRA:                   0.000
REMARK UNBOUND:                 0.000
REMARK SMILES CC1=CC[C@@H]2[C@@H](C1)C2(C)C
REMARK SMILES IDX 1 1 2 2 3 3 4 4 5 5 6 6 7 7 8 8 9 9 10 10
REMARK H PARENT
REMARK Flexibility Score: inf
ROOT
ATOM      1  C   UNL     1      -1.484  -1.562  13.873  1.00  0.00     0.039 C 
ATOM      2  C   UNL     1      -1.454  -0.096  13.549  1.00  0.00    -0.077 C 
ATOM      3  C   UNL     1      -1.133   0.306  12.283  1.00  0.00    -0.028 C 
ATOM      4  C   UNL     1      -1.060   1.783  11.898  1.00  0.00     0.031 C 
ATOM      5  C   UNL     1      -0.818   2.591  13.178  1.00  0.00     0.003 C 
ATOM      6  C   UNL     1      -2.118   2.254  14.001  1.00  0.00     0.003 C 
ATOM      7  C   UNL     1      -1.720   0.928  14.660  1.00  0.00     0.034 C 
ATOM      8  C   UNL     1      -1.559   3.658  13.951  1.00  0.00    -0.029 C 
ATOM      9  C   UNL     1      -2.322   4.679  13.104  1.00  0.00     0.012 C 
ATOM     10  C   UNL     1      -0.907   4.157  15.244  1.00  0.00     0.012 C 
ENDROOT
TORSDOF 0
ENDMDL
MODEL 3
REMARK VINA RESULT:    -4.832      0.904      2.173
REMARK INTER + INTRA:          -4.832
REMARK INTER:                  -4.832
REMARK INTRA:                   0.000
REMARK UNBOUND:                 0.000
REMARK SMILES CC1=CC[C@@H]2[C@@H](C1)C2(C)C
REMARK SMILES IDX 1 1 2 2 3 3 4 4 5 5 6 6 7 7 8 8 9 9 10 10
REMARK H PARENT
REMARK Flexibility Score: inf
ROOT
ATOM      1  C   UNL     1      -1.752  -1.018  14.118  1.00  0.00     0.039 C 
ATOM      2  C   UNL     1      -1.542   0.449  13.879  1.00  0.00    -0.077 C 
ATOM      3  C   UNL     1      -1.926   1.347  14.835  1.00  0.00    -0.028 C 
ATOM      4  C   UNL     1      -1.761   2.854  14.641  1.00  0.00     0.031 C 
ATOM      5  C   UNL     1      -1.695   3.129  13.135  1.00  0.00     0.003 C 
ATOM      6  C   UNL     1      -0.396   2.333  12.737  1.00  0.00     0.003 C 
ATOM      7  C   UNL     1      -0.959   0.920  12.542  1.00  0.00     0.034 C 
ATOM      8  C   UNL     1      -0.680   3.708  12.175  1.00  0.00    -0.029 C 
ATOM      9  C   UNL     1       0.159   4.867  12.719  1.00  0.00     0.012 C 
ATOM     10  C   UNL     1      -1.071   3.750  10.695  1.00  0.00     0.012 C 
ENDROOT
TORSDOF 0
ENDMDL
MODEL 4
REMARK VINA RESULT:    -4.371      1.246      2.742
REMARK INTER + INTRA:          -4.371
REMARK INTER:                  -4.371
REMARK INTRA:                   0.000
REMARK UNBOUND:                 0.000
REMARK SMILES CC1=CC[C@@H]2[C@@H](C1)C2(C)C
REMARK SMILES IDX 1 1 2 2 3 3 4 4 5 5 6 6 7 7 8 8 9 9 10 10
REMARK H PARENT
REMARK Flexibility Score: inf
ROOT
ATOM      1  C   UNL     1      -1.058   0.055  12.060  1.00  0.00     0.039 C 
ATOM      2  C   UNL     1      -0.923   1.549  11.989  1.00  0.00    -0.077 C 
ATOM      3  C   UNL     1      -0.267   2.212  12.987  1.00  0.00    -0.028 C 
ATOM      4  C   UNL     1      -0.119   3.733  12.985  1.00  0.00     0.031 C 
ATOM      5  C   UNL     1      -1.240   4.313  12.116  1.00  0.00     0.003 C 
ATOM      6  C   UNL     1      -0.898   3.681  10.715  1.00  0.00     0.003 C 
ATOM      7  C   UNL     1      -1.579   2.311  10.831  1.00  0.00     0.034 C 
ATOM      8  C   UNL     1      -1.325   5.125  10.843  1.00  0.00    -0.029 C 
ATOM      9  C   UNL     1      -0.239   6.189  10.663  1.00  0.00     0.012 C 
ATOM     10  C   UNL     1      -2.727   5.450  10.320  1.00  0.00     0.012 C 
ENDROOT
TORSDOF 0
ENDMDL
MODEL 5
REMARK VINA RESULT:    -4.370      1.570      4.375
REMARK INTER + INTRA:          -4.370
REMARK INTER:                  -4.370
REMARK INTRA:                   0.000
REMARK UNBOUND:                 0.000
REMARK SMILES CC1=CC[C@@H]2[C@@H](C1)C2(C)C
REMARK SMILES IDX 1 1 2 2 3 3 4 4 5 5 6 6 7 7 8 8 9 9 10 10
REMARK H PARENT
REMARK Flexibility Score: inf
ROOT
ATOM      1  C   UNL     1      -1.543   6.203  13.854  1.00  0.00     0.039 C 
ATOM      2  C   UNL     1      -1.386   4.720  14.028  1.00  0.00    -0.077 C 
ATOM      3  C   UNL     1      -0.757   4.237  15.141  1.00  0.00    -0.028 C 
ATOM      4  C   UNL     1      -0.545   2.741  15.364  1.00  0.00     0.031 C 
ATOM      5  C   UNL     1      -0.589   2.051  13.996  1.00  0.00     0.003 C 
ATOM      6  C   UNL     1      -2.059   2.381  13.537  1.00  0.00     0.003 C 
ATOM      7  C   UNL     1      -1.876   3.775  12.925  1.00  0.00     0.034 C 
ATOM      8  C   UNL     1      -1.458   1.010  13.327  1.00  0.00    -0.029 C 
ATOM      9  C   UNL     1      -1.961  -0.115  14.236  1.00  0.00     0.012 C 
ATOM     10  C   UNL     1      -1.119   0.650  11.878  1.00  0.00     0.012 C 
ENDROOT
TORSDOF 0
ENDMDL
MODEL 6
REMARK VINA RESULT:    -4.330      1.090      4.022
REMARK INTER + INTRA:          -4.330
REMARK INTER:                  -4.330
REMARK INTRA:                   0.000
REMARK UNBOUND:                 0.000
REMARK SMILES CC1=CC[C@@H]2[C@@H](C1)C2(C)C
REMARK SMILES IDX 1 1 2 2 3 3 4 4 5 5 6 6 7 7 8 8 9 9 10 10
REMARK H PARENT
REMARK Flexibility Score: inf
ROOT
ATOM      1  C   UNL     1       1.304   5.725  14.131  1.00  0.00     0.039 C 
ATOM      2  C   UNL     1       0.500   4.612  13.525  1.00  0.00    -0.077 C 
ATOM      3  C   UNL     1      -0.133   4.813  12.330  1.00  0.00    -0.028 C 
ATOM      4  C   UNL     1      -0.987   3.729  11.675  1.00  0.00     0.031 C 
ATOM      5  C   UNL     1      -1.443   2.762  12.773  1.00  0.00     0.003 C 
ATOM      6  C   UNL     1      -0.061   2.204  13.281  1.00  0.00     0.003 C 
ATOM      7  C   UNL     1       0.348   3.289  14.285  1.00  0.00     0.034 C 
ATOM      8  C   UNL     1      -1.252   1.295  13.083  1.00  0.00    -0.029 C 
ATOM      9  C   UNL     1      -1.218   0.361  11.871  1.00  0.00     0.012 C 
ATOM     10  C   UNL     1      -1.902   0.767  14.366  1.00  0.00     0.012 C 
ENDROOT
TORSDOF 0
ENDMDL
MODEL 7
REMARK VINA RESULT:    -4.323      1.115      4.304
REMARK INTER + INTRA:          -4.323
REMARK INTER:                  -4.323
REMARK INTRA:                   0.000
REMARK UNBOUND:                 0.000
REMARK SMILES CC1=CC[C@@H]2[C@@H](C1)C2(C)C
REMARK SMILES IDX 1 1 2 2 3 3 4 4 5 5 6 6 7 7 8 8 9 9 10 10
REMARK H PARENT
REMARK Flexibility Score: inf
ROOT
ATOM      1  C   UNL     1      -0.627   5.671  10.564  1.00  0.00     0.039 C 
ATOM      2  C   UNL     1      -0.608   4.558  11.572  1.00  0.00    -0.077 C 
ATOM      3  C   UNL     1       0.158   4.684  12.697  1.00  0.00    -0.028 C 
ATOM      4  C   UNL     1       0.240   3.577  13.747  1.00  0.00     0.031 C 
ATOM      5  C   UNL     1      -0.137   2.256  13.068  1.00  0.00     0.003 C 
ATOM      6  C   UNL     1      -1.620   2.551  12.628  1.00  0.00     0.003 C 
ATOM      7  C   UNL     1      -1.399   3.274  11.294  1.00  0.00     0.034 C 
ATOM      8  C   UNL     1      -1.227   1.219  13.226  1.00  0.00    -0.029 C 
ATOM      9  C   UNL     1      -1.674   0.944  14.663  1.00  0.00     0.012 C 
ATOM     10  C   UNL     1      -1.206   0.037  12.252  1.00  0.00     0.012 C 
ENDROOT
TORSDOF 0
ENDMDL
MODEL 8
REMARK VINA RESULT:    -4.293      1.891      4.085
REMARK INTER + INTRA:          -4.293
REMARK INTER:                  -4.293
REMARK INTRA:                   0.000
REMARK UNBOUND:                 0.000
REMARK SMILES CC1=CC[C@@H]2[C@@H](C1)C2(C)C
REMARK SMILES IDX 1 1 2 2 3 3 4 4 5 5 6 6 7 7 8 8 9 9 10 10
REMARK H PARENT
REMARK Flexibility Score: inf
ROOT
ATOM      1  C   UNL     1      -2.602   5.590  10.146  1.00  0.00     0.039 C 
ATOM      2  C   UNL     1      -2.047   4.666  11.191  1.00  0.00    -0.077 C 
ATOM      3  C   UNL     1      -0.952   3.903  10.900  1.00  0.00    -0.028 C 
ATOM      4  C   UNL     1      -0.355   2.926  11.912  1.00  0.00     0.031 C 
ATOM      5  C   UNL     1      -1.452   2.563  12.918  1.00  0.00     0.003 C 
ATOM      6  C   UNL     1      -1.757   3.969  13.558  1.00  0.00     0.003 C 
ATOM      7  C   UNL     1      -2.755   4.548  12.546  1.00  0.00     0.034 C 
ATOM      8  C   UNL     1      -1.664   2.722  14.407  1.00  0.00    -0.029 C 
ATOM      9  C   UNL     1      -0.413   2.564  15.274  1.00  0.00     0.012 C 
ATOM     10  C   UNL     1      -2.990   2.210  14.978  1.00  0.00     0.012 C 
ENDROOT
TORSDOF 0
ENDMDL
MODEL 9
REMARK VINA RESULT:    -4.186      1.272      1.510
REMARK INTER + INTRA:          -4.186
REMARK INTER:                  -4.186
REMARK INTRA:                   0.000
REMARK UNBOUND:                 0.000
REMARK SMILES CC1=CC[C@@H]2[C@@H](C1)C2(C)C
REMARK SMILES IDX 1 1 2 2 3 3 4 4 5 5 6 6 7 7 8 8 9 9 10 10
REMARK H PARENT
REMARK Flexibility Score: inf
ROOT
ATOM      1  C   UNL     1      -1.797  -0.068  14.391  1.00  0.00     0.039 C 
ATOM      2  C   UNL     1      -1.459   1.259  13.774  1.00  0.00    -0.077 C 
ATOM      3  C   UNL     1      -0.640   1.301  12.680  1.00  0.00    -0.028 C 
ATOM      4  C   UNL     1      -0.238   2.620  12.023  1.00  0.00     0.031 C 
ATOM      5  C   UNL     1      -0.389   3.731  13.067  1.00  0.00     0.003 C 
ATOM      6  C   UNL     1      -1.933   3.662  13.365  1.00  0.00     0.003 C 
ATOM      7  C   UNL     1      -1.985   2.547  14.417  1.00  0.00     0.034 C 
ATOM      8  C   UNL     1      -1.220   4.986  13.214  1.00  0.00    -0.029 C 
ATOM      9  C   UNL     1      -1.473   5.767  11.922  1.00  0.00     0.012 C 
ATOM     10  C   UNL     1      -1.039   5.792  14.503  1.00  0.00     0.012 C 
ENDROOT
TORSDOF 0
ENDMDL
