MODEL 1
REMARK VINA RESULT:    -5.289      0.000      0.000
REMARK INTER + INTRA:          -5.800
REMARK INTER:                  -5.752
REMARK INTRA:                  -0.047
REMARK UNBOUND:                -0.047
REMARK SMILES CC1(C)[C@@H]2CC=C(CO)[C@H]1C2
REMARK SMILES IDX 8 1 7 2 1 3 2 4 4 5 3 6 10 7 5 8 11 9 6 10 9 11
REMARK H PARENT 9 12
REMARK Flexibility Score: inf
ROOT
ATOM      1  C   UNL     1     -46.327  46.802 -19.811  1.00  0.00     0.187 C 
ENDROOT
BRANCH   1   2
ATOM      2  C   UNL     1     -45.114  46.247 -20.497  1.00  0.00    -0.045 C 
ATOM      3  C   UNL     1     -44.059  43.541 -19.944  1.00  0.00     0.012 C 
ATOM      4  C   UNL     1     -44.234  44.066 -21.398  1.00  0.00    -0.026 C 
ATOM      5  C   UNL     1     -43.152  45.015 -21.982  1.00  0.00    -0.000 C 
ATOM      6  C   UNL     1     -44.511  42.854 -22.322  1.00  0.00     0.012 C 
ATOM      7  C   UNL     1     -45.226  45.233 -21.644  1.00  0.00     0.023 C 
ATOM      8  C   UNL     1     -42.650  46.012 -20.881  1.00  0.00     0.031 C 
ATOM      9  C   UNL     1     -44.273  45.757 -22.737  1.00  0.00     0.013 C 
ATOM     10  C   UNL     1     -43.852  46.641 -20.149  1.00  0.00    -0.025 C 
ENDBRANCH   1   2
BRANCH   1  11
ATOM     11  O   UNL     1     -47.480  46.361 -20.471  1.00  0.00    -0.392 OA
ATOM     12  H   UNL     1     -47.783  47.121 -21.034  1.00  0.00     0.211 HD
ENDBRANCH   1  11
TORSDOF 2
ENDMDL
MODEL 2
REMARK VINA RESULT:    -5.229     18.859     20.002
REMARK INTER + INTRA:          -5.735
REMARK INTER:                  -5.707
REMARK INTRA:                  -0.028
REMARK UNBOUND:                -0.047
REMARK SMILES CC1(C)[C@@H]2CC=C(CO)[C@H]1C2
REMARK SMILES IDX 8 1 7 2 1 3 2 4 4 5 3 6 10 7 5 8 11 9 6 10 9 11
REMARK H PARENT 9 12
REMARK Flexibility Score: inf
ROOT
ATOM      1  C   UNL     1     -40.084  58.754  -8.683  1.00  0.00     0.187 C 
ENDROOT
BRANCH   1   2
ATOM      2  C   UNL     1     -39.865  57.861  -7.496  1.00  0.00    -0.045 C 
ATOM      3  C   UNL     1     -39.412  58.906  -4.768  1.00  0.00     0.012 C 
ATOM      4  C   UNL     1     -40.411  57.746  -5.041  1.00  0.00    -0.026 C 
ATOM      5  C   UNL     1     -39.850  56.309  -5.225  1.00  0.00    -0.000 C 
ATOM      6  C   UNL     1     -41.529  57.806  -3.970  1.00  0.00     0.012 C 
ATOM      7  C   UNL     1     -40.978  57.585  -6.476  1.00  0.00     0.023 C 
ATOM      8  C   UNL     1     -38.508  56.347  -6.034  1.00  0.00     0.031 C 
ATOM      9  C   UNL     1     -40.959  56.058  -6.266  1.00  0.00     0.013 C 
ATOM     10  C   UNL     1     -38.670  57.231  -7.286  1.00  0.00    -0.025 C 
ENDBRANCH   1   2
BRANCH   1  11
ATOM     11  O   UNL     1     -38.938  59.528  -8.903  1.00  0.00    -0.392 OA
ATOM     12  H   UNL     1     -39.219  60.268  -9.502  1.00  0.00     0.211 HD
ENDBRANCH   1  11
TORSDOF 2
ENDMDL
MODEL 3
REMARK VINA RESULT:    -5.022      2.171      3.666
REMARK INTER + INTRA:          -5.510
REMARK INTER:                  -5.484
REMARK INTRA:                  -0.025
REMARK UNBOUND:                -0.047
REMARK SMILES CC1(C)[C@@H]2CC=C(CO)[C@H]1C2
REMARK SMILES IDX 8 1 7 2 1 3 2 4 4 5 3 6 10 7 5 8 11 9 6 10 9 11
REMARK H PARENT 9 12
REMARK Flexibility Score: inf
ROOT
ATOM      1  C   UNL     1     -43.262  45.304 -23.685  1.00  0.00     0.187 C 
ENDROOT
BRANCH   1   2
ATOM      2  C   UNL     1     -43.849  44.927 -22.357  1.00  0.00    -0.045 C 
ATOM      3  C   UNL     1     -43.761  46.714 -20.003  1.00  0.00     0.012 C 
ATOM      4  C   UNL     1     -45.066  45.976 -20.417  1.00  0.00    -0.026 C 
ATOM      5  C   UNL     1     -45.235  44.484 -20.021  1.00  0.00    -0.000 C 
ATOM      6  C   UNL     1     -46.273  46.840 -19.975  1.00  0.00     0.012 C 
ATOM      7  C   UNL     1     -45.199  45.484 -21.882  1.00  0.00     0.023 C 
ATOM      8  C   UNL     1     -43.870  43.725 -20.160  1.00  0.00     0.031 C 
ATOM      9  C   UNL     1     -45.974  44.260 -21.356  1.00  0.00     0.013 C 
ATOM     10  C   UNL     1     -43.220  44.049 -21.520  1.00  0.00    -0.025 C 
ENDBRANCH   1   2
BRANCH   1  11
ATOM     11  O   UNL     1     -41.865  45.277 -23.604  1.00  0.00    -0.392 OA
ATOM     12  H   UNL     1     -41.591  44.365 -23.887  1.00  0.00     0.211 HD
ENDBRANCH   1  11
TORSDOF 2
ENDMDL
MODEL 4
REMARK VINA RESULT:    -4.898      0.891      2.592
REMARK INTER + INTRA:          -5.375
REMARK INTER:                  -5.352
REMARK INTRA:                  -0.023
REMARK UNBOUND:                -0.047
REMARK SMILES CC1(C)[C@@H]2CC=C(CO)[C@H]1C2
REMARK SMILES IDX 8 1 7 2 1 3 2 4 4 5 3 6 10 7 5 8 11 9 6 10 9 11
REMARK H PARENT 9 12
REMARK Flexibility Score: inf
ROOT
ATOM      1  C   UNL     1     -46.173  46.532 -20.009  1.00  0.00     0.187 C 
ENDROOT
BRANCH   1   2
ATOM      2  C   UNL     1     -45.358  45.404 -20.569  1.00  0.00    -0.045 C 
ATOM      3  C   UNL     1     -43.894  45.604 -23.130  1.00  0.00     0.012 C 
ATOM      4  C   UNL     1     -43.227  45.016 -21.855  1.00  0.00    -0.026 C 
ATOM      5  C   UNL     1     -43.537  43.545 -21.464  1.00  0.00    -0.000 C 
ATOM      6  C   UNL     1     -41.705  45.294 -21.931  1.00  0.00     0.012 C 
ATOM      7  C   UNL     1     -43.825  45.388 -20.472  1.00  0.00     0.023 C 
ATOM      8  C   UNL     1     -45.044  43.213 -21.741  1.00  0.00     0.031 C 
ATOM      9  C   UNL     1     -43.469  43.971 -19.983  1.00  0.00     0.013 C 
ATOM     10  C   UNL     1     -45.945  44.324 -21.167  1.00  0.00    -0.025 C 
ENDBRANCH   1   2
BRANCH   1  11
ATOM     11  O   UNL     1     -47.507  46.387 -20.409  1.00  0.00    -0.392 OA
ATOM     12  H   UNL     1     -47.706  47.167 -20.990  1.00  0.00     0.211 HD
ENDBRANCH   1  11
TORSDOF 2
ENDMDL
MODEL 5
REMARK VINA RESULT:    -4.880      2.188      3.528
REMARK INTER + INTRA:          -5.355
REMARK INTER:                  -5.307
REMARK INTRA:                  -0.048
REMARK UNBOUND:                -0.047
REMARK SMILES CC1(C)[C@@H]2CC=C(CO)[C@H]1C2
REMARK SMILES IDX 8 1 7 2 1 3 2 4 4 5 3 6 10 7 5 8 11 9 6 10 9 11
REMARK H PARENT 9 12
REMARK Flexibility Score: inf
ROOT
ATOM      1  C   UNL     1     -42.291  42.913 -20.298  1.00  0.00     0.187 C 
ENDROOT
BRANCH   1   2
ATOM      2  C   UNL     1     -43.007  44.045 -20.974  1.00  0.00    -0.045 C 
ATOM      3  C   UNL     1     -45.922  44.029 -21.469  1.00  0.00     0.012 C 
ATOM      4  C   UNL     1     -45.204  45.273 -20.874  1.00  0.00    -0.026 C 
ATOM      5  C   UNL     1     -44.445  46.226 -21.838  1.00  0.00    -0.000 C 
ATOM      6  C   UNL     1     -46.211  46.031 -19.974  1.00  0.00     0.012 C 
ATOM      7  C   UNL     1     -43.831  45.069 -20.180  1.00  0.00     0.023 C 
ATOM      8  C   UNL     1     -43.715  45.403 -22.956  1.00  0.00     0.031 C 
ATOM      9  C   UNL     1     -43.397  46.443 -20.728  1.00  0.00     0.013 C 
ATOM     10  C   UNL     1     -42.935  44.232 -22.326  1.00  0.00    -0.025 C 
ENDBRANCH   1   2
BRANCH   1  11
ATOM     11  O   UNL     1     -42.466  43.010 -18.912  1.00  0.00    -0.392 OA
ATOM     12  H   UNL     1     -42.818  43.922 -18.743  1.00  0.00     0.211 HD
ENDBRANCH   1  11
TORSDOF 2
ENDMDL
MODEL 6
REMARK VINA RESULT:    -4.864     17.862     19.565
REMARK INTER + INTRA:          -5.338
REMARK INTER:                  -5.298
REMARK INTRA:                  -0.040
REMARK UNBOUND:                -0.047
REMARK SMILES CC1(C)[C@@H]2CC=C(CO)[C@H]1C2
REMARK SMILES IDX 8 1 7 2 1 3 2 4 4 5 3 6 10 7 5 8 11 9 6 10 9 11
REMARK H PARENT 9 12
REMARK Flexibility Score: inf
ROOT
ATOM      1  C   UNL     1     -40.368  57.634  -8.822  1.00  0.00     0.187 C 
ENDROOT
BRANCH   1   2
ATOM      2  C   UNL     1     -40.856  57.166  -7.482  1.00  0.00    -0.045 C 
ATOM      3  C   UNL     1     -39.067  55.967  -5.456  1.00  0.00     0.012 C 
ATOM      4  C   UNL     1     -40.103  57.065  -5.081  1.00  0.00    -0.026 C 
ATOM      5  C   UNL     1     -41.586  56.651  -4.880  1.00  0.00    -0.000 C 
ATOM      6  C   UNL     1     -39.549  57.864  -3.875  1.00  0.00     0.012 C 
ATOM      7  C   UNL     1     -40.634  57.991  -6.207  1.00  0.00     0.023 C 
ATOM      8  C   UNL     1     -41.996  55.563  -5.932  1.00  0.00     0.031 C 
ATOM      9  C   UNL     1     -42.001  58.002  -5.494  1.00  0.00     0.013 C 
ATOM     10  C   UNL     1     -41.545  55.994  -7.342  1.00  0.00    -0.025 C 
ENDBRANCH   1   2
BRANCH   1  11
ATOM     11  O   UNL     1     -41.083  58.775  -9.206  1.00  0.00    -0.392 OA
ATOM     12  H   UNL     1     -41.487  59.139  -8.376  1.00  0.00     0.211 HD
ENDBRANCH   1  11
TORSDOF 2
ENDMDL
MODEL 7
REMARK VINA RESULT:    -4.716      2.565      3.819
REMARK INTER + INTRA:          -5.176
REMARK INTER:                  -5.114
REMARK INTRA:                  -0.062
REMARK UNBOUND:                -0.047
REMARK SMILES CC1(C)[C@@H]2CC=C(CO)[C@H]1C2
REMARK SMILES IDX 8 1 7 2 1 3 2 4 4 5 3 6 10 7 5 8 11 9 6 10 9 11
REMARK H PARENT 9 12
REMARK Flexibility Score: inf
ROOT
ATOM      1  C   UNL     1     -43.932  46.064 -21.025  1.00  0.00     0.187 C 
ENDROOT
BRANCH   1   2
ATOM      2  C   UNL     1     -42.852  45.255 -21.681  1.00  0.00    -0.045 C 
ATOM      3  C   UNL     1     -39.996  46.011 -21.573  1.00  0.00     0.012 C 
ATOM      4  C   UNL     1     -40.463  44.554 -21.297  1.00  0.00    -0.026 C 
ATOM      5  C   UNL     1     -40.787  43.635 -22.507  1.00  0.00    -0.000 C 
ATOM      6  C   UNL     1     -39.460  43.898 -20.316  1.00  0.00     0.012 C 
ATOM      7  C   UNL     1     -41.938  44.321 -20.874  1.00  0.00     0.023 C 
ATOM      8  C   UNL     1     -41.507  44.452 -23.635  1.00  0.00     0.031 C 
ATOM      9  C   UNL     1     -41.914  43.000 -21.667  1.00  0.00     0.013 C 
ATOM     10  C   UNL     1     -42.651  45.291 -23.032  1.00  0.00    -0.025 C 
ENDBRANCH   1   2
BRANCH   1  11
ATOM     11  O   UNL     1     -43.366  47.183 -20.402  1.00  0.00    -0.392 OA
ATOM     12  H   UNL     1     -44.106  47.630 -19.914  1.00  0.00     0.211 HD
ENDBRANCH   1  11
TORSDOF 2
ENDMDL
MODEL 8
REMARK VINA RESULT:    -4.671     18.213     19.847
REMARK INTER + INTRA:          -5.128
REMARK INTER:                  -5.104
REMARK INTRA:                  -0.023
REMARK UNBOUND:                -0.047
REMARK SMILES CC1(C)[C@@H]2CC=C(CO)[C@H]1C2
REMARK SMILES IDX 8 1 7 2 1 3 2 4 4 5 3 6 10 7 5 8 11 9 6 10 9 11
REMARK H PARENT 9 12
REMARK Flexibility Score: inf
ROOT
ATOM      1  C   UNL     1     -40.317  57.601  -8.704  1.00  0.00     0.187 C 
ENDROOT
BRANCH   1   2
ATOM      2  C   UNL     1     -40.189  57.622  -7.209  1.00  0.00    -0.045 C 
ATOM      3  C   UNL     1     -40.266  55.169  -5.560  1.00  0.00     0.012 C 
ATOM      4  C   UNL     1     -39.187  56.266  -5.338  1.00  0.00    -0.026 C 
ATOM      5  C   UNL     1     -39.571  57.536  -4.530  1.00  0.00    -0.000 C 
ATOM      6  C   UNL     1     -37.908  55.586  -4.789  1.00  0.00     0.012 C 
ATOM      7  C   UNL     1     -38.879  57.243  -6.504  1.00  0.00     0.023 C 
ATOM      8  C   UNL     1     -41.033  57.983  -4.878  1.00  0.00     0.031 C 
ATOM      9  C   UNL     1     -38.651  58.353  -5.459  1.00  0.00     0.013 C 
ATOM     10  C   UNL     1     -41.227  58.008  -6.408  1.00  0.00    -0.025 C 
ENDBRANCH   1   2
BRANCH   1  11
ATOM     11  O   UNL     1     -41.106  58.680  -9.121  1.00  0.00    -0.392 OA
ATOM     12  H   UNL     1     -40.997  59.383  -8.429  1.00  0.00     0.211 HD
ENDBRANCH   1  11
TORSDOF 2
ENDMDL
MODEL 9
REMARK VINA RESULT:    -4.644     18.152     19.697
REMARK INTER + INTRA:          -5.099
REMARK INTER:                  -5.064
REMARK INTRA:                  -0.035
REMARK UNBOUND:                -0.047
REMARK SMILES CC1(C)[C@@H]2CC=C(CO)[C@H]1C2
REMARK SMILES IDX 8 1 7 2 1 3 2 4 4 5 3 6 10 7 5 8 11 9 6 10 9 11
REMARK H PARENT 9 12
REMARK Flexibility Score: inf
ROOT
ATOM      1  C   UNL     1     -42.750  58.012  -4.102  1.00  0.00     0.187 C 
ENDROOT
BRANCH   1   2
ATOM      2  C   UNL     1     -41.567  57.387  -4.783  1.00  0.00    -0.045 C 
ATOM      3  C   UNL     1     -41.814  55.729  -7.218  1.00  0.00     0.012 C 
ATOM      4  C   UNL     1     -40.739  56.846  -7.098  1.00  0.00    -0.026 C 
ATOM      5  C   UNL     1     -39.437  56.543  -6.306  1.00  0.00    -0.000 C 
ATOM      6  C   UNL     1     -40.446  57.393  -8.518  1.00  0.00     0.012 C 
ATOM      7  C   UNL     1     -40.967  57.980  -6.066  1.00  0.00     0.023 C 
ATOM      8  C   UNL     1     -39.759  55.674  -5.041  1.00  0.00     0.031 C 
ATOM      9  C   UNL     1     -39.445  58.007  -5.820  1.00  0.00     0.013 C 
ATOM     10  C   UNL     1     -40.954  56.276  -4.276  1.00  0.00    -0.025 C 
ENDBRANCH   1   2
BRANCH   1  11
ATOM     11  O   UNL     1     -43.728  57.036  -3.875  1.00  0.00    -0.392 OA
ATOM     12  H   UNL     1     -43.613  56.746  -2.933  1.00  0.00     0.211 HD
ENDBRANCH   1  11
TORSDOF 2
ENDMDL
