MODEL 1
REMARK VINA RESULT:    -4.856      0.000      0.000
REMARK INTER + INTRA:          -5.277
REMARK INTER:                  -5.140
REMARK INTRA:                  -0.137
REMARK UNBOUND:                -0.137
REMARK SMILES C=C(C)[C@@H]1CC=C(C)C(=O)C1
REMARK SMILES IDX 8 1 7 2 6 3 5 4 4 5 11 6 9 7 10 8 2 9 1 10 3 11
REMARK H PARENT
REMARK Flexibility Score: inf
ROOT
ATOM      1  C   UNL     1      10.306  17.538  60.375  1.00  0.00     0.048 C 
ATOM      2  C   UNL     1      11.550  18.209  59.859  1.00  0.00    -0.012 C 
ATOM      3  C   UNL     1      12.742  17.616  60.025  1.00  0.00    -0.019 C 
ATOM      4  C   UNL     1      14.029  18.246  59.563  1.00  0.00     0.036 C 
ATOM      5  C   UNL     1      13.859  19.167  58.336  1.00  0.00     0.025 C 
ATOM      6  C   UNL     1      12.660  20.124  58.500  1.00  0.00     0.089 C 
ATOM      7  C   UNL     1      11.437  19.439  59.040  1.00  0.00     0.158 C 
ATOM      8  O   UNL     1      10.305  19.948  58.819  1.00  0.00    -0.295 OA
ENDROOT
BRANCH   5   9
ATOM      9  C   UNL     1      13.837  18.398  57.014  1.00  0.00    -0.077 C 
ATOM     10  C   UNL     1      12.868  18.572  56.099  1.00  0.00     0.008 C 
ATOM     11  C   UNL     1      14.931  17.406  56.705  1.00  0.00     0.039 C 
ENDBRANCH   5   9
TORSDOF 1
ENDMDL
MODEL 2
REMARK VINA RESULT:    -4.723      2.072      3.591
REMARK INTER + INTRA:          -5.136
REMARK INTER:                  -4.914
REMARK INTRA:                  -0.222
REMARK UNBOUND:                -0.137
REMARK SMILES C=C(C)[C@@H]1CC=C(C)C(=O)C1
REMARK SMILES IDX 8 1 7 2 6 3 5 4 4 5 11 6 9 7 10 8 2 9 1 10 3 11
REMARK H PARENT
REMARK Flexibility Score: inf
ROOT
ATOM      1  C   UNL     1      11.859  19.568  55.265  1.00  0.00     0.048 C 
ATOM      2  C   UNL     1      12.915  18.791  56.003  1.00  0.00    -0.012 C 
ATOM      3  C   UNL     1      13.864  18.139  55.315  1.00  0.00    -0.019 C 
ATOM      4  C   UNL     1      14.929  17.316  55.987  1.00  0.00     0.036 C 
ATOM      5  C   UNL     1      15.298  17.820  57.399  1.00  0.00     0.025 C 
ATOM      6  C   UNL     1      14.044  18.122  58.245  1.00  0.00     0.089 C 
ATOM      7  C   UNL     1      12.992  18.875  57.481  1.00  0.00     0.158 C 
ATOM      8  O   UNL     1      12.145  19.557  58.119  1.00  0.00    -0.295 OA
ENDROOT
BRANCH   5   9
ATOM      9  C   UNL     1      16.298  18.977  57.375  1.00  0.00    -0.077 C 
ATOM     10  C   UNL     1      16.339  19.910  58.342  1.00  0.00     0.008 C 
ATOM     11  C   UNL     1      17.281  19.095  56.237  1.00  0.00     0.039 C 
ENDBRANCH   5   9
TORSDOF 1
ENDMDL
MODEL 3
REMARK VINA RESULT:    -4.688      2.162      4.127
REMARK INTER + INTRA:          -5.099
REMARK INTER:                  -4.882
REMARK INTRA:                  -0.217
REMARK UNBOUND:                -0.137
REMARK SMILES C=C(C)[C@@H]1CC=C(C)C(=O)C1
REMARK SMILES IDX 8 1 7 2 6 3 5 4 4 5 11 6 9 7 10 8 2 9 1 10 3 11
REMARK H PARENT
REMARK Flexibility Score: inf
ROOT
ATOM      1  C   UNL     1      14.147  17.063  55.064  1.00  0.00     0.048 C 
ATOM      2  C   UNL     1      13.839  18.025  56.178  1.00  0.00    -0.012 C 
ATOM      3  C   UNL     1      12.569  18.395  56.406  1.00  0.00    -0.019 C 
ATOM      4  C   UNL     1      12.194  19.379  57.481  1.00  0.00     0.036 C 
ATOM      5  C   UNL     1      13.157  19.371  58.688  1.00  0.00     0.025 C 
ATOM      6  C   UNL     1      14.634  19.388  58.242  1.00  0.00     0.089 C 
ATOM      7  C   UNL     1      14.913  18.439  57.112  1.00  0.00     0.158 C 
ATOM      8  O   UNL     1      16.091  18.023  56.941  1.00  0.00    -0.295 OA
ENDROOT
BRANCH   5   9
ATOM      9  C   UNL     1      12.846  18.257  59.689  1.00  0.00    -0.077 C 
ATOM     10  C   UNL     1      11.597  17.809  59.900  1.00  0.00     0.008 C 
ATOM     11  C   UNL     1      13.966  17.624  60.477  1.00  0.00     0.039 C 
ENDBRANCH   5   9
TORSDOF 1
ENDMDL
MODEL 4
REMARK VINA RESULT:    -4.597      2.312      3.366
REMARK INTER + INTRA:          -5.003
REMARK INTER:                  -4.816
REMARK INTRA:                  -0.186
REMARK UNBOUND:                -0.137
REMARK SMILES C=C(C)[C@@H]1CC=C(C)C(=O)C1
REMARK SMILES IDX 8 1 7 2 6 3 5 4 4 5 11 6 9 7 10 8 2 9 1 10 3 11
REMARK H PARENT
REMARK Flexibility Score: inf
ROOT
ATOM      1  C   UNL     1       7.533  17.766  60.248  1.00  0.00     0.048 C 
ATOM      2  C   UNL     1       8.916  17.783  59.655  1.00  0.00    -0.012 C 
ATOM      3  C   UNL     1       9.078  17.578  58.339  1.00  0.00    -0.019 C 
ATOM      4  C   UNL     1      10.433  17.550  57.686  1.00  0.00     0.036 C 
ATOM      5  C   UNL     1      11.480  18.431  58.400  1.00  0.00     0.025 C 
ATOM      6  C   UNL     1      11.462  18.217  59.928  1.00  0.00     0.089 C 
ATOM      7  C   UNL     1      10.072  18.177  60.495  1.00  0.00     0.158 C 
ATOM      8  O   UNL     1       9.902  18.448  61.714  1.00  0.00    -0.295 OA
ENDROOT
BRANCH   5   9
ATOM      9  C   UNL     1      11.390  19.904  57.999  1.00  0.00    -0.077 C 
ATOM     10  C   UNL     1      11.517  20.900  58.893  1.00  0.00     0.008 C 
ATOM     11  C   UNL     1      11.151  20.276  56.557  1.00  0.00     0.039 C 
ENDBRANCH   5   9
TORSDOF 1
ENDMDL
MODEL 5
REMARK VINA RESULT:    -4.537      2.862      4.756
REMARK INTER + INTRA:          -4.939
REMARK INTER:                  -4.720
REMARK INTRA:                  -0.218
REMARK UNBOUND:                -0.137
REMARK SMILES C=C(C)[C@@H]1CC=C(C)C(=O)C1
REMARK SMILES IDX 8 1 7 2 6 3 5 4 4 5 11 6 9 7 10 8 2 9 1 10 3 11
REMARK H PARENT
REMARK Flexibility Score: inf
ROOT
ATOM      1  C   UNL     1       9.003  22.307  57.693  1.00  0.00     0.048 C 
ATOM      2  C   UNL     1       9.583  20.960  58.024  1.00  0.00    -0.012 C 
ATOM      3  C   UNL     1      10.620  20.872  58.870  1.00  0.00    -0.019 C 
ATOM      4  C   UNL     1      11.270  19.560  59.220  1.00  0.00     0.036 C 
ATOM      5  C   UNL     1      10.305  18.358  59.155  1.00  0.00     0.025 C 
ATOM      6  C   UNL     1       9.461  18.370  57.864  1.00  0.00     0.089 C 
ATOM      7  C   UNL     1       8.913  19.730  57.538  1.00  0.00     0.158 C 
ATOM      8  O   UNL     1       7.889  19.816  56.808  1.00  0.00    -0.295 OA
ENDROOT
BRANCH   5   9
ATOM      9  C   UNL     1       9.461  18.203  60.421  1.00  0.00    -0.077 C 
ATOM     10  C   UNL     1       9.893  18.612  61.626  1.00  0.00     0.008 C 
ATOM     11  C   UNL     1       8.093  17.573  60.338  1.00  0.00     0.039 C 
ENDBRANCH   5   9
TORSDOF 1
ENDMDL
MODEL 6
REMARK VINA RESULT:    -4.527      6.487      8.207
REMARK INTER + INTRA:          -4.929
REMARK INTER:                  -4.710
REMARK INTRA:                  -0.219
REMARK UNBOUND:                -0.137
REMARK SMILES C=C(C)[C@@H]1CC=C(C)C(=O)C1
REMARK SMILES IDX 8 1 7 2 6 3 5 4 4 5 11 6 9 7 10 8 2 9 1 10 3 11
REMARK H PARENT
REMARK Flexibility Score: inf
ROOT
ATOM      1  C   UNL     1      10.402  22.395  54.247  1.00  0.00     0.048 C 
ATOM      2  C   UNL     1       9.183  22.462  55.126  1.00  0.00    -0.012 C 
ATOM      3  C   UNL     1       9.321  22.704  56.438  1.00  0.00    -0.019 C 
ATOM      4  C   UNL     1       8.148  22.752  57.380  1.00  0.00     0.036 C 
ATOM      5  C   UNL     1       6.837  23.214  56.708  1.00  0.00     0.025 C 
ATOM      6  C   UNL     1       6.596  22.492  55.366  1.00  0.00     0.089 C 
ATOM      7  C   UNL     1       7.833  22.414  54.516  1.00  0.00     0.158 C 
ATOM      8  O   UNL     1       7.708  22.267  53.270  1.00  0.00    -0.295 OA
ENDROOT
BRANCH   5   9
ATOM      9  C   UNL     1       6.728  24.735  56.599  1.00  0.00    -0.077 C 
ATOM     10  C   UNL     1       7.297  25.562  57.494  1.00  0.00     0.008 C 
ATOM     11  C   UNL     1       5.962  25.352  55.455  1.00  0.00     0.039 C 
ENDBRANCH   5   9
TORSDOF 1
ENDMDL
MODEL 7
REMARK VINA RESULT:    -4.499      2.268      3.983
REMARK INTER + INTRA:          -4.899
REMARK INTER:                  -4.678
REMARK INTRA:                  -0.221
REMARK UNBOUND:                -0.137
REMARK SMILES C=C(C)[C@@H]1CC=C(C)C(=O)C1
REMARK SMILES IDX 8 1 7 2 6 3 5 4 4 5 11 6 9 7 10 8 2 9 1 10 3 11
REMARK H PARENT
REMARK Flexibility Score: inf
ROOT
ATOM      1  C   UNL     1      16.429  18.618  57.327  1.00  0.00     0.048 C 
ATOM      2  C   UNL     1      14.996  18.292  57.648  1.00  0.00    -0.012 C 
ATOM      3  C   UNL     1      14.503  18.586  58.861  1.00  0.00    -0.019 C 
ATOM      4  C   UNL     1      13.090  18.258  59.260  1.00  0.00     0.036 C 
ATOM      5  C   UNL     1      12.100  18.252  58.076  1.00  0.00     0.025 C 
ATOM      6  C   UNL     1      12.658  17.472  56.868  1.00  0.00     0.089 C 
ATOM      7  C   UNL     1      14.097  17.793  56.581  1.00  0.00     0.158 C 
ATOM      8  O   UNL     1      14.546  17.595  55.419  1.00  0.00    -0.295 OA
ENDROOT
BRANCH   5   9
ATOM      9  C   UNL     1      11.603  19.650  57.709  1.00  0.00    -0.077 C 
ATOM     10  C   UNL     1      11.248  19.980  56.455  1.00  0.00     0.008 C 
ATOM     11  C   UNL     1      11.498  20.713  58.775  1.00  0.00     0.039 C 
ENDBRANCH   5   9
TORSDOF 1
ENDMDL
MODEL 8
REMARK VINA RESULT:    -4.494     11.250     12.480
REMARK INTER + INTRA:          -4.894
REMARK INTER:                  -4.698
REMARK INTRA:                  -0.196
REMARK UNBOUND:                -0.137
REMARK SMILES C=C(C)[C@@H]1CC=C(C)C(=O)C1
REMARK SMILES IDX 8 1 7 2 6 3 5 4 4 5 11 6 9 7 10 8 2 9 1 10 3 11
REMARK H PARENT
REMARK Flexibility Score: inf
ROOT
ATOM      1  C   UNL     1      23.004  10.098  53.308  1.00  0.00     0.048 C 
ATOM      2  C   UNL     1      21.661  10.749  53.502  1.00  0.00    -0.012 C 
ATOM      3  C   UNL     1      21.543  12.079  53.376  1.00  0.00    -0.019 C 
ATOM      4  C   UNL     1      20.238  12.798  53.589  1.00  0.00     0.036 C 
ATOM      5  C   UNL     1      19.000  11.942  53.250  1.00  0.00     0.025 C 
ATOM      6  C   UNL     1      19.098  10.527  53.858  1.00  0.00     0.089 C 
ATOM      7  C   UNL     1      20.454   9.907  53.676  1.00  0.00     0.158 C 
ATOM      8  O   UNL     1      20.560   8.651  53.713  1.00  0.00    -0.295 OA
ENDROOT
BRANCH   5   9
ATOM      9  C   UNL     1      18.675  11.930  51.756  1.00  0.00    -0.077 C 
ATOM     10  C   UNL     1      18.251  10.823  51.122  1.00  0.00     0.008 C 
ATOM     11  C   UNL     1      18.830  13.193  50.945  1.00  0.00     0.039 C 
ENDBRANCH   5   9
TORSDOF 1
ENDMDL
MODEL 9
REMARK VINA RESULT:    -4.454      1.456      3.001
REMARK INTER + INTRA:          -4.851
REMARK INTER:                  -4.770
REMARK INTRA:                  -0.081
REMARK UNBOUND:                -0.137
REMARK SMILES C=C(C)[C@@H]1CC=C(C)C(=O)C1
REMARK SMILES IDX 8 1 7 2 6 3 5 4 4 5 11 6 9 7 10 8 2 9 1 10 3 11
REMARK H PARENT
REMARK Flexibility Score: inf
ROOT
ATOM      1  C   UNL     1       9.950  21.283  58.401  1.00  0.00     0.048 C 
ATOM      2  C   UNL     1      10.523  19.896  58.498  1.00  0.00    -0.012 C 
ATOM      3  C   UNL     1      11.177  19.371  57.450  1.00  0.00    -0.019 C 
ATOM      4  C   UNL     1      11.745  17.978  57.467  1.00  0.00     0.036 C 
ATOM      5  C   UNL     1      12.162  17.499  58.874  1.00  0.00     0.025 C 
ATOM      6  C   UNL     1      11.074  17.797  59.926  1.00  0.00     0.089 C 
ATOM      7  C   UNL     1      10.497  19.178  59.794  1.00  0.00     0.158 C 
ATOM      8  O   UNL     1       9.953  19.710  60.799  1.00  0.00    -0.295 OA
ENDROOT
BRANCH   5   9
ATOM      9  C   UNL     1      13.547  18.000  59.287  1.00  0.00    -0.077 C 
ATOM     10  C   UNL     1      14.082  17.722  60.488  1.00  0.00     0.008 C 
ATOM     11  C   UNL     1      14.358  18.836  58.328  1.00  0.00     0.039 C 
ENDBRANCH   5   9
TORSDOF 1
ENDMDL
