MODEL 1
REMARK VINA RESULT:    -4.271      0.000      0.000
REMARK INTER + INTRA:          -5.133
REMARK INTER:                  -5.020
REMARK INTRA:                  -0.113
REMARK UNBOUND:                -0.113
REMARK SMILES CCCCC(=O)[O-]
REMARK SMILES IDX 4 1 5 2 6 3 7 4 3 5 2 6 1 7
REMARK H PARENT
REMARK Flexibility Score: inf
ROOT
ATOM      1  C   UNL     1      45.126  27.404   5.605  1.00  0.00     0.053 C 
ENDROOT
BRANCH   1   2
ATOM      2  C   UNL     1      45.572  26.252   6.451  1.00  0.00     0.041 C 
ATOM      3  O   UNL     1      46.629  25.628   6.165  1.00  0.00    -0.550 OA
ATOM      4  O   UNL     1      44.840  25.887   7.574  1.00  0.00    -0.550 OA
ENDBRANCH   1   2
BRANCH   1   5
ATOM      5  C   UNL     1      43.877  27.058   4.784  1.00  0.00     0.006 C 
BRANCH   5   6
ATOM      6  C   UNL     1      44.221  26.288   3.500  1.00  0.00    -0.003 C 
ATOM      7  C   UNL     1      45.388  26.940   2.764  1.00  0.00     0.004 C 
ENDBRANCH   5   6
ENDBRANCH   1   5
TORSDOF 3
ENDMDL
MODEL 2
REMARK VINA RESULT:    -4.251      0.170      1.232
REMARK INTER + INTRA:          -5.110
REMARK INTER:                  -5.006
REMARK INTRA:                  -0.104
REMARK UNBOUND:                -0.113
REMARK SMILES CCCCC(=O)[O-]
REMARK SMILES IDX 4 1 5 2 6 3 7 4 3 5 2 6 1 7
REMARK H PARENT
REMARK Flexibility Score: inf
ROOT
ATOM      1  C   UNL     1      45.201  27.368   5.506  1.00  0.00     0.053 C 
ENDROOT
BRANCH   1   2
ATOM      2  C   UNL     1      45.688  26.264   6.393  1.00  0.00     0.041 C 
ATOM      3  O   UNL     1      45.091  26.010   7.473  1.00  0.00    -0.550 OA
ATOM      4  O   UNL     1      46.780  25.495   6.012  1.00  0.00    -0.550 OA
ENDBRANCH   1   2
BRANCH   1   5
ATOM      5  C   UNL     1      43.896  26.992   4.792  1.00  0.00     0.006 C 
BRANCH   5   6
ATOM      6  C   UNL     1      44.149  26.304   3.443  1.00  0.00    -0.003 C 
ATOM      7  C   UNL     1      45.386  26.877   2.757  1.00  0.00     0.004 C 
ENDBRANCH   5   6
ENDBRANCH   1   5
TORSDOF 3
ENDMDL
MODEL 3
REMARK VINA RESULT:    -4.222      2.580      3.821
REMARK INTER + INTRA:          -5.075
REMARK INTER:                  -5.043
REMARK INTRA:                  -0.033
REMARK UNBOUND:                -0.113
REMARK SMILES CCCCC(=O)[O-]
REMARK SMILES IDX 4 1 5 2 6 3 7 4 3 5 2 6 1 7
REMARK H PARENT
REMARK Flexibility Score: inf
ROOT
ATOM      1  C   UNL     1      44.156  27.003   4.368  1.00  0.00     0.053 C 
ENDROOT
BRANCH   1   2
ATOM      2  C   UNL     1      44.441  26.303   3.074  1.00  0.00     0.041 C 
ATOM      3  O   UNL     1      43.628  25.455   2.621  1.00  0.00    -0.550 OA
ATOM      4  O   UNL     1      45.588  26.611   2.354  1.00  0.00    -0.550 OA
ENDBRANCH   1   2
BRANCH   1   5
ATOM      5  C   UNL     1      45.376  27.001   5.297  1.00  0.00     0.006 C 
BRANCH   5   6
ATOM      6  C   UNL     1      45.005  27.364   6.743  1.00  0.00    -0.003 C 
ATOM      7  C   UNL     1      43.680  26.725   7.148  1.00  0.00     0.004 C 
ENDBRANCH   5   6
ENDBRANCH   1   5
TORSDOF 3
ENDMDL
MODEL 4
REMARK VINA RESULT:    -3.574     14.003     14.473
REMARK INTER + INTRA:          -4.314
REMARK INTER:                  -4.243
REMARK INTRA:                  -0.071
REMARK UNBOUND:                -0.113
REMARK SMILES CCCCC(=O)[O-]
REMARK SMILES IDX 4 1 5 2 6 3 7 4 3 5 2 6 1 7
REMARK H PARENT
REMARK Flexibility Score: inf
ROOT
ATOM      1  C   UNL     1      39.656  23.415  19.046  1.00  0.00     0.053 C 
ENDROOT
BRANCH   1   2
ATOM      2  C   UNL     1      41.045  23.925  19.276  1.00  0.00     0.041 C 
ATOM      3  O   UNL     1      41.225  25.083  19.738  1.00  0.00    -0.550 OA
ATOM      4  O   UNL     1      42.139  23.112  19.010  1.00  0.00    -0.550 OA
ENDBRANCH   1   2
BRANCH   1   5
ATOM      5  C   UNL     1      39.034  24.008  17.775  1.00  0.00     0.006 C 
BRANCH   5   6
ATOM      6  C   UNL     1      38.480  22.924  16.838  1.00  0.00    -0.003 C 
ATOM      7  C   UNL     1      39.296  21.639  16.942  1.00  0.00     0.004 C 
ENDBRANCH   5   6
ENDBRANCH   1   5
TORSDOF 3
ENDMDL
MODEL 5
REMARK VINA RESULT:    -3.471     14.003     14.383
REMARK INTER + INTRA:          -4.193
REMARK INTER:                  -4.168
REMARK INTRA:                  -0.025
REMARK UNBOUND:                -0.113
REMARK SMILES CCCCC(=O)[O-]
REMARK SMILES IDX 4 1 5 2 6 3 7 4 3 5 2 6 1 7
REMARK H PARENT
REMARK Flexibility Score: inf
ROOT
ATOM      1  C   UNL     1      40.599  22.803  17.700  1.00  0.00     0.053 C 
ENDROOT
BRANCH   1   2
ATOM      2  C   UNL     1      41.301  23.370  18.895  1.00  0.00     0.041 C 
ATOM      3  O   UNL     1      42.352  22.827  19.329  1.00  0.00    -0.550 OA
ATOM      4  O   UNL     1      40.814  24.516  19.511  1.00  0.00    -0.550 OA
ENDBRANCH   1   2
BRANCH   1   5
ATOM      5  C   UNL     1      39.344  23.609  17.342  1.00  0.00     0.006 C 
BRANCH   5   6
ATOM      6  C   UNL     1      38.283  22.749  16.639  1.00  0.00    -0.003 C 
ATOM      7  C   UNL     1      37.127  22.423  17.581  1.00  0.00     0.004 C 
ENDBRANCH   5   6
ENDBRANCH   1   5
TORSDOF 3
ENDMDL
MODEL 6
REMARK VINA RESULT:    -3.408     13.671     14.369
REMARK INTER + INTRA:          -4.120
REMARK INTER:                  -4.076
REMARK INTRA:                  -0.044
REMARK UNBOUND:                -0.113
REMARK SMILES CCCCC(=O)[O-]
REMARK SMILES IDX 4 1 5 2 6 3 7 4 3 5 2 6 1 7
REMARK H PARENT
REMARK Flexibility Score: inf
ROOT
ATOM      1  C   UNL     1      39.858  23.589  18.702  1.00  0.00     0.053 C 
ENDROOT
BRANCH   1   2
ATOM      2  C   UNL     1      41.317  23.260  18.775  1.00  0.00     0.041 C 
ATOM      3  O   UNL     1      42.044  23.800  19.651  1.00  0.00    -0.550 OA
ATOM      4  O   UNL     1      41.868  22.335  17.898  1.00  0.00    -0.550 OA
ENDBRANCH   1   2
BRANCH   1   5
ATOM      5  C   UNL     1      39.361  23.657  17.253  1.00  0.00     0.006 C 
BRANCH   5   6
ATOM      6  C   UNL     1      38.515  22.434  16.869  1.00  0.00    -0.003 C 
ATOM      7  C   UNL     1      37.122  22.514  17.486  1.00  0.00     0.004 C 
ENDBRANCH   5   6
ENDBRANCH   1   5
TORSDOF 3
ENDMDL
MODEL 7
REMARK VINA RESULT:    -3.394     13.735     14.663
REMARK INTER + INTRA:          -4.102
REMARK INTER:                  -3.994
REMARK INTRA:                  -0.108
REMARK UNBOUND:                -0.113
REMARK SMILES CCCCC(=O)[O-]
REMARK SMILES IDX 4 1 5 2 6 3 7 4 3 5 2 6 1 7
REMARK H PARENT
REMARK Flexibility Score: inf
ROOT
ATOM      1  C   UNL     1      38.660  22.866  18.655  1.00  0.00     0.053 C 
ENDROOT
BRANCH   1   2
ATOM      2  C   UNL     1      37.869  22.625  17.406  1.00  0.00     0.041 C 
ATOM      3  O   UNL     1      38.342  22.948  16.285  1.00  0.00    -0.550 OA
ATOM      4  O   UNL     1      36.624  22.013  17.478  1.00  0.00    -0.550 OA
ENDBRANCH   1   2
BRANCH   1   5
ATOM      5  C   UNL     1      39.799  23.867  18.422  1.00  0.00     0.006 C 
BRANCH   5   6
ATOM      6  C   UNL     1      41.177  23.262  18.732  1.00  0.00    -0.003 C 
ATOM      7  C   UNL     1      41.598  22.272  17.650  1.00  0.00     0.004 C 
ENDBRANCH   5   6
ENDBRANCH   1   5
TORSDOF 3
ENDMDL
MODEL 8
REMARK VINA RESULT:    -3.231     10.881     11.914
REMARK INTER + INTRA:          -3.910
REMARK INTER:                  -3.868
REMARK INTRA:                  -0.042
REMARK UNBOUND:                -0.113
REMARK SMILES CCCCC(=O)[O-]
REMARK SMILES IDX 4 1 5 2 6 3 7 4 3 5 2 6 1 7
REMARK H PARENT
REMARK Flexibility Score: inf
ROOT
ATOM      1  C   UNL     1      43.252  32.104  15.027  1.00  0.00     0.053 C 
ENDROOT
BRANCH   1   2
ATOM      2  C   UNL     1      42.722  32.964  16.132  1.00  0.00     0.041 C 
ATOM      3  O   UNL     1      43.277  32.954  17.263  1.00  0.00    -0.550 OA
ATOM      4  O   UNL     1      41.636  33.799  15.906  1.00  0.00    -0.550 OA
ENDBRANCH   1   2
BRANCH   1   5
ATOM      5  C   UNL     1      43.983  30.868  15.567  1.00  0.00     0.006 C 
BRANCH   5   6
ATOM      6  C   UNL     1      43.970  29.702  14.568  1.00  0.00    -0.003 C 
ATOM      7  C   UNL     1      42.642  29.634  13.819  1.00  0.00     0.004 C 
ENDBRANCH   5   6
ENDBRANCH   1   5
TORSDOF 3
ENDMDL
