MODEL 1
REMARK VINA RESULT:    -6.275      0.000      0.000
REMARK INTER + INTRA:         -11.504
REMARK INTER:                  -8.843
REMARK INTRA:                  -2.661
REMARK UNBOUND:                -2.661
REMARK SMILES C=C(CC[C@H](C(=O)[O-])[C@H]1[C@H](O)C[C@]2(C)C3=C(CC[C@]12C)[C@@]1(C)CC[C@@H](O)C(C)(C)[C@@H]1CC3)C(C)C
REMARK SMILES IDX 4 1 5 2 6 3 7 4 8 5 9 6 10 7 19 8 12 9 13 10 18 11 20 12
REMARK SMILES IDX 14 13 15 14 17 15 16 16 32 17 21 18 31 19 30 20 23 21 22 22
REMARK SMILES IDX 27 23 24 24 25 25 28 26 29 27 11 28 26 30 3 32 2 33 1 34
REMARK SMILES IDX 33 35 34 36 35 37
REMARK H PARENT 11 29 26 31
REMARK Flexibility Score: inf
ROOT
ATOM      1  C   UNL     1     171.468 174.112 151.243  1.00  0.00     0.014 C 
ENDROOT
BRANCH   1   2
ATOM      2  C   UNL     1     170.194 173.219 151.228  1.00  0.00     0.042 C 
BRANCH   2   3
ATOM      3  C   UNL     1     168.959 174.084 151.061  1.00  0.00     0.045 C 
ATOM      4  O   UNL     1     168.333 174.066 149.973  1.00  0.00    -0.550 OA
ATOM      5  O   UNL     1     168.507 174.920 152.078  1.00  0.00    -0.550 OA
ENDBRANCH   2   3
BRANCH   2   6
ATOM      6  C   UNL     1     170.178 172.239 152.461  1.00  0.00     0.033 C 
ATOM      7  C   UNL     1     169.187 172.586 153.588  1.00  0.00     0.119 C 
ATOM      8  C   UNL     1     170.074 170.693 152.216  1.00  0.00    -0.017 C 
ATOM      9  C   UNL     1     168.811 171.254 154.249  1.00  0.00     0.043 C 
ATOM     10  C   UNL     1     169.754 170.153 153.673  1.00  0.00    -0.003 C 
ATOM     11  C   UNL     1     171.421 170.164 151.610  1.00  0.00     0.012 C 
ATOM     12  C   UNL     1     168.925 170.324 151.231  1.00  0.00     0.013 C 
ATOM     13  C   UNL     1     168.995 168.797 153.731  1.00  0.00     0.017 C 
ATOM     14  C   UNL     1     171.063 169.983 154.497  1.00  0.00    -0.064 C 
ATOM     15  C   UNL     1     172.076 169.067 152.433  1.00  0.00     0.032 C 
ATOM     16  C   UNL     1     172.189 169.481 153.889  1.00  0.00    -0.064 C 
ATOM     17  C   UNL     1     171.017 170.221 156.013  1.00  0.00     0.032 C 
ATOM     18  C   UNL     1     173.452 169.119 154.702  1.00  0.00    -0.008 C 
ATOM     19  C   UNL     1     172.315 169.993 156.798  1.00  0.00     0.009 C 
ATOM     20  C   UNL     1     173.553 170.129 155.905  1.00  0.00     0.007 C 
ATOM     21  C   UNL     1     174.741 169.228 153.835  1.00  0.00     0.014 C 
ATOM     22  C   UNL     1     173.254 167.633 155.116  1.00  0.00     0.016 C 
ATOM     23  C   UNL     1     174.921 170.208 156.703  1.00  0.00    -0.006 C 
ATOM     24  C   UNL     1     176.041 169.165 154.648  1.00  0.00     0.033 C 
ATOM     25  C   UNL     1     176.111 170.280 155.698  1.00  0.00     0.120 C 
ATOM     26  C   UNL     1     174.963 171.503 157.565  1.00  0.00     0.014 C 
ATOM     27  C   UNL     1     175.128 169.033 157.697  1.00  0.00     0.014 C 
BRANCH   7  28
ATOM     28  O   UNL     1     169.740 173.497 154.516  1.00  0.00    -0.393 OA
ATOM     29  H   UNL     1     169.774 173.056 155.404  1.00  0.00     0.210 HD
ENDBRANCH   7  28
BRANCH  25  30
ATOM     30  O   UNL     1     176.121 171.523 155.044  1.00  0.00    -0.393 OA
ATOM     31  H   UNL     1     175.272 171.981 155.269  1.00  0.00     0.210 HD
ENDBRANCH  25  30
ENDBRANCH   2   6
ENDBRANCH   1   2
BRANCH   1  32
ATOM     32  C   UNL     1     172.696 173.459 150.583  1.00  0.00     0.031 C 
BRANCH  32  33
ATOM     33  C   UNL     1     173.772 173.092 151.578  1.00  0.00    -0.075 C 
ATOM     34  C   UNL     1     174.545 172.013 151.354  1.00  0.00     0.008 C 
BRANCH  33  35
ATOM     35  C   UNL     1     173.919 173.911 152.853  1.00  0.00     0.008 C 
ATOM     36  C   UNL     1     173.301 173.189 154.054  1.00  0.00     0.012 C 
ATOM     37  C   UNL     1     175.380 174.287 153.125  1.00  0.00     0.012 C 
ENDBRANCH  33  35
ENDBRANCH  32  33
ENDBRANCH   1  32
TORSDOF 8
ENDMDL
MODEL 2
REMARK VINA RESULT:    -6.129      7.617     10.472
REMARK INTER + INTRA:         -11.298
REMARK INTER:                  -9.113
REMARK INTRA:                  -2.185
REMARK UNBOUND:                -2.661
REMARK SMILES C=C(CC[C@H](C(=O)[O-])[C@H]1[C@H](O)C[C@]2(C)C3=C(CC[C@]12C)[C@@]1(C)CC[C@@H](O)C(C)(C)[C@@H]1CC3)C(C)C
REMARK SMILES IDX 4 1 5 2 6 3 7 4 8 5 9 6 10 7 19 8 12 9 13 10 18 11 20 12
REMARK SMILES IDX 14 13 15 14 17 15 16 16 32 17 21 18 31 19 30 20 23 21 22 22
REMARK SMILES IDX 27 23 24 24 25 25 28 26 29 27 11 28 26 30 3 32 2 33 1 34
REMARK SMILES IDX 33 35 34 36 35 37
REMARK H PARENT 11 29 26 31
REMARK Flexibility Score: inf
ROOT
ATOM      1  C   UNL     1     175.406 163.220 151.282  1.00  0.00     0.014 C 
ENDROOT
BRANCH   1   2
ATOM      2  C   UNL     1     174.156 164.149 151.281  1.00  0.00     0.042 C 
BRANCH   2   3
ATOM      3  C   UNL     1     174.589 165.596 151.145  1.00  0.00     0.045 C 
ATOM      4  O   UNL     1     174.334 166.221 150.087  1.00  0.00    -0.550 OA
ATOM      5  O   UNL     1     175.284 166.252 152.158  1.00  0.00    -0.550 OA
ENDBRANCH   2   3
BRANCH   2   6
ATOM      6  C   UNL     1     173.218 163.830 152.505  1.00  0.00     0.033 C 
ATOM      7  C   UNL     1     173.207 164.873 153.639  1.00  0.00     0.119 C 
ATOM      8  C   UNL     1     171.727 163.416 152.245  1.00  0.00    -0.017 C 
ATOM      9  C   UNL     1     171.820 164.780 154.288  1.00  0.00     0.043 C 
ATOM     10  C   UNL     1     171.099 163.528 153.698  1.00  0.00    -0.003 C 
ATOM     11  C   UNL     1     171.681 161.973 151.629  1.00  0.00     0.012 C 
ATOM     12  C   UNL     1     171.005 164.383 151.261  1.00  0.00     0.013 C 
ATOM     13  C   UNL     1     169.568 163.793 153.746  1.00  0.00     0.017 C 
ATOM     14  C   UNL     1     171.368 162.232 154.516  1.00  0.00    -0.064 C 
ATOM     15  C   UNL     1     170.857 160.985 152.439  1.00  0.00     0.032 C 
ATOM     16  C   UNL     1     171.274 161.006 153.899  1.00  0.00    -0.064 C 
ATOM     17  C   UNL     1     171.566 162.344 156.034  1.00  0.00     0.032 C 
ATOM     18  C   UNL     1     171.346 159.690 154.704  1.00  0.00    -0.008 C 
ATOM     19  C   UNL     1     171.776 161.040 156.812  1.00  0.00     0.009 C 
ATOM     20  C   UNL     1     172.323 159.923 155.916  1.00  0.00     0.007 C 
ATOM     21  C   UNL     1     171.885 158.516 153.833  1.00  0.00     0.014 C 
ATOM     22  C   UNL     1     169.876 159.381 155.104  1.00  0.00     0.016 C 
ATOM     23  C   UNL     1     172.845 158.654 156.711  1.00  0.00    -0.006 C 
ATOM     24  C   UNL     1     172.251 157.264 154.642  1.00  0.00     0.033 C 
ATOM     25  C   UNL     1     173.317 157.562 155.702  1.00  0.00     0.120 C 
ATOM     26  C   UNL     1     174.074 159.039 157.585  1.00  0.00     0.014 C 
ATOM     27  C   UNL     1     171.799 158.062 157.692  1.00  0.00     0.014 C 
BRANCH   7  28
ATOM     28  O   UNL     1     174.242 164.647 154.574  1.00  0.00    -0.393 OA
ATOM     29  H   UNL     1     174.983 164.177 154.111  1.00  0.00     0.210 HD
ENDBRANCH   7  28
BRANCH  25  30
ATOM     30  O   UNL     1     174.498 157.971 155.060  1.00  0.00    -0.393 OA
ATOM     31  H   UNL     1     174.474 158.958 154.998  1.00  0.00     0.210 HD
ENDBRANCH  25  30
ENDBRANCH   2   6
ENDBRANCH   1   2
BRANCH   1  32
ATOM     32  C   UNL     1     175.450 162.236 152.464  1.00  0.00     0.031 C 
BRANCH  32  33
ATOM     33  C   UNL     1     175.507 160.791 152.022  1.00  0.00    -0.075 C 
ATOM     34  C   UNL     1     176.124 159.882 152.801  1.00  0.00     0.008 C 
BRANCH  33  35
ATOM     35  C   UNL     1     174.925 160.401 150.671  1.00  0.00     0.008 C 
ATOM     36  C   UNL     1     176.028 160.076 149.660  1.00  0.00     0.012 C 
ATOM     37  C   UNL     1     173.926 159.244 150.793  1.00  0.00     0.012 C 
ENDBRANCH  33  35
ENDBRANCH  32  33
ENDBRANCH   1  32
TORSDOF 8
ENDMDL
MODEL 3
REMARK VINA RESULT:    -6.034      3.118      6.739
REMARK INTER + INTRA:         -11.164
REMARK INTER:                  -8.140
REMARK INTRA:                  -3.025
REMARK UNBOUND:                -2.661
REMARK SMILES C=C(CC[C@H](C(=O)[O-])[C@H]1[C@H](O)C[C@]2(C)C3=C(CC[C@]12C)[C@@]1(C)CC[C@@H](O)C(C)(C)[C@@H]1CC3)C(C)C
REMARK SMILES IDX 4 1 5 2 6 3 7 4 8 5 9 6 10 7 19 8 12 9 13 10 18 11 20 12
REMARK SMILES IDX 14 13 15 14 17 15 16 16 32 17 21 18 31 19 30 20 23 21 22 22
REMARK SMILES IDX 27 23 24 24 25 25 28 26 29 27 11 28 26 30 3 32 2 33 1 34
REMARK SMILES IDX 33 35 34 36 35 37
REMARK H PARENT 11 29 26 31
REMARK Flexibility Score: inf
ROOT
ATOM      1  C   UNL     1     172.387 166.208 155.018  1.00  0.00     0.014 C 
ENDROOT
BRANCH   1   2
ATOM      2  C   UNL     1     172.310 165.614 153.581  1.00  0.00     0.042 C 
BRANCH   2   3
ATOM      3  C   UNL     1     172.803 164.180 153.588  1.00  0.00     0.045 C 
ATOM      4  O   UNL     1     173.618 163.811 154.469  1.00  0.00    -0.550 OA
ATOM      5  O   UNL     1     172.394 163.258 152.629  1.00  0.00    -0.550 OA
ENDBRANCH   2   3
BRANCH   2   6
ATOM      6  C   UNL     1     173.005 166.570 152.539  1.00  0.00     0.033 C 
ATOM      7  C   UNL     1     174.449 166.205 152.146  1.00  0.00     0.119 C 
ATOM      8  C   UNL     1     172.249 166.948 151.217  1.00  0.00    -0.017 C 
ATOM      9  C   UNL     1     174.646 166.730 150.718  1.00  0.00     0.043 C 
ATOM     10  C   UNL     1     173.408 167.608 150.357  1.00  0.00    -0.003 C 
ATOM     11  C   UNL     1     171.059 167.915 151.550  1.00  0.00     0.012 C 
ATOM     12  C   UNL     1     171.667 165.701 150.488  1.00  0.00     0.013 C 
ATOM     13  C   UNL     1     173.213 167.546 148.816  1.00  0.00     0.017 C 
ATOM     14  C   UNL     1     173.593 169.105 150.738  1.00  0.00    -0.064 C 
ATOM     15  C   UNL     1     171.123 169.244 150.815  1.00  0.00     0.032 C 
ATOM     16  C   UNL     1     172.488 169.886 150.982  1.00  0.00    -0.064 C 
ATOM     17  C   UNL     1     174.999 169.716 150.666  1.00  0.00     0.032 C 
ATOM     18  C   UNL     1     172.608 171.414 151.178  1.00  0.00    -0.008 C 
ATOM     19  C   UNL     1     175.132 171.208 150.998  1.00  0.00     0.009 C 
ATOM     20  C   UNL     1     173.984 171.700 151.886  1.00  0.00     0.007 C 
ATOM     21  C   UNL     1     171.454 171.968 152.065  1.00  0.00     0.014 C 
ATOM     22  C   UNL     1     172.473 172.016 149.751  1.00  0.00     0.016 C 
ATOM     23  C   UNL     1     174.220 173.138 152.511  1.00  0.00    -0.006 C 
ATOM     24  C   UNL     1     171.673 173.413 152.534  1.00  0.00     0.033 C 
ATOM     25  C   UNL     1     172.969 173.561 153.339  1.00  0.00     0.120 C 
ATOM     26  C   UNL     1     175.432 173.104 153.487  1.00  0.00     0.014 C 
ATOM     27  C   UNL     1     174.558 174.225 151.457  1.00  0.00     0.014 C 
BRANCH   7  28
ATOM     28  O   UNL     1     175.394 166.752 153.044  1.00  0.00    -0.393 OA
ATOM     29  H   UNL     1     176.097 166.071 153.209  1.00  0.00     0.210 HD
ENDBRANCH   7  28
BRANCH  25  30
ATOM     30  O   UNL     1     172.872 172.783 154.506  1.00  0.00    -0.393 OA
ATOM     31  H   UNL     1     173.763 172.787 154.938  1.00  0.00     0.210 HD
ENDBRANCH  25  30
ENDBRANCH   2   6
ENDBRANCH   1   2
BRANCH   1  32
ATOM     32  C   UNL     1     171.321 167.279 155.309  1.00  0.00     0.031 C 
BRANCH  32  33
ATOM     33  C   UNL     1     171.870 168.686 155.247  1.00  0.00    -0.075 C 
ATOM     34  C   UNL     1     171.099 169.680 154.769  1.00  0.00     0.008 C 
BRANCH  33  35
ATOM     35  C   UNL     1     173.311 168.942 155.664  1.00  0.00     0.008 C 
ATOM     36  C   UNL     1     174.131 169.526 154.509  1.00  0.00     0.012 C 
ATOM     37  C   UNL     1     173.396 169.833 156.909  1.00  0.00     0.012 C 
ENDBRANCH  33  35
ENDBRANCH  32  33
ENDBRANCH   1  32
TORSDOF 8
ENDMDL
MODEL 4
REMARK VINA RESULT:    -6.019      2.469      5.484
REMARK INTER + INTRA:         -11.143
REMARK INTER:                  -8.498
REMARK INTRA:                  -2.644
REMARK UNBOUND:                -2.661
REMARK SMILES C=C(CC[C@H](C(=O)[O-])[C@H]1[C@H](O)C[C@]2(C)C3=C(CC[C@]12C)[C@@]1(C)CC[C@@H](O)C(C)(C)[C@@H]1CC3)C(C)C
REMARK SMILES IDX 4 1 5 2 6 3 7 4 8 5 9 6 10 7 19 8 12 9 13 10 18 11 20 12
REMARK SMILES IDX 14 13 15 14 17 15 16 16 32 17 21 18 31 19 30 20 23 21 22 22
REMARK SMILES IDX 27 23 24 24 25 25 28 26 29 27 11 28 26 30 3 32 2 33 1 34
REMARK SMILES IDX 33 35 34 36 35 37
REMARK H PARENT 11 29 26 31
REMARK Flexibility Score: inf
ROOT
ATOM      1  C   UNL     1     175.704 172.166 154.956  1.00  0.00     0.014 C 
ENDROOT
BRANCH   1   2
ATOM      2  C   UNL     1     174.496 173.119 154.723  1.00  0.00     0.042 C 
BRANCH   2   3
ATOM      3  C   UNL     1     174.066 173.737 156.040  1.00  0.00     0.045 C 
ATOM      4  O   UNL     1     173.888 174.978 156.112  1.00  0.00    -0.550 OA
ATOM      5  O   UNL     1     173.880 172.968 157.185  1.00  0.00    -0.550 OA
ENDBRANCH   2   3
BRANCH   2   6
ATOM      6  C   UNL     1     173.360 172.398 153.905  1.00  0.00     0.033 C 
ATOM      7  C   UNL     1     171.956 172.412 154.539  1.00  0.00     0.119 C 
ATOM      8  C   UNL     1     173.180 172.728 152.381  1.00  0.00    -0.017 C 
ATOM      9  C   UNL     1     170.962 172.355 153.373  1.00  0.00     0.043 C 
ATOM     10  C   UNL     1     171.771 172.069 152.070  1.00  0.00    -0.003 C 
ATOM     11  C   UNL     1     174.374 172.118 151.567  1.00  0.00     0.012 C 
ATOM     12  C   UNL     1     173.142 174.260 152.106  1.00  0.00     0.013 C 
ATOM     13  C   UNL     1     170.991 172.693 150.878  1.00  0.00     0.017 C 
ATOM     14  C   UNL     1     171.926 170.550 151.773  1.00  0.00    -0.064 C 
ATOM     15  C   UNL     1     173.943 171.154 150.473  1.00  0.00     0.032 C 
ATOM     16  C   UNL     1     172.989 170.108 151.021  1.00  0.00    -0.064 C 
ATOM     17  C   UNL     1     170.794 169.598 152.183  1.00  0.00     0.032 C 
ATOM     18  C   UNL     1     173.087 168.643 150.543  1.00  0.00    -0.008 C 
ATOM     19  C   UNL     1     170.960 168.116 151.827  1.00  0.00     0.009 C 
ATOM     20  C   UNL     1     172.434 167.733 151.650  1.00  0.00     0.007 C 
ATOM     21  C   UNL     1     174.568 168.207 150.334  1.00  0.00     0.014 C 
ATOM     22  C   UNL     1     172.361 168.617 149.169  1.00  0.00     0.016 C 
ATOM     23  C   UNL     1     172.693 166.170 151.583  1.00  0.00    -0.006 C 
ATOM     24  C   UNL     1     174.746 166.694 150.142  1.00  0.00     0.033 C 
ATOM     25  C   UNL     1     174.210 165.901 151.339  1.00  0.00     0.120 C 
ATOM     26  C   UNL     1     172.318 165.508 152.941  1.00  0.00     0.014 C 
ATOM     27  C   UNL     1     171.840 165.445 150.509  1.00  0.00     0.014 C 
BRANCH   7  28
ATOM     28  O   UNL     1     171.773 171.339 155.441  1.00  0.00    -0.393 OA
ATOM     29  H   UNL     1     172.667 171.013 155.723  1.00  0.00     0.210 HD
ENDBRANCH   7  28
BRANCH  25  30
ATOM     30  O   UNL     1     174.954 166.239 152.482  1.00  0.00    -0.393 OA
ATOM     31  H   UNL     1     175.747 166.748 152.178  1.00  0.00     0.210 HD
ENDBRANCH  25  30
ENDBRANCH   2   6
ENDBRANCH   1   2
BRANCH   1  32
ATOM     32  C   UNL     1     175.363 170.674 154.788  1.00  0.00     0.031 C 
BRANCH  32  33
ATOM     33  C   UNL     1     175.288 169.937 156.105  1.00  0.00    -0.075 C 
ATOM     34  C   UNL     1     176.119 170.280 157.107  1.00  0.00     0.008 C 
BRANCH  33  35
ATOM     35  C   UNL     1     174.319 168.773 156.252  1.00  0.00     0.008 C 
ATOM     36  C   UNL     1     173.375 168.978 157.441  1.00  0.00     0.012 C 
ATOM     37  C   UNL     1     173.534 168.516 154.961  1.00  0.00     0.012 C 
ENDBRANCH  33  35
ENDBRANCH  32  33
ENDBRANCH   1  32
TORSDOF 8
ENDMDL
MODEL 5
REMARK VINA RESULT:    -5.908      2.639      5.380
REMARK INTER + INTRA:         -10.987
REMARK INTER:                  -8.410
REMARK INTRA:                  -2.576
REMARK UNBOUND:                -2.661
REMARK SMILES C=C(CC[C@H](C(=O)[O-])[C@H]1[C@H](O)C[C@]2(C)C3=C(CC[C@]12C)[C@@]1(C)CC[C@@H](O)C(C)(C)[C@@H]1CC3)C(C)C
REMARK SMILES IDX 4 1 5 2 6 3 7 4 8 5 9 6 10 7 19 8 12 9 13 10 18 11 20 12
REMARK SMILES IDX 14 13 15 14 17 15 16 16 32 17 21 18 31 19 30 20 23 21 22 22
REMARK SMILES IDX 27 23 24 24 25 25 28 26 29 27 11 28 26 30 3 32 2 33 1 34
REMARK SMILES IDX 33 35 34 36 35 37
REMARK H PARENT 11 29 26 31
REMARK Flexibility Score: inf
ROOT
ATOM      1  C   UNL     1     175.468 171.651 155.037  1.00  0.00     0.014 C 
ENDROOT
BRANCH   1   2
ATOM      2  C   UNL     1     175.028 172.313 153.699  1.00  0.00     0.042 C 
BRANCH   2   3
ATOM      3  C   UNL     1     174.704 173.777 153.930  1.00  0.00     0.045 C 
ATOM      4  O   UNL     1     174.900 174.607 153.009  1.00  0.00    -0.550 OA
ATOM      5  O   UNL     1     174.211 174.235 155.149  1.00  0.00    -0.550 OA
ENDBRANCH   2   3
BRANCH   2   6
ATOM      6  C   UNL     1     173.900 171.468 152.997  1.00  0.00     0.033 C 
ATOM      7  C   UNL     1     172.469 172.030 153.100  1.00  0.00     0.119 C 
ATOM      8  C   UNL     1     174.103 170.994 151.514  1.00  0.00    -0.017 C 
ATOM      9  C   UNL     1     171.730 171.543 151.848  1.00  0.00     0.043 C 
ATOM     10  C   UNL     1     172.644 170.504 151.127  1.00  0.00    -0.003 C 
ATOM     11  C   UNL     1     175.196 169.870 151.466  1.00  0.00     0.012 C 
ATOM     12  C   UNL     1     174.559 172.151 150.578  1.00  0.00     0.013 C 
ATOM     13  C   UNL     1     172.307 170.545 149.610  1.00  0.00     0.017 C 
ATOM     14  C   UNL     1     172.405 169.046 151.612  1.00  0.00    -0.064 C 
ATOM     15  C   UNL     1     174.711 168.566 150.854  1.00  0.00     0.032 C 
ATOM     16  C   UNL     1     173.413 168.118 151.502  1.00  0.00    -0.064 C 
ATOM     17  C   UNL     1     170.991 168.635 152.047  1.00  0.00     0.032 C 
ATOM     18  C   UNL     1     173.167 166.621 151.793  1.00  0.00    -0.008 C 
ATOM     19  C   UNL     1     170.784 167.175 152.469  1.00  0.00     0.009 C 
ATOM     20  C   UNL     1     172.091 166.525 152.937  1.00  0.00     0.007 C 
ATOM     21  C   UNL     1     174.472 165.908 152.260  1.00  0.00     0.014 C 
ATOM     22  C   UNL     1     172.727 166.012 150.433  1.00  0.00     0.016 C 
ATOM     23  C   UNL     1     171.895 165.131 153.667  1.00  0.00    -0.006 C 
ATOM     24  C   UNL     1     174.238 164.506 152.838  1.00  0.00     0.033 C 
ATOM     25  C   UNL     1     173.287 164.535 154.040  1.00  0.00     0.120 C 
ATOM     26  C   UNL     1     171.105 165.328 154.993  1.00  0.00     0.014 C 
ATOM     27  C   UNL     1     171.078 164.106 152.837  1.00  0.00     0.014 C 
BRANCH   7  28
ATOM     28  O   UNL     1     171.824 171.616 154.288  1.00  0.00    -0.393 OA
ATOM     29  H   UNL     1     172.198 170.737 154.556  1.00  0.00     0.210 HD
ENDBRANCH   7  28
BRANCH  25  30
ATOM     30  O   UNL     1     173.877 165.287 155.070  1.00  0.00    -0.393 OA
ATOM     31  H   UNL     1     174.635 164.758 155.425  1.00  0.00     0.210 HD
ENDBRANCH  25  30
ENDBRANCH   2   6
ENDBRANCH   1   2
BRANCH   1  32
ATOM     32  C   UNL     1     175.418 170.112 155.017  1.00  0.00     0.031 C 
BRANCH  32  33
ATOM     33  C   UNL     1     174.334 169.549 155.907  1.00  0.00    -0.075 C 
ATOM     34  C   UNL     1     173.433 168.689 155.394  1.00  0.00     0.008 C 
BRANCH  33  35
ATOM     35  C   UNL     1     174.237 170.017 157.351  1.00  0.00     0.008 C 
ATOM     36  C   UNL     1     172.830 170.526 157.681  1.00  0.00     0.012 C 
ATOM     37  C   UNL     1     174.676 168.926 158.335  1.00  0.00     0.012 C 
ENDBRANCH  33  35
ENDBRANCH  32  33
ENDBRANCH   1  32
TORSDOF 8
ENDMDL
MODEL 6
REMARK VINA RESULT:    -5.735      2.542      5.521
REMARK INTER + INTRA:         -10.743
REMARK INTER:                  -8.428
REMARK INTRA:                  -2.315
REMARK UNBOUND:                -2.661
REMARK SMILES C=C(CC[C@H](C(=O)[O-])[C@H]1[C@H](O)C[C@]2(C)C3=C(CC[C@]12C)[C@@]1(C)CC[C@@H](O)C(C)(C)[C@@H]1CC3)C(C)C
REMARK SMILES IDX 4 1 5 2 6 3 7 4 8 5 9 6 10 7 19 8 12 9 13 10 18 11 20 12
REMARK SMILES IDX 14 13 15 14 17 15 16 16 32 17 21 18 31 19 30 20 23 21 22 22
REMARK SMILES IDX 27 23 24 24 25 25 28 26 29 27 11 28 26 30 3 32 2 33 1 34
REMARK SMILES IDX 33 35 34 36 35 37
REMARK H PARENT 11 29 26 31
REMARK Flexibility Score: inf
ROOT
ATOM      1  C   UNL     1     172.129 173.619 153.785  1.00  0.00     0.014 C 
ENDROOT
BRANCH   1   2
ATOM      2  C   UNL     1     173.013 173.276 155.018  1.00  0.00     0.042 C 
BRANCH   2   3
ATOM      3  C   UNL     1     174.026 174.381 155.251  1.00  0.00     0.045 C 
ATOM      4  O   UNL     1     174.059 174.965 156.362  1.00  0.00    -0.550 OA
ATOM      5  O   UNL     1     174.914 174.783 154.258  1.00  0.00    -0.550 OA
ENDBRANCH   2   3
BRANCH   2   6
ATOM      6  C   UNL     1     173.606 171.821 154.897  1.00  0.00     0.033 C 
ATOM      7  C   UNL     1     175.140 171.707 154.985  1.00  0.00     0.119 C 
ATOM      8  C   UNL     1     173.007 170.669 155.778  1.00  0.00    -0.017 C 
ATOM      9  C   UNL     1     175.430 170.315 155.561  1.00  0.00     0.043 C 
ATOM     10  C   UNL     1     174.087 169.522 155.591  1.00  0.00    -0.003 C 
ATOM     11  C   UNL     1     171.574 170.300 155.257  1.00  0.00     0.012 C 
ATOM     12  C   UNL     1     172.886 171.069 157.278  1.00  0.00     0.013 C 
ATOM     13  C   UNL     1     174.170 168.488 156.750  1.00  0.00     0.017 C 
ATOM     14  C   UNL     1     173.824 168.724 154.282  1.00  0.00    -0.064 C 
ATOM     15  C   UNL     1     171.420 168.840 154.862  1.00  0.00     0.032 C 
ATOM     16  C   UNL     1     172.534 168.417 153.919  1.00  0.00    -0.064 C 
ATOM     17  C   UNL     1     175.022 168.152 153.512  1.00  0.00     0.032 C 
ATOM     18  C   UNL     1     172.231 167.473 152.736  1.00  0.00    -0.008 C 
ATOM     19  C   UNL     1     174.720 167.328 152.255  1.00  0.00     0.009 C 
ATOM     20  C   UNL     1     173.355 167.683 151.654  1.00  0.00     0.007 C 
ATOM     21  C   UNL     1     170.845 167.784 152.096  1.00  0.00     0.014 C 
ATOM     22  C   UNL     1     172.184 166.049 153.357  1.00  0.00     0.016 C 
ATOM     23  C   UNL     1     173.116 167.097 150.201  1.00  0.00    -0.006 C 
ATOM     24  C   UNL     1     170.613 167.083 150.750  1.00  0.00     0.033 C 
ATOM     25  C   UNL     1     171.679 167.465 149.718  1.00  0.00     0.120 C 
ATOM     26  C   UNL     1     174.120 167.732 149.196  1.00  0.00     0.014 C 
ATOM     27  C   UNL     1     173.337 165.564 150.106  1.00  0.00     0.014 C 
BRANCH   7  28
ATOM     28  O   UNL     1     175.757 171.896 153.728  1.00  0.00    -0.393 OA
ATOM     29  H   UNL     1     176.443 172.606 153.820  1.00  0.00     0.210 HD
ENDBRANCH   7  28
BRANCH  25  30
ATOM     30  O   UNL     1     171.592 168.843 149.459  1.00  0.00    -0.393 OA
ATOM     31  H   UNL     1     172.067 169.312 150.191  1.00  0.00     0.210 HD
ENDBRANCH  25  30
ENDBRANCH   2   6
ENDBRANCH   1   2
BRANCH   1  32
ATOM     32  C   UNL     1     172.287 172.638 152.611  1.00  0.00     0.031 C 
BRANCH  32  33
ATOM     33  C   UNL     1     172.553 173.333 151.295  1.00  0.00    -0.075 C 
ATOM     34  C   UNL     1     171.988 174.530 151.050  1.00  0.00     0.008 C 
BRANCH  33  35
ATOM     35  C   UNL     1     173.401 172.635 150.242  1.00  0.00     0.008 C 
ATOM     36  C   UNL     1     174.552 173.528 149.770  1.00  0.00     0.012 C 
ATOM     37  C   UNL     1     173.918 171.278 150.733  1.00  0.00     0.012 C 
ENDBRANCH  33  35
ENDBRANCH  32  33
ENDBRANCH   1  32
TORSDOF 8
ENDMDL
MODEL 7
REMARK VINA RESULT:    -5.709      2.475      6.955
REMARK INTER + INTRA:         -10.706
REMARK INTER:                  -8.756
REMARK INTRA:                  -1.950
REMARK UNBOUND:                -2.661
REMARK SMILES C=C(CC[C@H](C(=O)[O-])[C@H]1[C@H](O)C[C@]2(C)C3=C(CC[C@]12C)[C@@]1(C)CC[C@@H](O)C(C)(C)[C@@H]1CC3)C(C)C
REMARK SMILES IDX 4 1 5 2 6 3 7 4 8 5 9 6 10 7 19 8 12 9 13 10 18 11 20 12
REMARK SMILES IDX 14 13 15 14 17 15 16 16 32 17 21 18 31 19 30 20 23 21 22 22
REMARK SMILES IDX 27 23 24 24 25 25 28 26 29 27 11 28 26 30 3 32 2 33 1 34
REMARK SMILES IDX 33 35 34 36 35 37
REMARK H PARENT 11 29 26 31
REMARK Flexibility Score: inf
ROOT
ATOM      1  C   UNL     1     173.686 172.064 150.134  1.00  0.00     0.014 C 
ENDROOT
BRANCH   1   2
ATOM      2  C   UNL     1     173.556 170.958 151.220  1.00  0.00     0.042 C 
BRANCH   2   3
ATOM      3  C   UNL     1     174.610 169.890 150.998  1.00  0.00     0.045 C 
ATOM      4  O   UNL     1     175.020 169.658 149.834  1.00  0.00    -0.550 OA
ATOM      5  O   UNL     1     175.127 169.138 152.050  1.00  0.00    -0.550 OA
ENDBRANCH   2   3
BRANCH   2   6
ATOM      6  C   UNL     1     172.072 170.441 151.321  1.00  0.00     0.033 C 
ATOM      7  C   UNL     1     171.785 169.075 150.669  1.00  0.00     0.119 C 
ATOM      8  C   UNL     1     171.347 170.447 152.713  1.00  0.00    -0.017 C 
ATOM      9  C   UNL     1     170.620 168.463 151.457  1.00  0.00     0.043 C 
ATOM     10  C   UNL     1     170.065 169.561 152.417  1.00  0.00    -0.003 C 
ATOM     11  C   UNL     1     171.029 171.925 153.134  1.00  0.00     0.012 C 
ATOM     12  C   UNL     1     172.211 169.802 153.836  1.00  0.00     0.013 C 
ATOM     13  C   UNL     1     169.447 168.846 153.651  1.00  0.00     0.017 C 
ATOM     14  C   UNL     1     168.939 170.419 151.771  1.00  0.00    -0.064 C 
ATOM     15  C   UNL     1     169.554 172.188 153.389  1.00  0.00     0.032 C 
ATOM     16  C   UNL     1     168.710 171.696 152.226  1.00  0.00    -0.064 C 
ATOM     17  C   UNL     1     167.997 169.757 150.755  1.00  0.00     0.032 C 
ATOM     18  C   UNL     1     167.491 172.516 151.751  1.00  0.00    -0.008 C 
ATOM     19  C   UNL     1     166.868 170.621 150.180  1.00  0.00     0.009 C 
ATOM     20  C   UNL     1     167.197 172.116 150.257  1.00  0.00     0.007 C 
ATOM     21  C   UNL     1     167.769 174.047 151.823  1.00  0.00     0.014 C 
ATOM     22  C   UNL     1     166.355 172.168 152.753  1.00  0.00     0.016 C 
ATOM     23  C   UNL     1     166.221 173.038 149.414  1.00  0.00    -0.006 C 
ATOM     24  C   UNL     1     166.718 174.901 151.101  1.00  0.00     0.033 C 
ATOM     25  C   UNL     1     166.608 174.535 149.616  1.00  0.00     0.120 C 
ATOM     26  C   UNL     1     166.366 172.723 147.897  1.00  0.00     0.014 C 
ATOM     27  C   UNL     1     164.721 172.822 149.747  1.00  0.00     0.014 C 
BRANCH   7  28
ATOM     28  O   UNL     1     171.484 169.200 149.293  1.00  0.00    -0.393 OA
ATOM     29  H   UNL     1     170.792 169.903 149.189  1.00  0.00     0.210 HD
ENDBRANCH   7  28
BRANCH  25  30
ATOM     30  O   UNL     1     167.834 174.809 148.987  1.00  0.00    -0.393 OA
ATOM     31  H   UNL     1     168.543 174.361 149.512  1.00  0.00     0.210 HD
ENDBRANCH  25  30
ENDBRANCH   2   6
ENDBRANCH   1   2
BRANCH   1  32
ATOM     32  C   UNL     1     174.485 173.298 150.591  1.00  0.00     0.031 C 
BRANCH  32  33
ATOM     33  C   UNL     1     173.842 174.014 151.757  1.00  0.00    -0.075 C 
ATOM     34  C   UNL     1     172.617 174.554 151.611  1.00  0.00     0.008 C 
BRANCH  33  35
ATOM     35  C   UNL     1     174.621 174.173 153.054  1.00  0.00     0.008 C 
ATOM     36  C   UNL     1     174.571 172.894 153.896  1.00  0.00     0.012 C 
ATOM     37  C   UNL     1     176.067 174.613 152.802  1.00  0.00     0.012 C 
ENDBRANCH  33  35
ENDBRANCH  32  33
ENDBRANCH   1  32
TORSDOF 8
ENDMDL
MODEL 8
REMARK VINA RESULT:    -5.698      2.836      4.694
REMARK INTER + INTRA:         -10.691
REMARK INTER:                  -8.519
REMARK INTRA:                  -2.172
REMARK UNBOUND:                -2.661
REMARK SMILES C=C(CC[C@H](C(=O)[O-])[C@H]1[C@H](O)C[C@]2(C)C3=C(CC[C@]12C)[C@@]1(C)CC[C@@H](O)C(C)(C)[C@@H]1CC3)C(C)C
REMARK SMILES IDX 4 1 5 2 6 3 7 4 8 5 9 6 10 7 19 8 12 9 13 10 18 11 20 12
REMARK SMILES IDX 14 13 15 14 17 15 16 16 32 17 21 18 31 19 30 20 23 21 22 22
REMARK SMILES IDX 27 23 24 24 25 25 28 26 29 27 11 28 26 30 3 32 2 33 1 34
REMARK SMILES IDX 33 35 34 36 35 37
REMARK H PARENT 11 29 26 31
REMARK Flexibility Score: inf
ROOT
ATOM      1  C   UNL     1     173.288 173.953 152.594  1.00  0.00     0.014 C 
ENDROOT
BRANCH   1   2
ATOM      2  C   UNL     1     172.804 173.564 154.021  1.00  0.00     0.042 C 
BRANCH   2   3
ATOM      3  C   UNL     1     173.973 173.592 154.987  1.00  0.00     0.045 C 
ATOM      4  O   UNL     1     174.219 174.642 155.630  1.00  0.00    -0.550 OA
ATOM      5  O   UNL     1     174.801 172.488 155.170  1.00  0.00    -0.550 OA
ENDBRANCH   2   3
BRANCH   2   6
ATOM      6  C   UNL     1     171.979 172.223 153.989  1.00  0.00     0.033 C 
ATOM      7  C   UNL     1     171.586 171.637 155.359  1.00  0.00     0.119 C 
ATOM      8  C   UNL     1     170.715 172.118 153.064  1.00  0.00    -0.017 C 
ATOM      9  C   UNL     1     170.284 170.859 155.131  1.00  0.00     0.043 C 
ATOM     10  C   UNL     1     170.034 170.786 153.592  1.00  0.00    -0.003 C 
ATOM     11  C   UNL     1     171.166 172.063 151.562  1.00  0.00     0.012 C 
ATOM     12  C   UNL     1     169.753 173.330 153.234  1.00  0.00     0.013 C 
ATOM     13  C   UNL     1     168.500 170.684 153.363  1.00  0.00     0.017 C 
ATOM     14  C   UNL     1     170.683 169.536 152.931  1.00  0.00    -0.064 C 
ATOM     15  C   UNL     1     170.682 170.828 150.820  1.00  0.00     0.032 C 
ATOM     16  C   UNL     1     171.017 169.567 151.598  1.00  0.00    -0.064 C 
ATOM     17  C   UNL     1     170.778 168.237 153.744  1.00  0.00     0.032 C 
ATOM     18  C   UNL     1     171.486 168.298 150.854  1.00  0.00    -0.008 C 
ATOM     19  C   UNL     1     171.375 167.012 153.040  1.00  0.00     0.009 C 
ATOM     20  C   UNL     1     172.290 167.412 151.877  1.00  0.00     0.007 C 
ATOM     21  C   UNL     1     172.411 168.651 149.650  1.00  0.00     0.014 C 
ATOM     22  C   UNL     1     170.186 167.645 150.309  1.00  0.00     0.016 C 
ATOM     23  C   UNL     1     173.170 166.222 151.308  1.00  0.00    -0.006 C 
ATOM     24  C   UNL     1     173.138 167.438 149.052  1.00  0.00     0.033 C 
ATOM     25  C   UNL     1     174.009 166.726 150.093  1.00  0.00     0.120 C 
ATOM     26  C   UNL     1     174.173 165.733 152.392  1.00  0.00     0.014 C 
ATOM     27  C   UNL     1     172.340 164.974 150.906  1.00  0.00     0.014 C 
BRANCH   7  28
ATOM     28  O   UNL     1     172.604 170.815 155.893  1.00  0.00    -0.393 OA
ATOM     29  H   UNL     1     173.315 171.400 156.263  1.00  0.00     0.210 HD
ENDBRANCH   7  28
BRANCH  25  30
ATOM     30  O   UNL     1     175.013 167.607 150.528  1.00  0.00    -0.393 OA
ATOM     31  H   UNL     1     175.863 167.314 150.112  1.00  0.00     0.210 HD
ENDBRANCH  25  30
ENDBRANCH   2   6
ENDBRANCH   1   2
BRANCH   1  32
ATOM     32  C   UNL     1     174.640 173.331 152.202  1.00  0.00     0.031 C 
BRANCH  32  33
ATOM     33  C   UNL     1     174.600 172.635 150.861  1.00  0.00    -0.075 C 
ATOM     34  C   UNL     1     174.521 173.368 149.734  1.00  0.00     0.008 C 
BRANCH  33  35
ATOM     35  C   UNL     1     174.581 171.115 150.811  1.00  0.00     0.008 C 
ATOM     36  C   UNL     1     175.730 170.569 149.958  1.00  0.00     0.012 C 
ATOM     37  C   UNL     1     174.593 170.498 152.215  1.00  0.00     0.012 C 
ENDBRANCH  33  35
ENDBRANCH  32  33
ENDBRANCH   1  32
TORSDOF 8
ENDMDL
MODEL 9
REMARK VINA RESULT:    -5.439      2.865      4.979
REMARK INTER + INTRA:         -10.325
REMARK INTER:                  -7.920
REMARK INTRA:                  -2.405
REMARK UNBOUND:                -2.661
REMARK SMILES C=C(CC[C@H](C(=O)[O-])[C@H]1[C@H](O)C[C@]2(C)C3=C(CC[C@]12C)[C@@]1(C)CC[C@@H](O)C(C)(C)[C@@H]1CC3)C(C)C
REMARK SMILES IDX 4 1 5 2 6 3 7 4 8 5 9 6 10 7 19 8 12 9 13 10 18 11 20 12
REMARK SMILES IDX 14 13 15 14 17 15 16 16 32 17 21 18 31 19 30 20 23 21 22 22
REMARK SMILES IDX 27 23 24 24 25 25 28 26 29 27 11 28 26 30 3 32 2 33 1 34
REMARK SMILES IDX 33 35 34 36 35 37
REMARK H PARENT 11 29 26 31
REMARK Flexibility Score: inf
ROOT
ATOM      1  C   UNL     1     174.105 172.969 152.763  1.00  0.00     0.014 C 
ENDROOT
BRANCH   1   2
ATOM      2  C   UNL     1     174.423 172.454 151.329  1.00  0.00     0.042 C 
BRANCH   2   3
ATOM      3  C   UNL     1     174.150 173.549 150.315  1.00  0.00     0.045 C 
ATOM      4  O   UNL     1     175.041 173.862 149.488  1.00  0.00    -0.550 OA
ATOM      5  O   UNL     1     172.940 174.235 150.285  1.00  0.00    -0.550 OA
ENDBRANCH   2   3
BRANCH   2   6
ATOM      6  C   UNL     1     173.710 171.077 151.055  1.00  0.00     0.033 C 
ATOM      7  C   UNL     1     172.620 171.085 149.966  1.00  0.00     0.119 C 
ATOM      8  C   UNL     1     174.580 169.791 150.828  1.00  0.00    -0.017 C 
ATOM      9  C   UNL     1     172.600 169.669 149.375  1.00  0.00     0.043 C 
ATOM     10  C   UNL     1     173.505 168.766 150.269  1.00  0.00    -0.003 C 
ATOM     11  C   UNL     1     175.244 169.359 152.182  1.00  0.00     0.012 C 
ATOM     12  C   UNL     1     175.714 170.018 149.785  1.00  0.00     0.013 C 
ATOM     13  C   UNL     1     174.070 167.626 149.376  1.00  0.00     0.017 C 
ATOM     14  C   UNL     1     172.727 168.093 151.436  1.00  0.00    -0.064 C 
ATOM     15  C   UNL     1     174.900 167.941 152.610  1.00  0.00     0.032 C 
ATOM     16  C   UNL     1     173.398 167.717 152.575  1.00  0.00    -0.064 C 
ATOM     17  C   UNL     1     171.256 167.709 151.218  1.00  0.00     0.032 C 
ATOM     18  C   UNL     1     172.713 166.882 153.678  1.00  0.00    -0.008 C 
ATOM     19  C   UNL     1     170.538 167.001 152.373  1.00  0.00     0.009 C 
ATOM     20  C   UNL     1     171.196 167.301 153.725  1.00  0.00     0.007 C 
ATOM     21  C   UNL     1     173.356 167.140 155.074  1.00  0.00     0.014 C 
ATOM     22  C   UNL     1     172.967 165.401 153.279  1.00  0.00     0.016 C 
ATOM     23  C   UNL     1     170.334 166.854 154.978  1.00  0.00    -0.006 C 
ATOM     24  C   UNL     1     172.543 166.570 156.244  1.00  0.00     0.033 C 
ATOM     25  C   UNL     1     171.125 167.148 156.290  1.00  0.00     0.120 C 
ATOM     26  C   UNL     1     169.014 167.676 155.039  1.00  0.00     0.014 C 
ATOM     27  C   UNL     1     169.902 165.364 154.935  1.00  0.00     0.014 C 
BRANCH   7  28
ATOM     28  O   UNL     1     171.359 171.458 150.484  1.00  0.00    -0.393 OA
ATOM     29  H   UNL     1     170.656 171.013 149.943  1.00  0.00     0.210 HD
ENDBRANCH   7  28
BRANCH  25  30
ATOM     30  O   UNL     1     171.204 168.534 156.509  1.00  0.00    -0.393 OA
ATOM     31  H   UNL     1     172.055 168.847 156.113  1.00  0.00     0.210 HD
ENDBRANCH  25  30
ENDBRANCH   2   6
ENDBRANCH   1   2
BRANCH   1  32
ATOM     32  C   UNL     1     175.174 172.607 153.808  1.00  0.00     0.031 C 
BRANCH  32  33
ATOM     33  C   UNL     1     174.681 171.608 154.831  1.00  0.00    -0.075 C 
ATOM     34  C   UNL     1     173.409 171.172 154.774  1.00  0.00     0.008 C 
BRANCH  33  35
ATOM     35  C   UNL     1     175.613 171.165 155.949  1.00  0.00     0.008 C 
ATOM     36  C   UNL     1     174.985 171.401 157.326  1.00  0.00     0.012 C 
ATOM     37  C   UNL     1     176.051 169.705 155.783  1.00  0.00     0.012 C 
ENDBRANCH  33  35
ENDBRANCH  32  33
ENDBRANCH   1  32
TORSDOF 8
ENDMDL
