MODEL 1
REMARK VINA RESULT:     0.202      0.000      0.000
REMARK INTER + INTRA:           0.208
REMARK INTER:                   0.208
REMARK INTRA:                   0.000
REMARK UNBOUND:                 0.000
REMARK SMILES Nc1ncnc2nc[nH]c12
REMARK SMILES IDX 8 1 7 2 6 3 5 4 4 5 3 6 2 7 10 8 9 9 1 11
REMARK H PARENT 9 10 1 12 1 13
REMARK Flexibility Score: inf
ROOT
ATOM      1  C   UNL     1      14.860   6.083  22.771  1.00  0.00     0.199 A 
ATOM      2  N   UNL     1      13.665   6.051  23.422  1.00  0.00    -0.217 NA
ATOM      3  C   UNL     1      13.814   7.021  24.340  1.00  0.00     0.182 A 
ATOM      4  N   UNL     1      12.900   7.407  25.262  1.00  0.00    -0.215 NA
ATOM      5  C   UNL     1      13.236   8.419  26.118  1.00  0.00     0.226 A 
ATOM      6  N   UNL     1      14.466   9.020  26.037  1.00  0.00    -0.217 NA
ATOM      7  C   UNL     1      15.388   8.632  25.106  1.00  0.00     0.152 A 
ATOM      8  C   UNL     1      15.032   7.600  24.243  1.00  0.00     0.127 A 
ATOM      9  N   UNL     1      15.717   7.020  23.250  1.00  0.00    -0.340 N 
ATOM     10  H   UNL     1      16.682   7.229  22.913  1.00  0.00     0.168 HD
ENDROOT
BRANCH   7  11
ATOM     11  N   UNL     1      16.663   9.273  25.041  1.00  0.00    -0.382 N 
ATOM     12  H   UNL     1      17.077   9.703  25.898  1.00  0.00     0.158 HD
ATOM     13  H   UNL     1      17.201   9.324  24.147  1.00  0.00     0.158 HD
ENDBRANCH   7  11
TORSDOF 1
ENDMDL
