MODEL 1
REMARK VINA RESULT:    -5.094      0.000      0.000
REMARK INTER + INTRA:          -6.753
REMARK INTER:                  -6.583
REMARK INTRA:                  -0.170
REMARK UNBOUND:                -0.170
REMARK SMILES CCCCCCC(=O)[O-]
REMARK SMILES IDX 5 1 6 2 7 3 8 4 9 5 4 6 3 7 2 8 1 9
REMARK H PARENT
REMARK Flexibility Score: inf
ROOT
ATOM      1  C   UNL     1      94.145 120.885 120.176  1.00  0.00     0.006 C 
ENDROOT
BRANCH   1   2
ATOM      2  C   UNL     1      93.173 121.659 121.076  1.00  0.00     0.053 C 
BRANCH   2   3
ATOM      3  C   UNL     1      93.823 121.986 122.384  1.00  0.00     0.041 C 
ATOM      4  O   UNL     1      95.009 121.626 122.611  1.00  0.00    -0.550 OA
ATOM      5  O   UNL     1      93.137 122.730 123.335  1.00  0.00    -0.550 OA
ENDBRANCH   2   3
ENDBRANCH   1   2
BRANCH   1   6
ATOM      6  C   UNL     1      93.937 121.184 118.682  1.00  0.00     0.000 C 
BRANCH   6   7
ATOM      7  C   UNL     1      92.552 121.786 118.389  1.00  0.00    -0.000 C 
BRANCH   7   8
ATOM      8  C   UNL     1      92.332 122.053 116.892  1.00  0.00    -0.003 C 
ATOM      9  C   UNL     1      92.749 120.875 116.012  1.00  0.00     0.004 C 
ENDBRANCH   7   8
ENDBRANCH   6   7
ENDBRANCH   1   6
TORSDOF 5
ENDMDL
MODEL 2
REMARK VINA RESULT:    -5.056      0.648      1.183
REMARK INTER + INTRA:          -6.704
REMARK INTER:                  -6.512
REMARK INTRA:                  -0.192
REMARK UNBOUND:                -0.170
REMARK SMILES CCCCCCC(=O)[O-]
REMARK SMILES IDX 5 1 6 2 7 3 8 4 9 5 4 6 3 7 2 8 1 9
REMARK H PARENT
REMARK Flexibility Score: inf
ROOT
ATOM      1  C   UNL     1      94.787 121.178 119.965  1.00  0.00     0.006 C 
ENDROOT
BRANCH   1   2
ATOM      2  C   UNL     1      93.818 121.174 121.155  1.00  0.00     0.053 C 
BRANCH   2   3
ATOM      3  C   UNL     1      94.337 122.050 122.251  1.00  0.00     0.041 C 
ATOM      4  O   UNL     1      93.598 122.351 123.226  1.00  0.00    -0.550 OA
ATOM      5  O   UNL     1      95.652 122.495 122.223  1.00  0.00    -0.550 OA
ENDBRANCH   2   3
ENDBRANCH   1   2
BRANCH   1   6
ATOM      6  C   UNL     1      94.062 121.199 118.609  1.00  0.00     0.000 C 
BRANCH   6   7
ATOM      7  C   UNL     1      92.671 121.852 118.695  1.00  0.00    -0.000 C 
BRANCH   7   8
ATOM      8  C   UNL     1      91.958 121.897 117.334  1.00  0.00    -0.003 C 
ATOM      9  C   UNL     1      92.623 121.007 116.286  1.00  0.00     0.004 C 
ENDBRANCH   7   8
ENDBRANCH   6   7
ENDBRANCH   1   6
TORSDOF 5
ENDMDL
MODEL 3
REMARK VINA RESULT:    -4.998      3.276      5.061
REMARK INTER + INTRA:          -6.629
REMARK INTER:                  -6.442
REMARK INTRA:                  -0.187
REMARK UNBOUND:                -0.170
REMARK SMILES CCCCCCC(=O)[O-]
REMARK SMILES IDX 5 1 6 2 7 3 8 4 9 5 4 6 3 7 2 8 1 9
REMARK H PARENT
REMARK Flexibility Score: inf
ROOT
ATOM      1  C   UNL     1      94.313 121.080 118.618  1.00  0.00     0.006 C 
ENDROOT
BRANCH   1   2
ATOM      2  C   UNL     1      92.931 121.748 118.612  1.00  0.00     0.053 C 
BRANCH   2   3
ATOM      3  C   UNL     1      92.619 122.287 117.251  1.00  0.00     0.041 C 
ATOM      4  O   UNL     1      92.597 123.530 117.051  1.00  0.00    -0.550 OA
ATOM      5  O   UNL     1      92.399 121.416 116.192  1.00  0.00    -0.550 OA
ENDBRANCH   2   3
ENDBRANCH   1   2
BRANCH   1   6
ATOM      6  C   UNL     1      94.998 121.145 119.993  1.00  0.00     0.000 C 
BRANCH   6   7
ATOM      7  C   UNL     1      93.991 121.294 121.147  1.00  0.00    -0.000 C 
BRANCH   7   8
ATOM      8  C   UNL     1      94.641 121.839 122.429  1.00  0.00    -0.003 C 
ATOM      9  C   UNL     1      96.076 122.315 122.209  1.00  0.00     0.004 C 
ENDBRANCH   7   8
ENDBRANCH   6   7
ENDBRANCH   1   6
TORSDOF 5
ENDMDL
MODEL 4
REMARK VINA RESULT:    -4.932      0.930      1.509
REMARK INTER + INTRA:          -6.543
REMARK INTER:                  -6.382
REMARK INTRA:                  -0.161
REMARK UNBOUND:                -0.170
REMARK SMILES CCCCCCC(=O)[O-]
REMARK SMILES IDX 5 1 6 2 7 3 8 4 9 5 4 6 3 7 2 8 1 9
REMARK H PARENT
REMARK Flexibility Score: inf
ROOT
ATOM      1  C   UNL     1      93.788 121.589 121.044  1.00  0.00     0.006 C 
ENDROOT
BRANCH   1   2
ATOM      2  C   UNL     1      94.285 121.395 122.483  1.00  0.00     0.053 C 
BRANCH   2   3
ATOM      3  C   UNL     1      94.347 122.710 123.195  1.00  0.00     0.041 C 
ATOM      4  O   UNL     1      95.422 123.367 123.220  1.00  0.00    -0.550 OA
ATOM      5  O   UNL     1      93.207 123.235 123.788  1.00  0.00    -0.550 OA
ENDBRANCH   2   3
ENDBRANCH   1   2
BRANCH   1   6
ATOM      6  C   UNL     1      94.844 121.208 119.995  1.00  0.00     0.000 C 
BRANCH   6   7
ATOM      7  C   UNL     1      94.223 120.875 118.627  1.00  0.00    -0.000 C 
BRANCH   7   8
ATOM      8  C   UNL     1      92.899 121.618 118.386  1.00  0.00    -0.003 C 
ATOM      9  C   UNL     1      92.367 121.435 116.966  1.00  0.00     0.004 C 
ENDBRANCH   7   8
ENDBRANCH   6   7
ENDBRANCH   1   6
TORSDOF 5
ENDMDL
MODEL 5
REMARK VINA RESULT:    -4.806      1.441      2.620
REMARK INTER + INTRA:          -6.381
REMARK INTER:                  -6.194
REMARK INTRA:                  -0.187
REMARK UNBOUND:                -0.170
REMARK SMILES CCCCCCC(=O)[O-]
REMARK SMILES IDX 5 1 6 2 7 3 8 4 9 5 4 6 3 7 2 8 1 9
REMARK H PARENT
REMARK Flexibility Score: inf
ROOT
ATOM      1  C   UNL     1      93.511 121.968 122.246  1.00  0.00     0.006 C 
ENDROOT
BRANCH   1   2
ATOM      2  C   UNL     1      94.995 122.133 122.601  1.00  0.00     0.053 C 
BRANCH   2   3
ATOM      3  C   UNL     1      95.162 123.149 123.685  1.00  0.00     0.041 C 
ATOM      4  O   UNL     1      94.153 123.705 124.195  1.00  0.00    -0.550 OA
ATOM      5  O   UNL     1      96.429 123.449 124.169  1.00  0.00    -0.550 OA
ENDBRANCH   2   3
ENDBRANCH   1   2
BRANCH   1   6
ATOM      6  C   UNL     1      93.292 121.570 120.777  1.00  0.00     0.000 C 
BRANCH   6   7
ATOM      7  C   UNL     1      94.600 121.164 120.075  1.00  0.00    -0.000 C 
BRANCH   7   8
ATOM      8  C   UNL     1      94.399 120.876 118.579  1.00  0.00    -0.003 C 
ATOM      9  C   UNL     1      93.256 121.683 117.967  1.00  0.00     0.004 C 
ENDBRANCH   7   8
ENDBRANCH   6   7
ENDBRANCH   1   6
TORSDOF 5
ENDMDL
MODEL 6
REMARK VINA RESULT:    -4.781      2.822      5.277
REMARK INTER + INTRA:          -6.349
REMARK INTER:                  -6.191
REMARK INTRA:                  -0.157
REMARK UNBOUND:                -0.170
REMARK SMILES CCCCCCC(=O)[O-]
REMARK SMILES IDX 5 1 6 2 7 3 8 4 9 5 4 6 3 7 2 8 1 9
REMARK H PARENT
REMARK Flexibility Score: inf
ROOT
ATOM      1  C   UNL     1      93.525 121.551 121.222  1.00  0.00     0.006 C 
ENDROOT
BRANCH   1   2
ATOM      2  C   UNL     1      94.252 120.973 120.001  1.00  0.00     0.053 C 
BRANCH   2   3
ATOM      3  C   UNL     1      93.527 121.335 118.743  1.00  0.00     0.041 C 
ATOM      4  O   UNL     1      93.946 120.922 117.629  1.00  0.00    -0.550 OA
ATOM      5  O   UNL     1      92.361 122.087 118.804  1.00  0.00    -0.550 OA
ENDBRANCH   2   3
ENDBRANCH   1   2
BRANCH   1   6
ATOM      6  C   UNL     1      94.388 121.527 122.494  1.00  0.00     0.000 C 
BRANCH   6   7
ATOM      7  C   UNL     1      95.826 122.011 122.239  1.00  0.00    -0.000 C 
BRANCH   7   8
ATOM      8  C   UNL     1      96.491 122.573 123.505  1.00  0.00    -0.003 C 
ATOM      9  C   UNL     1      95.786 123.818 124.043  1.00  0.00     0.004 C 
ENDBRANCH   7   8
ENDBRANCH   6   7
ENDBRANCH   1   6
TORSDOF 5
ENDMDL
MODEL 7
REMARK VINA RESULT:    -4.779      2.799      5.103
REMARK INTER + INTRA:          -6.346
REMARK INTER:                  -6.180
REMARK INTRA:                  -0.166
REMARK UNBOUND:                -0.170
REMARK SMILES CCCCCCC(=O)[O-]
REMARK SMILES IDX 5 1 6 2 7 3 8 4 9 5 4 6 3 7 2 8 1 9
REMARK H PARENT
REMARK Flexibility Score: inf
ROOT
ATOM      1  C   UNL     1      94.168 121.146 120.542  1.00  0.00     0.006 C 
ENDROOT
BRANCH   1   2
ATOM      2  C   UNL     1      94.458 120.954 119.047  1.00  0.00     0.053 C 
BRANCH   2   3
ATOM      3  C   UNL     1      93.272 121.358 118.230  1.00  0.00     0.041 C 
ATOM      4  O   UNL     1      92.392 122.115 118.719  1.00  0.00    -0.550 OA
ATOM      5  O   UNL     1      93.161 120.939 116.910  1.00  0.00    -0.550 OA
ENDBRANCH   2   3
ENDBRANCH   1   2
BRANCH   1   6
ATOM      6  C   UNL     1      95.400 121.619 121.330  1.00  0.00     0.000 C 
BRANCH   6   7
ATOM      7  C   UNL     1      95.023 122.442 122.574  1.00  0.00    -0.000 C 
BRANCH   7   8
ATOM      8  C   UNL     1      93.531 122.330 122.924  1.00  0.00    -0.003 C 
ATOM      9  C   UNL     1      93.157 123.107 124.185  1.00  0.00     0.004 C 
ENDBRANCH   7   8
ENDBRANCH   6   7
ENDBRANCH   1   6
TORSDOF 5
ENDMDL
MODEL 8
REMARK VINA RESULT:    -4.562      3.039      5.798
REMARK INTER + INTRA:          -6.066
REMARK INTER:                  -5.958
REMARK INTRA:                  -0.108
REMARK UNBOUND:                -0.170
REMARK SMILES CCCCCCC(=O)[O-]
REMARK SMILES IDX 5 1 6 2 7 3 8 4 9 5 4 6 3 7 2 8 1 9
REMARK H PARENT
REMARK Flexibility Score: inf
ROOT
ATOM      1  C   UNL     1      95.724 122.000 121.390  1.00  0.00     0.006 C 
ENDROOT
BRANCH   1   2
ATOM      2  C   UNL     1      94.377 121.266 121.344  1.00  0.00     0.053 C 
BRANCH   2   3
ATOM      3  C   UNL     1      93.796 121.329 119.966  1.00  0.00     0.041 C 
ATOM      4  O   UNL     1      92.657 121.834 119.780  1.00  0.00    -0.550 OA
ATOM      5  O   UNL     1      94.532 120.875 118.880  1.00  0.00    -0.550 OA
ENDBRANCH   2   3
ENDBRANCH   1   2
BRANCH   1   6
ATOM      6  C   UNL     1      96.239 122.204 122.824  1.00  0.00     0.000 C 
BRANCH   6   7
ATOM      7  C   UNL     1      95.330 123.129 123.651  1.00  0.00    -0.000 C 
BRANCH   7   8
ATOM      8  C   UNL     1      96.089 124.331 124.235  1.00  0.00    -0.003 C 
ATOM      9  C   UNL     1      96.872 123.981 125.499  1.00  0.00     0.004 C 
ENDBRANCH   7   8
ENDBRANCH   6   7
ENDBRANCH   1   6
TORSDOF 5
ENDMDL
MODEL 9
REMARK VINA RESULT:    -4.388      3.484      6.273
REMARK INTER + INTRA:          -5.841
REMARK INTER:                  -5.642
REMARK INTRA:                  -0.199
REMARK UNBOUND:                -0.170
REMARK SMILES CCCCCCC(=O)[O-]
REMARK SMILES IDX 5 1 6 2 7 3 8 4 9 5 4 6 3 7 2 8 1 9
REMARK H PARENT
REMARK Flexibility Score: inf
ROOT
ATOM      1  C   UNL     1      95.965 122.424 122.448  1.00  0.00     0.006 C 
ENDROOT
BRANCH   1   2
ATOM      2  C   UNL     1      94.790 121.439 122.495  1.00  0.00     0.053 C 
BRANCH   2   3
ATOM      3  C   UNL     1      93.518 122.125 122.108  1.00  0.00     0.041 C 
ATOM      4  O   UNL     1      93.115 123.127 122.757  1.00  0.00    -0.550 OA
ATOM      5  O   UNL     1      92.801 121.690 121.001  1.00  0.00    -0.550 OA
ENDBRANCH   2   3
ENDBRANCH   1   2
BRANCH   1   6
ATOM      6  C   UNL     1      96.494 122.785 123.845  1.00  0.00     0.000 C 
BRANCH   6   7
ATOM      7  C   UNL     1      96.099 124.208 124.275  1.00  0.00    -0.000 C 
BRANCH   7   8
ATOM      8  C   UNL     1      96.983 124.746 125.411  1.00  0.00    -0.003 C 
ATOM      9  C   UNL     1      97.689 123.637 126.189  1.00  0.00     0.004 C 
ENDBRANCH   7   8
ENDBRANCH   6   7
ENDBRANCH   1   6
TORSDOF 5
ENDMDL
