MODEL 1
REMARK VINA RESULT:    -4.114      0.000      0.000
REMARK INTER + INTRA:          -8.062
REMARK INTER:                  -7.480
REMARK INTRA:                  -0.582
REMARK UNBOUND:                -0.582
REMARK SMILES CCCCCCCCCCCCCC[C@@H](C)C(=O)[O-]
REMARK SMILES IDX 9 1 10 2 11 3 12 4 13 5 14 6 15 7 16 8 17 9 18 10 19 11 8 12
REMARK SMILES IDX 7 13 6 14 5 15 4 16 3 17 2 18 1 19
REMARK H PARENT
REMARK Flexibility Score: inf
ROOT
ATOM      1  C   UNL     1       1.439  15.994  22.569  1.00  0.00     0.000 C 
ENDROOT
BRANCH   1   2
ATOM      2  C   UNL     1       2.812  16.482  22.078  1.00  0.00     0.000 C 
BRANCH   2   3
ATOM      3  C   UNL     1       3.947  15.505  22.430  1.00  0.00     0.000 C 
BRANCH   3   4
ATOM      4  C   UNL     1       5.316  15.977  21.912  1.00  0.00     0.000 C 
BRANCH   4   5
ATOM      5  C   UNL     1       6.450  15.737  22.924  1.00  0.00     0.001 C 
BRANCH   5   6
ATOM      6  C   UNL     1       7.702  16.588  22.626  1.00  0.00     0.009 C 
BRANCH   6   7
ATOM      7  C   UNL     1       8.310  16.329  21.229  1.00  0.00     0.032 C 
ATOM      8  C   UNL     1       9.107  17.549  20.751  1.00  0.00     0.014 C 
BRANCH   7   9
ATOM      9  C   UNL     1       9.188  15.108  21.217  1.00  0.00     0.044 C 
ATOM     10  O   UNL     1       8.704  13.974  20.960  1.00  0.00    -0.550 OA
ATOM     11  O   UNL     1      10.547  15.230  21.477  1.00  0.00    -0.550 OA
ENDBRANCH   7   9
ENDBRANCH   6   7
ENDBRANCH   5   6
ENDBRANCH   4   5
ENDBRANCH   3   4
ENDBRANCH   2   3
ENDBRANCH   1   2
BRANCH   1  12
ATOM     12  C   UNL     1       0.291  16.416  21.639  1.00  0.00     0.000 C 
BRANCH  12  13
ATOM     13  C   UNL     1      -0.665  15.245  21.381  1.00  0.00    -0.000 C 
BRANCH  13  14
ATOM     14  C   UNL     1      -2.099  15.742  21.162  1.00  0.00    -0.000 C 
BRANCH  14  15
ATOM     15  C   UNL     1      -2.551  16.645  22.318  1.00  0.00    -0.000 C 
BRANCH  15  16
ATOM     16  C   UNL     1      -4.061  16.930  22.290  1.00  0.00    -0.000 C 
BRANCH  16  17
ATOM     17  C   UNL     1      -4.907  15.662  22.509  1.00  0.00    -0.000 C 
BRANCH  17  18
ATOM     18  C   UNL     1      -5.701  15.262  21.258  1.00  0.00    -0.003 C 
ATOM     19  C   UNL     1      -7.172  14.976  21.558  1.00  0.00     0.004 C 
ENDBRANCH  17  18
ENDBRANCH  16  17
ENDBRANCH  15  16
ENDBRANCH  14  15
ENDBRANCH  13  14
ENDBRANCH  12  13
ENDBRANCH   1  12
TORSDOF 14
ENDMDL
MODEL 2
REMARK VINA RESULT:    -4.103      5.452     11.750
REMARK INTER + INTRA:          -8.043
REMARK INTER:                  -7.655
REMARK INTRA:                  -0.389
REMARK UNBOUND:                -0.582
REMARK SMILES CCCCCCCCCCCCCC[C@@H](C)C(=O)[O-]
REMARK SMILES IDX 9 1 10 2 11 3 12 4 13 5 14 6 15 7 16 8 17 9 18 10 19 11 8 12
REMARK SMILES IDX 7 13 6 14 5 15 4 16 3 17 2 18 1 19
REMARK H PARENT
REMARK Flexibility Score: inf
ROOT
ATOM      1  C   UNL     1       2.013  16.121  22.686  1.00  0.00     0.000 C 
ENDROOT
BRANCH   1   2
ATOM      2  C   UNL     1       0.844  16.075  21.688  1.00  0.00     0.000 C 
BRANCH   2   3
ATOM      3  C   UNL     1      -0.521  16.289  22.366  1.00  0.00     0.000 C 
BRANCH   3   4
ATOM      4  C   UNL     1      -1.701  15.966  21.435  1.00  0.00     0.000 C 
BRANCH   4   5
ATOM      5  C   UNL     1      -3.021  16.603  21.905  1.00  0.00     0.001 C 
BRANCH   5   6
ATOM      6  C   UNL     1      -4.209  15.619  21.848  1.00  0.00     0.009 C 
BRANCH   6   7
ATOM      7  C   UNL     1      -5.569  16.271  22.184  1.00  0.00     0.032 C 
ATOM      8  C   UNL     1      -5.493  17.794  22.022  1.00  0.00     0.014 C 
BRANCH   7   9
ATOM      9  C   UNL     1      -6.680  15.723  21.330  1.00  0.00     0.044 C 
ATOM     10  O   UNL     1      -6.931  14.488  21.323  1.00  0.00    -0.550 OA
ATOM     11  O   UNL     1      -7.445  16.583  20.554  1.00  0.00    -0.550 OA
ENDBRANCH   7   9
ENDBRANCH   6   7
ENDBRANCH   5   6
ENDBRANCH   4   5
ENDBRANCH   3   4
ENDBRANCH   2   3
ENDBRANCH   1   2
BRANCH   1  12
ATOM     12  C   UNL     1       3.381  16.220  21.994  1.00  0.00     0.000 C 
BRANCH  12  13
ATOM     13  C   UNL     1       4.428  15.372  22.726  1.00  0.00    -0.000 C 
BRANCH  13  14
ATOM     14  C   UNL     1       5.745  15.323  21.941  1.00  0.00    -0.000 C 
BRANCH  14  15
ATOM     15  C   UNL     1       6.749  16.347  22.489  1.00  0.00    -0.000 C 
BRANCH  15  16
ATOM     16  C   UNL     1       8.150  16.189  21.875  1.00  0.00    -0.000 C 
BRANCH  16  17
ATOM     17  C   UNL     1       8.481  17.302  20.864  1.00  0.00    -0.000 C 
BRANCH  17  18
ATOM     18  C   UNL     1       9.946  17.264  20.406  1.00  0.00    -0.003 C 
ATOM     19  C   UNL     1      10.371  15.885  19.903  1.00  0.00     0.004 C 
ENDBRANCH  17  18
ENDBRANCH  16  17
ENDBRANCH  15  16
ENDBRANCH  14  15
ENDBRANCH  13  14
ENDBRANCH  12  13
ENDBRANCH   1  12
TORSDOF 14
ENDMDL
MODEL 3
REMARK VINA RESULT:    -4.070      5.583     11.956
REMARK INTER + INTRA:          -7.984
REMARK INTER:                  -7.514
REMARK INTRA:                  -0.469
REMARK UNBOUND:                -0.582
REMARK SMILES CCCCCCCCCCCCCC[C@@H](C)C(=O)[O-]
REMARK SMILES IDX 9 1 10 2 11 3 12 4 13 5 14 6 15 7 16 8 17 9 18 10 19 11 8 12
REMARK SMILES IDX 7 13 6 14 5 15 4 16 3 17 2 18 1 19
REMARK H PARENT
REMARK Flexibility Score: inf
ROOT
ATOM      1  C   UNL     1       0.536  16.204  21.688  1.00  0.00     0.000 C 
ENDROOT
BRANCH   1   2
ATOM      2  C   UNL     1      -0.821  16.296  22.407  1.00  0.00     0.000 C 
BRANCH   2   3
ATOM      3  C   UNL     1      -1.843  17.147  21.634  1.00  0.00     0.000 C 
BRANCH   3   4
ATOM      4  C   UNL     1      -3.244  17.109  22.266  1.00  0.00     0.000 C 
BRANCH   4   5
ATOM      5  C   UNL     1      -4.081  15.911  21.785  1.00  0.00     0.001 C 
BRANCH   5   6
ATOM      6  C   UNL     1      -5.536  15.957  22.299  1.00  0.00     0.009 C 
BRANCH   6   7
ATOM      7  C   UNL     1      -6.593  15.833  21.179  1.00  0.00     0.032 C 
ATOM      8  C   UNL     1      -7.559  14.679  21.473  1.00  0.00     0.014 C 
BRANCH   7   9
ATOM      9  C   UNL     1      -7.366  17.110  20.993  1.00  0.00     0.044 C 
ATOM     10  O   UNL     1      -6.970  18.181  21.527  1.00  0.00    -0.550 OA
ATOM     11  O   UNL     1      -8.517  17.117  20.216  1.00  0.00    -0.550 OA
ENDBRANCH   7   9
ENDBRANCH   6   7
ENDBRANCH   5   6
ENDBRANCH   4   5
ENDBRANCH   3   4
ENDBRANCH   2   3
ENDBRANCH   1   2
BRANCH   1  12
ATOM     12  C   UNL     1       1.707  15.984  22.657  1.00  0.00     0.000 C 
BRANCH  12  13
ATOM     13  C   UNL     1       3.042  16.351  21.996  1.00  0.00    -0.000 C 
BRANCH  13  14
ATOM     14  C   UNL     1       4.202  15.572  22.627  1.00  0.00    -0.000 C 
BRANCH  14  15
ATOM     15  C   UNL     1       5.539  15.952  21.974  1.00  0.00    -0.000 C 
BRANCH  15  16
ATOM     16  C   UNL     1       6.725  15.163  22.551  1.00  0.00    -0.000 C 
BRANCH  16  17
ATOM     17  C   UNL     1       8.076  15.613  21.965  1.00  0.00    -0.000 C 
BRANCH  17  18
ATOM     18  C   UNL     1       7.985  16.972  21.255  1.00  0.00    -0.003 C 
ATOM     19  C   UNL     1       9.278  17.348  20.534  1.00  0.00     0.004 C 
ENDBRANCH  17  18
ENDBRANCH  16  17
ENDBRANCH  15  16
ENDBRANCH  14  15
ENDBRANCH  13  14
ENDBRANCH  12  13
ENDBRANCH   1  12
TORSDOF 14
ENDMDL
MODEL 4
REMARK VINA RESULT:    -3.958      0.886      1.250
REMARK INTER + INTRA:          -7.779
REMARK INTER:                  -7.298
REMARK INTRA:                  -0.481
REMARK UNBOUND:                -0.582
REMARK SMILES CCCCCCCCCCCCCC[C@@H](C)C(=O)[O-]
REMARK SMILES IDX 9 1 10 2 11 3 12 4 13 5 14 6 15 7 16 8 17 9 18 10 19 11 8 12
REMARK SMILES IDX 7 13 6 14 5 15 4 16 3 17 2 18 1 19
REMARK H PARENT
REMARK Flexibility Score: inf
ROOT
ATOM      1  C   UNL     1       2.401  16.091  22.016  1.00  0.00     0.000 C 
ENDROOT
BRANCH   1   2
ATOM      2  C   UNL     1       3.439  15.636  23.054  1.00  0.00     0.000 C 
BRANCH   2   3
ATOM      3  C   UNL     1       4.672  14.979  22.410  1.00  0.00     0.000 C 
BRANCH   3   4
ATOM      4  C   UNL     1       5.700  16.010  21.913  1.00  0.00     0.000 C 
BRANCH   4   5
ATOM      5  C   UNL     1       7.147  15.497  22.002  1.00  0.00     0.001 C 
BRANCH   5   6
ATOM      6  C   UNL     1       8.189  16.611  21.765  1.00  0.00     0.009 C 
BRANCH   6   7
ATOM      7  C   UNL     1       9.144  16.325  20.584  1.00  0.00     0.032 C 
ATOM      8  C   UNL     1      10.044  17.536  20.311  1.00  0.00     0.014 C 
BRANCH   7   9
ATOM      9  C   UNL     1       9.989  15.105  20.830  1.00  0.00     0.044 C 
ATOM     10  O   UNL     1      10.999  15.168  21.581  1.00  0.00    -0.550 OA
ATOM     11  O   UNL     1       9.650  13.896  20.238  1.00  0.00    -0.550 OA
ENDBRANCH   7   9
ENDBRANCH   6   7
ENDBRANCH   5   6
ENDBRANCH   4   5
ENDBRANCH   3   4
ENDBRANCH   2   3
ENDBRANCH   1   2
BRANCH   1  12
ATOM     12  C   UNL     1       0.997  16.263  22.615  1.00  0.00     0.000 C 
BRANCH  12  13
ATOM     13  C   UNL     1      -0.083  15.826  21.618  1.00  0.00    -0.000 C 
BRANCH  13  14
ATOM     14  C   UNL     1      -1.270  16.797  21.629  1.00  0.00    -0.000 C 
BRANCH  14  15
ATOM     15  C   UNL     1      -1.958  16.808  23.001  1.00  0.00    -0.000 C 
BRANCH  15  16
ATOM     16  C   UNL     1      -3.475  17.037  22.900  1.00  0.00    -0.000 C 
BRANCH  16  17
ATOM     17  C   UNL     1      -4.175  15.982  22.023  1.00  0.00    -0.000 C 
BRANCH  17  18
ATOM     18  C   UNL     1      -5.673  15.859  22.334  1.00  0.00    -0.003 C 
ATOM     19  C   UNL     1      -6.356  14.758  21.525  1.00  0.00     0.004 C 
ENDBRANCH  17  18
ENDBRANCH  16  17
ENDBRANCH  15  16
ENDBRANCH  14  15
ENDBRANCH  13  14
ENDBRANCH  12  13
ENDBRANCH   1  12
TORSDOF 14
ENDMDL
MODEL 5
REMARK VINA RESULT:    -3.933      1.148      1.997
REMARK INTER + INTRA:          -7.733
REMARK INTER:                  -7.276
REMARK INTRA:                  -0.458
REMARK UNBOUND:                -0.582
REMARK SMILES CCCCCCCCCCCCCC[C@@H](C)C(=O)[O-]
REMARK SMILES IDX 9 1 10 2 11 3 12 4 13 5 14 6 15 7 16 8 17 9 18 10 19 11 8 12
REMARK SMILES IDX 7 13 6 14 5 15 4 16 3 17 2 18 1 19
REMARK H PARENT
REMARK Flexibility Score: inf
ROOT
ATOM      1  C   UNL     1       0.498  15.984  21.778  1.00  0.00     0.000 C 
ENDROOT
BRANCH   1   2
ATOM      2  C   UNL     1       1.654  16.362  22.718  1.00  0.00     0.000 C 
BRANCH   2   3
ATOM      3  C   UNL     1       3.028  16.276  22.031  1.00  0.00     0.000 C 
BRANCH   3   4
ATOM      4  C   UNL     1       4.013  15.371  22.789  1.00  0.00     0.000 C 
BRANCH   4   5
ATOM      5  C   UNL     1       5.288  15.072  21.981  1.00  0.00     0.001 C 
BRANCH   5   6
ATOM      6  C   UNL     1       6.431  16.063  22.285  1.00  0.00     0.009 C 
BRANCH   6   7
ATOM      7  C   UNL     1       7.834  15.413  22.271  1.00  0.00     0.032 C 
ATOM      8  C   UNL     1       7.752  13.962  21.781  1.00  0.00     0.014 C 
BRANCH   7   9
ATOM      9  C   UNL     1       8.801  16.186  21.417  1.00  0.00     0.044 C 
ATOM     10  O   UNL     1       9.966  15.752  21.216  1.00  0.00    -0.550 OA
ATOM     11  O   UNL     1       8.405  17.382  20.831  1.00  0.00    -0.550 OA
ENDBRANCH   7   9
ENDBRANCH   6   7
ENDBRANCH   5   6
ENDBRANCH   4   5
ENDBRANCH   3   4
ENDBRANCH   2   3
ENDBRANCH   1   2
BRANCH   1  12
ATOM     12  C   UNL     1      -0.794  16.756  22.085  1.00  0.00     0.000 C 
BRANCH  12  13
ATOM     13  C   UNL     1      -2.026  15.973  21.613  1.00  0.00    -0.000 C 
BRANCH  13  14
ATOM     14  C   UNL     1      -3.321  16.691  22.012  1.00  0.00    -0.000 C 
BRANCH  14  15
ATOM     15  C   UNL     1      -4.418  15.682  22.380  1.00  0.00    -0.000 C 
BRANCH  15  16
ATOM     16  C   UNL     1      -5.448  15.491  21.255  1.00  0.00    -0.000 C 
BRANCH  16  17
ATOM     17  C   UNL     1      -6.505  14.425  21.596  1.00  0.00    -0.000 C 
BRANCH  17  18
ATOM     18  C   UNL     1      -7.937  14.978  21.540  1.00  0.00    -0.003 C 
ATOM     19  C   UNL     1      -8.006  16.469  21.865  1.00  0.00     0.004 C 
ENDBRANCH  17  18
ENDBRANCH  16  17
ENDBRANCH  15  16
ENDBRANCH  14  15
ENDBRANCH  13  14
ENDBRANCH  12  13
ENDBRANCH   1  12
TORSDOF 14
ENDMDL
MODEL 6
REMARK VINA RESULT:    -3.867      1.528      3.284
REMARK INTER + INTRA:          -7.614
REMARK INTER:                  -6.946
REMARK INTRA:                  -0.667
REMARK UNBOUND:                -0.582
REMARK SMILES CCCCCCCCCCCCCC[C@@H](C)C(=O)[O-]
REMARK SMILES IDX 9 1 10 2 11 3 12 4 13 5 14 6 15 7 16 8 17 9 18 10 19 11 8 12
REMARK SMILES IDX 7 13 6 14 5 15 4 16 3 17 2 18 1 19
REMARK H PARENT
REMARK Flexibility Score: inf
ROOT
ATOM      1  C   UNL     1      -1.600  16.422  21.483  1.00  0.00     0.000 C 
ENDROOT
BRANCH   1   2
ATOM      2  C   UNL     1      -0.310  15.587  21.522  1.00  0.00     0.000 C 
BRANCH   2   3
ATOM      3  C   UNL     1       0.719  16.135  22.525  1.00  0.00     0.000 C 
BRANCH   3   4
ATOM      4  C   UNL     1       2.100  16.367  21.889  1.00  0.00     0.000 C 
BRANCH   4   5
ATOM      5  C   UNL     1       3.228  15.629  22.632  1.00  0.00     0.001 C 
BRANCH   5   6
ATOM      6  C   UNL     1       4.630  15.996  22.100  1.00  0.00     0.009 C 
BRANCH   6   7
ATOM      7  C   UNL     1       5.768  15.155  22.720  1.00  0.00     0.032 C 
ATOM      8  C   UNL     1       5.366  13.677  22.797  1.00  0.00     0.014 C 
BRANCH   7   9
ATOM      9  C   UNL     1       7.052  15.295  21.951  1.00  0.00     0.044 C 
ATOM     10  O   UNL     1       7.413  16.418  21.507  1.00  0.00    -0.550 OA
ATOM     11  O   UNL     1       7.858  14.184  21.738  1.00  0.00    -0.550 OA
ENDBRANCH   7   9
ENDBRANCH   6   7
ENDBRANCH   5   6
ENDBRANCH   4   5
ENDBRANCH   3   4
ENDBRANCH   2   3
ENDBRANCH   1   2
BRANCH   1  12
ATOM     12  C   UNL     1      -2.029  16.917  22.873  1.00  0.00     0.000 C 
BRANCH  12  13
ATOM     13  C   UNL     1      -3.519  16.646  23.116  1.00  0.00    -0.000 C 
BRANCH  13  14
ATOM     14  C   UNL     1      -4.156  15.945  21.910  1.00  0.00    -0.000 C 
BRANCH  14  15
ATOM     15  C   UNL     1      -5.510  15.326  22.286  1.00  0.00    -0.000 C 
BRANCH  15  16
ATOM     16  C   UNL     1      -6.390  15.037  21.059  1.00  0.00    -0.000 C 
BRANCH  16  17
ATOM     17  C   UNL     1      -7.730  15.793  21.102  1.00  0.00    -0.000 C 
BRANCH  17  18
ATOM     18  C   UNL     1      -7.553  17.311  20.957  1.00  0.00    -0.003 C 
ATOM     19  C   UNL     1      -8.424  17.903  19.850  1.00  0.00     0.004 C 
ENDBRANCH  17  18
ENDBRANCH  16  17
ENDBRANCH  15  16
ENDBRANCH  14  15
ENDBRANCH  13  14
ENDBRANCH  12  13
ENDBRANCH   1  12
TORSDOF 14
ENDMDL
MODEL 7
REMARK VINA RESULT:    -3.783      4.550     11.141
REMARK INTER + INTRA:          -7.460
REMARK INTER:                  -6.746
REMARK INTRA:                  -0.714
REMARK UNBOUND:                -0.582
REMARK SMILES CCCCCCCCCCCCCC[C@@H](C)C(=O)[O-]
REMARK SMILES IDX 9 1 10 2 11 3 12 4 13 5 14 6 15 7 16 8 17 9 18 10 19 11 8 12
REMARK SMILES IDX 7 13 6 14 5 15 4 16 3 17 2 18 1 19
REMARK H PARENT
REMARK Flexibility Score: inf
ROOT
ATOM      1  C   UNL     1       5.190  15.839  21.933  1.00  0.00     0.000 C 
ENDROOT
BRANCH   1   2
ATOM      2  C   UNL     1       3.910  15.628  22.759  1.00  0.00     0.000 C 
BRANCH   2   3
ATOM      3  C   UNL     1       2.649  16.127  22.033  1.00  0.00     0.000 C 
BRANCH   3   4
ATOM      4  C   UNL     1       1.415  16.166  22.951  1.00  0.00     0.000 C 
BRANCH   4   5
ATOM      5  C   UNL     1       0.091  16.164  22.166  1.00  0.00     0.001 C 
BRANCH   5   6
ATOM      6  C   UNL     1      -1.117  16.570  23.038  1.00  0.00     0.009 C 
BRANCH   6   7
ATOM      7  C   UNL     1      -2.108  17.513  22.319  1.00  0.00     0.032 C 
ATOM      8  C   UNL     1      -1.533  17.982  20.977  1.00  0.00     0.014 C 
BRANCH   7   9
ATOM      9  C   UNL     1      -3.445  16.860  22.101  1.00  0.00     0.044 C 
ATOM     10  O   UNL     1      -4.502  17.414  22.506  1.00  0.00    -0.550 OA
ATOM     11  O   UNL     1      -3.521  15.644  21.435  1.00  0.00    -0.550 OA
ENDBRANCH   7   9
ENDBRANCH   6   7
ENDBRANCH   5   6
ENDBRANCH   4   5
ENDBRANCH   3   4
ENDBRANCH   2   3
ENDBRANCH   1   2
BRANCH   1  12
ATOM     12  C   UNL     1       6.445  15.294  22.632  1.00  0.00     0.000 C 
BRANCH  12  13
ATOM     13  C   UNL     1       7.667  15.382  21.710  1.00  0.00    -0.000 C 
BRANCH  13  14
ATOM     14  C   UNL     1       8.291  16.782  21.752  1.00  0.00    -0.000 C 
BRANCH  14  15
ATOM     15  C   UNL     1       8.879  17.163  20.386  1.00  0.00    -0.000 C 
BRANCH  15  16
ATOM     16  C   UNL     1      10.416  17.187  20.389  1.00  0.00    -0.000 C 
BRANCH  16  17
ATOM     17  C   UNL     1      11.029  15.778  20.488  1.00  0.00    -0.000 C 
BRANCH  17  18
ATOM     18  C   UNL     1      10.900  14.988  19.178  1.00  0.00    -0.003 C 
ATOM     19  C   UNL     1      10.639  13.500  19.410  1.00  0.00     0.004 C 
ENDBRANCH  17  18
ENDBRANCH  16  17
ENDBRANCH  15  16
ENDBRANCH  14  15
ENDBRANCH  13  14
ENDBRANCH  12  13
ENDBRANCH   1  12
TORSDOF 14
ENDMDL
MODEL 8
REMARK VINA RESULT:    -3.778      6.541     12.472
REMARK INTER + INTRA:          -7.453
REMARK INTER:                  -6.663
REMARK INTRA:                  -0.789
REMARK UNBOUND:                -0.582
REMARK SMILES CCCCCCCCCCCCCC[C@@H](C)C(=O)[O-]
REMARK SMILES IDX 9 1 10 2 11 3 12 4 13 5 14 6 15 7 16 8 17 9 18 10 19 11 8 12
REMARK SMILES IDX 7 13 6 14 5 15 4 16 3 17 2 18 1 19
REMARK H PARENT
REMARK Flexibility Score: inf
ROOT
ATOM      1  C   UNL     1      -4.224  15.941  21.553  1.00  0.00     0.000 C 
ENDROOT
BRANCH   1   2
ATOM      2  C   UNL     1      -5.397  15.355  22.356  1.00  0.00     0.000 C 
BRANCH   2   3
ATOM      3  C   UNL     1      -6.396  14.591  21.470  1.00  0.00     0.000 C 
BRANCH   3   4
ATOM      4  C   UNL     1      -7.786  15.249  21.441  1.00  0.00     0.000 C 
BRANCH   4   5
ATOM      5  C   UNL     1      -7.791  16.593  20.693  1.00  0.00     0.001 C 
BRANCH   5   6
ATOM      6  C   UNL     1      -9.062  17.424  20.973  1.00  0.00     0.009 C 
BRANCH   6   7
ATOM      7  C   UNL     1      -8.772  18.806  21.601  1.00  0.00     0.032 C 
ATOM      8  C   UNL     1      -7.348  18.854  22.169  1.00  0.00     0.014 C 
BRANCH   7   9
ATOM      9  C   UNL     1      -8.964  19.923  20.612  1.00  0.00     0.044 C 
ATOM     10  O   UNL     1      -9.122  21.109  21.008  1.00  0.00    -0.550 OA
ATOM     11  O   UNL     1      -8.953  19.651  19.250  1.00  0.00    -0.550 OA
ENDBRANCH   7   9
ENDBRANCH   6   7
ENDBRANCH   5   6
ENDBRANCH   4   5
ENDBRANCH   3   4
ENDBRANCH   2   3
ENDBRANCH   1   2
BRANCH   1  12
ATOM     12  C   UNL     1      -3.426  16.989  22.345  1.00  0.00     0.000 C 
BRANCH  12  13
ATOM     13  C   UNL     1      -1.996  17.112  21.805  1.00  0.00    -0.000 C 
BRANCH  13  14
ATOM     14  C   UNL     1      -0.989  16.456  22.758  1.00  0.00    -0.000 C 
BRANCH  14  15
ATOM     15  C   UNL     1       0.290  16.050  22.012  1.00  0.00    -0.000 C 
BRANCH  15  16
ATOM     16  C   UNL     1       1.560  16.270  22.850  1.00  0.00    -0.000 C 
BRANCH  16  17
ATOM     17  C   UNL     1       2.847  16.152  22.015  1.00  0.00    -0.000 C 
BRANCH  17  18
ATOM     18  C   UNL     1       3.985  15.463  22.783  1.00  0.00    -0.003 C 
ATOM     19  C   UNL     1       5.366  15.821  22.236  1.00  0.00     0.004 C 
ENDBRANCH  17  18
ENDBRANCH  16  17
ENDBRANCH  15  16
ENDBRANCH  14  15
ENDBRANCH  13  14
ENDBRANCH  12  13
ENDBRANCH   1  12
TORSDOF 14
ENDMDL
MODEL 9
REMARK VINA RESULT:    -3.515      4.960     11.129
REMARK INTER + INTRA:          -6.975
REMARK INTER:                  -6.295
REMARK INTRA:                  -0.680
REMARK UNBOUND:                -0.582
REMARK SMILES CCCCCCCCCCCCCC[C@@H](C)C(=O)[O-]
REMARK SMILES IDX 9 1 10 2 11 3 12 4 13 5 14 6 15 7 16 8 17 9 18 10 19 11 8 12
REMARK SMILES IDX 7 13 6 14 5 15 4 16 3 17 2 18 1 19
REMARK H PARENT
REMARK Flexibility Score: inf
ROOT
ATOM      1  C   UNL     1       3.583  16.448  21.833  1.00  0.00     0.000 C 
ENDROOT
BRANCH   1   2
ATOM      2  C   UNL     1       2.339  15.999  22.616  1.00  0.00     0.000 C 
BRANCH   2   3
ATOM      3  C   UNL     1       1.063  16.008  21.756  1.00  0.00     0.000 C 
BRANCH   3   4
ATOM      4  C   UNL     1      -0.196  16.356  22.568  1.00  0.00     0.000 C 
BRANCH   4   5
ATOM      5  C   UNL     1      -1.332  16.914  21.693  1.00  0.00     0.001 C 
BRANCH   5   6
ATOM      6  C   UNL     1      -2.568  15.991  21.664  1.00  0.00     0.009 C 
BRANCH   6   7
ATOM      7  C   UNL     1      -3.618  16.327  22.747  1.00  0.00     0.032 C 
ATOM      8  C   UNL     1      -3.549  17.811  23.125  1.00  0.00     0.014 C 
BRANCH   7   9
ATOM      9  C   UNL     1      -5.012  15.977  22.305  1.00  0.00     0.044 C 
ATOM     10  O   UNL     1      -5.199  15.225  21.311  1.00  0.00    -0.550 OA
ATOM     11  O   UNL     1      -6.105  16.473  23.003  1.00  0.00    -0.550 OA
ENDBRANCH   7   9
ENDBRANCH   6   7
ENDBRANCH   5   6
ENDBRANCH   4   5
ENDBRANCH   3   4
ENDBRANCH   2   3
ENDBRANCH   1   2
BRANCH   1  12
ATOM     12  C   UNL     1       4.896  16.062  22.531  1.00  0.00     0.000 C 
BRANCH  12  13
ATOM     13  C   UNL     1       5.752  15.163  21.631  1.00  0.00    -0.000 C 
BRANCH  13  14
ATOM     14  C   UNL     1       6.302  13.964  22.412  1.00  0.00    -0.000 C 
BRANCH  14  15
ATOM     15  C   UNL     1       7.837  13.940  22.373  1.00  0.00    -0.000 C 
BRANCH  15  16
ATOM     16  C   UNL     1       8.444  15.318  22.067  1.00  0.00    -0.000 C 
BRANCH  16  17
ATOM     17  C   UNL     1       9.733  15.225  21.231  1.00  0.00    -0.000 C 
BRANCH  17  18
ATOM     18  C   UNL     1      10.047  16.530  20.487  1.00  0.00    -0.003 C 
ATOM     19  C   UNL     1       8.948  17.580  20.647  1.00  0.00     0.004 C 
ENDBRANCH  17  18
ENDBRANCH  16  17
ENDBRANCH  15  16
ENDBRANCH  14  15
ENDBRANCH  13  14
ENDBRANCH  12  13
ENDBRANCH   1  12
TORSDOF 14
ENDMDL
