MODEL 1
REMARK VINA RESULT:    -4.796      0.000      0.000
REMARK INTER + INTRA:          -5.365
REMARK INTER:                  -5.077
REMARK INTRA:                  -0.288
REMARK UNBOUND:                -0.288
REMARK SMILES CC1=CC[C@@H]2[C@H]3[C@@H](C(C)C)CC[C@]2(C)[C@@H]13
REMARK SMILES IDX 1 1 2 2 3 3 4 4 5 5 6 6 15 7 13 8 12 9 11 10 7 11 14 12 8 13
REMARK SMILES IDX 9 14 10 15
REMARK H PARENT
REMARK Flexibility Score: inf
ROOT
ATOM      1  C   UNL     1     133.722 138.053 136.536  1.00  0.00     0.039 C 
ATOM      2  C   UNL     1     133.798 136.654 137.070  1.00  0.00    -0.073 C 
ATOM      3  C   UNL     1     133.451 136.370 138.353  1.00  0.00    -0.027 C 
ATOM      4  C   UNL     1     133.522 134.916 138.834  1.00  0.00     0.031 C 
ATOM      5  C   UNL     1     134.045 133.988 137.689  1.00  0.00     0.003 C 
ATOM      6  C   UNL     1     135.279 134.677 137.064  1.00  0.00     0.004 C 
ATOM      7  C   UNL     1     134.280 135.487 136.203  1.00  0.00     0.024 C 
ATOM      8  C   UNL     1     133.325 134.278 136.351  1.00  0.00    -0.022 C 
ATOM      9  C   UNL     1     133.689 133.165 135.330  1.00  0.00     0.008 C 
ATOM     10  C   UNL     1     135.214 133.070 135.057  1.00  0.00     0.005 C 
ATOM     11  C   UNL     1     136.107 133.682 136.191  1.00  0.00    -0.005 C 
ATOM     12  C   UNL     1     131.798 134.530 136.369  1.00  0.00     0.012 C 
ENDROOT
BRANCH  11  13
ATOM     13  C   UNL     1     136.833 132.572 137.023  1.00  0.00    -0.014 C 
ATOM     14  C   UNL     1     137.818 131.780 136.142  1.00  0.00     0.007 C 
ATOM     15  C   UNL     1     137.602 133.134 138.232  1.00  0.00     0.007 C 
ENDBRANCH  11  13
TORSDOF 1
ENDMDL
MODEL 2
REMARK VINA RESULT:    -4.791      4.689      7.238
REMARK INTER + INTRA:          -5.359
REMARK INTER:                  -5.070
REMARK INTRA:                  -0.288
REMARK UNBOUND:                -0.288
REMARK SMILES CC1=CC[C@@H]2[C@H]3[C@@H](C(C)C)CC[C@]2(C)[C@@H]13
REMARK SMILES IDX 1 1 2 2 3 3 4 4 5 5 6 6 15 7 13 8 12 9 11 10 7 11 14 12 8 13
REMARK SMILES IDX 9 14 10 15
REMARK H PARENT
REMARK Flexibility Score: inf
ROOT
ATOM      1  C   UNL     1     140.899 135.649 133.276  1.00  0.00     0.039 C 
ATOM      2  C   UNL     1     139.991 136.160 134.354  1.00  0.00    -0.073 C 
ATOM      3  C   UNL     1     139.567 135.350 135.361  1.00  0.00    -0.027 C 
ATOM      4  C   UNL     1     138.661 135.936 136.450  1.00  0.00     0.031 C 
ATOM      5  C   UNL     1     138.356 137.440 136.154  1.00  0.00     0.003 C 
ATOM      6  C   UNL     1     137.970 137.548 134.662  1.00  0.00     0.004 C 
ATOM      7  C   UNL     1     139.488 137.606 134.366  1.00  0.00     0.024 C 
ATOM      8  C   UNL     1     139.640 138.216 135.779  1.00  0.00    -0.022 C 
ATOM      9  C   UNL     1     139.322 139.738 135.757  1.00  0.00     0.008 C 
ATOM     10  C   UNL     1     138.210 140.107 134.739  1.00  0.00     0.005 C 
ATOM     11  C   UNL     1     137.276 138.911 134.349  1.00  0.00    -0.005 C 
ATOM     12  C   UNL     1     140.936 137.938 136.579  1.00  0.00     0.012 C 
ENDROOT
BRANCH  11  13
ATOM     13  C   UNL     1     135.853 139.051 134.986  1.00  0.00    -0.014 C 
ATOM     14  C   UNL     1     135.653 140.457 135.584  1.00  0.00     0.007 C 
ATOM     15  C   UNL     1     134.717 138.780 133.984  1.00  0.00     0.007 C 
ENDBRANCH  11  13
TORSDOF 1
ENDMDL
MODEL 3
REMARK VINA RESULT:    -4.788      4.126      6.806
REMARK INTER + INTRA:          -5.356
REMARK INTER:                  -5.071
REMARK INTRA:                  -0.285
REMARK UNBOUND:                -0.288
REMARK SMILES CC1=CC[C@@H]2[C@H]3[C@@H](C(C)C)CC[C@]2(C)[C@@H]13
REMARK SMILES IDX 1 1 2 2 3 3 4 4 5 5 6 6 15 7 13 8 12 9 11 10 7 11 14 12 8 13
REMARK SMILES IDX 9 14 10 15
REMARK H PARENT
REMARK Flexibility Score: inf
ROOT
ATOM      1  C   UNL     1     139.005 134.773 134.844  1.00  0.00     0.039 C 
ATOM      2  C   UNL     1     138.817 135.859 135.860  1.00  0.00    -0.073 C 
ATOM      3  C   UNL     1     138.924 135.605 137.191  1.00  0.00    -0.027 C 
ATOM      4  C   UNL     1     138.750 136.762 138.182  1.00  0.00     0.031 C 
ATOM      5  C   UNL     1     138.431 138.089 137.420  1.00  0.00     0.003 C 
ATOM      6  C   UNL     1     137.338 137.769 136.375  1.00  0.00     0.004 C 
ATOM      7  C   UNL     1     138.485 137.297 135.450  1.00  0.00     0.024 C 
ATOM      8  C   UNL     1     139.382 138.296 136.218  1.00  0.00    -0.022 C 
ATOM      9  C   UNL     1     139.194 139.737 135.667  1.00  0.00     0.008 C 
ATOM     10  C   UNL     1     137.742 140.019 135.199  1.00  0.00     0.005 C 
ATOM     11  C   UNL     1     136.668 139.071 135.834  1.00  0.00    -0.005 C 
ATOM     12  C   UNL     1     140.885 137.967 136.396  1.00  0.00     0.012 C 
ENDROOT
BRANCH  11  13
ATOM     13  C   UNL     1     135.790 139.815 136.896  1.00  0.00    -0.014 C 
ATOM     14  C   UNL     1     134.939 140.915 136.234  1.00  0.00     0.007 C 
ATOM     15  C   UNL     1     134.853 138.869 137.668  1.00  0.00     0.007 C 
ENDBRANCH  11  13
TORSDOF 1
ENDMDL
MODEL 4
REMARK VINA RESULT:    -4.787      3.347      5.574
REMARK INTER + INTRA:          -5.355
REMARK INTER:                  -5.071
REMARK INTRA:                  -0.284
REMARK UNBOUND:                -0.288
REMARK SMILES CC1=CC[C@@H]2[C@H]3[C@@H](C(C)C)CC[C@]2(C)[C@@H]13
REMARK SMILES IDX 1 1 2 2 3 3 4 4 5 5 6 6 15 7 13 8 12 9 11 10 7 11 14 12 8 13
REMARK SMILES IDX 9 14 10 15
REMARK H PARENT
REMARK Flexibility Score: inf
ROOT
ATOM      1  C   UNL     1     137.070 140.888 133.278  1.00  0.00     0.039 C 
ATOM      2  C   UNL     1     136.524 139.997 134.354  1.00  0.00    -0.073 C 
ATOM      3  C   UNL     1     137.305 139.579 135.385  1.00  0.00    -0.027 C 
ATOM      4  C   UNL     1     136.683 138.692 136.471  1.00  0.00     0.031 C 
ATOM      5  C   UNL     1     135.184 138.397 136.141  1.00  0.00     0.003 C 
ATOM      6  C   UNL     1     135.110 137.995 134.652  1.00  0.00     0.004 C 
ATOM      7  C   UNL     1     135.073 139.509 134.335  1.00  0.00     0.024 C 
ATOM      8  C   UNL     1     134.430 139.684 135.731  1.00  0.00    -0.022 C 
ATOM      9  C   UNL     1     132.906 139.380 135.674  1.00  0.00     0.008 C 
ATOM     10  C   UNL     1     132.552 138.259 134.662  1.00  0.00     0.005 C 
ATOM     11  C   UNL     1     133.748 137.309 134.313  1.00  0.00    -0.005 C 
ATOM     12  C   UNL     1     134.701 140.988 136.521  1.00  0.00     0.012 C 
ENDROOT
BRANCH  11  13
ATOM     13  C   UNL     1     133.578 135.895 134.965  1.00  0.00    -0.014 C 
ATOM     14  C   UNL     1     132.199 135.761 135.637  1.00  0.00     0.007 C 
ATOM     15  C   UNL     1     133.743 134.745 133.955  1.00  0.00     0.007 C 
ENDBRANCH  11  13
TORSDOF 1
ENDMDL
MODEL 5
REMARK VINA RESULT:    -4.783      3.054      4.890
REMARK INTER + INTRA:          -5.351
REMARK INTER:                  -5.056
REMARK INTRA:                  -0.295
REMARK UNBOUND:                -0.288
REMARK SMILES CC1=CC[C@@H]2[C@H]3[C@@H](C(C)C)CC[C@]2(C)[C@@H]13
REMARK SMILES IDX 1 1 2 2 3 3 4 4 5 5 6 6 15 7 13 8 12 9 11 10 7 11 14 12 8 13
REMARK SMILES IDX 9 14 10 15
REMARK H PARENT
REMARK Flexibility Score: inf
ROOT
ATOM      1  C   UNL     1     134.651 133.662 136.440  1.00  0.00     0.039 C 
ATOM      2  C   UNL     1     136.035 133.772 137.005  1.00  0.00    -0.073 C 
ATOM      3  C   UNL     1     136.303 133.415 138.289  1.00  0.00    -0.027 C 
ATOM      4  C   UNL     1     137.744 133.523 138.802  1.00  0.00     0.031 C 
ATOM      5  C   UNL     1     138.679 134.090 137.685  1.00  0.00     0.003 C 
ATOM      6  C   UNL     1     137.966 135.312 137.064  1.00  0.00     0.004 C 
ATOM      7  C   UNL     1     137.205 134.303 136.171  1.00  0.00     0.024 C 
ATOM      8  C   UNL     1     138.439 133.383 136.331  1.00  0.00    -0.022 C 
ATOM      9  C   UNL     1     139.563 133.796 135.339  1.00  0.00     0.008 C 
ATOM     10  C   UNL     1     139.616 135.327 135.092  1.00  0.00     0.005 C 
ATOM     11  C   UNL     1     138.954 136.183 136.225  1.00  0.00    -0.005 C 
ATOM     12  C   UNL     1     138.234 131.848 136.321  1.00  0.00     0.012 C 
ENDROOT
BRANCH  11  13
ATOM     13  C   UNL     1     140.023 136.930 137.091  1.00  0.00    -0.014 C 
ATOM     14  C   UNL     1     140.888 137.858 136.218  1.00  0.00     0.007 C 
ATOM     15  C   UNL     1     139.401 137.765 138.225  1.00  0.00     0.007 C 
ENDBRANCH  11  13
TORSDOF 1
ENDMDL
MODEL 6
REMARK VINA RESULT:    -4.770      2.974      4.795
REMARK INTER + INTRA:          -5.337
REMARK INTER:                  -5.048
REMARK INTRA:                  -0.289
REMARK UNBOUND:                -0.288
REMARK SMILES CC1=CC[C@@H]2[C@H]3[C@@H](C(C)C)CC[C@]2(C)[C@@H]13
REMARK SMILES IDX 1 1 2 2 3 3 4 4 5 5 6 6 15 7 13 8 12 9 11 10 7 11 14 12 8 13
REMARK SMILES IDX 9 14 10 15
REMARK H PARENT
REMARK Flexibility Score: inf
ROOT
ATOM      1  C   UNL     1     138.036 138.989 136.588  1.00  0.00     0.039 C 
ATOM      2  C   UNL     1     136.635 138.888 137.114  1.00  0.00    -0.073 C 
ATOM      3  C   UNL     1     136.334 139.247 138.390  1.00  0.00    -0.027 C 
ATOM      4  C   UNL     1     134.879 139.149 138.861  1.00  0.00     0.031 C 
ATOM      5  C   UNL     1     133.971 138.588 137.719  1.00  0.00     0.003 C 
ATOM      6  C   UNL     1     134.693 137.362 137.117  1.00  0.00     0.004 C 
ATOM      7  C   UNL     1     135.486 138.367 136.247  1.00  0.00     0.024 C 
ATOM      8  C   UNL     1     134.254 139.295 136.372  1.00  0.00    -0.022 C 
ATOM      9  C   UNL     1     133.157 138.890 135.349  1.00  0.00     0.008 C 
ATOM     10  C   UNL     1     133.100 137.359 135.099  1.00  0.00     0.005 C 
ATOM     11  C   UNL     1     133.724 136.498 136.250  1.00  0.00    -0.005 C 
ATOM     12  C   UNL     1     134.470 140.828 136.369  1.00  0.00     0.012 C 
ENDROOT
BRANCH  11  13
ATOM     13  C   UNL     1     132.625 135.758 137.085  1.00  0.00    -0.014 C 
ATOM     14  C   UNL     1     131.860 134.745 136.213  1.00  0.00     0.007 C 
ATOM     15  C   UNL     1     133.197 135.018 138.307  1.00  0.00     0.007 C 
ENDBRANCH  11  13
TORSDOF 1
ENDMDL
MODEL 7
REMARK VINA RESULT:    -4.741      1.796      4.153
REMARK INTER + INTRA:          -5.306
REMARK INTER:                  -5.019
REMARK INTRA:                  -0.287
REMARK UNBOUND:                -0.288
REMARK SMILES CC1=CC[C@@H]2[C@H]3[C@@H](C(C)C)CC[C@]2(C)[C@@H]13
REMARK SMILES IDX 1 1 2 2 3 3 4 4 5 5 6 6 15 7 13 8 12 9 11 10 7 11 14 12 8 13
REMARK SMILES IDX 9 14 10 15
REMARK H PARENT
REMARK Flexibility Score: inf
ROOT
ATOM      1  C   UNL     1     132.633 135.713 140.518  1.00  0.00     0.039 C 
ATOM      2  C   UNL     1     133.369 135.792 139.214  1.00  0.00    -0.073 C 
ATOM      3  C   UNL     1     134.452 136.599 139.065  1.00  0.00    -0.027 C 
ATOM      4  C   UNL     1     135.181 136.617 137.716  1.00  0.00     0.031 C 
ATOM      5  C   UNL     1     134.472 135.664 136.700  1.00  0.00     0.003 C 
ATOM      6  C   UNL     1     132.955 135.948 136.784  1.00  0.00     0.004 C 
ATOM      7  C   UNL     1     132.931 134.980 137.992  1.00  0.00     0.024 C 
ATOM      8  C   UNL     1     134.152 134.292 137.338  1.00  0.00    -0.022 C 
ATOM      9  C   UNL     1     133.696 133.310 136.222  1.00  0.00     0.008 C 
ATOM     10  C   UNL     1     132.437 133.804 135.462  1.00  0.00     0.005 C 
ATOM     11  C   UNL     1     132.194 135.350 135.559  1.00  0.00    -0.005 C 
ATOM     12  C   UNL     1     135.215 133.631 138.250  1.00  0.00     0.012 C 
ENDROOT
BRANCH  11  13
ATOM     13  C   UNL     1     132.511 136.074 134.208  1.00  0.00    -0.014 C 
ATOM     14  C   UNL     1     132.438 135.091 133.025  1.00  0.00     0.007 C 
ATOM     15  C   UNL     1     131.564 137.253 133.922  1.00  0.00     0.007 C 
ENDBRANCH  11  13
TORSDOF 1
ENDMDL
MODEL 8
REMARK VINA RESULT:    -4.733      3.083      5.278
REMARK INTER + INTRA:          -5.297
REMARK INTER:                  -5.013
REMARK INTRA:                  -0.284
REMARK UNBOUND:                -0.288
REMARK SMILES CC1=CC[C@@H]2[C@H]3[C@@H](C(C)C)CC[C@]2(C)[C@@H]13
REMARK SMILES IDX 1 1 2 2 3 3 4 4 5 5 6 6 15 7 13 8 12 9 11 10 7 11 14 12 8 13
REMARK SMILES IDX 9 14 10 15
REMARK H PARENT
REMARK Flexibility Score: inf
ROOT
ATOM      1  C   UNL     1     135.653 131.860 133.270  1.00  0.00     0.039 C 
ATOM      2  C   UNL     1     136.176 132.778 134.335  1.00  0.00    -0.073 C 
ATOM      3  C   UNL     1     135.366 133.247 135.321  1.00  0.00    -0.027 C 
ATOM      4  C   UNL     1     135.965 134.159 136.398  1.00  0.00     0.031 C 
ATOM      5  C   UNL     1     137.481 134.414 136.116  1.00  0.00     0.003 C 
ATOM      6  C   UNL     1     137.619 134.763 134.617  1.00  0.00     0.004 C 
ATOM      7  C   UNL     1     137.636 133.238 134.355  1.00  0.00     0.024 C 
ATOM      8  C   UNL     1     138.224 133.100 135.779  1.00  0.00    -0.022 C 
ATOM      9  C   UNL     1     139.754 133.373 135.770  1.00  0.00     0.008 C 
ATOM     10  C   UNL     1     140.168 134.451 134.734  1.00  0.00     0.005 C 
ATOM     11  C   UNL     1     139.005 135.410 134.307  1.00  0.00    -0.005 C 
ATOM     12  C   UNL     1     137.897 131.830 136.603  1.00  0.00     0.012 C 
ENDROOT
BRANCH  11  13
ATOM     13  C   UNL     1     139.179 136.843 134.915  1.00  0.00    -0.014 C 
ATOM     14  C   UNL     1     140.545 136.983 135.612  1.00  0.00     0.007 C 
ATOM     15  C   UNL     1     139.050 137.961 133.865  1.00  0.00     0.007 C 
ENDBRANCH  11  13
TORSDOF 1
ENDMDL
MODEL 9
REMARK VINA RESULT:    -4.674      1.942      4.942
REMARK INTER + INTRA:          -5.236
REMARK INTER:                  -4.964
REMARK INTRA:                  -0.272
REMARK UNBOUND:                -0.288
REMARK SMILES CC1=CC[C@@H]2[C@H]3[C@@H](C(C)C)CC[C@]2(C)[C@@H]13
REMARK SMILES IDX 1 1 2 2 3 3 4 4 5 5 6 6 15 7 13 8 12 9 11 10 7 11 14 12 8 13
REMARK SMILES IDX 9 14 10 15
REMARK H PARENT
REMARK Flexibility Score: inf
ROOT
ATOM      1  C   UNL     1     139.786 136.260 135.535  1.00  0.00     0.039 C 
ATOM      2  C   UNL     1     139.117 134.947 135.811  1.00  0.00    -0.073 C 
ATOM      3  C   UNL     1     139.712 133.770 135.480  1.00  0.00    -0.027 C 
ATOM      4  C   UNL     1     138.992 132.458 135.813  1.00  0.00     0.031 C 
ATOM      5  C   UNL     1     137.609 132.750 136.482  1.00  0.00     0.003 C 
ATOM      6  C   UNL     1     136.913 133.845 135.643  1.00  0.00     0.004 C 
ATOM      7  C   UNL     1     137.734 134.870 136.462  1.00  0.00     0.024 C 
ATOM      8  C   UNL     1     137.732 133.816 137.595  1.00  0.00    -0.022 C 
ATOM      9  C   UNL     1     136.398 133.870 138.392  1.00  0.00     0.008 C 
ATOM     10  C   UNL     1     135.178 134.227 137.502  1.00  0.00     0.005 C 
ATOM     11  C   UNL     1     135.391 133.937 135.977  1.00  0.00    -0.005 C 
ATOM     12  C   UNL     1     138.944 133.750 138.557  1.00  0.00     0.012 C 
ENDROOT
BRANCH  11  13
ATOM     13  C   UNL     1     134.567 132.694 135.500  1.00  0.00    -0.014 C 
ATOM     14  C   UNL     1     133.057 133.000 135.501  1.00  0.00     0.007 C 
ATOM     15  C   UNL     1     134.967 132.212 134.094  1.00  0.00     0.007 C 
ENDBRANCH  11  13
TORSDOF 1
ENDMDL
