MODEL 1
REMARK VINA RESULT:    -5.495      0.000      0.000
REMARK INTER + INTRA:         -11.137
REMARK INTER:                  -9.671
REMARK INTRA:                  -1.466
REMARK UNBOUND:                -1.466
REMARK SMILES CCCCCCCCCCCCCCC(=O)[O-]
REMARK SMILES IDX 9 1 10 2 11 3 12 4 13 5 14 6 15 7 16 8 17 9 8 10 7 11 6 12
REMARK SMILES IDX 5 13 4 14 3 15 2 16 1 17
REMARK H PARENT
REMARK Flexibility Score: inf
ROOT
ATOM      1  C   UNL     1     135.783 133.991 133.301  1.00  0.00     0.000 C 
ENDROOT
BRANCH   1   2
ATOM      2  C   UNL     1     135.106 135.367 133.329  1.00  0.00     0.000 C 
BRANCH   2   3
ATOM      3  C   UNL     1     133.623 135.244 133.712  1.00  0.00     0.000 C 
BRANCH   3   4
ATOM      4  C   UNL     1     132.875 136.589 133.661  1.00  0.00     0.000 C 
BRANCH   4   5
ATOM      5  C   UNL     1     131.528 136.555 132.914  1.00  0.00     0.006 C 
BRANCH   5   6
ATOM      6  C   UNL     1     131.386 137.685 131.887  1.00  0.00     0.053 C 
BRANCH   6   7
ATOM      7  C   UNL     1     131.672 137.177 130.510  1.00  0.00     0.041 C 
ATOM      8  O   UNL     1     130.783 137.224 129.619  1.00  0.00    -0.550 OA
ATOM      9  O   UNL     1     132.906 136.608 130.221  1.00  0.00    -0.550 OA
ENDBRANCH   6   7
ENDBRANCH   5   6
ENDBRANCH   4   5
ENDBRANCH   3   4
ENDBRANCH   2   3
ENDBRANCH   1   2
BRANCH   1  10
ATOM     10  C   UNL     1     135.589 133.312 131.938  1.00  0.00     0.000 C 
BRANCH  10  11
ATOM     11  C   UNL     1     135.192 131.832 132.067  1.00  0.00    -0.000 C 
BRANCH  11  12
ATOM     12  C   UNL     1     134.600 131.496 133.447  1.00  0.00    -0.000 C 
BRANCH  12  13
ATOM     13  C   UNL     1     133.068 131.392 133.423  1.00  0.00    -0.000 C 
BRANCH  13  14
ATOM     14  C   UNL     1     132.462 131.883 132.099  1.00  0.00    -0.000 C 
BRANCH  14  15
ATOM     15  C   UNL     1     131.275 132.825 132.355  1.00  0.00    -0.000 C 
BRANCH  15  16
ATOM     16  C   UNL     1     130.377 132.345 133.503  1.00  0.00    -0.003 C 
ATOM     17  C   UNL     1     129.401 131.250 133.072  1.00  0.00     0.004 C 
ENDBRANCH  15  16
ENDBRANCH  14  15
ENDBRANCH  13  14
ENDBRANCH  12  13
ENDBRANCH  11  12
ENDBRANCH  10  11
ENDBRANCH   1  10
TORSDOF 13
ENDMDL
MODEL 2
REMARK VINA RESULT:    -5.468      2.241      4.101
REMARK INTER + INTRA:         -11.090
REMARK INTER:                  -9.609
REMARK INTRA:                  -1.481
REMARK UNBOUND:                -1.466
REMARK SMILES CCCCCCCCCCCCCCC(=O)[O-]
REMARK SMILES IDX 9 1 10 2 11 3 12 4 13 5 14 6 15 7 16 8 17 9 8 10 7 11 6 12
REMARK SMILES IDX 5 13 4 14 3 15 2 16 1 17
REMARK H PARENT
REMARK Flexibility Score: inf
ROOT
ATOM      1  C   UNL     1     135.823 132.879 133.151  1.00  0.00     0.000 C 
ENDROOT
BRANCH   1   2
ATOM      2  C   UNL     1     135.375 134.129 133.918  1.00  0.00     0.000 C 
BRANCH   2   3
ATOM      3  C   UNL     1     135.568 135.395 133.069  1.00  0.00     0.000 C 
BRANCH   3   4
ATOM      4  C   UNL     1     137.019 135.912 133.082  1.00  0.00     0.000 C 
BRANCH   4   5
ATOM      5  C   UNL     1     137.722 135.909 131.712  1.00  0.00     0.006 C 
BRANCH   5   6
ATOM      6  C   UNL     1     136.805 135.450 130.571  1.00  0.00     0.053 C 
BRANCH   6   7
ATOM      7  C   UNL     1     136.719 136.505 129.515  1.00  0.00     0.041 C 
ATOM      8  O   UNL     1     137.739 137.173 129.201  1.00  0.00    -0.550 OA
ATOM      9  O   UNL     1     135.500 136.785 128.909  1.00  0.00    -0.550 OA
ENDBRANCH   6   7
ENDBRANCH   5   6
ENDBRANCH   4   5
ENDBRANCH   3   4
ENDBRANCH   2   3
ENDBRANCH   1   2
BRANCH   1  10
ATOM     10  C   UNL     1     134.728 131.803 133.168  1.00  0.00     0.000 C 
BRANCH  10  11
ATOM     11  C   UNL     1     133.452 132.269 133.886  1.00  0.00    -0.000 C 
BRANCH  11  12
ATOM     12  C   UNL     1     132.169 131.789 133.185  1.00  0.00    -0.000 C 
BRANCH  12  13
ATOM     13  C   UNL     1     131.109 132.895 133.070  1.00  0.00    -0.000 C 
BRANCH  13  14
ATOM     14  C   UNL     1     131.686 134.296 133.325  1.00  0.00    -0.000 C 
BRANCH  14  15
ATOM     15  C   UNL     1     131.847 135.071 132.009  1.00  0.00    -0.000 C 
BRANCH  15  16
ATOM     16  C   UNL     1     132.334 136.511 132.227  1.00  0.00    -0.003 C 
ATOM     17  C   UNL     1     131.501 137.266 133.262  1.00  0.00     0.004 C 
ENDBRANCH  15  16
ENDBRANCH  14  15
ENDBRANCH  13  14
ENDBRANCH  12  13
ENDBRANCH  11  12
ENDBRANCH  10  11
ENDBRANCH   1  10
TORSDOF 13
ENDMDL
MODEL 3
REMARK VINA RESULT:    -5.458      2.058      4.584
REMARK INTER + INTRA:         -11.072
REMARK INTER:                  -9.281
REMARK INTRA:                  -1.791
REMARK UNBOUND:                -1.466
REMARK SMILES CCCCCCCCCCCCCCC(=O)[O-]
REMARK SMILES IDX 9 1 10 2 11 3 12 4 13 5 14 6 15 7 16 8 17 9 8 10 7 11 6 12
REMARK SMILES IDX 5 13 4 14 3 15 2 16 1 17
REMARK H PARENT
REMARK Flexibility Score: inf
ROOT
ATOM      1  C   UNL     1     133.664 132.108 133.795  1.00  0.00     0.000 C 
ENDROOT
BRANCH   1   2
ATOM      2  C   UNL     1     134.990 131.917 133.049  1.00  0.00     0.000 C 
BRANCH   2   3
ATOM      3  C   UNL     1     135.943 133.094 133.308  1.00  0.00     0.000 C 
BRANCH   3   4
ATOM      4  C   UNL     1     135.219 134.350 133.828  1.00  0.00     0.000 C 
BRANCH   4   5
ATOM      5  C   UNL     1     135.447 135.623 132.993  1.00  0.00     0.006 C 
BRANCH   5   6
ATOM      6  C   UNL     1     135.268 135.391 131.488  1.00  0.00     0.053 C 
BRANCH   6   7
ATOM      7  C   UNL     1     136.570 135.567 130.774  1.00  0.00     0.041 C 
ATOM      8  O   UNL     1     136.652 135.337 129.539  1.00  0.00    -0.550 OA
ATOM      9  O   UNL     1     137.707 135.937 131.482  1.00  0.00    -0.550 OA
ENDBRANCH   6   7
ENDBRANCH   5   6
ENDBRANCH   4   5
ENDBRANCH   3   4
ENDBRANCH   2   3
ENDBRANCH   1   2
BRANCH   1  10
ATOM     10  C   UNL     1     132.485 131.586 132.962  1.00  0.00     0.000 C 
BRANCH  10  11
ATOM     11  C   UNL     1     131.247 132.492 133.058  1.00  0.00    -0.000 C 
BRANCH  11  12
ATOM     12  C   UNL     1     131.558 133.854 133.704  1.00  0.00    -0.000 C 
BRANCH  12  13
ATOM     13  C   UNL     1     131.726 134.975 132.668  1.00  0.00    -0.000 C 
BRANCH  13  14
ATOM     14  C   UNL     1     131.797 136.369 133.310  1.00  0.00    -0.000 C 
BRANCH  14  15
ATOM     15  C   UNL     1     131.575 137.469 132.261  1.00  0.00    -0.000 C 
BRANCH  15  16
ATOM     16  C   UNL     1     131.920 137.006 130.838  1.00  0.00    -0.003 C 
ATOM     17  C   UNL     1     131.015 137.632 129.777  1.00  0.00     0.004 C 
ENDBRANCH  15  16
ENDBRANCH  14  15
ENDBRANCH  13  14
ENDBRANCH  12  13
ENDBRANCH  11  12
ENDBRANCH  10  11
ENDBRANCH   1  10
TORSDOF 13
ENDMDL
MODEL 4
REMARK VINA RESULT:    -5.449      2.677      4.925
REMARK INTER + INTRA:         -11.055
REMARK INTER:                  -9.199
REMARK INTRA:                  -1.857
REMARK UNBOUND:                -1.466
REMARK SMILES CCCCCCCCCCCCCCC(=O)[O-]
REMARK SMILES IDX 9 1 10 2 11 3 12 4 13 5 14 6 15 7 16 8 17 9 8 10 7 11 6 12
REMARK SMILES IDX 5 13 4 14 3 15 2 16 1 17
REMARK H PARENT
REMARK Flexibility Score: inf
ROOT
ATOM      1  C   UNL     1     135.726 134.819 133.387  1.00  0.00     0.000 C 
ENDROOT
BRANCH   1   2
ATOM      2  C   UNL     1     135.918 133.300 133.484  1.00  0.00     0.000 C 
BRANCH   2   3
ATOM      3  C   UNL     1     134.607 132.604 133.881  1.00  0.00     0.000 C 
BRANCH   3   4
ATOM      4  C   UNL     1     134.550 131.130 133.437  1.00  0.00     0.000 C 
BRANCH   4   5
ATOM      5  C   UNL     1     135.886 130.550 132.938  1.00  0.00     0.006 C 
BRANCH   5   6
ATOM      6  C   UNL     1     135.758 129.828 131.591  1.00  0.00     0.053 C 
BRANCH   6   7
ATOM      7  C   UNL     1     135.372 130.793 130.516  1.00  0.00     0.041 C 
ATOM      8  O   UNL     1     136.028 131.855 130.351  1.00  0.00    -0.550 OA
ATOM      9  O   UNL     1     134.256 130.544 129.726  1.00  0.00    -0.550 OA
ENDBRANCH   6   7
ENDBRANCH   5   6
ENDBRANCH   4   5
ENDBRANCH   3   4
ENDBRANCH   2   3
ENDBRANCH   1   2
BRANCH   1  10
ATOM     10  C   UNL     1     135.328 135.232 131.963  1.00  0.00     0.000 C 
BRANCH  10  11
ATOM     11  C   UNL     1     133.878 135.733 131.876  1.00  0.00    -0.000 C 
BRANCH  11  12
ATOM     12  C   UNL     1     133.269 136.026 133.259  1.00  0.00    -0.000 C 
BRANCH  12  13
ATOM     13  C   UNL     1     131.777 135.670 133.334  1.00  0.00    -0.000 C 
BRANCH  13  14
ATOM     14  C   UNL     1     131.441 134.366 132.594  1.00  0.00    -0.000 C 
BRANCH  14  15
ATOM     15  C   UNL     1     131.115 133.240 133.586  1.00  0.00    -0.000 C 
BRANCH  15  16
ATOM     16  C   UNL     1     130.833 131.901 132.889  1.00  0.00    -0.003 C 
ATOM     17  C   UNL     1     131.382 131.850 131.464  1.00  0.00     0.004 C 
ENDBRANCH  15  16
ENDBRANCH  14  15
ENDBRANCH  13  14
ENDBRANCH  12  13
ENDBRANCH  11  12
ENDBRANCH  10  11
ENDBRANCH   1  10
TORSDOF 13
ENDMDL
MODEL 5
REMARK VINA RESULT:    -5.432      2.662      5.080
REMARK INTER + INTRA:         -11.027
REMARK INTER:                  -9.417
REMARK INTRA:                  -1.610
REMARK UNBOUND:                -1.466
REMARK SMILES CCCCCCCCCCCCCCC(=O)[O-]
REMARK SMILES IDX 9 1 10 2 11 3 12 4 13 5 14 6 15 7 16 8 17 9 8 10 7 11 6 12
REMARK SMILES IDX 5 13 4 14 3 15 2 16 1 17
REMARK H PARENT
REMARK Flexibility Score: inf
ROOT
ATOM      1  C   UNL     1     131.725 134.814 133.300  1.00  0.00     0.000 C 
ENDROOT
BRANCH   1   2
ATOM      2  C   UNL     1     132.082 133.446 133.895  1.00  0.00     0.000 C 
BRANCH   2   3
ATOM      3  C   UNL     1     131.901 132.330 132.855  1.00  0.00     0.000 C 
BRANCH   3   4
ATOM      4  C   UNL     1     130.620 131.503 133.075  1.00  0.00     0.000 C 
BRANCH   4   5
ATOM      5  C   UNL     1     129.649 131.482 131.881  1.00  0.00     0.006 C 
BRANCH   5   6
ATOM      6  C   UNL     1     130.260 132.065 130.601  1.00  0.00     0.053 C 
BRANCH   6   7
ATOM      7  C   UNL     1     130.555 130.975 129.620  1.00  0.00     0.041 C 
ATOM      8  O   UNL     1     131.740 130.755 129.254  1.00  0.00    -0.550 OA
ATOM      9  O   UNL     1     129.516 130.234 129.071  1.00  0.00    -0.550 OA
ENDBRANCH   6   7
ENDBRANCH   5   6
ENDBRANCH   4   5
ENDBRANCH   3   4
ENDBRANCH   2   3
ENDBRANCH   1   2
BRANCH   1  10
ATOM     10  C   UNL     1     132.893 135.799 133.448  1.00  0.00     0.000 C 
BRANCH  10  11
ATOM     11  C   UNL     1     134.047 135.497 132.478  1.00  0.00    -0.000 C 
BRANCH  11  12
ATOM     12  C   UNL     1     135.429 135.650 133.137  1.00  0.00    -0.000 C 
BRANCH  12  13
ATOM     13  C   UNL     1     136.075 134.297 133.474  1.00  0.00    -0.000 C 
BRANCH  13  14
ATOM     14  C   UNL     1     135.571 133.160 132.572  1.00  0.00    -0.000 C 
BRANCH  14  15
ATOM     15  C   UNL     1     135.429 131.852 133.364  1.00  0.00    -0.000 C 
BRANCH  15  16
ATOM     16  C   UNL     1     135.489 130.608 132.467  1.00  0.00    -0.003 C 
ATOM     17  C   UNL     1     135.038 130.890 131.034  1.00  0.00     0.004 C 
ENDBRANCH  15  16
ENDBRANCH  14  15
ENDBRANCH  13  14
ENDBRANCH  12  13
ENDBRANCH  11  12
ENDBRANCH  10  11
ENDBRANCH   1  10
TORSDOF 13
ENDMDL
MODEL 6
REMARK VINA RESULT:    -5.419      2.825      6.266
REMARK INTER + INTRA:         -11.004
REMARK INTER:                  -9.633
REMARK INTRA:                  -1.371
REMARK UNBOUND:                -1.466
REMARK SMILES CCCCCCCCCCCCCCC(=O)[O-]
REMARK SMILES IDX 9 1 10 2 11 3 12 4 13 5 14 6 15 7 16 8 17 9 8 10 7 11 6 12
REMARK SMILES IDX 5 13 4 14 3 15 2 16 1 17
REMARK H PARENT
REMARK Flexibility Score: inf
ROOT
ATOM      1  C   UNL     1     130.932 132.965 133.503  1.00  0.00     0.000 C 
ENDROOT
BRANCH   1   2
ATOM      2  C   UNL     1     131.617 131.614 133.263  1.00  0.00     0.000 C 
BRANCH   2   3
ATOM      3  C   UNL     1     133.013 131.806 132.650  1.00  0.00     0.000 C 
BRANCH   3   4
ATOM      4  C   UNL     1     134.131 131.153 133.484  1.00  0.00     0.000 C 
BRANCH   4   5
ATOM      5  C   UNL     1     135.539 131.246 132.867  1.00  0.00     0.006 C 
BRANCH   5   6
ATOM      6  C   UNL     1     135.540 131.882 131.471  1.00  0.00     0.053 C 
BRANCH   6   7
ATOM      7  C   UNL     1     135.672 130.829 130.418  1.00  0.00     0.041 C 
ATOM      8  O   UNL     1     135.484 131.117 129.206  1.00  0.00    -0.550 OA
ATOM      9  O   UNL     1     135.954 129.517 130.777  1.00  0.00    -0.550 OA
ENDBRANCH   6   7
ENDBRANCH   5   6
ENDBRANCH   4   5
ENDBRANCH   3   4
ENDBRANCH   2   3
ENDBRANCH   1   2
BRANCH   1  10
ATOM     10  C   UNL     1     131.968 134.072 133.743  1.00  0.00     0.000 C 
BRANCH  10  11
ATOM     11  C   UNL     1     131.621 135.377 133.009  1.00  0.00    -0.000 C 
BRANCH  11  12
ATOM     12  C   UNL     1     132.867 136.105 132.475  1.00  0.00    -0.000 C 
BRANCH  12  13
ATOM     13  C   UNL     1     134.094 135.916 133.379  1.00  0.00    -0.000 C 
BRANCH  13  14
ATOM     14  C   UNL     1     135.260 135.221 132.657  1.00  0.00    -0.000 C 
BRANCH  14  15
ATOM     15  C   UNL     1     136.591 135.495 133.373  1.00  0.00    -0.000 C 
BRANCH  15  16
ATOM     16  C   UNL     1     137.704 135.925 132.408  1.00  0.00    -0.003 C 
ATOM     17  C   UNL     1     137.281 135.839 130.941  1.00  0.00     0.004 C 
ENDBRANCH  15  16
ENDBRANCH  14  15
ENDBRANCH  13  14
ENDBRANCH  12  13
ENDBRANCH  11  12
ENDBRANCH  10  11
ENDBRANCH   1  10
TORSDOF 13
ENDMDL
MODEL 7
REMARK VINA RESULT:    -5.408      1.200      3.718
REMARK INTER + INTRA:         -10.983
REMARK INTER:                  -9.650
REMARK INTRA:                  -1.333
REMARK UNBOUND:                -1.466
REMARK SMILES CCCCCCCCCCCCCCC(=O)[O-]
REMARK SMILES IDX 9 1 10 2 11 3 12 4 13 5 14 6 15 7 16 8 17 9 8 10 7 11 6 12
REMARK SMILES IDX 5 13 4 14 3 15 2 16 1 17
REMARK H PARENT
REMARK Flexibility Score: inf
ROOT
ATOM      1  C   UNL     1     131.457 134.184 133.405  1.00  0.00     0.000 C 
ENDROOT
BRANCH   1   2
ATOM      2  C   UNL     1     132.838 134.759 133.745  1.00  0.00     0.000 C 
BRANCH   2   3
ATOM      3  C   UNL     1     132.872 136.278 133.523  1.00  0.00     0.000 C 
BRANCH   3   4
ATOM      4  C   UNL     1     131.474 136.883 133.290  1.00  0.00     0.000 C 
BRANCH   4   5
ATOM      5  C   UNL     1     131.369 137.829 132.079  1.00  0.00     0.006 C 
BRANCH   5   6
ATOM      6  C   UNL     1     131.781 137.161 130.762  1.00  0.00     0.053 C 
BRANCH   6   7
ATOM      7  C   UNL     1     131.514 138.074 129.608  1.00  0.00     0.041 C 
ATOM      8  O   UNL     1     132.350 138.962 129.295  1.00  0.00    -0.550 OA
ATOM      9  O   UNL     1     130.318 137.976 128.906  1.00  0.00    -0.550 OA
ENDBRANCH   6   7
ENDBRANCH   5   6
ENDBRANCH   4   5
ENDBRANCH   3   4
ENDBRANCH   2   3
ENDBRANCH   1   2
BRANCH   1  10
ATOM     10  C   UNL     1     131.490 132.649 133.388  1.00  0.00     0.000 C 
BRANCH  10  11
ATOM     11  C   UNL     1     132.671 132.092 132.577  1.00  0.00    -0.000 C 
BRANCH  11  12
ATOM     12  C   UNL     1     133.683 131.330 133.452  1.00  0.00    -0.000 C 
BRANCH  12  13
ATOM     13  C   UNL     1     135.121 131.438 132.923  1.00  0.00    -0.000 C 
BRANCH  13  14
ATOM     14  C   UNL     1     135.762 132.801 133.226  1.00  0.00    -0.000 C 
BRANCH  14  15
ATOM     15  C   UNL     1     136.009 133.592 131.933  1.00  0.00    -0.000 C 
BRANCH  15  16
ATOM     16  C   UNL     1     136.093 135.106 132.173  1.00  0.00    -0.003 C 
ATOM     17  C   UNL     1     136.995 135.469 133.353  1.00  0.00     0.004 C 
ENDBRANCH  15  16
ENDBRANCH  14  15
ENDBRANCH  13  14
ENDBRANCH  12  13
ENDBRANCH  11  12
ENDBRANCH  10  11
ENDBRANCH   1  10
TORSDOF 13
ENDMDL
MODEL 8
REMARK VINA RESULT:    -5.388      2.238      4.516
REMARK INTER + INTRA:         -10.950
REMARK INTER:                  -9.353
REMARK INTRA:                  -1.597
REMARK UNBOUND:                -1.466
REMARK SMILES CCCCCCCCCCCCCCC(=O)[O-]
REMARK SMILES IDX 9 1 10 2 11 3 12 4 13 5 14 6 15 7 16 8 17 9 8 10 7 11 6 12
REMARK SMILES IDX 5 13 4 14 3 15 2 16 1 17
REMARK H PARENT
REMARK Flexibility Score: inf
ROOT
ATOM      1  C   UNL     1     131.817 135.557 133.125  1.00  0.00     0.000 C 
ENDROOT
BRANCH   1   2
ATOM      2  C   UNL     1     133.211 135.457 133.758  1.00  0.00     0.000 C 
BRANCH   2   3
ATOM      3  C   UNL     1     134.309 135.715 132.715  1.00  0.00     0.000 C 
BRANCH   3   4
ATOM      4  C   UNL     1     135.705 135.889 133.342  1.00  0.00     0.000 C 
BRANCH   4   5
ATOM      5  C   UNL     1     136.873 135.382 132.476  1.00  0.00     0.006 C 
BRANCH   5   6
ATOM      6  C   UNL     1     136.420 134.861 131.106  1.00  0.00     0.053 C 
BRANCH   6   7
ATOM      7  C   UNL     1     137.109 135.608 130.009  1.00  0.00     0.041 C 
ATOM      8  O   UNL     1     136.537 136.577 129.446  1.00  0.00    -0.550 OA
ATOM      9  O   UNL     1     138.366 135.204 129.575  1.00  0.00    -0.550 OA
ENDBRANCH   6   7
ENDBRANCH   5   6
ENDBRANCH   4   5
ENDBRANCH   3   4
ENDBRANCH   2   3
ENDBRANCH   1   2
BRANCH   1  10
ATOM     10  C   UNL     1     131.035 134.249 133.308  1.00  0.00     0.000 C 
BRANCH  10  11
ATOM     11  C   UNL     1     131.512 133.138 132.360  1.00  0.00    -0.000 C 
BRANCH  11  12
ATOM     12  C   UNL     1     131.623 131.770 133.058  1.00  0.00    -0.000 C 
BRANCH  12  13
ATOM     13  C   UNL     1     133.049 131.467 133.540  1.00  0.00    -0.000 C 
BRANCH  13  14
ATOM     14  C   UNL     1     134.125 132.028 132.596  1.00  0.00    -0.000 C 
BRANCH  14  15
ATOM     15  C   UNL     1     135.533 131.689 133.106  1.00  0.00    -0.000 C 
BRANCH  15  16
ATOM     16  C   UNL     1     135.874 130.200 132.956  1.00  0.00    -0.003 C 
ATOM     17  C   UNL     1     135.846 129.730 131.502  1.00  0.00     0.004 C 
ENDBRANCH  15  16
ENDBRANCH  14  15
ENDBRANCH  13  14
ENDBRANCH  12  13
ENDBRANCH  11  12
ENDBRANCH  10  11
ENDBRANCH   1  10
TORSDOF 13
ENDMDL
MODEL 9
REMARK VINA RESULT:    -5.342      2.811      5.484
REMARK INTER + INTRA:         -10.868
REMARK INTER:                  -9.476
REMARK INTRA:                  -1.392
REMARK UNBOUND:                -1.466
REMARK SMILES CCCCCCCCCCCCCCC(=O)[O-]
REMARK SMILES IDX 9 1 10 2 11 3 12 4 13 5 14 6 15 7 16 8 17 9 8 10 7 11 6 12
REMARK SMILES IDX 5 13 4 14 3 15 2 16 1 17
REMARK H PARENT
REMARK Flexibility Score: inf
ROOT
ATOM      1  C   UNL     1     132.125 133.116 133.772  1.00  0.00     0.000 C 
ENDROOT
BRANCH   1   2
ATOM      2  C   UNL     1     131.783 131.868 132.949  1.00  0.00     0.000 C 
BRANCH   2   3
ATOM      3  C   UNL     1     130.330 131.431 133.190  1.00  0.00     0.000 C 
BRANCH   3   4
ATOM      4  C   UNL     1     129.485 131.412 131.903  1.00  0.00     0.000 C 
BRANCH   4   5
ATOM      5  C   UNL     1     130.244 131.806 130.622  1.00  0.00     0.006 C 
BRANCH   5   6
ATOM      6  C   UNL     1     129.888 130.923 129.420  1.00  0.00     0.053 C 
BRANCH   6   7
ATOM      7  C   UNL     1     128.713 131.488 128.687  1.00  0.00     0.041 C 
ATOM      8  O   UNL     1     128.341 132.672 128.903  1.00  0.00    -0.550 OA
ATOM      9  O   UNL     1     127.997 130.693 127.801  1.00  0.00    -0.550 OA
ENDBRANCH   6   7
ENDBRANCH   5   6
ENDBRANCH   4   5
ENDBRANCH   3   4
ENDBRANCH   2   3
ENDBRANCH   1   2
BRANCH   1  10
ATOM     10  C   UNL     1     131.364 134.344 133.253  1.00  0.00     0.000 C 
BRANCH  10  11
ATOM     11  C   UNL     1     132.293 135.527 132.940  1.00  0.00    -0.000 C 
BRANCH  11  12
ATOM     12  C   UNL     1     133.552 135.542 133.825  1.00  0.00    -0.000 C 
BRANCH  12  13
ATOM     13  C   UNL     1     134.848 135.631 133.006  1.00  0.00    -0.000 C 
BRANCH  13  14
ATOM     14  C   UNL     1     135.843 134.512 133.350  1.00  0.00    -0.000 C 
BRANCH  14  15
ATOM     15  C   UNL     1     135.575 133.259 132.502  1.00  0.00    -0.000 C 
BRANCH  15  16
ATOM     16  C   UNL     1     135.668 131.963 133.318  1.00  0.00    -0.003 C 
ATOM     17  C   UNL     1     135.443 130.712 132.469  1.00  0.00     0.004 C 
ENDBRANCH  15  16
ENDBRANCH  14  15
ENDBRANCH  13  14
ENDBRANCH  12  13
ENDBRANCH  11  12
ENDBRANCH  10  11
ENDBRANCH   1  10
TORSDOF 13
ENDMDL
