MODEL 1
REMARK VINA RESULT:    -3.705      0.000      0.000
REMARK INTER + INTRA:          -9.248
REMARK INTER:                  -7.171
REMARK INTRA:                  -2.077
REMARK UNBOUND:                -2.077
REMARK SMILES CCCCCCCCCCCCCCCCCC(=O)[O-]
REMARK SMILES IDX 10 1 11 2 12 3 13 4 14 5 15 6 16 7 17 8 18 9 19 10 20 11
REMARK SMILES IDX 9 12 8 13 7 14 6 15 5 16 4 17 3 18 2 19 1 20
REMARK H PARENT
REMARK Flexibility Score: inf
ROOT
ATOM      1  C   UNL     1      58.140   3.886  95.612  1.00  0.00     0.000 C 
ENDROOT
BRANCH   1   2
ATOM      2  C   UNL     1      57.627   5.314  95.835  1.00  0.00     0.000 C 
BRANCH   2   3
ATOM      3  C   UNL     1      58.635   6.141  96.646  1.00  0.00     0.000 C 
BRANCH   3   4
ATOM      4  C   UNL     1      60.020   5.477  96.726  1.00  0.00     0.000 C 
BRANCH   4   5
ATOM      5  C   UNL     1      61.117   6.315  96.046  1.00  0.00     0.000 C 
BRANCH   5   6
ATOM      6  C   UNL     1      60.761   7.810  95.979  1.00  0.00     0.000 C 
BRANCH   6   7
ATOM      7  C   UNL     1      60.904   8.392  94.565  1.00  0.00     0.006 C 
BRANCH   7   8
ATOM      8  C   UNL     1      60.617   7.325  93.503  1.00  0.00     0.053 C 
BRANCH   8   9
ATOM      9  C   UNL     1      59.171   7.345  93.119  1.00  0.00     0.041 C 
ATOM     10  O   UNL     1      58.684   6.402  92.440  1.00  0.00    -0.550 OA
ATOM     11  O   UNL     1      58.373   8.427  93.468  1.00  0.00    -0.550 OA
ENDBRANCH   8   9
ENDBRANCH   7   8
ENDBRANCH   6   7
ENDBRANCH   5   6
ENDBRANCH   4   5
ENDBRANCH   3   4
ENDBRANCH   2   3
ENDBRANCH   1   2
BRANCH   1  12
ATOM     12  C   UNL     1      57.202   2.856  96.254  1.00  0.00     0.000 C 
BRANCH  12  13
ATOM     13  C   UNL     1      57.986   1.640  96.763  1.00  0.00    -0.000 C 
BRANCH  13  14
ATOM     14  C   UNL     1      59.438   2.018  97.088  1.00  0.00    -0.000 C 
BRANCH  14  15
ATOM     15  C   UNL     1      60.413   0.845  96.900  1.00  0.00    -0.000 C 
BRANCH  15  16
ATOM     16  C   UNL     1      59.778  -0.335  96.148  1.00  0.00    -0.000 C 
BRANCH  16  17
ATOM     17  C   UNL     1      60.594  -0.691  94.899  1.00  0.00    -0.000 C 
BRANCH  17  18
ATOM     18  C   UNL     1      59.685  -1.193  93.772  1.00  0.00    -0.000 C 
BRANCH  18  19
ATOM     19  C   UNL     1      59.201  -0.031  92.896  1.00  0.00    -0.003 C 
ATOM     20  C   UNL     1      57.755   0.336  93.216  1.00  0.00     0.004 C 
ENDBRANCH  18  19
ENDBRANCH  17  18
ENDBRANCH  16  17
ENDBRANCH  15  16
ENDBRANCH  14  15
ENDBRANCH  13  14
ENDBRANCH  12  13
ENDBRANCH   1  12
TORSDOF 16
ENDMDL
MODEL 2
REMARK VINA RESULT:    -3.667      1.630      3.031
REMARK INTER + INTRA:          -9.175
REMARK INTER:                  -7.533
REMARK INTRA:                  -1.641
REMARK UNBOUND:                -2.077
REMARK SMILES CCCCCCCCCCCCCCCCCC(=O)[O-]
REMARK SMILES IDX 10 1 11 2 12 3 13 4 14 5 15 6 16 7 17 8 18 9 19 10 20 11
REMARK SMILES IDX 9 12 8 13 7 14 6 15 5 16 4 17 3 18 2 19 1 20
REMARK H PARENT
REMARK Flexibility Score: inf
ROOT
ATOM      1  C   UNL     1      58.170   1.086  96.388  1.00  0.00     0.000 C 
ENDROOT
BRANCH   1   2
ATOM      2  C   UNL     1      57.429   2.303  95.820  1.00  0.00     0.000 C 
BRANCH   2   3
ATOM      3  C   UNL     1      57.032   3.277  96.940  1.00  0.00     0.000 C 
BRANCH   3   4
ATOM      4  C   UNL     1      57.190   4.750  96.530  1.00  0.00     0.000 C 
BRANCH   4   5
ATOM      5  C   UNL     1      58.504   5.015  95.774  1.00  0.00     0.000 C 
BRANCH   5   6
ATOM      6  C   UNL     1      59.669   5.356  96.718  1.00  0.00     0.000 C 
BRANCH   6   7
ATOM      7  C   UNL     1      60.757   6.200  96.038  1.00  0.00     0.006 C 
BRANCH   7   8
ATOM      8  C   UNL     1      60.141   7.390  95.295  1.00  0.00     0.053 C 
BRANCH   8   9
ATOM      9  C   UNL     1      60.453   8.670  96.004  1.00  0.00     0.041 C 
ATOM     10  O   UNL     1      61.122   8.656  97.071  1.00  0.00    -0.550 OA
ATOM     11  O   UNL     1      59.962   9.874  95.514  1.00  0.00    -0.550 OA
ENDBRANCH   8   9
ENDBRANCH   7   8
ENDBRANCH   6   7
ENDBRANCH   5   6
ENDBRANCH   4   5
ENDBRANCH   3   4
ENDBRANCH   2   3
ENDBRANCH   1   2
BRANCH   1  12
ATOM     12  C   UNL     1      59.550   1.482  96.926  1.00  0.00     0.000 C 
BRANCH  12  13
ATOM     13  C   UNL     1      60.558   0.338  96.754  1.00  0.00    -0.000 C 
BRANCH  13  14
ATOM     14  C   UNL     1      60.043  -0.700  95.746  1.00  0.00    -0.000 C 
BRANCH  14  15
ATOM     15  C   UNL     1      61.057  -0.996  94.630  1.00  0.00    -0.000 C 
BRANCH  15  16
ATOM     16  C   UNL     1      60.389  -1.181  93.259  1.00  0.00    -0.000 C 
BRANCH  16  17
ATOM     17  C   UNL     1      58.881  -0.915  93.344  1.00  0.00    -0.000 C 
BRANCH  17  18
ATOM     18  C   UNL     1      58.506   0.375  92.606  1.00  0.00    -0.000 C 
BRANCH  18  19
ATOM     19  C   UNL     1      58.482   0.154  91.089  1.00  0.00    -0.003 C 
ATOM     20  C   UNL     1      57.789  -1.158  90.734  1.00  0.00     0.004 C 
ENDBRANCH  18  19
ENDBRANCH  17  18
ENDBRANCH  16  17
ENDBRANCH  15  16
ENDBRANCH  14  15
ENDBRANCH  13  14
ENDBRANCH  12  13
ENDBRANCH   1  12
TORSDOF 16
ENDMDL
MODEL 3
REMARK VINA RESULT:    -3.602      2.070      3.923
REMARK INTER + INTRA:          -9.049
REMARK INTER:                  -6.759
REMARK INTRA:                  -2.290
REMARK UNBOUND:                -2.077
REMARK SMILES CCCCCCCCCCCCCCCCCC(=O)[O-]
REMARK SMILES IDX 10 1 11 2 12 3 13 4 14 5 15 6 16 7 17 8 18 9 19 10 20 11
REMARK SMILES IDX 9 12 8 13 7 14 6 15 5 16 4 17 3 18 2 19 1 20
REMARK H PARENT
REMARK Flexibility Score: inf
ROOT
ATOM      1  C   UNL     1      59.222   2.030  97.040  1.00  0.00     0.000 C 
ENDROOT
BRANCH   1   2
ATOM      2  C   UNL     1      58.036   1.553  96.192  1.00  0.00     0.000 C 
BRANCH   2   3
ATOM      3  C   UNL     1      56.701   1.918  96.860  1.00  0.00     0.000 C 
BRANCH   3   4
ATOM      4  C   UNL     1      56.277   3.370  96.586  1.00  0.00     0.000 C 
BRANCH   4   5
ATOM      5  C   UNL     1      56.702   3.856  95.190  1.00  0.00     0.000 C 
BRANCH   5   6
ATOM      6  C   UNL     1      57.227   5.301  95.203  1.00  0.00     0.000 C 
BRANCH   6   7
ATOM      7  C   UNL     1      58.730   5.385  95.511  1.00  0.00     0.006 C 
BRANCH   7   8
ATOM      8  C   UNL     1      58.968   5.921  96.926  1.00  0.00     0.053 C 
BRANCH   8   9
ATOM      9  C   UNL     1      59.162   7.404  96.900  1.00  0.00     0.041 C 
ATOM     10  O   UNL     1      58.191   8.173  97.125  1.00  0.00    -0.550 OA
ATOM     11  O   UNL     1      60.404   7.938  96.578  1.00  0.00    -0.550 OA
ENDBRANCH   8   9
ENDBRANCH   7   8
ENDBRANCH   6   7
ENDBRANCH   5   6
ENDBRANCH   4   5
ENDBRANCH   3   4
ENDBRANCH   2   3
ENDBRANCH   1   2
BRANCH   1  12
ATOM     12  C   UNL     1      60.427   1.095  96.877  1.00  0.00     0.000 C 
BRANCH  12  13
ATOM     13  C   UNL     1      60.013  -0.229  96.224  1.00  0.00    -0.000 C 
BRANCH  13  14
ATOM     14  C   UNL     1      60.861  -0.517  94.977  1.00  0.00    -0.000 C 
BRANCH  14  15
ATOM     15  C   UNL     1      60.015  -0.635  93.699  1.00  0.00    -0.000 C 
BRANCH  15  16
ATOM     16  C   UNL     1      58.837  -1.608  93.859  1.00  0.00    -0.000 C 
BRANCH  16  17
ATOM     17  C   UNL     1      57.502  -0.900  93.599  1.00  0.00    -0.000 C 
BRANCH  17  18
ATOM     18  C   UNL     1      56.408  -1.425  94.535  1.00  0.00    -0.000 C 
BRANCH  18  19
ATOM     19  C   UNL     1      57.017  -2.044  95.799  1.00  0.00    -0.003 C 
ATOM     20  C   UNL     1      56.174  -1.724  97.031  1.00  0.00     0.004 C 
ENDBRANCH  18  19
ENDBRANCH  17  18
ENDBRANCH  16  17
ENDBRANCH  15  16
ENDBRANCH  14  15
ENDBRANCH  13  14
ENDBRANCH  12  13
ENDBRANCH   1  12
TORSDOF 16
ENDMDL
MODEL 4
REMARK VINA RESULT:    -3.534      2.230      6.651
REMARK INTER + INTRA:          -8.916
REMARK INTER:                  -6.894
REMARK INTRA:                  -2.022
REMARK UNBOUND:                -2.077
REMARK SMILES CCCCCCCCCCCCCCCCCC(=O)[O-]
REMARK SMILES IDX 10 1 11 2 12 3 13 4 14 5 15 6 16 7 17 8 18 9 19 10 20 11
REMARK SMILES IDX 9 12 8 13 7 14 6 15 5 16 4 17 3 18 2 19 1 20
REMARK H PARENT
REMARK Flexibility Score: inf
ROOT
ATOM      1  C   UNL     1      56.993   2.556  96.208  1.00  0.00     0.000 C 
ENDROOT
BRANCH   1   2
ATOM      2  C   UNL     1      57.928   1.429  96.665  1.00  0.00     0.000 C 
BRANCH   2   3
ATOM      3  C   UNL     1      59.313   1.980  97.038  1.00  0.00     0.000 C 
BRANCH   3   4
ATOM      4  C   UNL     1      60.446   0.980  96.756  1.00  0.00     0.000 C 
BRANCH   4   5
ATOM      5  C   UNL     1      59.939  -0.320  96.107  1.00  0.00     0.000 C 
BRANCH   5   6
ATOM      6  C   UNL     1      60.768  -0.728  94.878  1.00  0.00     0.000 C 
BRANCH   6   7
ATOM      7  C   UNL     1      59.903  -0.983  93.635  1.00  0.00     0.006 C 
BRANCH   7   8
ATOM      8  C   UNL     1      58.460  -1.312  94.032  1.00  0.00     0.053 C 
BRANCH   8   9
ATOM      9  C   UNL     1      57.498  -0.464  93.262  1.00  0.00     0.041 C 
ATOM     10  O   UNL     1      56.504  -0.990  92.695  1.00  0.00    -0.550 OA
ATOM     11  O   UNL     1      57.725   0.899  93.127  1.00  0.00    -0.550 OA
ENDBRANCH   8   9
ENDBRANCH   7   8
ENDBRANCH   6   7
ENDBRANCH   5   6
ENDBRANCH   4   5
ENDBRANCH   3   4
ENDBRANCH   2   3
ENDBRANCH   1   2
BRANCH   1  12
ATOM     12  C   UNL     1      57.786   3.713  95.589  1.00  0.00     0.000 C 
BRANCH  12  13
ATOM     13  C   UNL     1      57.411   5.050  96.241  1.00  0.00    -0.000 C 
BRANCH  13  14
ATOM     14  C   UNL     1      58.553   5.570  97.125  1.00  0.00    -0.000 C 
BRANCH  14  15
ATOM     15  C   UNL     1      59.914   5.541  96.412  1.00  0.00    -0.000 C 
BRANCH  15  16
ATOM     16  C   UNL     1      60.567   6.929  96.329  1.00  0.00    -0.000 C 
BRANCH  16  17
ATOM     17  C   UNL     1      61.113   7.195  94.920  1.00  0.00    -0.000 C 
BRANCH  17  18
ATOM     18  C   UNL     1      60.269   8.246  94.192  1.00  0.00    -0.000 C 
BRANCH  18  19
ATOM     19  C   UNL     1      58.849   7.729  93.933  1.00  0.00    -0.003 C 
ATOM     20  C   UNL     1      58.844   6.650  92.854  1.00  0.00     0.004 C 
ENDBRANCH  18  19
ENDBRANCH  17  18
ENDBRANCH  16  17
ENDBRANCH  15  16
ENDBRANCH  14  15
ENDBRANCH  13  14
ENDBRANCH  12  13
ENDBRANCH   1  12
TORSDOF 16
ENDMDL
MODEL 5
REMARK VINA RESULT:    -3.512      3.987      7.550
REMARK INTER + INTRA:          -8.874
REMARK INTER:                  -6.602
REMARK INTRA:                  -2.272
REMARK UNBOUND:                -2.077
REMARK SMILES CCCCCCCCCCCCCCCCCC(=O)[O-]
REMARK SMILES IDX 10 1 11 2 12 3 13 4 14 5 15 6 16 7 17 8 18 9 19 10 20 11
REMARK SMILES IDX 9 12 8 13 7 14 6 15 5 16 4 17 3 18 2 19 1 20
REMARK H PARENT
REMARK Flexibility Score: inf
ROOT
ATOM      1  C   UNL     1      61.017  -1.233  94.459  1.00  0.00     0.000 C 
ENDROOT
BRANCH   1   2
ATOM      2  C   UNL     1      60.394  -1.557  93.095  1.00  0.00     0.000 C 
BRANCH   2   3
ATOM      3  C   UNL     1      59.855  -0.286  92.421  1.00  0.00     0.000 C 
BRANCH   3   4
ATOM      4  C   UNL     1      58.372  -0.402  92.035  1.00  0.00     0.000 C 
BRANCH   4   5
ATOM      5  C   UNL     1      57.471   0.532  92.863  1.00  0.00     0.000 C 
BRANCH   5   6
ATOM      6  C   UNL     1      56.079  -0.067  93.121  1.00  0.00     0.000 C 
BRANCH   6   7
ATOM      7  C   UNL     1      55.834  -0.381  94.605  1.00  0.00     0.006 C 
BRANCH   7   8
ATOM      8  C   UNL     1      56.438  -1.736  94.985  1.00  0.00     0.053 C 
BRANCH   8   9
ATOM      9  C   UNL     1      55.527  -2.475  95.914  1.00  0.00     0.041 C 
ATOM     10  O   UNL     1      54.311  -2.624  95.622  1.00  0.00    -0.550 OA
ATOM     11  O   UNL     1      56.009  -2.955  97.125  1.00  0.00    -0.550 OA
ENDBRANCH   8   9
ENDBRANCH   7   8
ENDBRANCH   6   7
ENDBRANCH   5   6
ENDBRANCH   4   5
ENDBRANCH   3   4
ENDBRANCH   2   3
ENDBRANCH   1   2
BRANCH   1  12
ATOM     12  C   UNL     1      59.975  -0.639  95.414  1.00  0.00     0.000 C 
BRANCH  12  13
ATOM     13  C   UNL     1      60.650   0.107  96.572  1.00  0.00    -0.000 C 
BRANCH  13  14
ATOM     14  C   UNL     1      59.935   1.434  96.862  1.00  0.00    -0.000 C 
BRANCH  14  15
ATOM     15  C   UNL     1      58.630   1.592  96.064  1.00  0.00    -0.000 C 
BRANCH  15  16
ATOM     16  C   UNL     1      57.446   2.014  96.946  1.00  0.00    -0.000 C 
BRANCH  16  17
ATOM     17  C   UNL     1      57.262   3.536  96.925  1.00  0.00    -0.000 C 
BRANCH  17  18
ATOM     18  C   UNL     1      57.533   4.105  95.527  1.00  0.00    -0.000 C 
BRANCH  18  19
ATOM     19  C   UNL     1      58.518   5.278  95.593  1.00  0.00    -0.003 C 
ATOM     20  C   UNL     1      59.323   5.251  96.888  1.00  0.00     0.004 C 
ENDBRANCH  18  19
ENDBRANCH  17  18
ENDBRANCH  16  17
ENDBRANCH  15  16
ENDBRANCH  14  15
ENDBRANCH  13  14
ENDBRANCH  12  13
ENDBRANCH   1  12
TORSDOF 16
ENDMDL
MODEL 6
REMARK VINA RESULT:    -3.500      1.696      4.073
REMARK INTER + INTRA:          -8.850
REMARK INTER:                  -6.383
REMARK INTRA:                  -2.467
REMARK UNBOUND:                -2.077
REMARK SMILES CCCCCCCCCCCCCCCCCC(=O)[O-]
REMARK SMILES IDX 10 1 11 2 12 3 13 4 14 5 15 6 16 7 17 8 18 9 19 10 20 11
REMARK SMILES IDX 9 12 8 13 7 14 6 15 5 16 4 17 3 18 2 19 1 20
REMARK H PARENT
REMARK Flexibility Score: inf
ROOT
ATOM      1  C   UNL     1      56.773   0.175  92.599  1.00  0.00     0.000 C 
ENDROOT
BRANCH   1   2
ATOM      2  C   UNL     1      57.336   1.537  93.024  1.00  0.00     0.000 C 
BRANCH   2   3
ATOM      3  C   UNL     1      56.712   2.000  94.349  1.00  0.00     0.000 C 
BRANCH   3   4
ATOM      4  C   UNL     1      57.352   3.291  94.887  1.00  0.00     0.000 C 
BRANCH   4   5
ATOM      5  C   UNL     1      57.468   3.297  96.422  1.00  0.00     0.000 C 
BRANCH   5   6
ATOM      6  C   UNL     1      58.867   3.711  96.906  1.00  0.00     0.000 C 
BRANCH   6   7
ATOM      7  C   UNL     1      59.024   5.234  97.035  1.00  0.00     0.006 C 
BRANCH   7   8
ATOM      8  C   UNL     1      60.341   5.703  96.408  1.00  0.00     0.053 C 
BRANCH   8   9
ATOM      9  C   UNL     1      60.119   6.928  95.578  1.00  0.00     0.041 C 
ATOM     10  O   UNL     1      59.799   8.015  96.127  1.00  0.00    -0.550 OA
ATOM     11  O   UNL     1      60.217   6.858  94.194  1.00  0.00    -0.550 OA
ENDBRANCH   8   9
ENDBRANCH   7   8
ENDBRANCH   6   7
ENDBRANCH   5   6
ENDBRANCH   4   5
ENDBRANCH   3   4
ENDBRANCH   2   3
ENDBRANCH   1   2
BRANCH   1  12
ATOM     12  C   UNL     1      57.886  -0.744  92.079  1.00  0.00     0.000 C 
BRANCH  12  13
ATOM     13  C   UNL     1      59.271  -0.172  92.409  1.00  0.00    -0.000 C 
BRANCH  13  14
ATOM     14  C   UNL     1      60.266  -1.296  92.733  1.00  0.00    -0.000 C 
BRANCH  14  15
ATOM     15  C   UNL     1      60.782  -1.231  94.180  1.00  0.00    -0.000 C 
BRANCH  15  16
ATOM     16  C   UNL     1      60.224  -0.026  94.952  1.00  0.00    -0.000 C 
BRANCH  16  17
ATOM     17  C   UNL     1      59.651  -0.462  96.307  1.00  0.00    -0.000 C 
BRANCH  17  18
ATOM     18  C   UNL     1      58.121  -0.366  96.315  1.00  0.00    -0.000 C 
BRANCH  18  19
ATOM     19  C   UNL     1      57.487  -1.644  95.753  1.00  0.00    -0.003 C 
ATOM     20  C   UNL     1      55.968  -1.520  95.681  1.00  0.00     0.004 C 
ENDBRANCH  18  19
ENDBRANCH  17  18
ENDBRANCH  16  17
ENDBRANCH  15  16
ENDBRANCH  14  15
ENDBRANCH  13  14
ENDBRANCH  12  13
ENDBRANCH   1  12
TORSDOF 16
ENDMDL
MODEL 7
REMARK VINA RESULT:    -3.489      1.666      2.425
REMARK INTER + INTRA:          -8.829
REMARK INTER:                  -7.369
REMARK INTRA:                  -1.460
REMARK UNBOUND:                -2.077
REMARK SMILES CCCCCCCCCCCCCCCCCC(=O)[O-]
REMARK SMILES IDX 10 1 11 2 12 3 13 4 14 5 15 6 16 7 17 8 18 9 19 10 20 11
REMARK SMILES IDX 9 12 8 13 7 14 6 15 5 16 4 17 3 18 2 19 1 20
REMARK H PARENT
REMARK Flexibility Score: inf
ROOT
ATOM      1  C   UNL     1      57.737   2.498  95.335  1.00  0.00     0.000 C 
ENDROOT
BRANCH   1   2
ATOM      2  C   UNL     1      57.026   3.823  95.640  1.00  0.00     0.000 C 
BRANCH   2   3
ATOM      3  C   UNL     1      57.981   5.013  95.461  1.00  0.00     0.000 C 
BRANCH   3   4
ATOM      4  C   UNL     1      58.623   5.463  96.783  1.00  0.00     0.000 C 
BRANCH   4   5
ATOM      5  C   UNL     1      60.157   5.544  96.697  1.00  0.00     0.000 C 
BRANCH   5   6
ATOM      6  C   UNL     1      60.638   6.714  95.823  1.00  0.00     0.000 C 
BRANCH   6   7
ATOM      7  C   UNL     1      61.118   7.916  96.650  1.00  0.00     0.006 C 
BRANCH   7   8
ATOM      8  C   UNL     1      60.052   9.015  96.688  1.00  0.00     0.053 C 
BRANCH   8   9
ATOM      9  C   UNL     1      59.832   9.579  95.319  1.00  0.00     0.041 C 
ATOM     10  O   UNL     1      60.694  10.337  94.800  1.00  0.00    -0.550 OA
ATOM     11  O   UNL     1      58.653   9.307  94.636  1.00  0.00    -0.550 OA
ENDBRANCH   8   9
ENDBRANCH   7   8
ENDBRANCH   6   7
ENDBRANCH   5   6
ENDBRANCH   4   5
ENDBRANCH   3   4
ENDBRANCH   2   3
ENDBRANCH   1   2
BRANCH   1  12
ATOM     12  C   UNL     1      56.905   1.633  94.381  1.00  0.00     0.000 C 
BRANCH  12  13
ATOM     13  C   UNL     1      56.650   0.243  94.978  1.00  0.00    -0.000 C 
BRANCH  13  14
ATOM     14  C   UNL     1      57.412   0.064  96.299  1.00  0.00    -0.000 C 
BRANCH  14  15
ATOM     15  C   UNL     1      58.558  -0.955  96.190  1.00  0.00    -0.000 C 
BRANCH  15  16
ATOM     16  C   UNL     1      59.942  -0.290  96.190  1.00  0.00    -0.000 C 
BRANCH  16  17
ATOM     17  C   UNL     1      60.772  -0.751  94.985  1.00  0.00    -0.000 C 
BRANCH  17  18
ATOM     18  C   UNL     1      60.000  -0.552  93.676  1.00  0.00    -0.000 C 
BRANCH  18  19
ATOM     19  C   UNL     1      60.355  -1.642  92.657  1.00  0.00    -0.003 C 
ATOM     20  C   UNL     1      60.079  -3.033  93.220  1.00  0.00     0.004 C 
ENDBRANCH  18  19
ENDBRANCH  17  18
ENDBRANCH  16  17
ENDBRANCH  15  16
ENDBRANCH  14  15
ENDBRANCH  13  14
ENDBRANCH  12  13
ENDBRANCH   1  12
TORSDOF 16
ENDMDL
MODEL 8
REMARK VINA RESULT:    -3.476      3.654      7.522
REMARK INTER + INTRA:          -8.804
REMARK INTER:                  -7.447
REMARK INTRA:                  -1.356
REMARK UNBOUND:                -2.077
REMARK SMILES CCCCCCCCCCCCCCCCCC(=O)[O-]
REMARK SMILES IDX 10 1 11 2 12 3 13 4 14 5 15 6 16 7 17 8 18 9 19 10 20 11
REMARK SMILES IDX 9 12 8 13 7 14 6 15 5 16 4 17 3 18 2 19 1 20
REMARK H PARENT
REMARK Flexibility Score: inf
ROOT
ATOM      1  C   UNL     1      57.865   3.019  95.858  1.00  0.00     0.000 C 
ENDROOT
BRANCH   1   2
ATOM      2  C   UNL     1      58.375   1.625  96.242  1.00  0.00     0.000 C 
BRANCH   2   3
ATOM      3  C   UNL     1      59.640   1.722  97.108  1.00  0.00     0.000 C 
BRANCH   3   4
ATOM      4  C   UNL     1      60.689   0.656  96.750  1.00  0.00     0.000 C 
BRANCH   4   5
ATOM      5  C   UNL     1      60.057  -0.624  96.173  1.00  0.00     0.000 C 
BRANCH   5   6
ATOM      6  C   UNL     1      60.743  -1.089  94.878  1.00  0.00     0.000 C 
BRANCH   6   7
ATOM      7  C   UNL     1      59.741  -1.480  93.782  1.00  0.00     0.006 C 
BRANCH   7   8
ATOM      8  C   UNL     1      60.424  -1.542  92.413  1.00  0.00     0.053 C 
BRANCH   8   9
ATOM      9  C   UNL     1      60.610  -2.963  91.983  1.00  0.00     0.041 C 
ATOM     10  O   UNL     1      60.292  -3.318  90.818  1.00  0.00    -0.550 OA
ATOM     11  O   UNL     1      61.088  -3.905  92.885  1.00  0.00    -0.550 OA
ENDBRANCH   8   9
ENDBRANCH   7   8
ENDBRANCH   6   7
ENDBRANCH   5   6
ENDBRANCH   4   5
ENDBRANCH   3   4
ENDBRANCH   2   3
ENDBRANCH   1   2
BRANCH   1  12
ATOM     12  C   UNL     1      58.444   4.094  96.787  1.00  0.00     0.000 C 
BRANCH  12  13
ATOM     13  C   UNL     1      58.832   5.352  96.000  1.00  0.00    -0.000 C 
BRANCH  13  14
ATOM     14  C   UNL     1      58.551   6.620  96.817  1.00  0.00    -0.000 C 
BRANCH  14  15
ATOM     15  C   UNL     1      59.716   7.622  96.777  1.00  0.00    -0.000 C 
BRANCH  15  16
ATOM     16  C   UNL     1      60.893   7.125  95.924  1.00  0.00    -0.000 C 
BRANCH  16  17
ATOM     17  C   UNL     1      61.125   8.046  94.719  1.00  0.00    -0.000 C 
BRANCH  17  18
ATOM     18  C   UNL     1      60.758   7.341  93.409  1.00  0.00    -0.000 C 
BRANCH  18  19
ATOM     19  C   UNL     1      59.351   7.738  92.946  1.00  0.00    -0.003 C 
ATOM     20  C   UNL     1      58.513   6.508  92.613  1.00  0.00     0.004 C 
ENDBRANCH  18  19
ENDBRANCH  17  18
ENDBRANCH  16  17
ENDBRANCH  15  16
ENDBRANCH  14  15
ENDBRANCH  13  14
ENDBRANCH  12  13
ENDBRANCH   1  12
TORSDOF 16
ENDMDL
