MODEL 1
REMARK VINA RESULT:    -6.800      0.000      0.000
REMARK INTER + INTRA:          -7.419
REMARK INTER:                  -7.197
REMARK INTRA:                  -0.222
REMARK UNBOUND:                -0.222
REMARK SMILES O=c1cc(-c2ccccc2)oc2ccccc12
REMARK SMILES IDX 4 1 3 2 2 3 1 4 17 5 16 6 15 7 14 8 13 9 12 10 11 11 5 12
REMARK SMILES IDX 8 13 7 14 9 15 6 16 10 17
REMARK H PARENT
REMARK Flexibility Score: inf
ROOT
ATOM      1  C   UNL     1       7.111  -5.117   5.810  1.00  0.00     0.138 A 
ATOM      2  C   UNL     1       8.000  -4.829   6.867  1.00  0.00     0.100 A 
ATOM      3  C   UNL     1       8.928  -3.796   6.723  1.00  0.00     0.193 A 
ATOM      4  O   UNL     1       9.724  -3.538   7.668  1.00  0.00    -0.289 OA
ATOM      5  C   UNL     1       8.963  -3.060   5.530  1.00  0.00     0.065 A 
ATOM      6  C   UNL     1       9.874  -2.008   5.320  1.00  0.00     0.016 A 
ATOM      7  C   UNL     1       9.865  -1.307   4.111  1.00  0.00     0.001 A 
ATOM      8  C   UNL     1       8.954  -1.647   3.107  1.00  0.00     0.004 A 
ATOM      9  C   UNL     1       8.046  -2.691   3.307  1.00  0.00     0.048 A 
ATOM     10  C   UNL     1       8.046  -3.399   4.513  1.00  0.00     0.138 A 
ATOM     11  O   UNL     1       7.179  -4.391   4.694  1.00  0.00    -0.456 OA
ENDROOT
BRANCH   1  12
ATOM     12  C   UNL     1       6.087  -6.205   5.882  1.00  0.00     0.017 A 
ATOM     13  C   UNL     1       4.224  -8.323   5.998  1.00  0.00     0.000 A 
ATOM     14  C   UNL     1       5.570  -8.589   5.745  1.00  0.00     0.001 A 
ATOM     15  C   UNL     1       3.800  -7.009   6.193  1.00  0.00     0.001 A 
ATOM     16  C   UNL     1       6.494  -7.541   5.688  1.00  0.00     0.012 A 
ATOM     17  C   UNL     1       4.718  -5.955   6.136  1.00  0.00     0.012 A 
ENDBRANCH   1  12
TORSDOF 1
ENDMDL
MODEL 2
REMARK VINA RESULT:    -6.623      1.477      5.827
REMARK INTER + INTRA:          -7.232
REMARK INTER:                  -6.966
REMARK INTRA:                  -0.265
REMARK UNBOUND:                -0.222
REMARK SMILES O=c1cc(-c2ccccc2)oc2ccccc12
REMARK SMILES IDX 4 1 3 2 2 3 1 4 17 5 16 6 15 7 14 8 13 9 12 10 11 11 5 12
REMARK SMILES IDX 8 13 7 14 9 15 6 16 10 17
REMARK H PARENT
REMARK Flexibility Score: inf
ROOT
ATOM      1  C   UNL     1       7.623  -4.734   5.941  1.00  0.00     0.138 A 
ATOM      2  C   UNL     1       8.107  -5.138   7.203  1.00  0.00     0.100 A 
ATOM      3  C   UNL     1       7.337  -5.990   7.996  1.00  0.00     0.193 A 
ATOM      4  O   UNL     1       7.769  -6.351   9.125  1.00  0.00    -0.289 OA
ATOM      5  C   UNL     1       6.093  -6.435   7.525  1.00  0.00     0.065 A 
ATOM      6  C   UNL     1       5.267  -7.294   8.273  1.00  0.00     0.016 A 
ATOM      7  C   UNL     1       4.036  -7.706   7.755  1.00  0.00     0.001 A 
ATOM      8  C   UNL     1       3.620  -7.267   6.494  1.00  0.00     0.004 A 
ATOM      9  C   UNL     1       4.434  -6.413   5.745  1.00  0.00     0.048 A 
ATOM     10  C   UNL     1       5.668  -5.994   6.253  1.00  0.00     0.138 A 
ATOM     11  O   UNL     1       6.435  -5.181   5.534  1.00  0.00    -0.456 OA
ENDROOT
BRANCH   1  12
ATOM     12  C   UNL     1       8.384  -3.823   5.031  1.00  0.00     0.017 A 
ATOM     13  C   UNL     1       9.743  -2.101   3.254  1.00  0.00     0.000 A 
ATOM     14  C   UNL     1       8.432  -2.495   2.981  1.00  0.00     0.001 A 
ATOM     15  C   UNL     1      10.381  -2.561   4.405  1.00  0.00     0.001 A 
ATOM     16  C   UNL     1       7.758  -3.348   3.860  1.00  0.00     0.012 A 
ATOM     17  C   UNL     1       9.713  -3.414   5.290  1.00  0.00     0.012 A 
ENDBRANCH   1  12
TORSDOF 1
ENDMDL
MODEL 3
REMARK VINA RESULT:    -6.526      1.437      2.539
REMARK INTER + INTRA:          -7.130
REMARK INTER:                  -6.904
REMARK INTRA:                  -0.226
REMARK UNBOUND:                -0.222
REMARK SMILES O=c1cc(-c2ccccc2)oc2ccccc12
REMARK SMILES IDX 4 1 3 2 2 3 1 4 17 5 16 6 15 7 14 8 13 9 12 10 11 11 5 12
REMARK SMILES IDX 8 13 7 14 9 15 6 16 10 17
REMARK H PARENT
REMARK Flexibility Score: inf
ROOT
ATOM      1  C   UNL     1       7.397  -4.573   5.387  1.00  0.00     0.138 A 
ATOM      2  C   UNL     1       7.704  -3.862   4.208  1.00  0.00     0.100 A 
ATOM      3  C   UNL     1       8.614  -2.804   4.260  1.00  0.00     0.193 A 
ATOM      4  O   UNL     1       8.889  -2.167   3.206  1.00  0.00    -0.289 OA
ATOM      5  C   UNL     1       9.210  -2.465   5.483  1.00  0.00     0.065 A 
ATOM      6  C   UNL     1      10.134  -1.410   5.605  1.00  0.00     0.016 A 
ATOM      7  C   UNL     1      10.698  -1.115   6.849  1.00  0.00     0.001 A 
ATOM      8  C   UNL     1      10.347  -1.864   7.976  1.00  0.00     0.004 A 
ATOM      9  C   UNL     1       9.430  -2.912   7.865  1.00  0.00     0.048 A 
ATOM     10  C   UNL     1       8.859  -3.217   6.624  1.00  0.00     0.138 A 
ATOM     11  O   UNL     1       7.987  -4.216   6.528  1.00  0.00    -0.456 OA
ENDROOT
BRANCH   1  12
ATOM     12  C   UNL     1       6.434  -5.717   5.420  1.00  0.00     0.017 A 
ATOM     13  C   UNL     1       4.681  -7.930   5.430  1.00  0.00     0.000 A 
ATOM     14  C   UNL     1       5.924  -8.026   4.802  1.00  0.00     0.001 A 
ATOM     15  C   UNL     1       4.306  -6.740   6.052  1.00  0.00     0.001 A 
ATOM     16  C   UNL     1       6.793  -6.931   4.796  1.00  0.00     0.012 A 
ATOM     17  C   UNL     1       5.170  -5.640   6.050  1.00  0.00     0.012 A 
ENDBRANCH   1  12
TORSDOF 1
ENDMDL
MODEL 4
REMARK VINA RESULT:    -6.502      1.696      6.190
REMARK INTER + INTRA:          -7.104
REMARK INTER:                  -6.867
REMARK INTRA:                  -0.238
REMARK UNBOUND:                -0.222
REMARK SMILES O=c1cc(-c2ccccc2)oc2ccccc12
REMARK SMILES IDX 4 1 3 2 2 3 1 4 17 5 16 6 15 7 14 8 13 9 12 10 11 11 5 12
REMARK SMILES IDX 8 13 7 14 9 15 6 16 10 17
REMARK H PARENT
REMARK Flexibility Score: inf
ROOT
ATOM      1  C   UNL     1       7.244  -5.132   5.495  1.00  0.00     0.138 A 
ATOM      2  C   UNL     1       5.845  -5.312   5.444  1.00  0.00     0.100 A 
ATOM      3  C   UNL     1       5.286  -6.502   5.911  1.00  0.00     0.193 A 
ATOM      4  O   UNL     1       4.036  -6.664   5.865  1.00  0.00    -0.289 OA
ATOM      5  C   UNL     1       6.123  -7.503   6.426  1.00  0.00     0.065 A 
ATOM      6  C   UNL     1       5.625  -8.726   6.913  1.00  0.00     0.016 A 
ATOM      7  C   UNL     1       6.505  -9.689   7.416  1.00  0.00     0.001 A 
ATOM      8  C   UNL     1       7.881  -9.442   7.437  1.00  0.00     0.004 A 
ATOM      9  C   UNL     1       8.384  -8.230   6.955  1.00  0.00     0.048 A 
ATOM     10  C   UNL     1       7.513  -7.259   6.450  1.00  0.00     0.138 A 
ATOM     11  O   UNL     1       8.001  -6.110   5.993  1.00  0.00    -0.456 OA
ENDROOT
BRANCH   1  12
ATOM     12  C   UNL     1       7.923  -3.889   5.015  1.00  0.00     0.017 A 
ATOM     13  C   UNL     1       9.161  -1.553   4.024  1.00  0.00     0.000 A 
ATOM     14  C   UNL     1       8.284  -2.277   3.215  1.00  0.00     0.001 A 
ATOM     15  C   UNL     1       9.426  -1.987   5.323  1.00  0.00     0.001 A 
ATOM     16  C   UNL     1       7.670  -3.434   3.705  1.00  0.00     0.012 A 
ATOM     17  C   UNL     1       8.816  -3.143   5.820  1.00  0.00     0.012 A 
ENDBRANCH   1  12
TORSDOF 1
ENDMDL
MODEL 5
REMARK VINA RESULT:    -6.308      2.206      3.516
REMARK INTER + INTRA:          -6.898
REMARK INTER:                  -6.656
REMARK INTRA:                  -0.243
REMARK UNBOUND:                -0.222
REMARK SMILES O=c1cc(-c2ccccc2)oc2ccccc12
REMARK SMILES IDX 4 1 3 2 2 3 1 4 17 5 16 6 15 7 14 8 13 9 12 10 11 11 5 12
REMARK SMILES IDX 8 13 7 14 9 15 6 16 10 17
REMARK H PARENT
REMARK Flexibility Score: inf
ROOT
ATOM      1  C   UNL     1       9.564  -3.200   6.274  1.00  0.00     0.138 A 
ATOM      2  C   UNL     1       9.811  -2.351   7.374  1.00  0.00     0.100 A 
ATOM      3  C   UNL     1      10.879  -1.453   7.324  1.00  0.00     0.193 A 
ATOM      4  O   UNL     1      11.102  -0.694   8.307  1.00  0.00    -0.289 OA
ATOM      5  C   UNL     1      11.689  -1.406   6.180  1.00  0.00     0.065 A 
ATOM      6  C   UNL     1      12.781  -0.526   6.064  1.00  0.00     0.016 A 
ATOM      7  C   UNL     1      13.555  -0.521   4.901  1.00  0.00     0.001 A 
ATOM      8  C   UNL     1      13.250  -1.390   3.849  1.00  0.00     0.004 A 
ATOM      9  C   UNL     1      12.169  -2.268   3.956  1.00  0.00     0.048 A 
ATOM     10  C   UNL     1      11.386  -2.282   5.115  1.00  0.00     0.138 A 
ATOM     11  O   UNL     1      10.360  -3.121   5.207  1.00  0.00    -0.456 OA
ENDROOT
BRANCH   1  12
ATOM     12  C   UNL     1       8.443  -4.190   6.246  1.00  0.00     0.017 A 
ATOM     13  C   UNL     1       6.302  -6.024   6.106  1.00  0.00     0.000 A 
ATOM     14  C   UNL     1       6.536  -5.142   5.051  1.00  0.00     0.001 A 
ATOM     15  C   UNL     1       7.126  -5.998   7.231  1.00  0.00     0.001 A 
ATOM     16  C   UNL     1       7.597  -4.233   5.119  1.00  0.00     0.012 A 
ATOM     17  C   UNL     1       8.189  -5.092   7.306  1.00  0.00     0.012 A 
ENDBRANCH   1  12
TORSDOF 1
ENDMDL
MODEL 6
REMARK VINA RESULT:    -5.947      1.684      6.362
REMARK INTER + INTRA:          -6.517
REMARK INTER:                  -6.269
REMARK INTRA:                  -0.248
REMARK UNBOUND:                -0.222
REMARK SMILES O=c1cc(-c2ccccc2)oc2ccccc12
REMARK SMILES IDX 4 1 3 2 2 3 1 4 17 5 16 6 15 7 14 8 13 9 12 10 11 11 5 12
REMARK SMILES IDX 8 13 7 14 9 15 6 16 10 17
REMARK H PARENT
REMARK Flexibility Score: inf
ROOT
ATOM      1  C   UNL     1       6.890  -5.456   5.382  1.00  0.00     0.138 A 
ATOM      2  C   UNL     1       6.771  -6.460   4.398  1.00  0.00     0.100 A 
ATOM      3  C   UNL     1       5.980  -7.582   4.651  1.00  0.00     0.193 A 
ATOM      4  O   UNL     1       5.874  -8.481   3.771  1.00  0.00    -0.289 OA
ATOM      5  C   UNL     1       5.313  -7.694   5.879  1.00  0.00     0.065 A 
ATOM      6  C   UNL     1       4.501  -8.799   6.198  1.00  0.00     0.016 A 
ATOM      7  C   UNL     1       3.859  -8.860   7.438  1.00  0.00     0.001 A 
ATOM      8  C   UNL     1       4.021  -7.826   8.366  1.00  0.00     0.004 A 
ATOM      9  C   UNL     1       4.826  -6.726   8.058  1.00  0.00     0.048 A 
ATOM     10  C   UNL     1       5.474  -6.654   6.819  1.00  0.00     0.138 A 
ATOM     11  O   UNL     1       6.237  -5.605   6.536  1.00  0.00    -0.456 OA
ENDROOT
BRANCH   1  12
ATOM     12  C   UNL     1       7.716  -4.224   5.193  1.00  0.00     0.017 A 
ATOM     13  C   UNL     1       9.306  -1.907   4.926  1.00  0.00     0.000 A 
ATOM     14  C   UNL     1       9.286  -2.606   6.134  1.00  0.00     0.001 A 
ATOM     15  C   UNL     1       8.538  -2.353   3.852  1.00  0.00     0.001 A 
ATOM     16  C   UNL     1       8.499  -3.754   6.267  1.00  0.00     0.012 A 
ATOM     17  C   UNL     1       7.748  -3.501   3.977  1.00  0.00     0.012 A 
ENDBRANCH   1  12
TORSDOF 1
ENDMDL
MODEL 7
REMARK VINA RESULT:    -5.231      1.956      3.239
REMARK INTER + INTRA:          -5.758
REMARK INTER:                  -5.498
REMARK INTRA:                  -0.260
REMARK UNBOUND:                -0.222
REMARK SMILES O=c1cc(-c2ccccc2)oc2ccccc12
REMARK SMILES IDX 4 1 3 2 2 3 1 4 17 5 16 6 15 7 14 8 13 9 12 10 11 11 5 12
REMARK SMILES IDX 8 13 7 14 9 15 6 16 10 17
REMARK H PARENT
REMARK Flexibility Score: inf
ROOT
ATOM      1  C   UNL     1       8.671  -5.105   6.622  1.00  0.00     0.138 A 
ATOM      2  C   UNL     1       8.026  -4.223   5.730  1.00  0.00     0.100 A 
ATOM      3  C   UNL     1       8.616  -2.994   5.431  1.00  0.00     0.193 A 
ATOM      4  O   UNL     1       8.040  -2.204   4.634  1.00  0.00    -0.289 OA
ATOM      5  C   UNL     1       9.842  -2.654   6.022  1.00  0.00     0.065 A 
ATOM      6  C   UNL     1      10.489  -1.431   5.764  1.00  0.00     0.016 A 
ATOM      7  C   UNL     1      11.710  -1.143   6.380  1.00  0.00     0.001 A 
ATOM      8  C   UNL     1      12.292  -2.067   7.254  1.00  0.00     0.004 A 
ATOM      9  C   UNL     1      11.656  -3.283   7.516  1.00  0.00     0.048 A 
ATOM     10  C   UNL     1      10.433  -3.582   6.904  1.00  0.00     0.138 A 
ATOM     11  O   UNL     1       9.835  -4.741   7.160  1.00  0.00    -0.456 OA
ENDROOT
BRANCH   1  12
ATOM     12  C   UNL     1       8.108  -6.440   6.996  1.00  0.00     0.017 A 
ATOM     13  C   UNL     1       6.993  -8.957   7.620  1.00  0.00     0.000 A 
ATOM     14  C   UNL     1       6.615  -8.295   6.451  1.00  0.00     0.001 A 
ATOM     15  C   UNL     1       7.922  -8.372   8.480  1.00  0.00     0.001 A 
ATOM     16  C   UNL     1       7.166  -7.049   6.141  1.00  0.00     0.012 A 
ATOM     17  C   UNL     1       8.478  -7.126   8.177  1.00  0.00     0.012 A 
ENDBRANCH   1  12
TORSDOF 1
ENDMDL
MODEL 8
REMARK VINA RESULT:    -5.201     15.773     17.590
REMARK INTER + INTRA:          -5.726
REMARK INTER:                  -5.500
REMARK INTRA:                  -0.226
REMARK UNBOUND:                -0.222
REMARK SMILES O=c1cc(-c2ccccc2)oc2ccccc12
REMARK SMILES IDX 4 1 3 2 2 3 1 4 17 5 16 6 15 7 14 8 13 9 12 10 11 11 5 12
REMARK SMILES IDX 8 13 7 14 9 15 6 16 10 17
REMARK H PARENT
REMARK Flexibility Score: inf
ROOT
ATOM      1  C   UNL     1      -0.790  -7.083  -8.734  1.00  0.00     0.138 A 
ATOM      2  C   UNL     1      -1.356  -8.218  -8.115  1.00  0.00     0.100 A 
ATOM      3  C   UNL     1      -2.681  -8.174  -7.678  1.00  0.00     0.193 A 
ATOM      4  O   UNL     1      -3.188  -9.188  -7.124  1.00  0.00    -0.289 OA
ATOM      5  C   UNL     1      -3.431  -7.004  -7.863  1.00  0.00     0.065 A 
ATOM      6  C   UNL     1      -4.771  -6.893  -7.446  1.00  0.00     0.016 A 
ATOM      7  C   UNL     1      -5.472  -5.703  -7.655  1.00  0.00     0.001 A 
ATOM      8  C   UNL     1      -4.847  -4.618  -8.277  1.00  0.00     0.004 A 
ATOM      9  C   UNL     1      -3.517  -4.718  -8.693  1.00  0.00     0.048 A 
ATOM     10  C   UNL     1      -2.805  -5.906  -8.490  1.00  0.00     0.138 A 
ATOM     11  O   UNL     1      -1.540  -5.992  -8.889  1.00  0.00    -0.456 OA
ENDROOT
BRANCH   1  12
ATOM     12  C   UNL     1       0.621  -7.045  -9.229  1.00  0.00     0.017 A 
ATOM     13  C   UNL     1       3.250  -6.980 -10.256  1.00  0.00     0.000 A 
ATOM     14  C   UNL     1       2.162  -7.066 -11.125  1.00  0.00     0.001 A 
ATOM     15  C   UNL     1       3.037  -6.927  -8.878  1.00  0.00     0.001 A 
ATOM     16  C   UNL     1       0.860  -7.099 -10.618  1.00  0.00     0.012 A 
ATOM     17  C   UNL     1       1.737  -6.959  -8.364  1.00  0.00     0.012 A 
ENDBRANCH   1  12
TORSDOF 1
ENDMDL
MODEL 9
REMARK VINA RESULT:    -5.116      2.262      6.298
REMARK INTER + INTRA:          -5.637
REMARK INTER:                  -5.372
REMARK INTRA:                  -0.265
REMARK UNBOUND:                -0.222
REMARK SMILES O=c1cc(-c2ccccc2)oc2ccccc12
REMARK SMILES IDX 4 1 3 2 2 3 1 4 17 5 16 6 15 7 14 8 13 9 12 10 11 11 5 12
REMARK SMILES IDX 8 13 7 14 9 15 6 16 10 17
REMARK H PARENT
REMARK Flexibility Score: inf
ROOT
ATOM      1  C   UNL     1       8.564  -5.290   6.689  1.00  0.00     0.138 A 
ATOM      2  C   UNL     1       7.348  -4.825   6.145  1.00  0.00     0.100 A 
ATOM      3  C   UNL     1       6.381  -5.744   5.736  1.00  0.00     0.193 A 
ATOM      4  O   UNL     1       5.293  -5.329   5.248  1.00  0.00    -0.289 OA
ATOM      5  C   UNL     1       6.631  -7.118   5.872  1.00  0.00     0.065 A 
ATOM      6  C   UNL     1       5.699  -8.097   5.479  1.00  0.00     0.016 A 
ATOM      7  C   UNL     1       6.000  -9.452   5.638  1.00  0.00     0.001 A 
ATOM      8  C   UNL     1       7.226  -9.841   6.187  1.00  0.00     0.004 A 
ATOM      9  C   UNL     1       8.158  -8.875   6.579  1.00  0.00     0.048 A 
ATOM     10  C   UNL     1       7.867  -7.515   6.425  1.00  0.00     0.138 A 
ATOM     11  O   UNL     1       8.759  -6.605   6.800  1.00  0.00    -0.456 OA
ENDROOT
BRANCH   1  12
ATOM     12  C   UNL     1       9.652  -4.374   7.151  1.00  0.00     0.017 A 
ATOM     13  C   UNL     1      11.764  -2.723   8.037  1.00  0.00     0.000 A 
ATOM     14  C   UNL     1      11.936  -4.106   7.976  1.00  0.00     0.001 A 
ATOM     15  C   UNL     1      10.546  -2.157   7.660  1.00  0.00     0.001 A 
ATOM     16  C   UNL     1      10.892  -4.925   7.537  1.00  0.00     0.012 A 
ATOM     17  C   UNL     1       9.496  -2.970   7.220  1.00  0.00     0.012 A 
ENDBRANCH   1  12
TORSDOF 1
ENDMDL
