MODEL 1
REMARK VINA RESULT:    -6.217      0.000      0.000
REMARK INTER + INTRA:          -7.784
REMARK INTER:                  -7.670
REMARK INTRA:                  -0.113
REMARK UNBOUND:                -0.113
REMARK SMILES CCCCC=CC(C)=O
REMARK SMILES IDX 4 1 3 2 2 3 1 4 5 5 6 6 7 7 9 8 8 9
REMARK H PARENT
REMARK Flexibility Score: inf
ROOT
ATOM      1  C   UNL     1       9.929  19.881  23.751  1.00  0.00     0.027 C 
ENDROOT
BRANCH   1   2
ATOM      2  C   UNL     1       8.728  20.467  24.503  1.00  0.00     0.004 C 
BRANCH   2   3
ATOM      3  C   UNL     1       7.445  19.694  24.176  1.00  0.00    -0.003 C 
ATOM      4  C   UNL     1       7.429  18.333  24.865  1.00  0.00     0.004 C 
ENDBRANCH   2   3
ENDBRANCH   1   2
BRANCH   1   5
ATOM      5  C   UNL     1      11.026  20.896  23.601  1.00  0.00    -0.023 C 
ATOM      6  C   UNL     1      12.021  20.984  24.492  1.00  0.00     0.042 C 
BRANCH   6   7
ATOM      7  C   UNL     1      13.113  21.973  24.393  1.00  0.00     0.152 C 
ATOM      8  O   UNL     1      14.015  21.792  23.532  1.00  0.00    -0.295 OA
ATOM      9  C   UNL     1      13.188  23.182  25.276  1.00  0.00     0.093 C 
ENDBRANCH   6   7
ENDBRANCH   1   5
TORSDOF 4
ENDMDL
MODEL 2
REMARK VINA RESULT:    -6.070      2.502      5.469
REMARK INTER + INTRA:          -7.603
REMARK INTER:                  -7.468
REMARK INTRA:                  -0.135
REMARK UNBOUND:                -0.113
REMARK SMILES CCCCC=CC(C)=O
REMARK SMILES IDX 4 1 3 2 2 3 1 4 5 5 6 6 7 7 9 8 8 9
REMARK H PARENT
REMARK Flexibility Score: inf
ROOT
ATOM      1  C   UNL     1      10.855  21.904  24.135  1.00  0.00     0.027 C 
ENDROOT
BRANCH   1   2
ATOM      2  C   UNL     1      12.062  20.992  24.384  1.00  0.00     0.004 C 
BRANCH   2   3
ATOM      3  C   UNL     1      13.377  21.750  24.169  1.00  0.00    -0.003 C 
ATOM      4  C   UNL     1      13.367  23.091  24.897  1.00  0.00     0.004 C 
ENDBRANCH   2   3
ENDBRANCH   1   2
BRANCH   1   5
ATOM      5  C   UNL     1       9.639  21.107  23.761  1.00  0.00    -0.023 C 
ATOM      6  C   UNL     1       8.966  20.394  24.672  1.00  0.00     0.042 C 
BRANCH   6   7
ATOM      7  C   UNL     1       7.772  19.585  24.350  1.00  0.00     0.152 C 
ATOM      8  O   UNL     1       6.971  20.013  23.477  1.00  0.00    -0.295 OA
ATOM      9  C   UNL     1       7.480  18.277  25.021  1.00  0.00     0.093 C 
ENDBRANCH   6   7
ENDBRANCH   1   5
TORSDOF 4
ENDMDL
MODEL 3
REMARK VINA RESULT:    -3.510     12.164     13.408
REMARK INTER + INTRA:          -4.444
REMARK INTER:                  -4.270
REMARK INTRA:                  -0.174
REMARK UNBOUND:                -0.113
REMARK SMILES CCCCC=CC(C)=O
REMARK SMILES IDX 4 1 3 2 2 3 1 4 5 5 6 6 7 7 9 8 8 9
REMARK H PARENT
REMARK Flexibility Score: inf
ROOT
ATOM      1  C   UNL     1      14.550  12.414  16.799  1.00  0.00     0.027 C 
ENDROOT
BRANCH   1   2
ATOM      2  C   UNL     1      15.755  12.553  15.861  1.00  0.00     0.004 C 
BRANCH   2   3
ATOM      3  C   UNL     1      15.978  11.265  15.059  1.00  0.00    -0.003 C 
ATOM      4  C   UNL     1      17.443  11.110  14.660  1.00  0.00     0.004 C 
ENDBRANCH   2   3
ENDBRANCH   1   2
BRANCH   1   5
ATOM      5  C   UNL     1      13.260  12.405  16.029  1.00  0.00    -0.023 C 
ATOM      6  C   UNL     1      12.751  13.529  15.509  1.00  0.00     0.042 C 
BRANCH   6   7
ATOM      7  C   UNL     1      11.482  13.571  14.755  1.00  0.00     0.152 C 
ATOM      8  O   UNL     1      11.021  14.691  14.411  1.00  0.00    -0.295 OA
ATOM      9  C   UNL     1      10.723  12.331  14.386  1.00  0.00     0.093 C 
ENDBRANCH   6   7
ENDBRANCH   1   5
TORSDOF 4
ENDMDL
MODEL 4
REMARK VINA RESULT:    -3.404     12.647     13.392
REMARK INTER + INTRA:          -4.313
REMARK INTER:                  -4.099
REMARK INTRA:                  -0.214
REMARK UNBOUND:                -0.113
REMARK SMILES CCCCC=CC(C)=O
REMARK SMILES IDX 4 1 3 2 2 3 1 4 5 5 6 6 7 7 9 8 8 9
REMARK H PARENT
REMARK Flexibility Score: inf
ROOT
ATOM      1  C   UNL     1      14.304  12.323  16.580  1.00  0.00     0.027 C 
ENDROOT
BRANCH   1   2
ATOM      2  C   UNL     1      13.288  13.371  16.111  1.00  0.00     0.004 C 
BRANCH   2   3
ATOM      3  C   UNL     1      13.992  14.562  15.450  1.00  0.00    -0.003 C 
ATOM      4  C   UNL     1      13.798  15.838  16.263  1.00  0.00     0.004 C 
ENDBRANCH   2   3
ENDBRANCH   1   2
BRANCH   1   5
ATOM      5  C   UNL     1      15.581  12.413  15.794  1.00  0.00    -0.023 C 
ATOM      6  C   UNL     1      16.076  11.351  15.146  1.00  0.00     0.042 C 
BRANCH   6   7
ATOM      7  C   UNL     1      17.332  11.388  14.371  1.00  0.00     0.152 C 
ATOM      8  O   UNL     1      17.347  10.876  13.220  1.00  0.00    -0.295 OA
ATOM      9  C   UNL     1      18.589  12.011  14.903  1.00  0.00     0.093 C 
ENDBRANCH   6   7
ENDBRANCH   1   5
TORSDOF 4
ENDMDL
MODEL 5
REMARK VINA RESULT:    -3.360     11.762     12.133
REMARK INTER + INTRA:          -4.259
REMARK INTER:                  -4.024
REMARK INTRA:                  -0.235
REMARK UNBOUND:                -0.113
REMARK SMILES CCCCC=CC(C)=O
REMARK SMILES IDX 4 1 3 2 2 3 1 4 5 5 6 6 7 7 9 8 8 9
REMARK H PARENT
REMARK Flexibility Score: inf
ROOT
ATOM      1  C   UNL     1       7.376  30.735  17.750  1.00  0.00     0.027 C 
ENDROOT
BRANCH   1   2
ATOM      2  C   UNL     1       5.927  30.296  17.991  1.00  0.00     0.004 C 
BRANCH   2   3
ATOM      3  C   UNL     1       5.661  28.917  17.376  1.00  0.00    -0.003 C 
ATOM      4  C   UNL     1       4.187  28.745  17.023  1.00  0.00     0.004 C 
ENDBRANCH   2   3
ENDBRANCH   1   2
BRANCH   1   5
ATOM      5  C   UNL     1       8.139  29.695  16.982  1.00  0.00    -0.023 C 
ATOM      6  C   UNL     1       9.195  30.022  16.227  1.00  0.00     0.042 C 
BRANCH   6   7
ATOM      7  C   UNL     1       9.969  29.037  15.445  1.00  0.00     0.152 C 
ATOM      8  O   UNL     1      11.148  29.326  15.107  1.00  0.00    -0.295 OA
ATOM      9  C   UNL     1       9.405  27.707  15.041  1.00  0.00     0.093 C 
ENDBRANCH   6   7
ENDBRANCH   1   5
TORSDOF 4
ENDMDL
MODEL 6
REMARK VINA RESULT:    -3.355     12.590     13.676
REMARK INTER + INTRA:          -4.253
REMARK INTER:                  -4.012
REMARK INTRA:                  -0.241
REMARK UNBOUND:                -0.113
REMARK SMILES CCCCC=CC(C)=O
REMARK SMILES IDX 4 1 3 2 2 3 1 4 5 5 6 6 7 7 9 8 8 9
REMARK H PARENT
REMARK Flexibility Score: inf
ROOT
ATOM      1  C   UNL     1      16.425  11.218  15.061  1.00  0.00     0.027 C 
ENDROOT
BRANCH   1   2
ATOM      2  C   UNL     1      17.613  11.686  14.212  1.00  0.00     0.004 C 
BRANCH   2   3
ATOM      3  C   UNL     1      18.793  12.099  15.099  1.00  0.00    -0.003 C 
ATOM      4  C   UNL     1      18.682  13.562  15.520  1.00  0.00     0.004 C 
ENDBRANCH   2   3
ENDBRANCH   1   2
BRANCH   1   5
ATOM      5  C   UNL     1      15.301  12.213  15.019  1.00  0.00    -0.023 C 
ATOM      6  C   UNL     1      14.833  12.782  16.137  1.00  0.00     0.042 C 
BRANCH   6   7
ATOM      7  C   UNL     1      13.722  13.756  16.147  1.00  0.00     0.152 C 
ATOM      8  O   UNL     1      12.541  13.326  16.065  1.00  0.00    -0.295 OA
ATOM      9  C   UNL     1      13.949  15.235  16.251  1.00  0.00     0.093 C 
ENDBRANCH   6   7
ENDBRANCH   1   5
TORSDOF 4
ENDMDL
MODEL 7
REMARK VINA RESULT:    -3.341     10.095     11.205
REMARK INTER + INTRA:          -4.236
REMARK INTER:                  -3.984
REMARK INTRA:                  -0.252
REMARK UNBOUND:                -0.113
REMARK SMILES CCCCC=CC(C)=O
REMARK SMILES IDX 4 1 3 2 2 3 1 4 5 5 6 6 7 7 9 8 8 9
REMARK H PARENT
REMARK Flexibility Score: inf
ROOT
ATOM      1  C   UNL     1       4.256  17.172  15.549  1.00  0.00     0.027 C 
ENDROOT
BRANCH   1   2
ATOM      2  C   UNL     1       3.659  16.442  14.341  1.00  0.00     0.004 C 
BRANCH   2   3
ATOM      3  C   UNL     1       3.901  14.931  14.437  1.00  0.00    -0.003 C 
ATOM      4  C   UNL     1       5.087  14.506  13.575  1.00  0.00     0.004 C 
ENDBRANCH   2   3
ENDBRANCH   1   2
BRANCH   1   5
ATOM      5  C   UNL     1       5.602  17.753  15.223  1.00  0.00    -0.023 C 
ATOM      6  C   UNL     1       6.725  17.245  15.745  1.00  0.00     0.042 C 
BRANCH   6   7
ATOM      7  C   UNL     1       8.069  17.789  15.463  1.00  0.00     0.152 C 
ATOM      8  O   UNL     1       8.780  17.221  14.592  1.00  0.00    -0.295 OA
ATOM      9  C   UNL     1       8.616  18.991  16.174  1.00  0.00     0.093 C 
ENDBRANCH   6   7
ENDBRANCH   1   5
TORSDOF 4
ENDMDL
MODEL 8
REMARK VINA RESULT:    -3.332     12.618     13.635
REMARK INTER + INTRA:          -4.224
REMARK INTER:                  -4.057
REMARK INTRA:                  -0.167
REMARK UNBOUND:                -0.113
REMARK SMILES CCCCC=CC(C)=O
REMARK SMILES IDX 4 1 3 2 2 3 1 4 5 5 6 6 7 7 9 8 8 9
REMARK H PARENT
REMARK Flexibility Score: inf
ROOT
ATOM      1  C   UNL     1       7.148  30.871  17.849  1.00  0.00     0.027 C 
ENDROOT
BRANCH   1   2
ATOM      2  C   UNL     1       7.992  29.781  17.178  1.00  0.00     0.004 C 
BRANCH   2   3
ATOM      3  C   UNL     1       9.135  30.395  16.361  1.00  0.00    -0.003 C 
ATOM      4  C   UNL     1       9.930  29.319  15.628  1.00  0.00     0.004 C 
ENDBRANCH   2   3
ENDBRANCH   1   2
BRANCH   1   5
ATOM      5  C   UNL     1       5.703  30.758  17.458  1.00  0.00    -0.023 C 
ATOM      6  C   UNL     1       5.114  29.566  17.304  1.00  0.00     0.042 C 
BRANCH   6   7
ATOM      7  C   UNL     1       3.700  29.406  16.908  1.00  0.00     0.152 C 
ATOM      8  O   UNL     1       3.143  28.291  17.093  1.00  0.00    -0.295 OA
ATOM      9  C   UNL     1       2.903  30.520  16.296  1.00  0.00     0.093 C 
ENDBRANCH   6   7
ENDBRANCH   1   5
TORSDOF 4
ENDMDL
MODEL 9
REMARK VINA RESULT:    -3.317     10.134     11.366
REMARK INTER + INTRA:          -4.206
REMARK INTER:                  -4.022
REMARK INTRA:                  -0.184
REMARK UNBOUND:                -0.113
REMARK SMILES CCCCC=CC(C)=O
REMARK SMILES IDX 4 1 3 2 2 3 1 4 5 5 6 6 7 7 9 8 8 9
REMARK H PARENT
REMARK Flexibility Score: inf
ROOT
ATOM      1  C   UNL     1       0.647  18.281  27.964  1.00  0.00     0.027 C 
ENDROOT
BRANCH   1   2
ATOM      2  C   UNL     1       0.557  19.179  26.724  1.00  0.00     0.004 C 
BRANCH   2   3
ATOM      3  C   UNL     1       1.438  18.640  25.591  1.00  0.00    -0.003 C 
ATOM      4  C   UNL     1       2.023  17.276  25.947  1.00  0.00     0.004 C 
ENDBRANCH   2   3
ENDBRANCH   1   2
BRANCH   1   5
ATOM      5  C   UNL     1       0.898  19.090  29.204  1.00  0.00    -0.023 C 
ATOM      6  C   UNL     1       1.322  18.515  30.337  1.00  0.00     0.042 C 
BRANCH   6   7
ATOM      7  C   UNL     1       1.570  19.267  31.584  1.00  0.00     0.152 C 
ATOM      8  O   UNL     1       2.756  19.578  31.875  1.00  0.00    -0.295 OA
ATOM      9  C   UNL     1       0.466  19.673  32.513  1.00  0.00     0.093 C 
ENDBRANCH   6   7
ENDBRANCH   1   5
TORSDOF 4
ENDMDL
