MODEL 1
REMARK VINA RESULT:    -5.207      0.000      0.000
REMARK INTER + INTRA:         -10.973
REMARK INTER:                 -10.078
REMARK INTRA:                  -0.895
REMARK UNBOUND:                -0.895
REMARK SMILES CCCCCCCCCCCCCCCCCC(=O)[O-]
REMARK SMILES IDX 10 1 11 2 12 3 13 4 14 5 15 6 16 7 17 8 18 9 19 10 20 11
REMARK SMILES IDX 9 12 8 13 7 14 6 15 5 16 4 17 3 18 2 19 1 20
REMARK H PARENT
REMARK Flexibility Score: inf
ROOT
ATOM      1  C   UNL     1      57.006 143.689 -30.085  1.00  0.00     0.000 C 
ENDROOT
BRANCH   1   2
ATOM      2  C   UNL     1      56.462 144.019 -28.684  1.00  0.00     0.000 C 
BRANCH   2   3
ATOM      3  C   UNL     1      55.296 143.132 -28.209  1.00  0.00     0.000 C 
BRANCH   3   4
ATOM      4  C   UNL     1      55.361 142.811 -26.708  1.00  0.00     0.000 C 
BRANCH   4   5
ATOM      5  C   UNL     1      54.923 141.364 -26.438  1.00  0.00     0.000 C 
BRANCH   5   6
ATOM      6  C   UNL     1      55.714 140.700 -25.296  1.00  0.00     0.000 C 
BRANCH   6   7
ATOM      7  C   UNL     1      55.426 141.263 -23.891  1.00  0.00     0.006 C 
BRANCH   7   8
ATOM      8  C   UNL     1      56.699 141.500 -23.069  1.00  0.00     0.053 C 
BRANCH   8   9
ATOM      9  C   UNL     1      57.127 142.931 -23.166  1.00  0.00     0.041 C 
ATOM     10  O   UNL     1      58.342 143.238 -23.041  1.00  0.00    -0.550 OA
ATOM     11  O   UNL     1      56.191 143.922 -23.441  1.00  0.00    -0.550 OA
ENDBRANCH   8   9
ENDBRANCH   7   8
ENDBRANCH   6   7
ENDBRANCH   5   6
ENDBRANCH   4   5
ENDBRANCH   3   4
ENDBRANCH   2   3
ENDBRANCH   1   2
BRANCH   1  12
ATOM     12  C   UNL     1      58.446 144.181 -30.300  1.00  0.00     0.000 C 
BRANCH  12  13
ATOM     13  C   UNL     1      59.116 143.541 -31.528  1.00  0.00    -0.000 C 
BRANCH  13  14
ATOM     14  C   UNL     1      59.590 144.569 -32.579  1.00  0.00    -0.000 C 
BRANCH  14  15
ATOM     15  C   UNL     1      60.218 143.889 -33.809  1.00  0.00    -0.000 C 
BRANCH  15  16
ATOM     16  C   UNL     1      61.357 144.729 -34.425  1.00  0.00    -0.000 C 
BRANCH  16  17
ATOM     17  C   UNL     1      61.436 146.163 -33.872  1.00  0.00    -0.000 C 
BRANCH  17  18
ATOM     18  C   UNL     1      61.173 147.231 -34.947  1.00  0.00    -0.000 C 
BRANCH  18  19
ATOM     19  C   UNL     1      60.445 148.462 -34.387  1.00  0.00    -0.003 C 
ATOM     20  C   UNL     1      59.657 148.159 -33.113  1.00  0.00     0.004 C 
ENDBRANCH  18  19
ENDBRANCH  17  18
ENDBRANCH  16  17
ENDBRANCH  15  16
ENDBRANCH  14  15
ENDBRANCH  13  14
ENDBRANCH  12  13
ENDBRANCH   1  12
TORSDOF 16
ENDMDL
MODEL 2
REMARK VINA RESULT:    -5.192      3.845     10.127
REMARK INTER + INTRA:         -10.943
REMARK INTER:                 -10.059
REMARK INTRA:                  -0.884
REMARK UNBOUND:                -0.895
REMARK SMILES CCCCCCCCCCCCCCCCCC(=O)[O-]
REMARK SMILES IDX 10 1 11 2 12 3 13 4 14 5 15 6 16 7 17 8 18 9 19 10 20 11
REMARK SMILES IDX 9 12 8 13 7 14 6 15 5 16 4 17 3 18 2 19 1 20
REMARK H PARENT
REMARK Flexibility Score: inf
ROOT
ATOM      1  C   UNL     1      57.105 144.333 -28.615  1.00  0.00     0.000 C 
ENDROOT
BRANCH   1   2
ATOM      2  C   UNL     1      57.244 143.781 -30.045  1.00  0.00     0.000 C 
BRANCH   2   3
ATOM      3  C   UNL     1      58.671 143.810 -30.622  1.00  0.00     0.000 C 
BRANCH   3   4
ATOM      4  C   UNL     1      58.723 144.333 -32.066  1.00  0.00     0.000 C 
BRANCH   4   5
ATOM      5  C   UNL     1      59.982 143.827 -32.786  1.00  0.00     0.000 C 
BRANCH   5   6
ATOM      6  C   UNL     1      60.257 144.571 -34.107  1.00  0.00     0.000 C 
BRANCH   6   7
ATOM      7  C   UNL     1      61.397 145.605 -34.047  1.00  0.00     0.006 C 
BRANCH   7   8
ATOM      8  C   UNL     1      61.041 146.927 -34.739  1.00  0.00     0.053 C 
BRANCH   8   9
ATOM      9  C   UNL     1      59.714 147.428 -34.264  1.00  0.00     0.041 C 
ATOM     10  O   UNL     1      59.592 147.884 -33.096  1.00  0.00    -0.550 OA
ATOM     11  O   UNL     1      58.621 147.435 -35.124  1.00  0.00    -0.550 OA
ENDBRANCH   8   9
ENDBRANCH   7   8
ENDBRANCH   6   7
ENDBRANCH   5   6
ENDBRANCH   4   5
ENDBRANCH   3   4
ENDBRANCH   2   3
ENDBRANCH   1   2
BRANCH   1  12
ATOM     12  C   UNL     1      55.648 144.368 -28.125  1.00  0.00     0.000 C 
BRANCH  12  13
ATOM     13  C   UNL     1      55.129 142.983 -27.707  1.00  0.00    -0.000 C 
BRANCH  13  14
ATOM     14  C   UNL     1      55.534 142.577 -26.272  1.00  0.00    -0.000 C 
BRANCH  14  15
ATOM     15  C   UNL     1      55.782 143.803 -25.374  1.00  0.00    -0.000 C 
BRANCH  15  16
ATOM     16  C   UNL     1      55.561 143.488 -23.879  1.00  0.00    -0.000 C 
BRANCH  16  17
ATOM     17  C   UNL     1      55.744 142.000 -23.528  1.00  0.00    -0.000 C 
BRANCH  17  18
ATOM     18  C   UNL     1      57.010 141.737 -22.695  1.00  0.00    -0.000 C 
BRANCH  18  19
ATOM     19  C   UNL     1      58.007 142.905 -22.755  1.00  0.00    -0.003 C 
ATOM     20  C   UNL     1      58.471 143.361 -21.373  1.00  0.00     0.004 C 
ENDBRANCH  18  19
ENDBRANCH  17  18
ENDBRANCH  16  17
ENDBRANCH  15  16
ENDBRANCH  14  15
ENDBRANCH  13  14
ENDBRANCH  12  13
ENDBRANCH   1  12
TORSDOF 16
ENDMDL
MODEL 3
REMARK VINA RESULT:    -5.177      1.693      2.154
REMARK INTER + INTRA:         -10.915
REMARK INTER:                 -10.281
REMARK INTRA:                  -0.634
REMARK UNBOUND:                -0.895
REMARK SMILES CCCCCCCCCCCCCCCCCC(=O)[O-]
REMARK SMILES IDX 10 1 11 2 12 3 13 4 14 5 15 6 16 7 17 8 18 9 19 10 20 11
REMARK SMILES IDX 9 12 8 13 7 14 6 15 5 16 4 17 3 18 2 19 1 20
REMARK H PARENT
REMARK Flexibility Score: inf
ROOT
ATOM      1  C   UNL     1      56.875 143.754 -30.534  1.00  0.00     0.000 C 
ENDROOT
BRANCH   1   2
ATOM      2  C   UNL     1      56.075 143.474 -29.249  1.00  0.00     0.000 C 
BRANCH   2   3
ATOM      3  C   UNL     1      56.334 144.454 -28.090  1.00  0.00     0.000 C 
BRANCH   3   4
ATOM      4  C   UNL     1      56.200 143.796 -26.708  1.00  0.00     0.000 C 
BRANCH   4   5
ATOM      5  C   UNL     1      55.201 144.564 -25.830  1.00  0.00     0.000 C 
BRANCH   5   6
ATOM      6  C   UNL     1      55.081 143.984 -24.409  1.00  0.00     0.000 C 
BRANCH   6   7
ATOM      7  C   UNL     1      56.168 142.960 -24.029  1.00  0.00     0.006 C 
BRANCH   7   8
ATOM      8  C   UNL     1      55.628 141.528 -23.922  1.00  0.00     0.053 C 
BRANCH   8   9
ATOM      9  C   UNL     1      54.223 141.457 -24.432  1.00  0.00     0.041 C 
ATOM     10  O   UNL     1      53.260 141.748 -23.675  1.00  0.00    -0.550 OA
ATOM     11  O   UNL     1      53.978 141.116 -25.758  1.00  0.00    -0.550 OA
ENDBRANCH   8   9
ENDBRANCH   7   8
ENDBRANCH   6   7
ENDBRANCH   5   6
ENDBRANCH   4   5
ENDBRANCH   3   4
ENDBRANCH   2   3
ENDBRANCH   1   2
BRANCH   1  12
ATOM     12  C   UNL     1      58.359 144.051 -30.262  1.00  0.00     0.000 C 
BRANCH  12  13
ATOM     13  C   UNL     1      59.269 143.650 -31.435  1.00  0.00    -0.000 C 
BRANCH  13  14
ATOM     14  C   UNL     1      59.323 144.703 -32.565  1.00  0.00    -0.000 C 
BRANCH  14  15
ATOM     15  C   UNL     1      59.928 144.130 -33.860  1.00  0.00    -0.000 C 
BRANCH  15  16
ATOM     16  C   UNL     1      61.298 144.757 -34.193  1.00  0.00    -0.000 C 
BRANCH  16  17
ATOM     17  C   UNL     1      61.451 146.207 -33.699  1.00  0.00    -0.000 C 
BRANCH  17  18
ATOM     18  C   UNL     1      61.224 147.243 -34.812  1.00  0.00    -0.000 C 
BRANCH  18  19
ATOM     19  C   UNL     1      60.346 148.416 -34.354  1.00  0.00    -0.003 C 
ATOM     20  C   UNL     1      59.794 148.229 -32.941  1.00  0.00     0.004 C 
ENDBRANCH  18  19
ENDBRANCH  17  18
ENDBRANCH  16  17
ENDBRANCH  15  16
ENDBRANCH  14  15
ENDBRANCH  13  14
ENDBRANCH  12  13
ENDBRANCH   1  12
TORSDOF 16
ENDMDL
MODEL 4
REMARK VINA RESULT:    -5.120      1.615      2.348
REMARK INTER + INTRA:         -10.805
REMARK INTER:                  -9.485
REMARK INTRA:                  -1.320
REMARK UNBOUND:                -0.895
REMARK SMILES CCCCCCCCCCCCCCCCCC(=O)[O-]
REMARK SMILES IDX 10 1 11 2 12 3 13 4 14 5 15 6 16 7 17 8 18 9 19 10 20 11
REMARK SMILES IDX 9 12 8 13 7 14 6 15 5 16 4 17 3 18 2 19 1 20
REMARK H PARENT
REMARK Flexibility Score: inf
ROOT
ATOM      1  C   UNL     1      56.413 144.492 -27.911  1.00  0.00     0.000 C 
ENDROOT
BRANCH   1   2
ATOM      2  C   UNL     1      55.269 143.702 -28.570  1.00  0.00     0.000 C 
BRANCH   2   3
ATOM      3  C   UNL     1      54.693 142.553 -27.721  1.00  0.00     0.000 C 
BRANCH   3   4
ATOM      4  C   UNL     1      55.630 142.123 -26.581  1.00  0.00     0.000 C 
BRANCH   4   5
ATOM      5  C   UNL     1      54.932 141.123 -25.647  1.00  0.00     0.000 C 
BRANCH   5   6
ATOM      6  C   UNL     1      55.370 141.270 -24.178  1.00  0.00     0.000 C 
BRANCH   6   7
ATOM      7  C   UNL     1      55.391 142.715 -23.644  1.00  0.00     0.006 C 
BRANCH   7   8
ATOM      8  C   UNL     1      53.992 143.337 -23.550  1.00  0.00     0.053 C 
BRANCH   8   9
ATOM      9  C   UNL     1      54.040 144.791 -23.901  1.00  0.00     0.041 C 
ATOM     10  O   UNL     1      54.374 145.150 -25.061  1.00  0.00    -0.550 OA
ATOM     11  O   UNL     1      53.672 145.749 -22.962  1.00  0.00    -0.550 OA
ENDBRANCH   8   9
ENDBRANCH   7   8
ENDBRANCH   6   7
ENDBRANCH   5   6
ENDBRANCH   4   5
ENDBRANCH   3   4
ENDBRANCH   2   3
ENDBRANCH   1   2
BRANCH   1  12
ATOM     12  C   UNL     1      57.689 144.527 -28.768  1.00  0.00     0.000 C 
BRANCH  12  13
ATOM     13  C   UNL     1      57.549 143.725 -30.073  1.00  0.00    -0.000 C 
BRANCH  13  14
ATOM     14  C   UNL     1      58.488 144.211 -31.201  1.00  0.00    -0.000 C 
BRANCH  14  15
ATOM     15  C   UNL     1      59.574 143.173 -31.535  1.00  0.00    -0.000 C 
BRANCH  15  16
ATOM     16  C   UNL     1      59.969 143.199 -33.027  1.00  0.00    -0.000 C 
BRANCH  16  17
ATOM     17  C   UNL     1      59.939 144.606 -33.650  1.00  0.00    -0.000 C 
BRANCH  17  18
ATOM     18  C   UNL     1      61.345 145.183 -33.886  1.00  0.00    -0.000 C 
BRANCH  18  19
ATOM     19  C   UNL     1      61.412 146.695 -33.623  1.00  0.00    -0.003 C 
ATOM     20  C   UNL     1      60.186 147.224 -32.881  1.00  0.00     0.004 C 
ENDBRANCH  18  19
ENDBRANCH  17  18
ENDBRANCH  16  17
ENDBRANCH  15  16
ENDBRANCH  14  15
ENDBRANCH  13  14
ENDBRANCH  12  13
ENDBRANCH   1  12
TORSDOF 16
ENDMDL
MODEL 5
REMARK VINA RESULT:    -5.083      1.512      2.499
REMARK INTER + INTRA:         -10.734
REMARK INTER:                  -9.901
REMARK INTRA:                  -0.833
REMARK UNBOUND:                -0.895
REMARK SMILES CCCCCCCCCCCCCCCCCC(=O)[O-]
REMARK SMILES IDX 10 1 11 2 12 3 13 4 14 5 15 6 16 7 17 8 18 9 19 10 20 11
REMARK SMILES IDX 9 12 8 13 7 14 6 15 5 16 4 17 3 18 2 19 1 20
REMARK H PARENT
REMARK Flexibility Score: inf
ROOT
ATOM      1  C   UNL     1      55.458 144.032 -28.463  1.00  0.00     0.000 C 
ENDROOT
BRANCH   1   2
ATOM      2  C   UNL     1      55.106 142.871 -27.516  1.00  0.00     0.000 C 
BRANCH   2   3
ATOM      3  C   UNL     1      55.886 142.851 -26.188  1.00  0.00     0.000 C 
BRANCH   3   4
ATOM      4  C   UNL     1      55.522 144.022 -25.262  1.00  0.00     0.000 C 
BRANCH   4   5
ATOM      5  C   UNL     1      55.582 143.593 -23.788  1.00  0.00     0.000 C 
BRANCH   5   6
ATOM      6  C   UNL     1      56.577 142.445 -23.537  1.00  0.00     0.000 C 
BRANCH   6   7
ATOM      7  C   UNL     1      58.025 142.889 -23.254  1.00  0.00     0.006 C 
BRANCH   7   8
ATOM      8  C   UNL     1      58.195 143.525 -21.868  1.00  0.00     0.053 C 
BRANCH   8   9
ATOM      9  C   UNL     1      59.540 144.170 -21.748  1.00  0.00     0.041 C 
ATOM     10  O   UNL     1      60.457 143.875 -22.560  1.00  0.00    -0.550 OA
ATOM     11  O   UNL     1      59.769 145.131 -20.770  1.00  0.00    -0.550 OA
ENDBRANCH   8   9
ENDBRANCH   7   8
ENDBRANCH   6   7
ENDBRANCH   5   6
ENDBRANCH   4   5
ENDBRANCH   3   4
ENDBRANCH   2   3
ENDBRANCH   1   2
BRANCH   1  12
ATOM     12  C   UNL     1      56.956 144.096 -28.802  1.00  0.00     0.000 C 
BRANCH  12  13
ATOM     13  C   UNL     1      57.251 143.716 -30.262  1.00  0.00    -0.000 C 
BRANCH  13  14
ATOM     14  C   UNL     1      58.709 143.997 -30.692  1.00  0.00    -0.000 C 
BRANCH  14  15
ATOM     15  C   UNL     1      58.801 144.452 -32.160  1.00  0.00    -0.000 C 
BRANCH  15  16
ATOM     16  C   UNL     1      59.957 143.763 -32.915  1.00  0.00    -0.000 C 
BRANCH  16  17
ATOM     17  C   UNL     1      60.487 144.576 -34.109  1.00  0.00    -0.000 C 
BRANCH  17  18
ATOM     18  C   UNL     1      61.422 145.720 -33.683  1.00  0.00    -0.000 C 
BRANCH  18  19
ATOM     19  C   UNL     1      60.943 147.090 -34.185  1.00  0.00    -0.003 C 
ATOM     20  C   UNL     1      60.026 147.801 -33.191  1.00  0.00     0.004 C 
ENDBRANCH  18  19
ENDBRANCH  17  18
ENDBRANCH  16  17
ENDBRANCH  15  16
ENDBRANCH  14  15
ENDBRANCH  13  14
ENDBRANCH  12  13
ENDBRANCH   1  12
TORSDOF 16
ENDMDL
MODEL 6
REMARK VINA RESULT:    -4.743      2.296      3.344
REMARK INTER + INTRA:         -10.076
REMARK INTER:                  -9.245
REMARK INTRA:                  -0.831
REMARK UNBOUND:                -0.895
REMARK SMILES CCCCCCCCCCCCCCCCCC(=O)[O-]
REMARK SMILES IDX 10 1 11 2 12 3 13 4 14 5 15 6 16 7 17 8 18 9 19 10 20 11
REMARK SMILES IDX 9 12 8 13 7 14 6 15 5 16 4 17 3 18 2 19 1 20
REMARK H PARENT
REMARK Flexibility Score: inf
ROOT
ATOM      1  C   UNL     1      55.532 144.121 -28.140  1.00  0.00     0.000 C 
ENDROOT
BRANCH   1   2
ATOM      2  C   UNL     1      55.306 143.438 -26.780  1.00  0.00     0.000 C 
BRANCH   2   3
ATOM      3  C   UNL     1      56.270 143.873 -25.661  1.00  0.00     0.000 C 
BRANCH   3   4
ATOM      4  C   UNL     1      55.850 143.357 -24.276  1.00  0.00     0.000 C 
BRANCH   4   5
ATOM      5  C   UNL     1      56.183 141.865 -24.124  1.00  0.00     0.000 C 
BRANCH   5   6
ATOM      6  C   UNL     1      55.032 141.054 -23.502  1.00  0.00     0.000 C 
BRANCH   6   7
ATOM      7  C   UNL     1      53.643 141.316 -24.116  1.00  0.00     0.006 C 
BRANCH   7   8
ATOM      8  C   UNL     1      52.514 140.596 -23.369  1.00  0.00     0.053 C 
BRANCH   8   9
ATOM      9  C   UNL     1      51.504 141.580 -22.869  1.00  0.00     0.041 C 
ATOM     10  O   UNL     1      50.376 141.183 -22.473  1.00  0.00    -0.550 OA
ATOM     11  O   UNL     1      51.823 142.932 -22.796  1.00  0.00    -0.550 OA
ENDBRANCH   8   9
ENDBRANCH   7   8
ENDBRANCH   6   7
ENDBRANCH   5   6
ENDBRANCH   4   5
ENDBRANCH   3   4
ENDBRANCH   2   3
ENDBRANCH   1   2
BRANCH   1  12
ATOM     12  C   UNL     1      57.008 144.128 -28.569  1.00  0.00     0.000 C 
BRANCH  12  13
ATOM     13  C   UNL     1      57.199 143.745 -30.046  1.00  0.00    -0.000 C 
BRANCH  13  14
ATOM     14  C   UNL     1      58.544 144.221 -30.640  1.00  0.00    -0.000 C 
BRANCH  14  15
ATOM     15  C   UNL     1      59.289 143.086 -31.365  1.00  0.00    -0.000 C 
BRANCH  15  16
ATOM     16  C   UNL     1      59.935 143.559 -32.685  1.00  0.00    -0.000 C 
BRANCH  16  17
ATOM     17  C   UNL     1      59.513 144.978 -33.105  1.00  0.00    -0.000 C 
BRANCH  17  18
ATOM     18  C   UNL     1      60.608 145.715 -33.894  1.00  0.00    -0.000 C 
BRANCH  18  19
ATOM     19  C   UNL     1      60.990 147.059 -33.256  1.00  0.00    -0.003 C 
ATOM     20  C   UNL     1      59.974 148.164 -33.542  1.00  0.00     0.004 C 
ENDBRANCH  18  19
ENDBRANCH  17  18
ENDBRANCH  16  17
ENDBRANCH  15  16
ENDBRANCH  14  15
ENDBRANCH  13  14
ENDBRANCH  12  13
ENDBRANCH   1  12
TORSDOF 16
ENDMDL
MODEL 7
REMARK VINA RESULT:    -4.721      1.806      3.911
REMARK INTER + INTRA:         -10.032
REMARK INTER:                  -8.994
REMARK INTRA:                  -1.038
REMARK UNBOUND:                -0.895
REMARK SMILES CCCCCCCCCCCCCCCCCC(=O)[O-]
REMARK SMILES IDX 10 1 11 2 12 3 13 4 14 5 15 6 16 7 17 8 18 9 19 10 20 11
REMARK SMILES IDX 9 12 8 13 7 14 6 15 5 16 4 17 3 18 2 19 1 20
REMARK H PARENT
REMARK Flexibility Score: inf
ROOT
ATOM      1  C   UNL     1      56.099 143.200 -26.273  1.00  0.00     0.000 C 
ENDROOT
BRANCH   1   2
ATOM      2  C   UNL     1      55.490 143.681 -24.945  1.00  0.00     0.000 C 
BRANCH   2   3
ATOM      3  C   UNL     1      55.566 142.670 -23.786  1.00  0.00     0.000 C 
BRANCH   3   4
ATOM      4  C   UNL     1      55.731 141.220 -24.266  1.00  0.00     0.000 C 
BRANCH   4   5
ATOM      5  C   UNL     1      56.941 140.555 -23.592  1.00  0.00     0.000 C 
BRANCH   5   6
ATOM      6  C   UNL     1      57.274 141.168 -22.219  1.00  0.00     0.000 C 
BRANCH   6   7
ATOM      7  C   UNL     1      58.731 141.640 -22.052  1.00  0.00     0.006 C 
BRANCH   7   8
ATOM      8  C   UNL     1      58.897 143.151 -22.258  1.00  0.00     0.053 C 
BRANCH   8   9
ATOM      9  C   UNL     1      58.983 143.854 -20.939  1.00  0.00     0.041 C 
ATOM     10  O   UNL     1      58.871 143.203 -19.867  1.00  0.00    -0.550 OA
ATOM     11  O   UNL     1      59.233 145.221 -20.892  1.00  0.00    -0.550 OA
ENDBRANCH   8   9
ENDBRANCH   7   8
ENDBRANCH   6   7
ENDBRANCH   5   6
ENDBRANCH   4   5
ENDBRANCH   3   4
ENDBRANCH   2   3
ENDBRANCH   1   2
BRANCH   1  12
ATOM     12  C   UNL     1      55.053 143.035 -27.387  1.00  0.00     0.000 C 
BRANCH  12  13
ATOM     13  C   UNL     1      55.383 143.863 -28.640  1.00  0.00    -0.000 C 
BRANCH  13  14
ATOM     14  C   UNL     1      56.898 144.054 -28.874  1.00  0.00    -0.000 C 
BRANCH  14  15
ATOM     15  C   UNL     1      57.316 143.662 -30.303  1.00  0.00    -0.000 C 
BRANCH  15  16
ATOM     16  C   UNL     1      58.726 144.177 -30.662  1.00  0.00    -0.000 C 
BRANCH  16  17
ATOM     17  C   UNL     1      59.522 143.218 -31.566  1.00  0.00    -0.000 C 
BRANCH  17  18
ATOM     18  C   UNL     1      59.811 143.813 -32.955  1.00  0.00    -0.000 C 
BRANCH  18  19
ATOM     19  C   UNL     1      59.322 145.262 -33.088  1.00  0.00    -0.003 C 
ATOM     20  C   UNL     1      59.727 145.907 -34.413  1.00  0.00     0.004 C 
ENDBRANCH  18  19
ENDBRANCH  17  18
ENDBRANCH  16  17
ENDBRANCH  15  16
ENDBRANCH  14  15
ENDBRANCH  13  14
ENDBRANCH  12  13
ENDBRANCH   1  12
TORSDOF 16
ENDMDL
MODEL 8
REMARK VINA RESULT:    -4.708     13.123     16.961
REMARK INTER + INTRA:         -10.008
REMARK INTER:                  -9.111
REMARK INTRA:                  -0.897
REMARK UNBOUND:                -0.895
REMARK SMILES CCCCCCCCCCCCCCCCCC(=O)[O-]
REMARK SMILES IDX 10 1 11 2 12 3 13 4 14 5 15 6 16 7 17 8 18 9 19 10 20 11
REMARK SMILES IDX 9 12 8 13 7 14 6 15 5 16 4 17 3 18 2 19 1 20
REMARK H PARENT
REMARK Flexibility Score: inf
ROOT
ATOM      1  C   UNL     1      51.926 153.854 -22.443  1.00  0.00     0.000 C 
ENDROOT
BRANCH   1   2
ATOM      2  C   UNL     1      51.034 153.858 -23.697  1.00  0.00     0.000 C 
BRANCH   2   3
ATOM      3  C   UNL     1      51.760 153.538 -25.017  1.00  0.00     0.000 C 
BRANCH   3   4
ATOM      4  C   UNL     1      51.327 154.453 -26.174  1.00  0.00     0.000 C 
BRANCH   4   5
ATOM      5  C   UNL     1      52.153 155.748 -26.185  1.00  0.00     0.000 C 
BRANCH   5   6
ATOM      6  C   UNL     1      53.462 155.632 -25.382  1.00  0.00     0.000 C 
BRANCH   6   7
ATOM      7  C   UNL     1      54.456 156.792 -25.585  1.00  0.00     0.006 C 
BRANCH   7   8
ATOM      8  C   UNL     1      55.394 156.991 -24.388  1.00  0.00     0.053 C 
BRANCH   8   9
ATOM      9  C   UNL     1      56.646 156.189 -24.563  1.00  0.00     0.041 C 
ATOM     10  O   UNL     1      56.983 155.786 -25.708  1.00  0.00    -0.550 OA
ATOM     11  O   UNL     1      57.465 155.927 -23.471  1.00  0.00    -0.550 OA
ENDBRANCH   8   9
ENDBRANCH   7   8
ENDBRANCH   6   7
ENDBRANCH   5   6
ENDBRANCH   4   5
ENDBRANCH   3   4
ENDBRANCH   2   3
ENDBRANCH   1   2
BRANCH   1  12
ATOM     12  C   UNL     1      51.289 153.111 -21.257  1.00  0.00     0.000 C 
BRANCH  12  13
ATOM     13  C   UNL     1      49.754 153.195 -21.259  1.00  0.00    -0.000 C 
BRANCH  13  14
ATOM     14  C   UNL     1      49.138 153.296 -19.845  1.00  0.00    -0.000 C 
BRANCH  14  15
ATOM     15  C   UNL     1      50.121 153.907 -18.829  1.00  0.00    -0.000 C 
BRANCH  15  16
ATOM     16  C   UNL     1      49.395 154.662 -17.695  1.00  0.00    -0.000 C 
BRANCH  16  17
ATOM     17  C   UNL     1      49.578 154.019 -16.309  1.00  0.00    -0.000 C 
BRANCH  17  18
ATOM     18  C   UNL     1      49.315 152.504 -16.317  1.00  0.00    -0.000 C 
BRANCH  18  19
ATOM     19  C   UNL     1      49.982 151.785 -15.135  1.00  0.00    -0.003 C 
ATOM     20  C   UNL     1      51.505 151.734 -15.253  1.00  0.00     0.004 C 
ENDBRANCH  18  19
ENDBRANCH  17  18
ENDBRANCH  16  17
ENDBRANCH  15  16
ENDBRANCH  14  15
ENDBRANCH  13  14
ENDBRANCH  12  13
ENDBRANCH   1  12
TORSDOF 16
ENDMDL
MODEL 9
REMARK VINA RESULT:    -4.674      3.974     10.185
REMARK INTER + INTRA:          -9.941
REMARK INTER:                  -8.824
REMARK INTRA:                  -1.118
REMARK UNBOUND:                -0.895
REMARK SMILES CCCCCCCCCCCCCCCCCC(=O)[O-]
REMARK SMILES IDX 10 1 11 2 12 3 13 4 14 5 15 6 16 7 17 8 18 9 19 10 20 11
REMARK SMILES IDX 9 12 8 13 7 14 6 15 5 16 4 17 3 18 2 19 1 20
REMARK H PARENT
REMARK Flexibility Score: inf
ROOT
ATOM      1  C   UNL     1      55.265 143.527 -27.947  1.00  0.00     0.000 C 
ENDROOT
BRANCH   1   2
ATOM      2  C   UNL     1      56.595 144.078 -28.491  1.00  0.00     0.000 C 
BRANCH   2   3
ATOM      3  C   UNL     1      56.854 143.809 -29.985  1.00  0.00     0.000 C 
BRANCH   3   4
ATOM      4  C   UNL     1      58.341 143.903 -30.361  1.00  0.00     0.000 C 
BRANCH   4   5
ATOM      5  C   UNL     1      58.507 144.288 -31.839  1.00  0.00     0.000 C 
BRANCH   5   6
ATOM      6  C   UNL     1      59.746 143.645 -32.490  1.00  0.00     0.000 C 
BRANCH   6   7
ATOM      7  C   UNL     1      60.456 144.518 -33.542  1.00  0.00     0.006 C 
BRANCH   7   8
ATOM      8  C   UNL     1      59.602 145.703 -34.011  1.00  0.00     0.053 C 
BRANCH   8   9
ATOM      9  C   UNL     1      60.341 146.990 -33.821  1.00  0.00     0.041 C 
ATOM     10  O   UNL     1      60.020 147.772 -32.887  1.00  0.00    -0.550 OA
ATOM     11  O   UNL     1      61.416 147.307 -34.645  1.00  0.00    -0.550 OA
ENDBRANCH   8   9
ENDBRANCH   7   8
ENDBRANCH   6   7
ENDBRANCH   5   6
ENDBRANCH   4   5
ENDBRANCH   3   4
ENDBRANCH   2   3
ENDBRANCH   1   2
BRANCH   1  12
ATOM     12  C   UNL     1      55.404 142.894 -26.553  1.00  0.00     0.000 C 
BRANCH  12  13
ATOM     13  C   UNL     1      56.274 143.734 -25.603  1.00  0.00    -0.000 C 
BRANCH  13  14
ATOM     14  C   UNL     1      55.969 143.490 -24.108  1.00  0.00    -0.000 C 
BRANCH  14  15
ATOM     15  C   UNL     1      54.946 142.359 -23.904  1.00  0.00    -0.000 C 
BRANCH  15  16
ATOM     16  C   UNL     1      55.618 141.023 -23.522  1.00  0.00    -0.000 C 
BRANCH  16  17
ATOM     17  C   UNL     1      54.767 139.785 -23.856  1.00  0.00    -0.000 C 
BRANCH  17  18
ATOM     18  C   UNL     1      54.812 139.415 -25.347  1.00  0.00    -0.000 C 
BRANCH  18  19
ATOM     19  C   UNL     1      53.481 139.693 -26.063  1.00  0.00    -0.003 C 
ATOM     20  C   UNL     1      52.295 139.773 -25.102  1.00  0.00     0.004 C 
ENDBRANCH  18  19
ENDBRANCH  17  18
ENDBRANCH  16  17
ENDBRANCH  15  16
ENDBRANCH  14  15
ENDBRANCH  13  14
ENDBRANCH  12  13
ENDBRANCH   1  12
TORSDOF 16
ENDMDL
