MODEL 1
REMARK VINA RESULT:    -4.356      0.000      0.000
REMARK INTER + INTRA:          -5.183
REMARK INTER:                  -5.120
REMARK INTRA:                  -0.063
REMARK UNBOUND:                -0.063
REMARK SMILES O=C([O-])CCC(=O)[O-]
REMARK SMILES IDX 4 1 2 2 1 3 3 4 5 5 6 6 7 7 8 8
REMARK H PARENT
REMARK Flexibility Score: inf
ROOT
ATOM      1  C   UNL     1      23.881  26.249  33.918  1.00  0.00     0.059 C 
ENDROOT
BRANCH   1   2
ATOM      2  C   UNL     1      23.672  25.581  32.596  1.00  0.00     0.042 C 
ATOM      3  O   UNL     1      23.048  24.489  32.529  1.00  0.00    -0.550 OA
ATOM      4  O   UNL     1      24.209  26.139  31.443  1.00  0.00    -0.550 OA
ENDBRANCH   1   2
BRANCH   1   5
ATOM      5  C   UNL     1      25.177  27.061  33.908  1.00  0.00     0.059 C 
BRANCH   5   6
ATOM      6  C   UNL     1      24.880  28.518  33.741  1.00  0.00     0.042 C 
ATOM      7  O   UNL     1      23.690  28.930  33.769  1.00  0.00    -0.550 OA
ATOM      8  O   UNL     1      25.921  29.427  33.602  1.00  0.00    -0.550 OA
ENDBRANCH   5   6
ENDBRANCH   1   5
TORSDOF 3
ENDMDL
MODEL 2
REMARK VINA RESULT:    -4.338      2.004      2.504
REMARK INTER + INTRA:          -5.163
REMARK INTER:                  -5.127
REMARK INTRA:                  -0.036
REMARK UNBOUND:                -0.063
REMARK SMILES O=C([O-])CCC(=O)[O-]
REMARK SMILES IDX 4 1 2 2 1 3 3 4 5 5 6 6 7 7 8 8
REMARK H PARENT
REMARK Flexibility Score: inf
ROOT
ATOM      1  C   UNL     1      23.382  26.890  33.668  1.00  0.00     0.059 C 
ENDROOT
BRANCH   1   2
ATOM      2  C   UNL     1      21.894  26.793  33.541  1.00  0.00     0.042 C 
ATOM      3  O   UNL     1      21.270  27.582  32.783  1.00  0.00    -0.550 OA
ATOM      4  O   UNL     1      21.192  25.864  34.297  1.00  0.00    -0.550 OA
ENDBRANCH   1   2
BRANCH   1   5
ATOM      5  C   UNL     1      23.828  28.353  33.627  1.00  0.00     0.059 C 
BRANCH   5   6
ATOM      6  C   UNL     1      25.309  28.453  33.808  1.00  0.00     0.042 C 
ATOM      7  O   UNL     1      25.903  29.541  33.584  1.00  0.00    -0.550 OA
ATOM      8  O   UNL     1      26.029  27.359  34.270  1.00  0.00    -0.550 OA
ENDBRANCH   5   6
ENDBRANCH   1   5
TORSDOF 3
ENDMDL
MODEL 3
REMARK VINA RESULT:    -4.327      1.986      3.935
REMARK INTER + INTRA:          -5.149
REMARK INTER:                  -5.113
REMARK INTRA:                  -0.036
REMARK UNBOUND:                -0.063
REMARK SMILES O=C([O-])CCC(=O)[O-]
REMARK SMILES IDX 4 1 2 2 1 3 3 4 5 5 6 6 7 7 8 8
REMARK H PARENT
REMARK Flexibility Score: inf
ROOT
ATOM      1  C   UNL     1      23.823  28.321  33.632  1.00  0.00     0.059 C 
ENDROOT
BRANCH   1   2
ATOM      2  C   UNL     1      25.300  28.416  33.847  1.00  0.00     0.042 C 
ATOM      3  O   UNL     1      25.908  29.492  33.602  1.00  0.00    -0.550 OA
ATOM      4  O   UNL     1      26.014  27.303  34.271  1.00  0.00    -0.550 OA
ENDBRANCH   1   2
BRANCH   1   5
ATOM      5  C   UNL     1      23.369  26.861  33.678  1.00  0.00     0.059 C 
BRANCH   5   6
ATOM      6  C   UNL     1      21.880  26.772  33.553  1.00  0.00     0.042 C 
ATOM      7  O   UNL     1      21.260  27.563  32.794  1.00  0.00    -0.550 OA
ATOM      8  O   UNL     1      21.184  25.785  34.239  1.00  0.00    -0.550 OA
ENDBRANCH   5   6
ENDBRANCH   1   5
TORSDOF 3
ENDMDL
MODEL 4
REMARK VINA RESULT:    -4.317      0.982      3.754
REMARK INTER + INTRA:          -5.138
REMARK INTER:                  -5.103
REMARK INTRA:                  -0.034
REMARK UNBOUND:                -0.063
REMARK SMILES O=C([O-])CCC(=O)[O-]
REMARK SMILES IDX 4 1 2 2 1 3 3 4 5 5 6 6 7 7 8 8
REMARK H PARENT
REMARK Flexibility Score: inf
ROOT
ATOM      1  C   UNL     1      23.817  28.041  33.571  1.00  0.00     0.059 C 
ENDROOT
BRANCH   1   2
ATOM      2  C   UNL     1      25.261  28.261  33.891  1.00  0.00     0.042 C 
ATOM      3  O   UNL     1      25.802  29.372  33.646  1.00  0.00    -0.550 OA
ATOM      4  O   UNL     1      26.023  27.225  34.415  1.00  0.00    -0.550 OA
ENDBRANCH   1   2
BRANCH   1   5
ATOM      5  C   UNL     1      23.439  26.575  33.787  1.00  0.00     0.059 C 
BRANCH   5   6
ATOM      6  C   UNL     1      23.517  25.819  32.499  1.00  0.00     0.042 C 
ATOM      7  O   UNL     1      23.065  24.646  32.424  1.00  0.00    -0.550 OA
ATOM      8  O   UNL     1      24.044  26.427  31.367  1.00  0.00    -0.550 OA
ENDBRANCH   5   6
ENDBRANCH   1   5
TORSDOF 3
ENDMDL
MODEL 5
REMARK VINA RESULT:    -4.219      1.884      3.785
REMARK INTER + INTRA:          -5.022
REMARK INTER:                  -4.982
REMARK INTRA:                  -0.040
REMARK UNBOUND:                -0.063
REMARK SMILES O=C([O-])CCC(=O)[O-]
REMARK SMILES IDX 4 1 2 2 1 3 3 4 5 5 6 6 7 7 8 8
REMARK H PARENT
REMARK Flexibility Score: inf
ROOT
ATOM      1  C   UNL     1      23.696  28.084  33.617  1.00  0.00     0.059 C 
ENDROOT
BRANCH   1   2
ATOM      2  C   UNL     1      25.165  28.207  33.870  1.00  0.00     0.042 C 
ATOM      3  O   UNL     1      25.808  27.237  34.352  1.00  0.00    -0.550 OA
ATOM      4  O   UNL     1      25.815  29.408  33.619  1.00  0.00    -0.550 OA
ENDBRANCH   1   2
BRANCH   1   5
ATOM      5  C   UNL     1      23.286  26.612  33.546  1.00  0.00     0.059 C 
BRANCH   5   6
ATOM      6  C   UNL     1      21.815  26.467  33.771  1.00  0.00     0.042 C 
ATOM      7  O   UNL     1      21.351  25.404  34.263  1.00  0.00    -0.550 OA
ATOM      8  O   UNL     1      20.960  27.524  33.484  1.00  0.00    -0.550 OA
ENDBRANCH   5   6
ENDBRANCH   1   5
TORSDOF 3
ENDMDL
MODEL 6
REMARK VINA RESULT:    -4.177      1.826      2.185
REMARK INTER + INTRA:          -4.973
REMARK INTER:                  -4.931
REMARK INTRA:                  -0.042
REMARK UNBOUND:                -0.063
REMARK SMILES O=C([O-])CCC(=O)[O-]
REMARK SMILES IDX 4 1 2 2 1 3 3 4 5 5 6 6 7 7 8 8
REMARK H PARENT
REMARK Flexibility Score: inf
ROOT
ATOM      1  C   UNL     1      23.345  26.710  33.260  1.00  0.00     0.059 C 
ENDROOT
BRANCH   1   2
ATOM      2  C   UNL     1      21.934  26.402  33.649  1.00  0.00     0.042 C 
ATOM      3  O   UNL     1      21.633  25.261  34.090  1.00  0.00    -0.550 OA
ATOM      4  O   UNL     1      20.942  27.359  33.479  1.00  0.00    -0.550 OA
ENDBRANCH   1   2
BRANCH   1   5
ATOM      5  C   UNL     1      23.696  28.154  33.620  1.00  0.00     0.059 C 
BRANCH   5   6
ATOM      6  C   UNL     1      25.165  28.288  33.871  1.00  0.00     0.042 C 
ATOM      7  O   UNL     1      25.825  27.309  34.308  1.00  0.00    -0.550 OA
ATOM      8  O   UNL     1      25.814  29.480  33.577  1.00  0.00    -0.550 OA
ENDBRANCH   5   6
ENDBRANCH   1   5
TORSDOF 3
ENDMDL
MODEL 7
REMARK VINA RESULT:    -4.118      3.790      4.409
REMARK INTER + INTRA:          -4.904
REMARK INTER:                  -4.877
REMARK INTRA:                  -0.027
REMARK UNBOUND:                -0.063
REMARK SMILES O=C([O-])CCC(=O)[O-]
REMARK SMILES IDX 4 1 2 2 1 3 3 4 5 5 6 6 7 7 8 8
REMARK H PARENT
REMARK Flexibility Score: inf
ROOT
ATOM      1  C   UNL     1      20.627  26.546  34.373  1.00  0.00     0.059 C 
ENDROOT
BRANCH   1   2
ATOM      2  C   UNL     1      19.255  26.830  34.898  1.00  0.00     0.042 C 
ATOM      3  O   UNL     1      19.054  26.896  36.140  1.00  0.00    -0.550 OA
ATOM      4  O   UNL     1      18.190  26.973  34.019  1.00  0.00    -0.550 OA
ENDBRANCH   1   2
BRANCH   1   5
ATOM      5  C   UNL     1      20.988  27.531  33.261  1.00  0.00     0.059 C 
BRANCH   5   6
ATOM      6  C   UNL     1      22.474  27.647  33.127  1.00  0.00     0.042 C 
ATOM      7  O   UNL     1      23.127  26.759  32.518  1.00  0.00    -0.550 OA
ATOM      8  O   UNL     1      23.132  28.761  33.634  1.00  0.00    -0.550 OA
ENDBRANCH   5   6
ENDBRANCH   1   5
TORSDOF 3
ENDMDL
MODEL 8
REMARK VINA RESULT:    -4.025      1.883      3.605
REMARK INTER + INTRA:          -4.795
REMARK INTER:                  -4.710
REMARK INTRA:                  -0.084
REMARK UNBOUND:                -0.063
REMARK SMILES O=C([O-])CCC(=O)[O-]
REMARK SMILES IDX 4 1 2 2 1 3 3 4 5 5 6 6 7 7 8 8
REMARK H PARENT
REMARK Flexibility Score: inf
ROOT
ATOM      1  C   UNL     1      24.596  26.886  33.505  1.00  0.00     0.059 C 
ENDROOT
BRANCH   1   2
ATOM      2  C   UNL     1      24.486  28.366  33.694  1.00  0.00     0.042 C 
ATOM      3  O   UNL     1      25.511  29.050  33.953  1.00  0.00    -0.550 OA
ATOM      4  O   UNL     1      23.243  28.984  33.633  1.00  0.00    -0.550 OA
ENDBRANCH   1   2
BRANCH   1   5
ATOM      5  C   UNL     1      25.782  26.332  34.295  1.00  0.00     0.059 C 
BRANCH   5   6
ATOM      6  C   UNL     1      26.888  25.937  33.368  1.00  0.00     0.042 C 
ATOM      7  O   UNL     1      26.690  25.064  32.482  1.00  0.00    -0.550 OA
ATOM      8  O   UNL     1      28.124  26.566  33.453  1.00  0.00    -0.550 OA
ENDBRANCH   5   6
ENDBRANCH   1   5
TORSDOF 3
ENDMDL
MODEL 9
REMARK VINA RESULT:    -3.969      5.199      6.671
REMARK INTER + INTRA:          -4.728
REMARK INTER:                  -4.627
REMARK INTRA:                  -0.102
REMARK UNBOUND:                -0.063
REMARK SMILES O=C([O-])CCC(=O)[O-]
REMARK SMILES IDX 4 1 2 2 1 3 3 4 5 5 6 6 7 7 8 8
REMARK H PARENT
REMARK Flexibility Score: inf
ROOT
ATOM      1  C   UNL     1      30.294  25.973  31.460  1.00  0.00     0.059 C 
ENDROOT
BRANCH   1   2
ATOM      2  C   UNL     1      29.857  27.184  32.221  1.00  0.00     0.042 C 
ATOM      3  O   UNL     1      28.819  27.145  32.933  1.00  0.00    -0.550 OA
ATOM      4  O   UNL     1      30.569  28.371  32.106  1.00  0.00    -0.550 OA
ENDBRANCH   1   2
BRANCH   1   5
ATOM      5  C   UNL     1      29.090  25.280  30.820  1.00  0.00     0.059 C 
BRANCH   5   6
ATOM      6  C   UNL     1      28.881  23.928  31.425  1.00  0.00     0.042 C 
ATOM      7  O   UNL     1      27.900  23.720  32.187  1.00  0.00    -0.550 OA
ATOM      8  O   UNL     1      29.742  22.885  31.110  1.00  0.00    -0.550 OA
ENDBRANCH   5   6
ENDBRANCH   1   5
TORSDOF 3
ENDMDL
