MODEL 1
REMARK VINA RESULT:    -2.411      0.000      0.000
REMARK INTER + INTRA:          -2.597
REMARK INTER:                  -2.552
REMARK INTRA:                  -0.045
REMARK UNBOUND:                -0.045
REMARK SMILES CC1=CC[C@]23[C@H]([C@@H](C(C)C)CC[C@@H]2C)[C@@H]13
REMARK SMILES IDX 14 1 13 2 12 3 11 4 7 5 6 6 5 7 15 8 2 9 3 10 4 11 1 12 8 13
REMARK SMILES IDX 9 14 10 15
REMARK H PARENT
REMARK Flexibility Score: inf
ROOT
ATOM      1  C   UNL     1     134.877 150.821 126.214  1.00  0.00     0.008 C 
ATOM      2  C   UNL     1     135.311 152.164 125.606  1.00  0.00    -0.007 C 
ATOM      3  C   UNL     1     136.245 152.874 126.604  1.00  0.00     0.004 C 
ATOM      4  C   UNL     1     136.848 154.149 126.017  1.00  0.00     0.004 C 
ATOM      5  C   UNL     1     137.797 153.799 124.853  1.00  0.00    -0.004 C 
ATOM      6  C   UNL     1     137.165 152.884 123.778  1.00  0.00     0.007 C 
ATOM      7  C   UNL     1     135.966 152.003 124.191  1.00  0.00    -0.013 C 
ATOM      8  C   UNL     1     135.764 153.233 123.291  1.00  0.00     0.025 C 
ATOM      9  C   UNL     1     135.395 152.677 121.960  1.00  0.00    -0.073 C 
ATOM     10  C   UNL     1     135.341 151.354 121.956  1.00  0.00    -0.027 C 
ATOM     11  C   UNL     1     135.666 150.780 123.292  1.00  0.00     0.035 C 
ATOM     12  C   UNL     1     135.130 153.519 120.751  1.00  0.00     0.039 C 
ENDROOT
BRANCH   5  13
ATOM     13  C   UNL     1     138.501 155.032 124.207  1.00  0.00    -0.014 C 
ATOM     14  C   UNL     1     138.261 155.100 122.690  1.00  0.00     0.007 C 
ATOM     15  C   UNL     1     140.006 155.125 124.505  1.00  0.00     0.007 C 
ENDBRANCH   5  13
TORSDOF 1
ENDMDL
MODEL 2
REMARK VINA RESULT:    -1.897     14.619     16.789
REMARK INTER + INTRA:          -2.053
REMARK INTER:                  -1.865
REMARK INTRA:                  -0.188
REMARK UNBOUND:                -0.045
REMARK SMILES CC1=CC[C@]23[C@H]([C@@H](C(C)C)CC[C@@H]2C)[C@@H]13
REMARK SMILES IDX 14 1 13 2 12 3 11 4 7 5 6 6 5 7 15 8 2 9 3 10 4 11 1 12 8 13
REMARK SMILES IDX 9 14 10 15
REMARK H PARENT
REMARK Flexibility Score: inf
ROOT
ATOM      1  C   UNL     1     139.765 134.875 126.064  1.00  0.00     0.008 C 
ATOM      2  C   UNL     1     138.415 135.325 125.483  1.00  0.00    -0.007 C 
ATOM      3  C   UNL     1     137.787 136.353 126.445  1.00  0.00     0.004 C 
ATOM      4  C   UNL     1     136.514 136.971 125.872  1.00  0.00     0.004 C 
ATOM      5  C   UNL     1     136.851 137.826 124.633  1.00  0.00    -0.004 C 
ATOM      6  C   UNL     1     137.692 137.085 123.566  1.00  0.00     0.007 C 
ATOM      7  C   UNL     1     138.540 135.880 124.023  1.00  0.00    -0.013 C 
ATOM      8  C   UNL     1     137.265 135.673 123.189  1.00  0.00     0.025 C 
ATOM      9  C   UNL     1     137.747 135.193 121.864  1.00  0.00    -0.073 C 
ATOM     10  C   UNL     1     139.066 135.082 121.810  1.00  0.00    -0.027 C 
ATOM     11  C   UNL     1     139.710 135.469 123.097  1.00  0.00     0.035 C 
ATOM     12  C   UNL     1     136.844 134.887 120.711  1.00  0.00     0.039 C 
ENDROOT
BRANCH   5  13
ATOM     13  C   UNL     1     135.620 138.539 123.992  1.00  0.00    -0.014 C 
ATOM     14  C   UNL     1     135.697 138.546 122.456  1.00  0.00     0.007 C 
ATOM     15  C   UNL     1     135.377 139.964 124.513  1.00  0.00     0.007 C 
ENDBRANCH   5  13
TORSDOF 1
ENDMDL
MODEL 3
REMARK VINA RESULT:    -1.007      1.335      3.662
REMARK INTER + INTRA:          -1.110
REMARK INTER:                  -0.861
REMARK INTRA:                  -0.249
REMARK UNBOUND:                -0.045
REMARK SMILES CC1=CC[C@]23[C@H]([C@@H](C(C)C)CC[C@@H]2C)[C@@H]13
REMARK SMILES IDX 14 1 13 2 12 3 11 4 7 5 6 6 5 7 15 8 2 9 3 10 4 11 1 12 8 13
REMARK SMILES IDX 9 14 10 15
REMARK H PARENT
REMARK Flexibility Score: inf
ROOT
ATOM      1  C   UNL     1     137.121 152.246 119.690  1.00  0.00     0.008 C 
ATOM      2  C   UNL     1     137.590 152.502 121.132  1.00  0.00    -0.007 C 
ATOM      3  C   UNL     1     138.343 153.846 121.169  1.00  0.00     0.004 C 
ATOM      4  C   UNL     1     138.712 154.256 122.592  1.00  0.00     0.004 C 
ATOM      5  C   UNL     1     137.435 154.560 123.404  1.00  0.00    -0.004 C 
ATOM      6  C   UNL     1     136.378 153.432 123.359  1.00  0.00     0.007 C 
ATOM      7  C   UNL     1     136.414 152.454 122.166  1.00  0.00    -0.013 C 
ATOM      8  C   UNL     1     136.862 152.003 123.567  1.00  0.00     0.025 C 
ATOM      9  C   UNL     1     135.822 151.035 124.010  1.00  0.00    -0.073 C 
ATOM     10  C   UNL     1     134.876 150.851 123.102  1.00  0.00    -0.027 C 
ATOM     11  C   UNL     1     135.112 151.668 121.879  1.00  0.00     0.035 C 
ATOM     12  C   UNL     1     135.832 150.355 125.343  1.00  0.00     0.039 C 
ENDROOT
BRANCH   5  13
ATOM     13  C   UNL     1     137.704 155.032 124.866  1.00  0.00    -0.014 C 
ATOM     14  C   UNL     1     139.186 154.891 125.251  1.00  0.00     0.007 C 
ATOM     15  C   UNL     1     136.821 154.345 125.920  1.00  0.00     0.007 C 
ENDBRANCH   5  13
TORSDOF 1
ENDMDL
MODEL 4
REMARK VINA RESULT:    -0.929     14.262     16.716
REMARK INTER + INTRA:          -1.028
REMARK INTER:                  -1.079
REMARK INTRA:                   0.051
REMARK UNBOUND:                -0.045
REMARK SMILES CC1=CC[C@]23[C@H]([C@@H](C(C)C)CC[C@@H]2C)[C@@H]13
REMARK SMILES IDX 14 1 13 2 12 3 11 4 7 5 6 6 5 7 15 8 2 9 3 10 4 11 1 12 8 13
REMARK SMILES IDX 9 14 10 15
REMARK H PARENT
REMARK Flexibility Score: inf
ROOT
ATOM      1  C   UNL     1     138.426 137.568 119.958  1.00  0.00     0.008 C 
ATOM      2  C   UNL     1     138.004 136.766 121.201  1.00  0.00    -0.007 C 
ATOM      3  C   UNL     1     139.022 135.631 121.419  1.00  0.00     0.004 C 
ATOM      4  C   UNL     1     138.768 134.875 122.721  1.00  0.00     0.004 C 
ATOM      5  C   UNL     1     139.026 135.800 123.929  1.00  0.00    -0.004 C 
ATOM      6  C   UNL     1     138.274 137.150 123.861  1.00  0.00     0.007 C 
ATOM      7  C   UNL     1     137.839 137.666 122.473  1.00  0.00    -0.013 C 
ATOM      8  C   UNL     1     136.802 137.117 123.468  1.00  0.00     0.025 C 
ATOM      9  C   UNL     1     136.005 138.303 123.884  1.00  0.00    -0.073 C 
ATOM     10  C   UNL     1     136.400 139.419 123.290  1.00  0.00    -0.027 C 
ATOM     11  C   UNL     1     137.541 139.181 122.362  1.00  0.00     0.035 C 
ATOM     12  C   UNL     1     134.888 138.247 124.880  1.00  0.00     0.039 C 
ENDROOT
BRANCH   5  13
ATOM     13  C   UNL     1     138.834 135.111 125.315  1.00  0.00    -0.014 C 
ATOM     14  C   UNL     1     137.372 135.172 125.788  1.00  0.00     0.007 C 
ATOM     15  C   UNL     1     139.765 135.643 126.416  1.00  0.00     0.007 C 
ENDBRANCH   5  13
TORSDOF 1
ENDMDL
MODEL 5
REMARK VINA RESULT:    -0.782      1.286      3.849
REMARK INTER + INTRA:          -0.872
REMARK INTER:                  -0.837
REMARK INTRA:                  -0.035
REMARK UNBOUND:                -0.045
REMARK SMILES CC1=CC[C@]23[C@H]([C@@H](C(C)C)CC[C@@H]2C)[C@@H]13
REMARK SMILES IDX 14 1 13 2 12 3 11 4 7 5 6 6 5 7 15 8 2 9 3 10 4 11 1 12 8 13
REMARK SMILES IDX 9 14 10 15
REMARK H PARENT
REMARK Flexibility Score: inf
ROOT
ATOM      1  C   UNL     1     134.875 151.329 125.875  1.00  0.00     0.008 C 
ATOM      2  C   UNL     1     135.858 151.475 124.702  1.00  0.00    -0.007 C 
ATOM      3  C   UNL     1     135.242 150.799 123.461  1.00  0.00     0.004 C 
ATOM      4  C   UNL     1     136.082 151.029 122.207  1.00  0.00     0.004 C 
ATOM      5  C   UNL     1     136.064 152.523 121.824  1.00  0.00    -0.004 C 
ATOM      6  C   UNL     1     136.443 153.475 122.983  1.00  0.00     0.007 C 
ATOM      7  C   UNL     1     136.255 152.966 124.428  1.00  0.00    -0.013 C 
ATOM      8  C   UNL     1     137.661 153.113 123.823  1.00  0.00     0.025 C 
ATOM      9  C   UNL     1     138.282 154.243 124.567  1.00  0.00    -0.073 C 
ATOM     10  C   UNL     1     137.480 154.749 125.491  1.00  0.00    -0.027 C 
ATOM     11  C   UNL     1     136.168 154.045 125.534  1.00  0.00     0.035 C 
ATOM     12  C   UNL     1     139.657 154.766 124.290  1.00  0.00     0.039 C 
ENDROOT
BRANCH   5  13
ATOM     13  C   UNL     1     136.862 152.861 120.527  1.00  0.00    -0.014 C 
ATOM     14  C   UNL     1     137.075 151.619 119.645  1.00  0.00     0.007 C 
ATOM     15  C   UNL     1     138.206 153.562 120.779  1.00  0.00     0.007 C 
ENDBRANCH   5  13
TORSDOF 1
ENDMDL
MODEL 6
REMARK VINA RESULT:    -0.763     14.124     16.614
REMARK INTER + INTRA:          -0.853
REMARK INTER:                  -0.692
REMARK INTRA:                  -0.161
REMARK UNBOUND:                -0.045
REMARK SMILES CC1=CC[C@]23[C@H]([C@@H](C(C)C)CC[C@@H]2C)[C@@H]13
REMARK SMILES IDX 14 1 13 2 12 3 11 4 7 5 6 6 5 7 15 8 2 9 3 10 4 11 1 12 8 13
REMARK SMILES IDX 9 14 10 15
REMARK H PARENT
REMARK Flexibility Score: inf
ROOT
ATOM      1  C   UNL     1     138.618 137.136 119.600  1.00  0.00     0.008 C 
ATOM      2  C   UNL     1     138.349 137.640 121.028  1.00  0.00    -0.007 C 
ATOM      3  C   UNL     1     137.045 138.461 121.020  1.00  0.00     0.004 C 
ATOM      4  C   UNL     1     136.619 138.873 122.427  1.00  0.00     0.004 C 
ATOM      5  C   UNL     1     136.229 137.626 123.248  1.00  0.00    -0.004 C 
ATOM      6  C   UNL     1     137.303 136.512 123.248  1.00  0.00     0.007 C 
ATOM      7  C   UNL     1     138.312 136.479 122.081  1.00  0.00    -0.013 C 
ATOM      8  C   UNL     1     138.749 136.927 123.486  1.00  0.00     0.025 C 
ATOM      9  C   UNL     1     139.652 135.845 123.969  1.00  0.00    -0.073 C 
ATOM     10  C   UNL     1     139.809 134.877 123.080  1.00  0.00    -0.027 C 
ATOM     11  C   UNL     1     139.037 135.135 121.833  1.00  0.00     0.035 C 
ATOM     12  C   UNL     1     140.297 135.842 125.319  1.00  0.00     0.039 C 
ENDROOT
BRANCH   5  13
ATOM     13  C   UNL     1     135.736 137.941 124.694  1.00  0.00    -0.014 C 
ATOM     14  C   UNL     1     135.712 139.453 124.975  1.00  0.00     0.007 C 
ATOM     15  C   UNL     1     136.520 137.214 125.798  1.00  0.00     0.007 C 
ENDBRANCH   5  13
TORSDOF 1
ENDMDL
MODEL 7
REMARK VINA RESULT:    -0.694     14.326     16.597
REMARK INTER + INTRA:          -0.780
REMARK INTER:                  -0.757
REMARK INTRA:                  -0.023
REMARK UNBOUND:                -0.045
REMARK SMILES CC1=CC[C@]23[C@H]([C@@H](C(C)C)CC[C@@H]2C)[C@@H]13
REMARK SMILES IDX 14 1 13 2 12 3 11 4 7 5 6 6 5 7 15 8 2 9 3 10 4 11 1 12 8 13
REMARK SMILES IDX 9 14 10 15
REMARK H PARENT
REMARK Flexibility Score: inf
ROOT
ATOM      1  C   UNL     1     139.386 134.875 125.736  1.00  0.00     0.008 C 
ATOM      2  C   UNL     1     139.285 135.898 124.592  1.00  0.00    -0.007 C 
ATOM      3  C   UNL     1     140.031 135.337 123.367  1.00  0.00     0.004 C 
ATOM      4  C   UNL     1     139.852 136.220 122.134  1.00  0.00     0.004 C 
ATOM      5  C   UNL     1     138.379 136.195 121.675  1.00  0.00    -0.004 C 
ATOM      6  C   UNL     1     137.364 136.518 122.797  1.00  0.00     0.007 C 
ATOM      7  C   UNL     1     137.803 136.285 124.258  1.00  0.00    -0.013 C 
ATOM      8  C   UNL     1     137.665 137.710 123.697  1.00  0.00     0.025 C 
ATOM      9  C   UNL     1     136.488 138.288 124.404  1.00  0.00    -0.073 C 
ATOM     10  C   UNL     1     135.950 137.445 125.271  1.00  0.00    -0.027 C 
ATOM     11  C   UNL     1     136.671 136.142 125.304  1.00  0.00     0.035 C 
ATOM     12  C   UNL     1     135.959 139.664 124.150  1.00  0.00     0.039 C 
ENDROOT
BRANCH   5  13
ATOM     13  C   UNL     1     138.095 137.035 120.391  1.00  0.00    -0.014 C 
ATOM     14  C   UNL     1     139.357 137.210 119.530  1.00  0.00     0.007 C 
ATOM     15  C   UNL     1     137.452 138.404 120.665  1.00  0.00     0.007 C 
ENDBRANCH   5  13
TORSDOF 1
ENDMDL
MODEL 8
REMARK VINA RESULT:    -0.231     22.385     23.531
REMARK INTER + INTRA:          -0.289
REMARK INTER:                  -0.176
REMARK INTRA:                  -0.113
REMARK UNBOUND:                -0.045
REMARK SMILES CC1=CC[C@]23[C@H]([C@@H](C(C)C)CC[C@@H]2C)[C@@H]13
REMARK SMILES IDX 14 1 13 2 12 3 11 4 7 5 6 6 5 7 15 8 2 9 3 10 4 11 1 12 8 13
REMARK SMILES IDX 9 14 10 15
REMARK H PARENT
REMARK Flexibility Score: inf
ROOT
ATOM      1  C   UNL     1     155.125 139.703 126.125  1.00  0.00     0.008 C 
ATOM      2  C   UNL     1     154.809 138.333 125.503  1.00  0.00    -0.007 C 
ATOM      3  C   UNL     1     153.932 137.538 126.490  1.00  0.00     0.004 C 
ATOM      4  C   UNL     1     153.441 136.223 125.890  1.00  0.00     0.004 C 
ATOM      5  C   UNL     1     152.471 136.503 124.723  1.00  0.00    -0.004 C 
ATOM      6  C   UNL     1     153.030 137.477 123.659  1.00  0.00     0.007 C 
ATOM      7  C   UNL     1     154.148 138.451 124.087  1.00  0.00    -0.013 C 
ATOM      8  C   UNL     1     154.457 137.250 123.176  1.00  0.00     0.025 C 
ATOM      9  C   UNL     1     154.785 137.847 121.852  1.00  0.00    -0.073 C 
ATOM     10  C   UNL     1     154.728 139.170 121.860  1.00  0.00    -0.027 C 
ATOM     11  C   UNL     1     154.349 139.702 123.199  1.00  0.00     0.035 C 
ATOM     12  C   UNL     1     155.124 137.041 120.638  1.00  0.00     0.039 C 
ENDROOT
BRANCH   5  13
ATOM     13  C   UNL     1     151.876 135.220 124.064  1.00  0.00    -0.014 C 
ATOM     14  C   UNL     1     151.951 135.278 122.528  1.00  0.00     0.007 C 
ATOM     15  C   UNL     1     150.442 134.892 124.507  1.00  0.00     0.007 C 
ENDBRANCH   5  13
TORSDOF 1
ENDMDL
MODEL 9
REMARK VINA RESULT:     0.031     13.668     16.754
REMARK INTER + INTRA:          -0.012
REMARK INTER:                   0.315
REMARK INTRA:                  -0.327
REMARK UNBOUND:                -0.045
REMARK SMILES CC1=CC[C@]23[C@H]([C@@H](C(C)C)CC[C@@H]2C)[C@@H]13
REMARK SMILES IDX 14 1 13 2 12 3 11 4 7 5 6 6 5 7 15 8 2 9 3 10 4 11 1 12 8 13
REMARK SMILES IDX 9 14 10 15
REMARK H PARENT
REMARK Flexibility Score: inf
ROOT
ATOM      1  C   UNL     1     152.647 153.250 119.625  1.00  0.00     0.008 C 
ATOM      2  C   UNL     1     152.823 152.824 121.092  1.00  0.00    -0.007 C 
ATOM      3  C   UNL     1     154.277 152.356 121.293  1.00  0.00     0.004 C 
ATOM      4  C   UNL     1     154.585 152.058 122.759  1.00  0.00     0.004 C 
ATOM      5  C   UNL     1     154.529 153.359 123.586  1.00  0.00    -0.004 C 
ATOM      6  C   UNL     1     153.224 154.169 123.399  1.00  0.00     0.007 C 
ATOM      7  C   UNL     1     152.419 153.953 122.101  1.00  0.00    -0.013 C 
ATOM      8  C   UNL     1     151.908 153.405 123.444  1.00  0.00     0.025 C 
ATOM      9  C   UNL     1     150.705 154.223 123.760  1.00  0.00    -0.073 C 
ATOM     10  C   UNL     1     150.442 155.125 122.827  1.00  0.00    -0.027 C 
ATOM     11  C   UNL     1     151.426 155.074 121.710  1.00  0.00     0.035 C 
ATOM     12  C   UNL     1     149.890 154.059 125.005  1.00  0.00     0.039 C 
ENDROOT
BRANCH   5  13
ATOM     13  C   UNL     1     154.871 153.172 125.097  1.00  0.00    -0.014 C 
ATOM     14  C   UNL     1     154.768 151.700 125.530  1.00  0.00     0.007 C 
ATOM     15  C   UNL     1     154.044 154.057 126.043  1.00  0.00     0.007 C 
ENDBRANCH   5  13
TORSDOF 1
ENDMDL
