MODEL 1
REMARK VINA RESULT:    -4.486      0.000      0.000
REMARK INTER + INTRA:          -4.617
REMARK INTER:                  -4.617
REMARK INTRA:                   0.000
REMARK UNBOUND:                 0.000
REMARK SMILES Nc1ncnc2nc[nH]c12
REMARK SMILES IDX 8 1 7 2 6 3 5 4 4 5 3 6 2 7 10 8 9 9 1 11
REMARK H PARENT 9 10 1 12 1 13
REMARK Flexibility Score: inf
ROOT
ATOM      1  C   UNL     1      -1.430   6.703   9.202  1.00  0.00     0.199 A 
ATOM      2  N   UNL     1      -0.523   6.821  10.210  1.00  0.00    -0.217 NA
ATOM      3  C   UNL     1       0.646   6.718   9.556  1.00  0.00     0.182 A 
ATOM      4  N   UNL     1       1.885   6.770  10.101  1.00  0.00    -0.215 NA
ATOM      5  C   UNL     1       2.962   6.646   9.269  1.00  0.00     0.226 A 
ATOM      6  N   UNL     1       2.784   6.471   7.920  1.00  0.00    -0.217 NA
ATOM      7  C   UNL     1       1.535   6.418   7.368  1.00  0.00     0.152 A 
ATOM      8  C   UNL     1       0.449   6.547   8.229  1.00  0.00     0.127 A 
ATOM      9  N   UNL     1      -0.867   6.535   7.979  1.00  0.00    -0.340 N 
ATOM     10  H   UNL     1      -1.357   6.422   7.064  1.00  0.00     0.168 HD
ENDROOT
BRANCH   7  11
ATOM     11  N   UNL     1       1.373   6.237   5.961  1.00  0.00    -0.382 N 
ATOM     12  H   UNL     1       1.627   5.339   5.495  1.00  0.00     0.158 HD
ATOM     13  H   UNL     1       0.993   7.013   5.375  1.00  0.00     0.158 HD
ENDBRANCH   7  11
TORSDOF 1
ENDMDL
MODEL 2
REMARK VINA RESULT:    -4.342      1.179      2.978
REMARK INTER + INTRA:          -4.469
REMARK INTER:                  -4.469
REMARK INTRA:                   0.000
REMARK UNBOUND:                 0.000
REMARK SMILES Nc1ncnc2nc[nH]c12
REMARK SMILES IDX 8 1 7 2 6 3 5 4 4 5 3 6 2 7 10 8 9 9 1 11
REMARK H PARENT 9 10 1 12 1 13
REMARK Flexibility Score: inf
ROOT
ATOM      1  C   UNL     1       2.844   5.071   7.733  1.00  0.00     0.199 A 
ATOM      2  N   UNL     1       3.294   5.646   8.881  1.00  0.00    -0.217 NA
ATOM      3  C   UNL     1       2.197   6.271   9.338  1.00  0.00     0.182 A 
ATOM      4  N   UNL     1       2.098   7.008  10.470  1.00  0.00    -0.215 NA
ATOM      5  C   UNL     1       0.889   7.570  10.771  1.00  0.00     0.226 A 
ATOM      6  N   UNL     1      -0.189   7.389   9.943  1.00  0.00    -0.217 NA
ATOM      7  C   UNL     1      -0.091   6.646   8.799  1.00  0.00     0.152 A 
ATOM      8  C   UNL     1       1.146   6.080   8.507  1.00  0.00     0.127 A 
ATOM      9  N   UNL     1       1.534   5.318   7.477  1.00  0.00    -0.340 N 
ATOM     10  H   UNL     1       0.972   4.986   6.663  1.00  0.00     0.168 HD
ENDROOT
BRANCH   7  11
ATOM     11  N   UNL     1      -1.227   6.470   7.952  1.00  0.00    -0.382 N 
ATOM     12  H   UNL     1      -1.978   5.784   8.183  1.00  0.00     0.158 HD
ATOM     13  H   UNL     1      -1.318   7.033   7.077  1.00  0.00     0.158 HD
ENDBRANCH   7  11
TORSDOF 1
ENDMDL
MODEL 3
REMARK VINA RESULT:    -4.079     15.023     15.934
REMARK INTER + INTRA:          -4.198
REMARK INTER:                  -4.198
REMARK INTRA:                   0.000
REMARK UNBOUND:                 0.000
REMARK SMILES Nc1ncnc2nc[nH]c12
REMARK SMILES IDX 8 1 7 2 6 3 5 4 4 5 3 6 2 7 10 8 9 9 1 11
REMARK H PARENT 9 10 1 12 1 13
REMARK Flexibility Score: inf
ROOT
ATOM      1  C   UNL     1      -8.437  -5.905   9.920  1.00  0.00     0.199 A 
ATOM      2  N   UNL     1      -8.100  -7.121   9.409  1.00  0.00    -0.217 NA
ATOM      3  C   UNL     1      -7.064  -7.481  10.185  1.00  0.00     0.182 A 
ATOM      4  N   UNL     1      -6.347  -8.627  10.097  1.00  0.00    -0.215 NA
ATOM      5  C   UNL     1      -5.322  -8.816  10.980  1.00  0.00     0.226 A 
ATOM      6  N   UNL     1      -5.032  -7.865  11.925  1.00  0.00    -0.217 NA
ATOM      7  C   UNL     1      -5.753  -6.708  12.015  1.00  0.00     0.152 A 
ATOM      8  C   UNL     1      -6.795  -6.530  11.109  1.00  0.00     0.127 A 
ATOM      9  N   UNL     1      -7.657  -5.517  10.961  1.00  0.00    -0.340 N 
ATOM     10  H   UNL     1      -7.724  -4.630  11.508  1.00  0.00     0.168 HD
ENDROOT
BRANCH   7  11
ATOM     11  N   UNL     1      -5.435  -5.731  13.008  1.00  0.00    -0.382 N 
ATOM     12  H   UNL     1      -5.570  -5.924  14.024  1.00  0.00     0.158 HD
ATOM     13  H   UNL     1      -5.058  -4.800  12.723  1.00  0.00     0.158 HD
ENDBRANCH   7  11
TORSDOF 1
ENDMDL
MODEL 4
REMARK VINA RESULT:    -4.018      1.863      3.045
REMARK INTER + INTRA:          -4.135
REMARK INTER:                  -4.135
REMARK INTRA:                   0.000
REMARK UNBOUND:                 0.000
REMARK SMILES Nc1ncnc2nc[nH]c12
REMARK SMILES IDX 8 1 7 2 6 3 5 4 4 5 3 6 2 7 10 8 9 9 1 11
REMARK H PARENT 9 10 1 12 1 13
REMARK Flexibility Score: inf
ROOT
ATOM      1  C   UNL     1       1.368   9.123   6.486  1.00  0.00     0.199 A 
ATOM      2  N   UNL     1       2.050   9.316   7.648  1.00  0.00    -0.217 NA
ATOM      3  C   UNL     1       1.403   8.503   8.499  1.00  0.00     0.182 A 
ATOM      4  N   UNL     1       1.685   8.315   9.810  1.00  0.00    -0.215 NA
ATOM      5  C   UNL     1       0.909   7.440  10.518  1.00  0.00     0.226 A 
ATOM      6  N   UNL     1      -0.125   6.776   9.909  1.00  0.00    -0.217 NA
ATOM      7  C   UNL     1      -0.411   6.964   8.585  1.00  0.00     0.152 A 
ATOM      8  C   UNL     1       0.388   7.857   7.879  1.00  0.00     0.127 A 
ATOM      9  N   UNL     1       0.347   8.236   6.595  1.00  0.00    -0.340 N 
ATOM     10  H   UNL     1      -0.312   7.930   5.845  1.00  0.00     0.168 HD
ENDROOT
BRANCH   7  11
ATOM     11  N   UNL     1      -1.492   6.261   7.971  1.00  0.00    -0.382 N 
ATOM     12  H   UNL     1      -1.899   5.403   8.404  1.00  0.00     0.158 HD
ATOM     13  H   UNL     1      -1.891   6.602   7.069  1.00  0.00     0.158 HD
ENDBRANCH   7  11
TORSDOF 1
ENDMDL
MODEL 5
REMARK VINA RESULT:    -3.964     15.295     15.991
REMARK INTER + INTRA:          -4.080
REMARK INTER:                  -4.080
REMARK INTRA:                   0.000
REMARK UNBOUND:                 0.000
REMARK SMILES Nc1ncnc2nc[nH]c12
REMARK SMILES IDX 8 1 7 2 6 3 5 4 4 5 3 6 2 7 10 8 9 9 1 11
REMARK H PARENT 9 10 1 12 1 13
REMARK Flexibility Score: inf
ROOT
ATOM      1  C   UNL     1      -4.918  -8.001  13.735  1.00  0.00     0.199 A 
ATOM      2  N   UNL     1      -4.351  -8.615  12.661  1.00  0.00    -0.217 NA
ATOM      3  C   UNL     1      -5.004  -8.052  11.631  1.00  0.00     0.182 A 
ATOM      4  N   UNL     1      -4.819  -8.315  10.315  1.00  0.00    -0.215 NA
ATOM      5  C   UNL     1      -5.583  -7.635   9.408  1.00  0.00     0.226 A 
ATOM      6  N   UNL     1      -6.510  -6.715   9.828  1.00  0.00    -0.217 NA
ATOM      7  C   UNL     1      -6.698  -6.449  11.155  1.00  0.00     0.152 A 
ATOM      8  C   UNL     1      -5.913  -7.148  12.066  1.00  0.00     0.127 A 
ATOM      9  N   UNL     1      -5.875  -7.098  13.403  1.00  0.00    -0.340 N 
ATOM     10  H   UNL     1      -6.445  -6.509  14.051  1.00  0.00     0.168 HD
ENDROOT
BRANCH   7  11
ATOM     11  N   UNL     1      -7.669  -5.486  11.570  1.00  0.00    -0.382 N 
ATOM     12  H   UNL     1      -8.171  -4.887  10.879  1.00  0.00     0.158 HD
ATOM     13  H   UNL     1      -7.888  -5.370  12.584  1.00  0.00     0.158 HD
ENDBRANCH   7  11
TORSDOF 1
ENDMDL
MODEL 6
REMARK VINA RESULT:    -3.896     15.218     16.070
REMARK INTER + INTRA:          -4.010
REMARK INTER:                  -4.010
REMARK INTRA:                   0.000
REMARK UNBOUND:                 0.000
REMARK SMILES Nc1ncnc2nc[nH]c12
REMARK SMILES IDX 8 1 7 2 6 3 5 4 4 5 3 6 2 7 10 8 9 9 1 11
REMARK H PARENT 9 10 1 12 1 13
REMARK Flexibility Score: inf
ROOT
ATOM      1  C   UNL     1      -5.600  -7.293   9.165  1.00  0.00     0.199 A 
ATOM      2  N   UNL     1      -5.470  -8.579   9.589  1.00  0.00    -0.217 NA
ATOM      3  C   UNL     1      -5.347  -8.431  10.919  1.00  0.00     0.182 A 
ATOM      4  N   UNL     1      -5.187  -9.419  11.831  1.00  0.00    -0.215 NA
ATOM      5  C   UNL     1      -5.080  -9.070  13.148  1.00  0.00     0.226 A 
ATOM      6  N   UNL     1      -5.132  -7.752  13.526  1.00  0.00    -0.217 NA
ATOM      7  C   UNL     1      -5.292  -6.754  12.607  1.00  0.00     0.152 A 
ATOM      8  C   UNL     1      -5.401  -7.125  11.270  1.00  0.00     0.127 A 
ATOM      9  N   UNL     1      -5.562  -6.381  10.169  1.00  0.00    -0.340 N 
ATOM     10  H   UNL     1      -5.641  -5.343  10.089  1.00  0.00     0.168 HD
ENDROOT
BRANCH   7  11
ATOM     11  N   UNL     1      -5.345  -5.388  13.023  1.00  0.00    -0.382 N 
ATOM     12  H   UNL     1      -6.218  -4.970  13.410  1.00  0.00     0.158 HD
ATOM     13  H   UNL     1      -4.496  -4.785  12.942  1.00  0.00     0.158 HD
ENDBRANCH   7  11
TORSDOF 1
ENDMDL
MODEL 7
REMARK VINA RESULT:    -3.815     14.999     16.058
REMARK INTER + INTRA:          -3.926
REMARK INTER:                  -3.926
REMARK INTRA:                   0.000
REMARK UNBOUND:                 0.000
REMARK SMILES Nc1ncnc2nc[nH]c12
REMARK SMILES IDX 8 1 7 2 6 3 5 4 4 5 3 6 2 7 10 8 9 9 1 11
REMARK H PARENT 9 10 1 12 1 13
REMARK Flexibility Score: inf
ROOT
ATOM      1  C   UNL     1      -6.047  -6.551  11.010  1.00  0.00     0.199 A 
ATOM      2  N   UNL     1      -6.908  -6.879  12.011  1.00  0.00    -0.217 NA
ATOM      3  C   UNL     1      -8.091  -6.481  11.513  1.00  0.00     0.182 A 
ATOM      4  N   UNL     1      -9.298  -6.579  12.120  1.00  0.00    -0.215 NA
ATOM      5  C   UNL     1     -10.396  -6.116  11.451  1.00  0.00     0.226 A 
ATOM      6  N   UNL     1     -10.269  -5.566  10.200  1.00  0.00    -0.217 NA
ATOM      7  C   UNL     1      -9.052  -5.465   9.587  1.00  0.00     0.152 A 
ATOM      8  C   UNL     1      -7.944  -5.942  10.280  1.00  0.00     0.127 A 
ATOM      9  N   UNL     1      -6.650  -5.977   9.938  1.00  0.00    -0.340 N 
ATOM     10  H   UNL     1      -6.198  -5.642   9.058  1.00  0.00     0.168 HD
ENDROOT
BRANCH   7  11
ATOM     11  N   UNL     1      -8.943  -4.890   8.284  1.00  0.00    -0.382 N 
ATOM     12  H   UNL     1      -8.481  -5.401   7.500  1.00  0.00     0.158 HD
ATOM     13  H   UNL     1      -9.331  -3.938   8.099  1.00  0.00     0.158 HD
ENDBRANCH   7  11
TORSDOF 1
ENDMDL
MODEL 8
REMARK VINA RESULT:    -3.760      1.552      2.980
REMARK INTER + INTRA:          -3.870
REMARK INTER:                  -3.870
REMARK INTRA:                   0.000
REMARK UNBOUND:                 0.000
REMARK SMILES Nc1ncnc2nc[nH]c12
REMARK SMILES IDX 8 1 7 2 6 3 5 4 4 5 3 6 2 7 10 8 9 9 1 11
REMARK H PARENT 9 10 1 12 1 13
REMARK Flexibility Score: inf
ROOT
ATOM      1  C   UNL     1       3.654   4.981  10.026  1.00  0.00     0.199 A 
ATOM      2  N   UNL     1       3.343   6.057  10.799  1.00  0.00    -0.217 NA
ATOM      3  C   UNL     1       2.325   6.613  10.120  1.00  0.00     0.182 A 
ATOM      4  N   UNL     1       1.640   7.730  10.462  1.00  0.00    -0.215 NA
ATOM      5  C   UNL     1       0.629   8.144   9.640  1.00  0.00     0.226 A 
ATOM      6  N   UNL     1       0.327   7.442   8.501  1.00  0.00    -0.217 NA
ATOM      7  C   UNL     1       1.018   6.316   8.154  1.00  0.00     0.152 A 
ATOM      8  C   UNL     1       2.043   5.907   9.001  1.00  0.00     0.127 A 
ATOM      9  N   UNL     1       2.876   4.862   8.920  1.00  0.00    -0.340 N 
ATOM     10  H   UNL     1       2.927   4.123   8.184  1.00  0.00     0.168 HD
ENDROOT
BRANCH   7  11
ATOM     11  N   UNL     1       0.685   5.600   6.963  1.00  0.00    -0.382 N 
ATOM     12  H   UNL     1       0.534   6.093   6.056  1.00  0.00     0.158 HD
ATOM     13  H   UNL     1       0.587   4.561   6.988  1.00  0.00     0.158 HD
ENDBRANCH   7  11
TORSDOF 1
ENDMDL
MODEL 9
REMARK VINA RESULT:    -3.727      1.956      2.411
REMARK INTER + INTRA:          -3.836
REMARK INTER:                  -3.836
REMARK INTRA:                   0.000
REMARK UNBOUND:                 0.000
REMARK SMILES Nc1ncnc2nc[nH]c12
REMARK SMILES IDX 8 1 7 2 6 3 5 4 4 5 3 6 2 7 10 8 9 9 1 11
REMARK H PARENT 9 10 1 12 1 13
REMARK Flexibility Score: inf
ROOT
ATOM      1  C   UNL     1       0.485   6.432   7.918  1.00  0.00     0.199 A 
ATOM      2  N   UNL     1       0.885   6.919   9.124  1.00  0.00    -0.217 NA
ATOM      3  C   UNL     1       1.967   6.169   9.392  1.00  0.00     0.182 A 
ATOM      4  N   UNL     1       2.753   6.247  10.492  1.00  0.00    -0.215 NA
ATOM      5  C   UNL     1       3.817   5.394  10.586  1.00  0.00     0.226 A 
ATOM      6  N   UNL     1       4.073   4.486   9.590  1.00  0.00    -0.217 NA
ATOM      7  C   UNL     1       3.280   4.405   8.479  1.00  0.00     0.152 A 
ATOM      8  C   UNL     1       2.201   5.281   8.398  1.00  0.00     0.127 A 
ATOM      9  N   UNL     1       1.270   5.430   7.447  1.00  0.00    -0.340 N 
ATOM     10  H   UNL     1       1.162   4.905   6.551  1.00  0.00     0.168 HD
ENDROOT
BRANCH   7  11
ATOM     11  N   UNL     1       3.565   3.453   7.454  1.00  0.00    -0.382 N 
ATOM     12  H   UNL     1       3.154   3.541   6.499  1.00  0.00     0.158 HD
ATOM     13  H   UNL     1       4.197   2.645   7.653  1.00  0.00     0.158 HD
ENDBRANCH   7  11
TORSDOF 1
ENDMDL
