MODEL 1
REMARK VINA RESULT:    -4.139      0.000      0.000
REMARK INTER + INTRA:          -4.398
REMARK INTER:                  -4.381
REMARK INTRA:                  -0.017
REMARK UNBOUND:                -0.017
REMARK SMILES O=C([O-])c1cccnc1
REMARK SMILES IDX 4 1 5 2 9 3 6 4 8 5 7 6 2 7 1 8 3 9
REMARK H PARENT
REMARK Flexibility Score: inf
ROOT
ATOM      1  C   UNL     1     116.420 119.331 124.163  1.00  0.00     0.016 A 
ATOM      2  C   UNL     1     115.166 119.231 123.535  1.00  0.00     0.013 A 
ATOM      3  C   UNL     1     116.523 118.958 125.513  1.00  0.00     0.120 A 
ATOM      4  C   UNL     1     114.060 118.771 124.251  1.00  0.00     0.021 A 
ATOM      5  N   UNL     1     115.429 118.512 126.187  1.00  0.00    -0.264 NA
ATOM      6  C   UNL     1     114.213 118.412 125.592  1.00  0.00     0.111 A 
ENDROOT
BRANCH   1   7
ATOM      7  C   UNL     1     117.604 119.816 123.422  1.00  0.00     0.073 C 
ATOM      8  O   UNL     1     117.697 121.025 123.082  1.00  0.00    -0.545 OA
ATOM      9  O   UNL     1     118.633 118.942 123.090  1.00  0.00    -0.545 OA
ENDBRANCH   1   7
TORSDOF 1
ENDMDL
MODEL 2
REMARK VINA RESULT:    -3.921      2.850      3.582
REMARK INTER + INTRA:          -4.167
REMARK INTER:                  -4.149
REMARK INTRA:                  -0.018
REMARK UNBOUND:                -0.017
REMARK SMILES O=C([O-])c1cccnc1
REMARK SMILES IDX 4 1 5 2 9 3 6 4 8 5 7 6 2 7 1 8 3 9
REMARK H PARENT
REMARK Flexibility Score: inf
ROOT
ATOM      1  C   UNL     1     115.811 119.496 124.985  1.00  0.00     0.016 A 
ATOM      2  C   UNL     1     115.926 119.900 123.644  1.00  0.00     0.013 A 
ATOM      3  C   UNL     1     116.939 118.943 125.615  1.00  0.00     0.120 A 
ATOM      4  C   UNL     1     117.138 119.748 122.968  1.00  0.00     0.021 A 
ATOM      5  N   UNL     1     118.108 118.807 124.934  1.00  0.00    -0.264 NA
ATOM      6  C   UNL     1     118.230 119.194 123.637  1.00  0.00     0.111 A 
ENDROOT
BRANCH   1   7
ATOM      7  C   UNL     1     114.536 119.648 125.718  1.00  0.00     0.073 C 
ATOM      8  O   UNL     1     114.492 120.286 126.804  1.00  0.00    -0.545 OA
ATOM      9  O   UNL     1     113.366 119.087 125.218  1.00  0.00    -0.545 OA
ENDBRANCH   1   7
TORSDOF 1
ENDMDL
MODEL 3
REMARK VINA RESULT:    -3.877      2.558      3.652
REMARK INTER + INTRA:          -4.120
REMARK INTER:                  -4.101
REMARK INTRA:                  -0.019
REMARK UNBOUND:                -0.017
REMARK SMILES O=C([O-])c1cccnc1
REMARK SMILES IDX 4 1 5 2 9 3 6 4 8 5 7 6 2 7 1 8 3 9
REMARK H PARENT
REMARK Flexibility Score: inf
ROOT
ATOM      1  C   UNL     1     118.231 119.116 123.993  1.00  0.00     0.016 A 
ATOM      2  C   UNL     1     119.177 118.508 123.150  1.00  0.00     0.013 A 
ATOM      3  C   UNL     1     118.225 118.765 125.353  1.00  0.00     0.120 A 
ATOM      4  C   UNL     1     120.083 117.580 123.668  1.00  0.00     0.021 A 
ATOM      5  N   UNL     1     119.118 117.858 125.832  1.00  0.00    -0.264 NA
ATOM      6  C   UNL     1     120.037 117.264 125.027  1.00  0.00     0.111 A 
ENDROOT
BRANCH   1   7
ATOM      7  C   UNL     1     117.264 120.102 123.464  1.00  0.00     0.073 C 
ATOM      8  O   UNL     1     117.655 121.067 122.755  1.00  0.00    -0.545 OA
ATOM      9  O   UNL     1     115.907 119.975 123.742  1.00  0.00    -0.545 OA
ENDBRANCH   1   7
TORSDOF 1
ENDMDL
MODEL 4
REMARK VINA RESULT:    -3.773      1.416      2.057
REMARK INTER + INTRA:          -4.010
REMARK INTER:                  -3.989
REMARK INTRA:                  -0.021
REMARK UNBOUND:                -0.017
REMARK SMILES O=C([O-])c1cccnc1
REMARK SMILES IDX 4 1 5 2 9 3 6 4 8 5 7 6 2 7 1 8 3 9
REMARK H PARENT
REMARK Flexibility Score: inf
ROOT
ATOM      1  C   UNL     1     115.615 119.462 124.055  1.00  0.00     0.016 A 
ATOM      2  C   UNL     1     115.628 120.029 125.341  1.00  0.00     0.013 A 
ATOM      3  C   UNL     1     114.460 118.782 123.636  1.00  0.00     0.120 A 
ATOM      4  C   UNL     1     114.511 119.910 126.170  1.00  0.00     0.021 A 
ATOM      5  N   UNL     1     113.385 118.681 124.463  1.00  0.00    -0.264 NA
ATOM      6  C   UNL     1     113.386 119.224 125.708  1.00  0.00     0.111 A 
ENDROOT
BRANCH   1   7
ATOM      7  C   UNL     1     116.788 119.577 123.162  1.00  0.00     0.073 C 
ATOM      8  O   UNL     1     117.110 118.627 122.401  1.00  0.00    -0.545 OA
ATOM      9  O   UNL     1     117.553 120.739 123.152  1.00  0.00    -0.545 OA
ENDBRANCH   1   7
TORSDOF 1
ENDMDL
MODEL 5
REMARK VINA RESULT:    -3.728      2.264      2.928
REMARK INTER + INTRA:          -3.963
REMARK INTER:                  -3.941
REMARK INTRA:                  -0.022
REMARK UNBOUND:                -0.017
REMARK SMILES O=C([O-])c1cccnc1
REMARK SMILES IDX 4 1 5 2 9 3 6 4 8 5 7 6 2 7 1 8 3 9
REMARK H PARENT
REMARK Flexibility Score: inf
ROOT
ATOM      1  C   UNL     1     118.597 118.714 124.394  1.00  0.00     0.016 A 
ATOM      2  C   UNL     1     118.243 119.333 123.183  1.00  0.00     0.013 A 
ATOM      3  C   UNL     1     117.661 118.710 125.441  1.00  0.00     0.120 A 
ATOM      4  C   UNL     1     116.986 119.925 123.041  1.00  0.00     0.021 A 
ATOM      5  N   UNL     1     116.444 119.293 125.276  1.00  0.00    -0.264 NA
ATOM      6  C   UNL     1     116.090 119.894 124.111  1.00  0.00     0.111 A 
ENDROOT
BRANCH   1   7
ATOM      7  C   UNL     1     119.923 118.082 124.564  1.00  0.00     0.073 C 
ATOM      8  O   UNL     1     120.447 117.988 125.706  1.00  0.00    -0.545 OA
ATOM      9  O   UNL     1     120.610 117.580 123.464  1.00  0.00    -0.545 OA
ENDBRANCH   1   7
TORSDOF 1
ENDMDL
MODEL 6
REMARK VINA RESULT:    -3.583      2.876      3.835
REMARK INTER + INTRA:          -3.809
REMARK INTER:                  -3.792
REMARK INTRA:                  -0.017
REMARK UNBOUND:                -0.017
REMARK SMILES O=C([O-])c1cccnc1
REMARK SMILES IDX 4 1 5 2 9 3 6 4 8 5 7 6 2 7 1 8 3 9
REMARK H PARENT
REMARK Flexibility Score: inf
ROOT
ATOM      1  C   UNL     1     118.272 119.073 123.981  1.00  0.00     0.016 A 
ATOM      2  C   UNL     1     118.287 118.815 125.362  1.00  0.00     0.013 A 
ATOM      3  C   UNL     1     119.178 118.378 123.162  1.00  0.00     0.120 A 
ATOM      4  C   UNL     1     119.186 117.887 125.892  1.00  0.00     0.021 A 
ATOM      5  N   UNL     1     120.042 117.479 123.703  1.00  0.00    -0.264 NA
ATOM      6  C   UNL     1     120.066 117.222 125.037  1.00  0.00     0.111 A 
ENDROOT
BRANCH   1   7
ATOM      7  C   UNL     1     117.328 120.052 123.401  1.00  0.00     0.073 C 
ATOM      8  O   UNL     1     117.753 121.074 122.799  1.00  0.00    -0.545 OA
ATOM      9  O   UNL     1     115.956 119.857 123.511  1.00  0.00    -0.545 OA
ENDBRANCH   1   7
TORSDOF 1
ENDMDL
MODEL 7
REMARK VINA RESULT:    -3.556      6.720      7.650
REMARK INTER + INTRA:          -3.781
REMARK INTER:                  -3.763
REMARK INTRA:                  -0.018
REMARK UNBOUND:                -0.017
REMARK SMILES O=C([O-])c1cccnc1
REMARK SMILES IDX 4 1 5 2 9 3 6 4 8 5 7 6 2 7 1 8 3 9
REMARK H PARENT
REMARK Flexibility Score: inf
ROOT
ATOM      1  C   UNL     1     110.790 120.211 129.129  1.00  0.00     0.016 A 
ATOM      2  C   UNL     1     109.978 120.536 128.028  1.00  0.00     0.013 A 
ATOM      3  C   UNL     1     110.222 119.479 130.185  1.00  0.00     0.120 A 
ATOM      4  C   UNL     1     108.642 120.133 128.000  1.00  0.00     0.021 A 
ATOM      5  N   UNL     1     108.918 119.098 130.132  1.00  0.00    -0.264 NA
ATOM      6  C   UNL     1     108.124 119.407 129.074  1.00  0.00     0.111 A 
ENDROOT
BRANCH   1   7
ATOM      7  C   UNL     1     112.208 120.629 129.177  1.00  0.00     0.073 C 
ATOM      8  O   UNL     1     113.031 120.204 128.323  1.00  0.00    -0.545 OA
ATOM      9  O   UNL     1     112.652 121.498 130.167  1.00  0.00    -0.545 OA
ENDBRANCH   1   7
TORSDOF 1
ENDMDL
MODEL 8
REMARK VINA RESULT:    -3.504      3.480      4.282
REMARK INTER + INTRA:          -3.726
REMARK INTER:                  -3.706
REMARK INTRA:                  -0.020
REMARK UNBOUND:                -0.017
REMARK SMILES O=C([O-])c1cccnc1
REMARK SMILES IDX 4 1 5 2 9 3 6 4 8 5 7 6 2 7 1 8 3 9
REMARK H PARENT
REMARK Flexibility Score: inf
ROOT
ATOM      1  C   UNL     1     114.218 119.077 125.980  1.00  0.00     0.016 A 
ATOM      2  C   UNL     1     113.671 118.863 124.703  1.00  0.00     0.013 A 
ATOM      3  C   UNL     1     115.591 119.355 126.081  1.00  0.00     0.120 A 
ATOM      4  C   UNL     1     114.486 118.930 123.572  1.00  0.00     0.021 A 
ATOM      5  N   UNL     1     116.363 119.414 124.963  1.00  0.00    -0.264 NA
ATOM      6  C   UNL     1     115.845 119.209 123.724  1.00  0.00     0.111 A 
ENDROOT
BRANCH   1   7
ATOM      7  C   UNL     1     113.371 119.011 127.191  1.00  0.00     0.073 C 
ATOM      8  O   UNL     1     113.803 118.480 128.248  1.00  0.00    -0.545 OA
ATOM      9  O   UNL     1     112.083 119.535 127.178  1.00  0.00    -0.545 OA
ENDBRANCH   1   7
TORSDOF 1
ENDMDL
MODEL 9
REMARK VINA RESULT:    -3.468      8.889     10.001
REMARK INTER + INTRA:          -3.688
REMARK INTER:                  -3.672
REMARK INTRA:                  -0.016
REMARK UNBOUND:                -0.017
REMARK SMILES O=C([O-])c1cccnc1
REMARK SMILES IDX 4 1 5 2 9 3 6 4 8 5 7 6 2 7 1 8 3 9
REMARK H PARENT
REMARK Flexibility Score: inf
ROOT
ATOM      1  C   UNL     1     108.343 118.912 129.857  1.00  0.00     0.016 A 
ATOM      2  C   UNL     1     107.974 119.518 128.643  1.00  0.00     0.013 A 
ATOM      3  C   UNL     1     109.641 119.132 130.345  1.00  0.00     0.120 A 
ATOM      4  C   UNL     1     108.887 120.317 127.954  1.00  0.00     0.021 A 
ATOM      5  N   UNL     1     110.511 119.915 129.654  1.00  0.00    -0.264 NA
ATOM      6  C   UNL     1     110.166 120.506 128.481  1.00  0.00     0.111 A 
ENDROOT
BRANCH   1   7
ATOM      7  C   UNL     1     107.390 118.062 130.602  1.00  0.00     0.073 C 
ATOM      8  O   UNL     1     106.581 118.572 131.421  1.00  0.00    -0.545 OA
ATOM      9  O   UNL     1     107.374 116.685 130.408  1.00  0.00    -0.545 OA
ENDBRANCH   1   7
TORSDOF 1
ENDMDL
