MODEL 1
REMARK VINA RESULT:    -5.698      0.000      0.000
REMARK INTER + INTRA:          -6.120
REMARK INTER:                  -6.032
REMARK INTRA:                  -0.089
REMARK UNBOUND:                -0.089
REMARK SMILES C=C(C)[C@H]1CC=C(C)C(=O)C1
REMARK SMILES IDX 8 1 7 2 6 3 5 4 4 5 11 6 9 7 10 8 2 9 1 10 3 11
REMARK H PARENT
REMARK Flexibility Score: inf
ROOT
ATOM      1  C   UNL     1     -12.443 -20.645  31.718  1.00  0.00     0.048 C 
ATOM      2  C   UNL     1     -12.382 -19.890  30.419  1.00  0.00    -0.012 C 
ATOM      3  C   UNL     1     -13.414 -19.952  29.561  1.00  0.00    -0.019 C 
ATOM      4  C   UNL     1     -13.398 -19.230  28.239  1.00  0.00     0.036 C 
ATOM      5  C   UNL     1     -12.602 -17.916  28.335  1.00  0.00     0.025 C 
ATOM      6  C   UNL     1     -11.183 -18.188  28.868  1.00  0.00     0.089 C 
ATOM      7  C   UNL     1     -11.240 -18.981  30.145  1.00  0.00     0.158 C 
ATOM      8  O   UNL     1     -10.288 -18.894  30.966  1.00  0.00    -0.295 OA
ENDROOT
BRANCH   5   9
ATOM      9  C   UNL     1     -12.564 -17.188  26.998  1.00  0.00    -0.077 C 
ATOM     10  C   UNL     1     -13.568 -16.369  26.649  1.00  0.00     0.008 C 
ATOM     11  C   UNL     1     -11.410 -17.362  26.041  1.00  0.00     0.039 C 
ENDBRANCH   5   9
TORSDOF 1
ENDMDL
MODEL 2
REMARK VINA RESULT:    -5.466      1.793      2.363
REMARK INTER + INTRA:          -5.874
REMARK INTER:                  -5.776
REMARK INTRA:                  -0.098
REMARK UNBOUND:                -0.089
REMARK SMILES C=C(C)[C@H]1CC=C(C)C(=O)C1
REMARK SMILES IDX 8 1 7 2 6 3 5 4 4 5 11 6 9 7 10 8 2 9 1 10 3 11
REMARK H PARENT
REMARK Flexibility Score: inf
ROOT
ATOM      1  C   UNL     1     -12.498 -21.001  31.392  1.00  0.00     0.048 C 
ATOM      2  C   UNL     1     -12.800 -19.792  30.552  1.00  0.00    -0.012 C 
ATOM      3  C   UNL     1     -12.620 -18.561  31.060  1.00  0.00    -0.019 C 
ATOM      4  C   UNL     1     -12.923 -17.317  30.268  1.00  0.00     0.036 C 
ATOM      5  C   UNL     1     -12.657 -17.537  28.767  1.00  0.00     0.025 C 
ATOM      6  C   UNL     1     -13.443 -18.759  28.258  1.00  0.00     0.089 C 
ATOM      7  C   UNL     1     -13.176 -19.959  29.125  1.00  0.00     0.158 C 
ATOM      8  O   UNL     1     -13.311 -21.112  28.636  1.00  0.00    -0.295 OA
ENDROOT
BRANCH   5   9
ATOM      9  C   UNL     1     -12.979 -16.290  27.956  1.00  0.00    -0.077 C 
ATOM     10  C   UNL     1     -13.299 -16.396  26.657  1.00  0.00     0.008 C 
ATOM     11  C   UNL     1     -12.953 -14.916  28.581  1.00  0.00     0.039 C 
ENDBRANCH   5   9
TORSDOF 1
ENDMDL
MODEL 3
REMARK VINA RESULT:    -5.159      1.908      3.035
REMARK INTER + INTRA:          -5.550
REMARK INTER:                  -5.463
REMARK INTRA:                  -0.087
REMARK UNBOUND:                -0.089
REMARK SMILES C=C(C)[C@H]1CC=C(C)C(=O)C1
REMARK SMILES IDX 8 1 7 2 6 3 5 4 4 5 11 6 9 7 10 8 2 9 1 10 3 11
REMARK H PARENT
REMARK Flexibility Score: inf
ROOT
ATOM      1  C   UNL     1      -9.875 -16.630  32.540  1.00  0.00     0.048 C 
ATOM      2  C   UNL     1     -10.525 -16.738  31.189  1.00  0.00    -0.012 C 
ATOM      3  C   UNL     1     -10.477 -15.700  30.337  1.00  0.00    -0.019 C 
ATOM      4  C   UNL     1     -11.125 -15.749  28.979  1.00  0.00     0.036 C 
ATOM      5  C   UNL     1     -11.090 -17.175  28.399  1.00  0.00     0.025 C 
ATOM      6  C   UNL     1     -11.728 -18.170  29.387  1.00  0.00     0.089 C 
ATOM      7  C   UNL     1     -11.109 -18.031  30.751  1.00  0.00     0.158 C 
ATOM      8  O   UNL     1     -11.124 -19.018  31.535  1.00  0.00    -0.295 OA
ENDROOT
BRANCH   5   9
ATOM      9  C   UNL     1     -11.762 -17.238  27.034  1.00  0.00    -0.077 C 
ATOM     10  C   UNL     1     -11.041 -17.537  25.943  1.00  0.00     0.008 C 
ATOM     11  C   UNL     1     -13.239 -16.973  26.872  1.00  0.00     0.039 C 
ENDBRANCH   5   9
TORSDOF 1
ENDMDL
MODEL 4
REMARK VINA RESULT:    -5.022      2.464      4.746
REMARK INTER + INTRA:          -5.404
REMARK INTER:                  -5.307
REMARK INTRA:                  -0.096
REMARK UNBOUND:                -0.089
REMARK SMILES C=C(C)[C@H]1CC=C(C)C(=O)C1
REMARK SMILES IDX 8 1 7 2 6 3 5 4 4 5 11 6 9 7 10 8 2 9 1 10 3 11
REMARK H PARENT
REMARK Flexibility Score: inf
ROOT
ATOM      1  C   UNL     1     -13.913 -14.221  28.264  1.00  0.00     0.048 C 
ATOM      2  C   UNL     1     -13.159 -15.404  28.803  1.00  0.00    -0.012 C 
ATOM      3  C   UNL     1     -12.913 -15.498  30.121  1.00  0.00    -0.019 C 
ATOM      4  C   UNL     1     -12.148 -16.653  30.711  1.00  0.00     0.036 C 
ATOM      5  C   UNL     1     -12.401 -17.948  29.918  1.00  0.00     0.025 C 
ATOM      6  C   UNL     1     -12.078 -17.736  28.428  1.00  0.00     0.089 C 
ATOM      7  C   UNL     1     -12.797 -16.525  27.898  1.00  0.00     0.158 C 
ATOM      8  O   UNL     1     -13.059 -16.455  26.667  1.00  0.00    -0.295 OA
ENDROOT
BRANCH   5   9
ATOM      9  C   UNL     1     -11.616 -19.118  30.496  1.00  0.00    -0.077 C 
ATOM     10  C   UNL     1     -10.274 -19.113  30.457  1.00  0.00     0.008 C 
ATOM     11  C   UNL     1     -12.313 -20.299  31.125  1.00  0.00     0.039 C 
ENDBRANCH   5   9
TORSDOF 1
ENDMDL
MODEL 5
REMARK VINA RESULT:    -4.988      3.574      4.369
REMARK INTER + INTRA:          -5.369
REMARK INTER:                  -5.270
REMARK INTRA:                  -0.098
REMARK UNBOUND:                -0.089
REMARK SMILES C=C(C)[C@H]1CC=C(C)C(=O)C1
REMARK SMILES IDX 8 1 7 2 6 3 5 4 4 5 11 6 9 7 10 8 2 9 1 10 3 11
REMARK H PARENT
REMARK Flexibility Score: inf
ROOT
ATOM      1  C   UNL     1     -14.945 -14.610  32.013  1.00  0.00     0.048 C 
ATOM      2  C   UNL     1     -13.995 -15.076  30.945  1.00  0.00    -0.012 C 
ATOM      3  C   UNL     1     -13.162 -16.101  31.190  1.00  0.00    -0.019 C 
ATOM      4  C   UNL     1     -12.180 -16.597  30.162  1.00  0.00     0.036 C 
ATOM      5  C   UNL     1     -12.739 -16.430  28.736  1.00  0.00     0.025 C 
ATOM      6  C   UNL     1     -13.152 -14.968  28.491  1.00  0.00     0.089 C 
ATOM      7  C   UNL     1     -14.067 -14.486  29.584  1.00  0.00     0.158 C 
ATOM      8  O   UNL     1     -14.873 -13.548  29.341  1.00  0.00    -0.295 OA
ENDROOT
BRANCH   5   9
ATOM      9  C   UNL     1     -11.745 -16.911  27.688  1.00  0.00    -0.077 C 
ATOM     10  C   UNL     1     -10.465 -17.133  28.027  1.00  0.00     0.008 C 
ATOM     11  C   UNL     1     -12.164 -17.151  26.259  1.00  0.00     0.039 C 
ENDBRANCH   5   9
TORSDOF 1
ENDMDL
MODEL 6
REMARK VINA RESULT:    -4.988      1.891      4.411
REMARK INTER + INTRA:          -5.368
REMARK INTER:                  -5.270
REMARK INTRA:                  -0.098
REMARK UNBOUND:                -0.089
REMARK SMILES C=C(C)[C@H]1CC=C(C)C(=O)C1
REMARK SMILES IDX 8 1 7 2 6 3 5 4 4 5 11 6 9 7 10 8 2 9 1 10 3 11
REMARK H PARENT
REMARK Flexibility Score: inf
ROOT
ATOM      1  C   UNL     1     -13.209 -16.813  26.420  1.00  0.00     0.048 C 
ATOM      2  C   UNL     1     -12.910 -17.380  27.780  1.00  0.00    -0.012 C 
ATOM      3  C   UNL     1     -13.017 -18.703  27.992  1.00  0.00    -0.019 C 
ATOM      4  C   UNL     1     -12.746 -19.322  29.338  1.00  0.00     0.036 C 
ATOM      5  C   UNL     1     -11.653 -18.544  30.094  1.00  0.00     0.025 C 
ATOM      6  C   UNL     1     -12.033 -17.056  30.202  1.00  0.00     0.089 C 
ATOM      7  C   UNL     1     -12.376 -16.498  28.848  1.00  0.00     0.158 C 
ATOM      8  O   UNL     1     -12.240 -15.262  28.640  1.00  0.00    -0.295 OA
ENDROOT
BRANCH   5   9
ATOM      9  C   UNL     1     -11.385 -19.151  31.465  1.00  0.00    -0.077 C 
ATOM     10  C   UNL     1     -12.192 -20.109  31.946  1.00  0.00     0.008 C 
ATOM     11  C   UNL     1     -10.219 -18.700  32.310  1.00  0.00     0.039 C 
ENDBRANCH   5   9
TORSDOF 1
ENDMDL
MODEL 7
REMARK VINA RESULT:    -4.951      3.393      5.122
REMARK INTER + INTRA:          -5.329
REMARK INTER:                  -5.232
REMARK INTRA:                  -0.097
REMARK UNBOUND:                -0.089
REMARK SMILES C=C(C)[C@H]1CC=C(C)C(=O)C1
REMARK SMILES IDX 8 1 7 2 6 3 5 4 4 5 11 6 9 7 10 8 2 9 1 10 3 11
REMARK H PARENT
REMARK Flexibility Score: inf
ROOT
ATOM      1  C   UNL     1     -15.385 -13.161  29.376  1.00  0.00     0.048 C 
ATOM      2  C   UNL     1     -14.359 -14.255  29.469  1.00  0.00    -0.012 C 
ATOM      3  C   UNL     1     -13.617 -14.571  28.394  1.00  0.00    -0.019 C 
ATOM      4  C   UNL     1     -12.587 -15.669  28.428  1.00  0.00     0.036 C 
ATOM      5  C   UNL     1     -11.944 -15.782  29.822  1.00  0.00     0.025 C 
ATOM      6  C   UNL     1     -13.028 -15.966  30.899  1.00  0.00     0.089 C 
ATOM      7  C   UNL     1     -14.080 -14.898  30.779  1.00  0.00     0.158 C 
ATOM      8  O   UNL     1     -14.750 -14.577  31.797  1.00  0.00    -0.295 OA
ENDROOT
BRANCH   5   9
ATOM      9  C   UNL     1     -10.915 -16.904  29.871  1.00  0.00    -0.077 C 
ATOM     10  C   UNL     1     -10.261 -17.267  28.757  1.00  0.00     0.008 C 
ATOM     11  C   UNL     1     -10.602 -17.628  31.158  1.00  0.00     0.039 C 
ENDBRANCH   5   9
TORSDOF 1
ENDMDL
MODEL 8
REMARK VINA RESULT:    -4.950      2.009      3.317
REMARK INTER + INTRA:          -5.328
REMARK INTER:                  -5.230
REMARK INTRA:                  -0.098
REMARK UNBOUND:                -0.089
REMARK SMILES C=C(C)[C@H]1CC=C(C)C(=O)C1
REMARK SMILES IDX 8 1 7 2 6 3 5 4 4 5 11 6 9 7 10 8 2 9 1 10 3 11
REMARK H PARENT
REMARK Flexibility Score: inf
ROOT
ATOM      1  C   UNL     1     -13.966 -20.614  28.573  1.00  0.00     0.048 C 
ATOM      2  C   UNL     1     -12.964 -19.578  29.002  1.00  0.00    -0.012 C 
ATOM      3  C   UNL     1     -12.781 -18.475  28.257  1.00  0.00    -0.019 C 
ATOM      4  C   UNL     1     -11.779 -17.415  28.632  1.00  0.00     0.036 C 
ATOM      5  C   UNL     1     -11.642 -17.298  30.161  1.00  0.00     0.025 C 
ATOM      6  C   UNL     1     -11.298 -18.668  30.773  1.00  0.00     0.089 C 
ATOM      7  C   UNL     1     -12.273 -19.715  30.309  1.00  0.00     0.158 C 
ATOM      8  O   UNL     1     -12.471 -20.732  31.027  1.00  0.00    -0.295 OA
ENDROOT
BRANCH   5   9
ATOM      9  C   UNL     1     -10.617 -16.241  30.549  1.00  0.00    -0.077 C 
ATOM     10  C   UNL     1     -10.062 -15.463  29.607  1.00  0.00     0.008 C 
ATOM     11  C   UNL     1     -10.203 -16.039  31.986  1.00  0.00     0.039 C 
ENDBRANCH   5   9
TORSDOF 1
ENDMDL
MODEL 9
REMARK VINA RESULT:    -4.795      2.361      4.634
REMARK INTER + INTRA:          -5.164
REMARK INTER:                  -5.069
REMARK INTRA:                  -0.095
REMARK UNBOUND:                -0.089
REMARK SMILES C=C(C)[C@H]1CC=C(C)C(=O)C1
REMARK SMILES IDX 8 1 7 2 6 3 5 4 4 5 11 6 9 7 10 8 2 9 1 10 3 11
REMARK H PARENT
REMARK Flexibility Score: inf
ROOT
ATOM      1  C   UNL     1     -13.608 -16.730  26.716  1.00  0.00     0.048 C 
ATOM      2  C   UNL     1     -12.650 -16.831  27.870  1.00  0.00    -0.012 C 
ATOM      3  C   UNL     1     -12.044 -15.726  28.336  1.00  0.00    -0.019 C 
ATOM      4  C   UNL     1     -11.063 -15.773  29.478  1.00  0.00     0.036 C 
ATOM      5  C   UNL     1     -11.429 -16.886  30.477  1.00  0.00     0.025 C 
ATOM      6  C   UNL     1     -11.546 -18.239  29.753  1.00  0.00     0.089 C 
ATOM      7  C   UNL     1     -12.471 -18.128  28.571  1.00  0.00     0.158 C 
ATOM      8  O   UNL     1     -13.066 -19.159  28.158  1.00  0.00    -0.295 OA
ENDROOT
BRANCH   5   9
ATOM      9  C   UNL     1     -10.431 -16.954  31.625  1.00  0.00    -0.077 C 
ATOM     10  C   UNL     1     -10.011 -15.826  32.220  1.00  0.00     0.008 C 
ATOM     11  C   UNL     1      -9.896 -18.274  32.124  1.00  0.00     0.039 C 
ENDBRANCH   5   9
TORSDOF 1
ENDMDL
