MODEL 1
REMARK VINA RESULT:    -4.950      0.000      0.000
REMARK INTER + INTRA:         -12.014
REMARK INTER:                  -9.580
REMARK INTRA:                  -2.434
REMARK UNBOUND:                -2.434
REMARK SMILES CCCCCCCCCCCCCCCCCC(=O)[O-]
REMARK SMILES IDX 10 1 11 2 12 3 13 4 14 5 15 6 16 7 17 8 18 9 19 10 20 11
REMARK SMILES IDX 9 12 8 13 7 14 6 15 5 16 4 17 3 18 2 19 1 20
REMARK H PARENT
REMARK Flexibility Score: inf
ROOT
ATOM      1  C   UNL     1     -21.939  -6.482  16.231  1.00  0.00     0.000 C 
ENDROOT
BRANCH   1   2
ATOM      2  C   UNL     1     -21.014  -5.258  16.096  1.00  0.00     0.000 C 
BRANCH   2   3
ATOM      3  C   UNL     1     -20.255  -5.225  14.759  1.00  0.00     0.000 C 
BRANCH   3   4
ATOM      4  C   UNL     1     -18.789  -5.678  14.888  1.00  0.00     0.000 C 
BRANCH   4   5
ATOM      5  C   UNL     1     -18.455  -7.035  14.239  1.00  0.00     0.000 C 
BRANCH   5   6
ATOM      6  C   UNL     1     -18.883  -8.234  15.102  1.00  0.00     0.000 C 
BRANCH   6   7
ATOM      7  C   UNL     1     -18.297  -8.182  16.526  1.00  0.00     0.006 C 
BRANCH   7   8
ATOM      8  C   UNL     1     -18.948  -9.161  17.517  1.00  0.00     0.053 C 
BRANCH   8   9
ATOM      9  C   UNL     1     -17.928  -9.918  18.311  1.00  0.00     0.041 C 
ATOM     10  O   UNL     1     -18.142 -11.115  18.637  1.00  0.00    -0.550 OA
ATOM     11  O   UNL     1     -16.757  -9.292  18.717  1.00  0.00    -0.550 OA
ENDBRANCH   8   9
ENDBRANCH   7   8
ENDBRANCH   6   7
ENDBRANCH   5   6
ENDBRANCH   4   5
ENDBRANCH   3   4
ENDBRANCH   2   3
ENDBRANCH   1   2
BRANCH   1  12
ATOM     12  C   UNL     1     -22.290  -7.192  14.910  1.00  0.00     0.000 C 
BRANCH  12  13
ATOM     13  C   UNL     1     -22.847  -8.611  15.119  1.00  0.00    -0.000 C 
BRANCH  13  14
ATOM     14  C   UNL     1     -22.804  -9.046  16.593  1.00  0.00    -0.000 C 
BRANCH  14  15
ATOM     15  C   UNL     1     -24.201  -9.365  17.153  1.00  0.00    -0.000 C 
BRANCH  15  16
ATOM     16  C   UNL     1     -24.704  -8.302  18.147  1.00  0.00    -0.000 C 
BRANCH  16  17
ATOM     17  C   UNL     1     -25.305  -7.037  17.509  1.00  0.00    -0.000 C 
BRANCH  17  18
ATOM     18  C   UNL     1     -26.396  -7.350  16.470  1.00  0.00    -0.000 C 
BRANCH  18  19
ATOM     19  C   UNL     1     -26.032  -6.844  15.066  1.00  0.00    -0.003 C 
ATOM     20  C   UNL     1     -27.251  -6.696  14.154  1.00  0.00     0.004 C 
ENDBRANCH  18  19
ENDBRANCH  17  18
ENDBRANCH  16  17
ENDBRANCH  15  16
ENDBRANCH  14  15
ENDBRANCH  13  14
ENDBRANCH  12  13
ENDBRANCH   1  12
TORSDOF 16
ENDMDL
MODEL 2
REMARK VINA RESULT:    -4.753      3.449      7.161
REMARK INTER + INTRA:         -11.633
REMARK INTER:                  -9.551
REMARK INTRA:                  -2.083
REMARK UNBOUND:                -2.434
REMARK SMILES CCCCCCCCCCCCCCCCCC(=O)[O-]
REMARK SMILES IDX 10 1 11 2 12 3 13 4 14 5 15 6 16 7 17 8 18 9 19 10 20 11
REMARK SMILES IDX 9 12 8 13 7 14 6 15 5 16 4 17 3 18 2 19 1 20
REMARK H PARENT
REMARK Flexibility Score: inf
ROOT
ATOM      1  C   UNL     1     -22.465  -5.843  17.231  1.00  0.00     0.000 C 
ENDROOT
BRANCH   1   2
ATOM      2  C   UNL     1     -22.134  -6.959  18.241  1.00  0.00     0.000 C 
BRANCH   2   3
ATOM      3  C   UNL     1     -22.418  -8.367  17.691  1.00  0.00     0.000 C 
BRANCH   3   4
ATOM      4  C   UNL     1     -23.717  -8.441  16.868  1.00  0.00     0.000 C 
BRANCH   4   5
ATOM      5  C   UNL     1     -24.999  -8.719  17.675  1.00  0.00     0.000 C 
BRANCH   5   6
ATOM      6  C   UNL     1     -26.196  -7.871  17.212  1.00  0.00     0.000 C 
BRANCH   6   7
ATOM      7  C   UNL     1     -25.987  -6.365  17.456  1.00  0.00     0.006 C 
BRANCH   7   8
ATOM      8  C   UNL     1     -26.907  -5.761  18.530  1.00  0.00     0.053 C 
BRANCH   8   9
ATOM      9  C   UNL     1     -26.170  -5.464  19.799  1.00  0.00     0.041 C 
ATOM     10  O   UNL     1     -25.086  -6.050  20.054  1.00  0.00    -0.550 OA
ATOM     11  O   UNL     1     -26.698  -4.563  20.715  1.00  0.00    -0.550 OA
ENDBRANCH   8   9
ENDBRANCH   7   8
ENDBRANCH   6   7
ENDBRANCH   5   6
ENDBRANCH   4   5
ENDBRANCH   3   4
ENDBRANCH   2   3
ENDBRANCH   1   2
BRANCH   1  12
ATOM     12  C   UNL     1     -21.258  -5.026  16.734  1.00  0.00     0.000 C 
BRANCH  12  13
ATOM     13  C   UNL     1     -20.981  -5.215  15.232  1.00  0.00    -0.000 C 
BRANCH  13  14
ATOM     14  C   UNL     1     -21.642  -6.484  14.669  1.00  0.00    -0.000 C 
BRANCH  14  15
ATOM     15  C   UNL     1     -20.614  -7.560  14.280  1.00  0.00    -0.000 C 
BRANCH  15  16
ATOM     16  C   UNL     1     -19.821  -8.096  15.487  1.00  0.00    -0.000 C 
BRANCH  16  17
ATOM     17  C   UNL     1     -18.322  -7.744  15.497  1.00  0.00    -0.000 C 
BRANCH  17  18
ATOM     18  C   UNL     1     -17.870  -7.008  14.225  1.00  0.00    -0.000 C 
BRANCH  18  19
ATOM     19  C   UNL     1     -17.520  -5.536  14.490  1.00  0.00    -0.003 C 
ATOM     20  C   UNL     1     -16.774  -4.884  13.326  1.00  0.00     0.004 C 
ENDBRANCH  18  19
ENDBRANCH  17  18
ENDBRANCH  16  17
ENDBRANCH  15  16
ENDBRANCH  14  15
ENDBRANCH  13  14
ENDBRANCH  12  13
ENDBRANCH   1  12
TORSDOF 16
ENDMDL
MODEL 3
REMARK VINA RESULT:    -4.747      1.391      1.984
REMARK INTER + INTRA:         -11.622
REMARK INTER:                  -9.685
REMARK INTRA:                  -1.936
REMARK UNBOUND:                -2.434
REMARK SMILES CCCCCCCCCCCCCCCCCC(=O)[O-]
REMARK SMILES IDX 10 1 11 2 12 3 13 4 14 5 15 6 16 7 17 8 18 9 19 10 20 11
REMARK SMILES IDX 9 12 8 13 7 14 6 15 5 16 4 17 3 18 2 19 1 20
REMARK H PARENT
REMARK Flexibility Score: inf
ROOT
ATOM      1  C   UNL     1     -21.974  -6.423  16.191  1.00  0.00     0.000 C 
ENDROOT
BRANCH   1   2
ATOM      2  C   UNL     1     -20.968  -5.268  16.027  1.00  0.00     0.000 C 
BRANCH   2   3
ATOM      3  C   UNL     1     -20.221  -5.310  14.683  1.00  0.00     0.000 C 
BRANCH   3   4
ATOM      4  C   UNL     1     -18.696  -5.449  14.846  1.00  0.00     0.000 C 
BRANCH   4   5
ATOM      5  C   UNL     1     -18.110  -6.823  14.466  1.00  0.00     0.000 C 
BRANCH   5   6
ATOM      6  C   UNL     1     -18.785  -7.989  15.208  1.00  0.00     0.000 C 
BRANCH   6   7
ATOM      7  C   UNL     1     -18.190  -8.226  16.609  1.00  0.00     0.006 C 
BRANCH   7   8
ATOM      8  C   UNL     1     -18.985  -9.215  17.478  1.00  0.00     0.053 C 
BRANCH   8   9
ATOM      9  C   UNL     1     -18.088 -10.149  18.230  1.00  0.00     0.041 C 
ATOM     10  O   UNL     1     -18.355 -11.378  18.283  1.00  0.00    -0.550 OA
ATOM     11  O   UNL     1     -16.976  -9.657  18.901  1.00  0.00    -0.550 OA
ENDBRANCH   8   9
ENDBRANCH   7   8
ENDBRANCH   6   7
ENDBRANCH   5   6
ENDBRANCH   4   5
ENDBRANCH   3   4
ENDBRANCH   2   3
ENDBRANCH   1   2
BRANCH   1  12
ATOM     12  C   UNL     1     -22.312  -7.191  14.900  1.00  0.00     0.000 C 
BRANCH  12  13
ATOM     13  C   UNL     1     -23.249  -8.388  15.140  1.00  0.00    -0.000 C 
BRANCH  13  14
ATOM     14  C   UNL     1     -22.851  -9.204  16.381  1.00  0.00    -0.000 C 
BRANCH  14  15
ATOM     15  C   UNL     1     -24.068  -9.799  17.108  1.00  0.00    -0.000 C 
BRANCH  15  16
ATOM     16  C   UNL     1     -25.021  -8.724  17.661  1.00  0.00    -0.000 C 
BRANCH  16  17
ATOM     17  C   UNL     1     -24.379  -7.709  18.625  1.00  0.00    -0.000 C 
BRANCH  17  18
ATOM     18  C   UNL     1     -24.862  -6.269  18.388  1.00  0.00    -0.000 C 
BRANCH  18  19
ATOM     19  C   UNL     1     -26.003  -5.868  19.336  1.00  0.00    -0.003 C 
ATOM     20  C   UNL     1     -25.555  -5.767  20.794  1.00  0.00     0.004 C 
ENDBRANCH  18  19
ENDBRANCH  17  18
ENDBRANCH  16  17
ENDBRANCH  15  16
ENDBRANCH  14  15
ENDBRANCH  13  14
ENDBRANCH  12  13
ENDBRANCH   1  12
TORSDOF 16
ENDMDL
MODEL 4
REMARK VINA RESULT:    -4.661      1.075      1.920
REMARK INTER + INTRA:         -11.454
REMARK INTER:                  -9.429
REMARK INTRA:                  -2.025
REMARK UNBOUND:                -2.434
REMARK SMILES CCCCCCCCCCCCCCCCCC(=O)[O-]
REMARK SMILES IDX 10 1 11 2 12 3 13 4 14 5 15 6 16 7 17 8 18 9 19 10 20 11
REMARK SMILES IDX 9 12 8 13 7 14 6 15 5 16 4 17 3 18 2 19 1 20
REMARK H PARENT
REMARK Flexibility Score: inf
ROOT
ATOM      1  C   UNL     1     -22.778  -8.718  15.502  1.00  0.00     0.000 C 
ENDROOT
BRANCH   1   2
ATOM      2  C   UNL     1     -22.793  -7.292  14.920  1.00  0.00     0.000 C 
BRANCH   2   3
ATOM      3  C   UNL     1     -21.389  -6.772  14.569  1.00  0.00     0.000 C 
BRANCH   3   4
ATOM      4  C   UNL     1     -20.394  -7.901  14.243  1.00  0.00     0.000 C 
BRANCH   4   5
ATOM      5  C   UNL     1     -18.904  -7.536  14.393  1.00  0.00     0.000 C 
BRANCH   5   6
ATOM      6  C   UNL     1     -18.328  -7.922  15.766  1.00  0.00     0.000 C 
BRANCH   6   7
ATOM      7  C   UNL     1     -19.145  -9.024  16.466  1.00  0.00     0.006 C 
BRANCH   7   8
ATOM      8  C   UNL     1     -19.011  -9.038  17.998  1.00  0.00     0.053 C 
BRANCH   8   9
ATOM      9  C   UNL     1     -17.869  -9.892  18.456  1.00  0.00     0.041 C 
ATOM     10  O   UNL     1     -18.038 -11.125  18.648  1.00  0.00    -0.550 OA
ATOM     11  O   UNL     1     -16.627  -9.321  18.700  1.00  0.00    -0.550 OA
ENDBRANCH   8   9
ENDBRANCH   7   8
ENDBRANCH   6   7
ENDBRANCH   5   6
ENDBRANCH   4   5
ENDBRANCH   3   4
ENDBRANCH   2   3
ENDBRANCH   1   2
BRANCH   1  12
ATOM     12  C   UNL     1     -23.028  -8.814  17.018  1.00  0.00     0.000 C 
BRANCH  12  13
ATOM     13  C   UNL     1     -22.484  -7.602  17.795  1.00  0.00    -0.000 C 
BRANCH  13  14
ATOM     14  C   UNL     1     -23.605  -6.674  18.292  1.00  0.00    -0.000 C 
BRANCH  14  15
ATOM     15  C   UNL     1     -24.988  -7.345  18.248  1.00  0.00    -0.000 C 
BRANCH  15  16
ATOM     16  C   UNL     1     -26.146  -6.331  18.214  1.00  0.00    -0.000 C 
BRANCH  16  17
ATOM     17  C   UNL     1     -26.700  -6.013  16.814  1.00  0.00    -0.000 C 
BRANCH  17  18
ATOM     18  C   UNL     1     -26.238  -7.017  15.744  1.00  0.00    -0.000 C 
BRANCH  18  19
ATOM     19  C   UNL     1     -26.860  -6.737  14.367  1.00  0.00    -0.003 C 
ATOM     20  C   UNL     1     -27.656  -5.431  14.331  1.00  0.00     0.004 C 
ENDBRANCH  18  19
ENDBRANCH  17  18
ENDBRANCH  16  17
ENDBRANCH  15  16
ENDBRANCH  14  15
ENDBRANCH  13  14
ENDBRANCH  12  13
ENDBRANCH   1  12
TORSDOF 16
ENDMDL
MODEL 5
REMARK VINA RESULT:    -4.638      0.951      2.651
REMARK INTER + INTRA:         -11.411
REMARK INTER:                  -9.129
REMARK INTRA:                  -2.282
REMARK UNBOUND:                -2.434
REMARK SMILES CCCCCCCCCCCCCCCCCC(=O)[O-]
REMARK SMILES IDX 10 1 11 2 12 3 13 4 14 5 15 6 16 7 17 8 18 9 19 10 20 11
REMARK SMILES IDX 9 12 8 13 7 14 6 15 5 16 4 17 3 18 2 19 1 20
REMARK H PARENT
REMARK Flexibility Score: inf
ROOT
ATOM      1  C   UNL     1     -21.767  -6.257  17.511  1.00  0.00     0.000 C 
ENDROOT
BRANCH   1   2
ATOM      2  C   UNL     1     -21.205  -5.068  16.709  1.00  0.00     0.000 C 
BRANCH   2   3
ATOM      3  C   UNL     1     -20.876  -5.430  15.251  1.00  0.00     0.000 C 
BRANCH   3   4
ATOM      4  C   UNL     1     -19.366  -5.391  14.947  1.00  0.00     0.000 C 
BRANCH   4   5
ATOM      5  C   UNL     1     -18.732  -6.742  14.565  1.00  0.00     0.000 C 
BRANCH   5   6
ATOM      6  C   UNL     1     -19.307  -7.923  15.366  1.00  0.00     0.000 C 
BRANCH   6   7
ATOM      7  C   UNL     1     -18.334  -8.444  16.441  1.00  0.00     0.006 C 
BRANCH   7   8
ATOM      8  C   UNL     1     -19.012  -9.184  17.606  1.00  0.00     0.053 C 
BRANCH   8   9
ATOM      9  C   UNL     1     -18.036 -10.000  18.397  1.00  0.00     0.041 C 
ATOM     10  O   UNL     1     -16.943  -9.497  18.766  1.00  0.00    -0.550 OA
ATOM     11  O   UNL     1     -18.321 -11.326  18.697  1.00  0.00    -0.550 OA
ENDBRANCH   8   9
ENDBRANCH   7   8
ENDBRANCH   6   7
ENDBRANCH   5   6
ENDBRANCH   4   5
ENDBRANCH   3   4
ENDBRANCH   2   3
ENDBRANCH   1   2
BRANCH   1  12
ATOM     12  C   UNL     1     -23.059  -5.968  18.298  1.00  0.00     0.000 C 
BRANCH  12  13
ATOM     13  C   UNL     1     -23.899  -7.231  18.560  1.00  0.00    -0.000 C 
BRANCH  13  14
ATOM     14  C   UNL     1     -25.389  -7.019  18.244  1.00  0.00    -0.000 C 
BRANCH  14  15
ATOM     15  C   UNL     1     -25.831  -7.763  16.972  1.00  0.00    -0.000 C 
BRANCH  15  16
ATOM     16  C   UNL     1     -25.750  -6.889  15.707  1.00  0.00    -0.000 C 
BRANCH  16  17
ATOM     17  C   UNL     1     -24.901  -7.469  14.561  1.00  0.00    -0.000 C 
BRANCH  17  18
ATOM     18  C   UNL     1     -23.421  -7.642  14.940  1.00  0.00    -0.000 C 
BRANCH  18  19
ATOM     19  C   UNL     1     -22.984  -9.115  14.946  1.00  0.00    -0.003 C 
ATOM     20  C   UNL     1     -22.606  -9.617  16.340  1.00  0.00     0.004 C 
ENDBRANCH  18  19
ENDBRANCH  17  18
ENDBRANCH  16  17
ENDBRANCH  15  16
ENDBRANCH  14  15
ENDBRANCH  13  14
ENDBRANCH  12  13
ENDBRANCH   1  12
TORSDOF 16
ENDMDL
MODEL 6
REMARK VINA RESULT:    -4.619      1.492      2.467
REMARK INTER + INTRA:         -11.373
REMARK INTER:                  -9.382
REMARK INTRA:                  -1.991
REMARK UNBOUND:                -2.434
REMARK SMILES CCCCCCCCCCCCCCCCCC(=O)[O-]
REMARK SMILES IDX 10 1 11 2 12 3 13 4 14 5 15 6 16 7 17 8 18 9 19 10 20 11
REMARK SMILES IDX 9 12 8 13 7 14 6 15 5 16 4 17 3 18 2 19 1 20
REMARK H PARENT
REMARK Flexibility Score: inf
ROOT
ATOM      1  C   UNL     1     -21.695  -6.674  18.125  1.00  0.00     0.000 C 
ENDROOT
BRANCH   1   2
ATOM      2  C   UNL     1     -22.153  -5.542  17.186  1.00  0.00     0.000 C 
BRANCH   2   3
ATOM      3  C   UNL     1     -21.013  -4.989  16.313  1.00  0.00     0.000 C 
BRANCH   3   4
ATOM      4  C   UNL     1     -20.792  -5.805  15.025  1.00  0.00     0.000 C 
BRANCH   4   5
ATOM      5  C   UNL     1     -19.395  -6.438  14.874  1.00  0.00     0.000 C 
BRANCH   5   6
ATOM      6  C   UNL     1     -19.367  -7.928  15.258  1.00  0.00     0.000 C 
BRANCH   6   7
ATOM      7  C   UNL     1     -18.382  -8.228  16.404  1.00  0.00     0.006 C 
BRANCH   7   8
ATOM      8  C   UNL     1     -18.905  -9.232  17.444  1.00  0.00     0.053 C 
BRANCH   8   9
ATOM      9  C   UNL     1     -17.811  -9.745  18.330  1.00  0.00     0.041 C 
ATOM     10  O   UNL     1     -17.954 -10.833  18.946  1.00  0.00    -0.550 OA
ATOM     11  O   UNL     1     -16.649  -9.004  18.500  1.00  0.00    -0.550 OA
ENDBRANCH   8   9
ENDBRANCH   7   8
ENDBRANCH   6   7
ENDBRANCH   5   6
ENDBRANCH   4   5
ENDBRANCH   3   4
ENDBRANCH   2   3
ENDBRANCH   1   2
BRANCH   1  12
ATOM     12  C   UNL     1     -22.627  -7.899  18.184  1.00  0.00     0.000 C 
BRANCH  12  13
ATOM     13  C   UNL     1     -22.687  -8.674  16.856  1.00  0.00    -0.000 C 
BRANCH  13  14
ATOM     14  C   UNL     1     -23.954  -9.537  16.738  1.00  0.00    -0.000 C 
BRANCH  14  15
ATOM     15  C   UNL     1     -25.156  -8.920  17.473  1.00  0.00    -0.000 C 
BRANCH  15  16
ATOM     16  C   UNL     1     -25.755  -7.709  16.733  1.00  0.00    -0.000 C 
BRANCH  16  17
ATOM     17  C   UNL     1     -26.548  -6.727  17.614  1.00  0.00    -0.000 C 
BRANCH  17  18
ATOM     18  C   UNL     1     -25.702  -6.120  18.745  1.00  0.00    -0.000 C 
BRANCH  18  19
ATOM     19  C   UNL     1     -26.533  -5.244  19.696  1.00  0.00    -0.003 C 
ATOM     20  C   UNL     1     -26.020  -5.279  21.136  1.00  0.00     0.004 C 
ENDBRANCH  18  19
ENDBRANCH  17  18
ENDBRANCH  16  17
ENDBRANCH  15  16
ENDBRANCH  14  15
ENDBRANCH  13  14
ENDBRANCH  12  13
ENDBRANCH   1  12
TORSDOF 16
ENDMDL
MODEL 7
REMARK VINA RESULT:    -4.469      4.069      7.854
REMARK INTER + INTRA:         -11.083
REMARK INTER:                  -8.897
REMARK INTRA:                  -2.186
REMARK UNBOUND:                -2.434
REMARK SMILES CCCCCCCCCCCCCCCCCC(=O)[O-]
REMARK SMILES IDX 10 1 11 2 12 3 13 4 14 5 15 6 16 7 17 8 18 9 19 10 20 11
REMARK SMILES IDX 9 12 8 13 7 14 6 15 5 16 4 17 3 18 2 19 1 20
REMARK H PARENT
REMARK Flexibility Score: inf
ROOT
ATOM      1  C   UNL     1     -22.860  -8.514  15.744  1.00  0.00     0.000 C 
ENDROOT
BRANCH   1   2
ATOM      2  C   UNL     1     -23.255  -9.131  17.100  1.00  0.00     0.000 C 
BRANCH   2   3
ATOM      3  C   UNL     1     -24.755  -8.991  17.407  1.00  0.00     0.000 C 
BRANCH   3   4
ATOM      4  C   UNL     1     -25.060  -7.871  18.419  1.00  0.00     0.000 C 
BRANCH   4   5
ATOM      5  C   UNL     1     -25.939  -6.721  17.889  1.00  0.00     0.000 C 
BRANCH   5   6
ATOM      6  C   UNL     1     -26.918  -7.170  16.791  1.00  0.00     0.000 C 
BRANCH   6   7
ATOM      7  C   UNL     1     -26.683  -6.446  15.452  1.00  0.00     0.006 C 
BRANCH   7   8
ATOM      8  C   UNL     1     -27.275  -7.164  14.229  1.00  0.00     0.053 C 
BRANCH   8   9
ATOM      9  C   UNL     1     -27.532  -6.222  13.093  1.00  0.00     0.041 C 
ATOM     10  O   UNL     1     -27.466  -6.631  11.904  1.00  0.00    -0.550 OA
ATOM     11  O   UNL     1     -27.812  -4.886  13.347  1.00  0.00    -0.550 OA
ENDBRANCH   8   9
ENDBRANCH   7   8
ENDBRANCH   6   7
ENDBRANCH   5   6
ENDBRANCH   4   5
ENDBRANCH   3   4
ENDBRANCH   2   3
ENDBRANCH   1   2
BRANCH   1  12
ATOM     12  C   UNL     1     -22.879  -6.976  15.690  1.00  0.00     0.000 C 
BRANCH  12  13
ATOM     13  C   UNL     1     -22.339  -6.321  16.973  1.00  0.00    -0.000 C 
BRANCH  13  14
ATOM     14  C   UNL     1     -21.214  -5.312  16.688  1.00  0.00    -0.000 C 
BRANCH  14  15
ATOM     15  C   UNL     1     -20.818  -5.277  15.203  1.00  0.00    -0.000 C 
BRANCH  15  16
ATOM     16  C   UNL     1     -19.428  -5.883  14.937  1.00  0.00    -0.000 C 
BRANCH  16  17
ATOM     17  C   UNL     1     -19.417  -7.391  14.626  1.00  0.00    -0.000 C 
BRANCH  17  18
ATOM     18  C   UNL     1     -18.559  -8.200  15.613  1.00  0.00    -0.000 C 
BRANCH  18  19
ATOM     19  C   UNL     1     -19.371  -8.716  16.812  1.00  0.00    -0.003 C 
ATOM     20  C   UNL     1     -18.490  -9.277  17.928  1.00  0.00     0.004 C 
ENDBRANCH  18  19
ENDBRANCH  17  18
ENDBRANCH  16  17
ENDBRANCH  15  16
ENDBRANCH  14  15
ENDBRANCH  13  14
ENDBRANCH  12  13
ENDBRANCH   1  12
TORSDOF 16
ENDMDL
MODEL 8
REMARK VINA RESULT:    -4.463      1.592      5.516
REMARK INTER + INTRA:         -11.073
REMARK INTER:                  -9.154
REMARK INTRA:                  -1.918
REMARK UNBOUND:                -2.434
REMARK SMILES CCCCCCCCCCCCCCCCCC(=O)[O-]
REMARK SMILES IDX 10 1 11 2 12 3 13 4 14 5 15 6 16 7 17 8 18 9 19 10 20 11
REMARK SMILES IDX 9 12 8 13 7 14 6 15 5 16 4 17 3 18 2 19 1 20
REMARK H PARENT
REMARK Flexibility Score: inf
ROOT
ATOM      1  C   UNL     1     -23.829  -6.421  18.158  1.00  0.00     0.000 C 
ENDROOT
BRANCH   1   2
ATOM      2  C   UNL     1     -24.327  -7.873  18.286  1.00  0.00     0.000 C 
BRANCH   2   3
ATOM      3  C   UNL     1     -24.449  -8.587  16.928  1.00  0.00     0.000 C 
BRANCH   3   4
ATOM      4  C   UNL     1     -23.399  -9.696  16.736  1.00  0.00     0.000 C 
BRANCH   4   5
ATOM      5  C   UNL     1     -22.011  -9.220  16.265  1.00  0.00     0.000 C 
BRANCH   5   6
ATOM      6  C   UNL     1     -20.867  -9.733  17.156  1.00  0.00     0.000 C 
BRANCH   6   7
ATOM      7  C   UNL     1     -19.837  -8.638  17.494  1.00  0.00     0.006 C 
BRANCH   7   8
ATOM      8  C   UNL     1     -18.379  -9.024  17.199  1.00  0.00     0.053 C 
BRANCH   8   9
ATOM      9  C   UNL     1     -17.772  -9.822  18.312  1.00  0.00     0.041 C 
ATOM     10  O   UNL     1     -16.815  -9.350  18.981  1.00  0.00    -0.550 OA
ATOM     11  O   UNL     1     -18.243 -11.099  18.589  1.00  0.00    -0.550 OA
ENDBRANCH   8   9
ENDBRANCH   7   8
ENDBRANCH   6   7
ENDBRANCH   5   6
ENDBRANCH   4   5
ENDBRANCH   3   4
ENDBRANCH   2   3
ENDBRANCH   1   2
BRANCH   1  12
ATOM     12  C   UNL     1     -22.308  -6.231  18.304  1.00  0.00     0.000 C 
BRANCH  12  13
ATOM     13  C   UNL     1     -21.708  -5.322  17.217  1.00  0.00    -0.000 C 
BRANCH  13  14
ATOM     14  C   UNL     1     -21.697  -5.993  15.833  1.00  0.00    -0.000 C 
BRANCH  14  15
ATOM     15  C   UNL     1     -20.488  -5.566  14.983  1.00  0.00    -0.000 C 
BRANCH  15  16
ATOM     16  C   UNL     1     -19.760  -6.758  14.336  1.00  0.00    -0.000 C 
BRANCH  16  17
ATOM     17  C   UNL     1     -18.247  -6.834  14.613  1.00  0.00    -0.000 C 
BRANCH  17  18
ATOM     18  C   UNL     1     -17.573  -5.452  14.636  1.00  0.00    -0.000 C 
BRANCH  18  19
ATOM     19  C   UNL     1     -16.881  -5.114  13.306  1.00  0.00    -0.003 C 
ATOM     20  C   UNL     1     -17.262  -3.733  12.773  1.00  0.00     0.004 C 
ENDBRANCH  18  19
ENDBRANCH  17  18
ENDBRANCH  16  17
ENDBRANCH  15  16
ENDBRANCH  14  15
ENDBRANCH  13  14
ENDBRANCH  12  13
ENDBRANCH   1  12
TORSDOF 16
ENDMDL
MODEL 9
REMARK VINA RESULT:    -4.382      4.101      7.902
REMARK INTER + INTRA:         -10.916
REMARK INTER:                  -9.276
REMARK INTRA:                  -1.640
REMARK UNBOUND:                -2.434
REMARK SMILES CCCCCCCCCCCCCCCCCC(=O)[O-]
REMARK SMILES IDX 10 1 11 2 12 3 13 4 14 5 15 6 16 7 17 8 18 9 19 10 20 11
REMARK SMILES IDX 9 12 8 13 7 14 6 15 5 16 4 17 3 18 2 19 1 20
REMARK H PARENT
REMARK Flexibility Score: inf
ROOT
ATOM      1  C   UNL     1     -21.683  -5.981  17.816  1.00  0.00     0.000 C 
ENDROOT
BRANCH   1   2
ATOM      2  C   UNL     1     -23.128  -6.441  18.086  1.00  0.00     0.000 C 
BRANCH   2   3
ATOM      3  C   UNL     1     -23.402  -7.873  17.595  1.00  0.00     0.000 C 
BRANCH   3   4
ATOM      4  C   UNL     1     -24.583  -7.956  16.610  1.00  0.00     0.000 C 
BRANCH   4   5
ATOM      5  C   UNL     1     -25.966  -8.182  17.250  1.00  0.00     0.000 C 
BRANCH   5   6
ATOM      6  C   UNL     1     -27.053  -7.262  16.669  1.00  0.00     0.000 C 
BRANCH   6   7
ATOM      7  C   UNL     1     -26.674  -6.689  15.290  1.00  0.00     0.006 C 
BRANCH   7   8
ATOM      8  C   UNL     1     -27.791  -5.881  14.609  1.00  0.00     0.053 C 
BRANCH   8   9
ATOM      9  C   UNL     1     -27.609  -5.812  13.123  1.00  0.00     0.041 C 
ATOM     10  O   UNL     1     -27.725  -4.712  12.522  1.00  0.00    -0.550 OA
ATOM     11  O   UNL     1     -27.344  -6.967  12.400  1.00  0.00    -0.550 OA
ENDBRANCH   8   9
ENDBRANCH   7   8
ENDBRANCH   6   7
ENDBRANCH   5   6
ENDBRANCH   4   5
ENDBRANCH   3   4
ENDBRANCH   2   3
ENDBRANCH   1   2
BRANCH   1  12
ATOM     12  C   UNL     1     -21.523  -4.923  16.709  1.00  0.00     0.000 C 
BRANCH  12  13
ATOM     13  C   UNL     1     -20.706  -5.428  15.507  1.00  0.00    -0.000 C 
BRANCH  13  14
ATOM     14  C   UNL     1     -21.412  -6.570  14.756  1.00  0.00    -0.000 C 
BRANCH  14  15
ATOM     15  C   UNL     1     -20.743  -7.934  14.997  1.00  0.00    -0.000 C 
BRANCH  15  16
ATOM     16  C   UNL     1     -19.218  -7.901  14.785  1.00  0.00    -0.000 C 
BRANCH  16  17
ATOM     17  C   UNL     1     -18.375  -8.245  16.026  1.00  0.00    -0.000 C 
BRANCH  17  18
ATOM     18  C   UNL     1     -19.186  -8.953  17.124  1.00  0.00    -0.000 C 
BRANCH  18  19
ATOM     19  C   UNL     1     -18.299  -9.477  18.264  1.00  0.00    -0.003 C 
ATOM     20  C   UNL     1     -18.238 -11.004  18.315  1.00  0.00     0.004 C 
ENDBRANCH  18  19
ENDBRANCH  17  18
ENDBRANCH  16  17
ENDBRANCH  15  16
ENDBRANCH  14  15
ENDBRANCH  13  14
ENDBRANCH  12  13
ENDBRANCH   1  12
TORSDOF 16
ENDMDL
