MODEL 1
REMARK VINA RESULT:    -7.441      0.000      0.000
REMARK INTER + INTRA:          -9.383
REMARK INTER:                  -9.181
REMARK INTRA:                  -0.203
REMARK UNBOUND:                -0.203
REMARK SMILES O=c1c(O)c(-c2cc(O)c(O)c(O)c2)oc2cc(O)cc(O)c12
REMARK SMILES IDX 5 1 3 2 2 3 1 4 23 5 21 6 20 7 18 8 17 9 16 10 15 11 6 12
REMARK SMILES IDX 7 13 8 14 14 15 10 16 12 17 9 18 11 20 13 22 4 24 22 26
REMARK SMILES IDX 19 28
REMARK H PARENT 9 19 11 21 13 23 4 25 22 27 19 29
REMARK Flexibility Score: inf
ROOT
ATOM      1  C   UNL     1     -14.745   7.108  -4.995  1.00  0.00     0.180 A 
ATOM      2  C   UNL     1     -15.791   7.242  -4.061  1.00  0.00     0.208 A 
ATOM      3  C   UNL     1     -16.122   8.522  -3.592  1.00  0.00     0.238 A 
ATOM      4  O   UNL     1     -17.049   8.654  -2.748  1.00  0.00    -0.285 OA
ATOM      5  C   UNL     1     -15.420   9.645  -4.077  1.00  0.00     0.111 A 
ATOM      6  C   UNL     1     -15.695  10.970  -3.659  1.00  0.00     0.134 A 
ATOM      7  C   UNL     1     -14.957  12.036  -4.196  1.00  0.00     0.093 A 
ATOM      8  C   UNL     1     -13.952  11.802  -5.142  1.00  0.00     0.123 A 
ATOM      9  C   UNL     1     -13.678  10.497  -5.557  1.00  0.00     0.094 A 
ATOM     10  C   UNL     1     -14.401   9.421  -5.032  1.00  0.00     0.146 A 
ATOM     11  O   UNL     1     -14.115   8.191  -5.441  1.00  0.00    -0.452 OA
ENDROOT
BRANCH   1  12
ATOM     12  C   UNL     1     -14.325   5.790  -5.522  1.00  0.00     0.029 A 
ATOM     13  C   UNL     1     -14.395   5.544  -6.901  1.00  0.00     0.062 A 
ATOM     14  C   UNL     1     -13.985   4.311  -7.427  1.00  0.00     0.162 A 
ATOM     15  C   UNL     1     -13.801   4.797  -4.676  1.00  0.00     0.062 A 
ATOM     16  C   UNL     1     -13.483   3.318  -6.576  1.00  0.00     0.200 A 
ATOM     17  C   UNL     1     -13.387   3.562  -5.196  1.00  0.00     0.162 A 
BRANCH  14  18
ATOM     18  O   UNL     1     -14.071   4.067  -8.797  1.00  0.00    -0.504 OA
ATOM     19  H   UNL     1     -14.354   4.788  -9.449  1.00  0.00     0.293 HD
ENDBRANCH  14  18
BRANCH  16  20
ATOM     20  O   UNL     1     -13.081   2.096  -7.117  1.00  0.00    -0.502 OA
ATOM     21  H   UNL     1     -12.321   1.556  -6.722  1.00  0.00     0.293 HD
ENDBRANCH  16  20
BRANCH  17  22
ATOM     22  O   UNL     1     -12.875   2.582  -4.348  1.00  0.00    -0.504 OA
ATOM     23  H   UNL     1     -11.878   2.423  -4.262  1.00  0.00     0.293 HD
ENDBRANCH  17  22
ENDBRANCH   1  12
BRANCH   2  24
ATOM     24  O   UNL     1     -16.504   6.118  -3.633  1.00  0.00    -0.502 OA
ATOM     25  H   UNL     1     -16.050   5.311  -3.223  1.00  0.00     0.293 HD
ENDBRANCH   2  24
BRANCH   6  26
ATOM     26  O   UNL     1     -16.690  11.234  -2.718  1.00  0.00    -0.507 OA
ATOM     27  H   UNL     1     -16.594  10.954  -1.749  1.00  0.00     0.293 HD
ENDBRANCH   6  26
BRANCH   8  28
ATOM     28  O   UNL     1     -13.220  12.860  -5.677  1.00  0.00    -0.508 OA
ATOM     29  H   UNL     1     -12.263  13.037  -5.395  1.00  0.00     0.293 HD
ENDBRANCH   8  28
TORSDOF 7
ENDMDL
MODEL 2
REMARK VINA RESULT:    -7.423      0.147      1.755
REMARK INTER + INTRA:          -9.361
REMARK INTER:                  -9.215
REMARK INTRA:                  -0.146
REMARK UNBOUND:                -0.203
REMARK SMILES O=c1c(O)c(-c2cc(O)c(O)c(O)c2)oc2cc(O)cc(O)c12
REMARK SMILES IDX 5 1 3 2 2 3 1 4 23 5 21 6 20 7 18 8 17 9 16 10 15 11 6 12
REMARK SMILES IDX 7 13 8 14 14 15 10 16 12 17 9 18 11 20 13 22 4 24 22 26
REMARK SMILES IDX 19 28
REMARK H PARENT 9 19 11 21 13 23 4 25 22 27 19 29
REMARK Flexibility Score: inf
ROOT
ATOM      1  C   UNL     1     -14.700   7.260  -5.056  1.00  0.00     0.180 A 
ATOM      2  C   UNL     1     -15.736   7.368  -4.109  1.00  0.00     0.208 A 
ATOM      3  C   UNL     1     -16.079   8.639  -3.622  1.00  0.00     0.238 A 
ATOM      4  O   UNL     1     -16.998   8.748  -2.765  1.00  0.00    -0.285 OA
ATOM      5  C   UNL     1     -15.400   9.777  -4.103  1.00  0.00     0.111 A 
ATOM      6  C   UNL     1     -15.688  11.093  -3.668  1.00  0.00     0.134 A 
ATOM      7  C   UNL     1     -14.973  12.175  -4.202  1.00  0.00     0.093 A 
ATOM      8  C   UNL     1     -13.977  11.966  -5.162  1.00  0.00     0.123 A 
ATOM      9  C   UNL     1     -13.689  10.670  -5.595  1.00  0.00     0.094 A 
ATOM     10  C   UNL     1     -14.389   9.579  -5.073  1.00  0.00     0.146 A 
ATOM     11  O   UNL     1     -14.091   8.357  -5.499  1.00  0.00    -0.452 OA
ENDROOT
BRANCH   1  12
ATOM     12  C   UNL     1     -14.267   5.954  -5.603  1.00  0.00     0.029 A 
ATOM     13  C   UNL     1     -13.775   4.970  -4.731  1.00  0.00     0.062 A 
ATOM     14  C   UNL     1     -13.377   3.719  -5.221  1.00  0.00     0.162 A 
ATOM     15  C   UNL     1     -14.391   5.655  -6.971  1.00  0.00     0.062 A 
ATOM     16  C   UNL     1     -13.484   3.435  -6.588  1.00  0.00     0.200 A 
ATOM     17  C   UNL     1     -13.997   4.404  -7.466  1.00  0.00     0.162 A 
BRANCH  14  18
ATOM     18  O   UNL     1     -12.875   2.750  -4.352  1.00  0.00    -0.504 OA
ATOM     19  H   UNL     1     -13.081   1.766  -4.478  1.00  0.00     0.293 HD
ENDBRANCH  14  18
BRANCH  16  20
ATOM     20  O   UNL     1     -13.081   2.184  -7.058  1.00  0.00    -0.502 OA
ATOM     21  H   UNL     1     -13.495   1.323  -6.720  1.00  0.00     0.293 HD
ENDBRANCH  16  20
BRANCH  17  22
ATOM     22  O   UNL     1     -14.119   4.120  -8.825  1.00  0.00    -0.504 OA
ATOM     23  H   UNL     1     -13.708   3.287  -9.232  1.00  0.00     0.293 HD
ENDBRANCH  17  22
ENDBRANCH   1  12
BRANCH   2  24
ATOM     24  O   UNL     1     -16.427   6.230  -3.685  1.00  0.00    -0.502 OA
ATOM     25  H   UNL     1     -17.428   6.230  -3.530  1.00  0.00     0.293 HD
ENDBRANCH   2  24
BRANCH   6  26
ATOM     26  O   UNL     1     -16.676  11.332  -2.712  1.00  0.00    -0.507 OA
ATOM     27  H   UNL     1     -17.583  11.708  -2.965  1.00  0.00     0.293 HD
ENDBRANCH   6  26
BRANCH   8  28
ATOM     28  O   UNL     1     -13.266  13.041  -5.694  1.00  0.00    -0.508 OA
ATOM     29  H   UNL     1     -12.444  13.412  -5.234  1.00  0.00     0.293 HD
ENDBRANCH   8  28
TORSDOF 7
ENDMDL
MODEL 3
REMARK VINA RESULT:    -6.885      2.311      7.903
REMARK INTER + INTRA:          -8.698
REMARK INTER:                  -8.340
REMARK INTRA:                  -0.357
REMARK UNBOUND:                -0.203
REMARK SMILES O=c1c(O)c(-c2cc(O)c(O)c(O)c2)oc2cc(O)cc(O)c12
REMARK SMILES IDX 5 1 3 2 2 3 1 4 23 5 21 6 20 7 18 8 17 9 16 10 15 11 6 12
REMARK SMILES IDX 7 13 8 14 14 15 10 16 12 17 9 18 11 20 13 22 4 24 22 26
REMARK SMILES IDX 19 28
REMARK H PARENT 9 19 11 21 13 23 4 25 22 27 19 29
REMARK Flexibility Score: inf
ROOT
ATOM      1  C   UNL     1     -14.713   4.563  -5.550  1.00  0.00     0.180 A 
ATOM      2  C   UNL     1     -14.418   4.498  -6.925  1.00  0.00     0.208 A 
ATOM      3  C   UNL     1     -13.912   3.300  -7.454  1.00  0.00     0.238 A 
ATOM      4  O   UNL     1     -13.635   3.233  -8.682  1.00  0.00    -0.285 OA
ATOM      5  C   UNL     1     -13.729   2.187  -6.608  1.00  0.00     0.111 A 
ATOM      6  C   UNL     1     -13.229   0.942  -7.063  1.00  0.00     0.134 A 
ATOM      7  C   UNL     1     -13.085  -0.121  -6.159  1.00  0.00     0.093 A 
ATOM      8  C   UNL     1     -13.432   0.036  -4.813  1.00  0.00     0.123 A 
ATOM      9  C   UNL     1     -13.926   1.260  -4.360  1.00  0.00     0.094 A 
ATOM     10  C   UNL     1     -14.075   2.333  -5.244  1.00  0.00     0.146 A 
ATOM     11  O   UNL     1     -14.542   3.488  -4.785  1.00  0.00    -0.452 OA
ENDROOT
BRANCH   1  12
ATOM     12  C   UNL     1     -15.231   5.796  -4.914  1.00  0.00     0.029 A 
ATOM     13  C   UNL     1     -16.615   6.028  -4.884  1.00  0.00     0.062 A 
ATOM     14  C   UNL     1     -17.131   7.178  -4.271  1.00  0.00     0.162 A 
ATOM     15  C   UNL     1     -14.370   6.714  -4.288  1.00  0.00     0.062 A 
ATOM     16  C   UNL     1     -16.266   8.098  -3.667  1.00  0.00     0.200 A 
ATOM     17  C   UNL     1     -14.881   7.865  -3.671  1.00  0.00     0.162 A 
BRANCH  14  18
ATOM     18  O   UNL     1     -18.506   7.410  -4.257  1.00  0.00    -0.504 OA
ATOM     19  H   UNL     1     -18.911   8.227  -4.698  1.00  0.00     0.293 HD
ENDBRANCH  14  18
BRANCH  16  20
ATOM     20  O   UNL     1     -16.799   9.238  -3.063  1.00  0.00    -0.502 OA
ATOM     21  H   UNL     1     -17.797   9.402  -3.006  1.00  0.00     0.293 HD
ENDBRANCH  16  20
BRANCH  17  22
ATOM     22  O   UNL     1     -14.019   8.772  -3.058  1.00  0.00    -0.504 OA
ATOM     23  H   UNL     1     -14.306   9.721  -2.851  1.00  0.00     0.293 HD
ENDBRANCH  17  22
ENDBRANCH   1  12
BRANCH   2  24
ATOM     24  O   UNL     1     -14.654   5.600  -7.751  1.00  0.00    -0.502 OA
ATOM     25  H   UNL     1     -14.590   5.545  -8.761  1.00  0.00     0.293 HD
ENDBRANCH   2  24
BRANCH   6  26
ATOM     26  O   UNL     1     -12.875   0.756  -8.400  1.00  0.00    -0.507 OA
ATOM     27  H   UNL     1     -13.274   1.323  -9.140  1.00  0.00     0.293 HD
ENDBRANCH   6  26
BRANCH   8  28
ATOM     28  O   UNL     1     -13.290  -1.021  -3.915  1.00  0.00    -0.508 OA
ATOM     29  H   UNL     1     -12.695  -0.946  -3.099  1.00  0.00     0.293 HD
ENDBRANCH   8  28
TORSDOF 7
ENDMDL
MODEL 4
REMARK VINA RESULT:    -6.814      2.281      7.948
REMARK INTER + INTRA:          -8.610
REMARK INTER:                  -8.255
REMARK INTRA:                  -0.354
REMARK UNBOUND:                -0.203
REMARK SMILES O=c1c(O)c(-c2cc(O)c(O)c(O)c2)oc2cc(O)cc(O)c12
REMARK SMILES IDX 5 1 3 2 2 3 1 4 23 5 21 6 20 7 18 8 17 9 16 10 15 11 6 12
REMARK SMILES IDX 7 13 8 14 14 15 10 16 12 17 9 18 11 20 13 22 4 24 22 26
REMARK SMILES IDX 19 28
REMARK H PARENT 9 19 11 21 13 23 4 25 22 27 19 29
REMARK Flexibility Score: inf
ROOT
ATOM      1  C   UNL     1     -14.718   4.580  -5.467  1.00  0.00     0.180 A 
ATOM      2  C   UNL     1     -14.460   4.535  -6.851  1.00  0.00     0.208 A 
ATOM      3  C   UNL     1     -13.943   3.355  -7.406  1.00  0.00     0.238 A 
ATOM      4  O   UNL     1     -13.698   3.306  -8.642  1.00  0.00    -0.285 OA
ATOM      5  C   UNL     1     -13.712   2.237  -6.577  1.00  0.00     0.111 A 
ATOM      6  C   UNL     1     -13.197   1.009  -7.058  1.00  0.00     0.134 A 
ATOM      7  C   UNL     1     -13.004  -0.060  -6.170  1.00  0.00     0.093 A 
ATOM      8  C   UNL     1     -13.316   0.076  -4.813  1.00  0.00     0.123 A 
ATOM      9  C   UNL     1     -13.825   1.285  -4.334  1.00  0.00     0.094 A 
ATOM     10  C   UNL     1     -14.022   2.363  -5.202  1.00  0.00     0.146 A 
ATOM     11  O   UNL     1     -14.502   3.502  -4.719  1.00  0.00    -0.452 OA
ENDROOT
BRANCH   1  12
ATOM     12  C   UNL     1     -15.246   5.795  -4.804  1.00  0.00     0.029 A 
ATOM     13  C   UNL     1     -14.350   6.730  -4.263  1.00  0.00     0.062 A 
ATOM     14  C   UNL     1     -14.824   7.897  -3.648  1.00  0.00     0.162 A 
ATOM     15  C   UNL     1     -16.625   6.061  -4.756  1.00  0.00     0.062 A 
ATOM     16  C   UNL     1     -16.200   8.146  -3.585  1.00  0.00     0.200 A 
ATOM     17  C   UNL     1     -17.105   7.228  -4.144  1.00  0.00     0.162 A 
BRANCH  14  18
ATOM     18  O   UNL     1     -13.930   8.815  -3.098  1.00  0.00    -0.504 OA
ATOM     19  H   UNL     1     -13.178   8.523  -2.485  1.00  0.00     0.293 HD
ENDBRANCH  14  18
BRANCH  16  20
ATOM     20  O   UNL     1     -16.653   9.313  -2.967  1.00  0.00    -0.502 OA
ATOM     21  H   UNL     1     -16.157  10.192  -3.046  1.00  0.00     0.293 HD
ENDBRANCH  16  20
BRANCH  17  22
ATOM     22  O   UNL     1     -18.475   7.481  -4.096  1.00  0.00    -0.504 OA
ATOM     23  H   UNL     1     -18.920   8.118  -4.746  1.00  0.00     0.293 HD
ENDBRANCH  17  22
ENDBRANCH   1  12
BRANCH   2  24
ATOM     24  O   UNL     1     -14.744   5.640  -7.658  1.00  0.00    -0.502 OA
ATOM     25  H   UNL     1     -14.377   6.564  -7.463  1.00  0.00     0.293 HD
ENDBRANCH   2  24
BRANCH   6  26
ATOM     26  O   UNL     1     -12.876   0.844  -8.406  1.00  0.00    -0.507 OA
ATOM     27  H   UNL     1     -12.490   1.602  -8.958  1.00  0.00     0.293 HD
ENDBRANCH   6  26
BRANCH   8  28
ATOM     28  O   UNL     1     -13.126  -0.986  -3.931  1.00  0.00    -0.508 OA
ATOM     29  H   UNL     1     -12.300  -1.571  -3.977  1.00  0.00     0.293 HD
ENDBRANCH   8  28
TORSDOF 7
ENDMDL
MODEL 5
REMARK VINA RESULT:    -6.488      2.302      7.765
REMARK INTER + INTRA:          -8.207
REMARK INTER:                  -7.849
REMARK INTRA:                  -0.359
REMARK UNBOUND:                -0.203
REMARK SMILES O=c1c(O)c(-c2cc(O)c(O)c(O)c2)oc2cc(O)cc(O)c12
REMARK SMILES IDX 5 1 3 2 2 3 1 4 23 5 21 6 20 7 18 8 17 9 16 10 15 11 6 12
REMARK SMILES IDX 7 13 8 14 14 15 10 16 12 17 9 18 11 20 13 22 4 24 22 26
REMARK SMILES IDX 19 28
REMARK H PARENT 9 19 11 21 13 23 4 25 22 27 19 29
REMARK Flexibility Score: inf
ROOT
ATOM      1  C   UNL     1     -14.277   4.776  -6.265  1.00  0.00     0.180 A 
ATOM      2  C   UNL     1     -13.965   4.131  -7.477  1.00  0.00     0.208 A 
ATOM      3  C   UNL     1     -13.603   2.776  -7.450  1.00  0.00     0.238 A 
ATOM      4  O   UNL     1     -13.312   2.190  -8.528  1.00  0.00    -0.285 OA
ATOM      5  C   UNL     1     -13.579   2.085  -6.221  1.00  0.00     0.111 A 
ATOM      6  C   UNL     1     -13.230   0.717  -6.107  1.00  0.00     0.134 A 
ATOM      7  C   UNL     1     -13.239   0.099  -4.848  1.00  0.00     0.093 A 
ATOM      8  C   UNL     1     -13.590   0.822  -3.702  1.00  0.00     0.123 A 
ATOM      9  C   UNL     1     -13.936   2.171  -3.809  1.00  0.00     0.094 A 
ATOM     10  C   UNL     1     -13.931   2.805  -5.055  1.00  0.00     0.146 A 
ATOM     11  O   UNL     1     -14.258   4.090  -5.126  1.00  0.00    -0.452 OA
ENDROOT
BRANCH   1  12
ATOM     12  C   UNL     1     -14.650   6.209  -6.210  1.00  0.00     0.029 A 
ATOM     13  C   UNL     1     -16.004   6.567  -6.125  1.00  0.00     0.062 A 
ATOM     14  C   UNL     1     -16.381   7.915  -6.052  1.00  0.00     0.162 A 
ATOM     15  C   UNL     1     -13.672   7.218  -6.182  1.00  0.00     0.062 A 
ATOM     16  C   UNL     1     -15.402   8.917  -6.045  1.00  0.00     0.200 A 
ATOM     17  C   UNL     1     -14.043   8.568  -6.106  1.00  0.00     0.162 A 
BRANCH  14  18
ATOM     18  O   UNL     1     -17.728   8.266  -5.982  1.00  0.00    -0.504 OA
ATOM     19  H   UNL     1     -18.376   8.036  -6.726  1.00  0.00     0.293 HD
ENDBRANCH  14  18
BRANCH  16  20
ATOM     20  O   UNL     1     -15.797  10.254  -5.973  1.00  0.00    -0.502 OA
ATOM     21  H   UNL     1     -16.303  10.625  -5.177  1.00  0.00     0.293 HD
ENDBRANCH  16  20
BRANCH  17  22
ATOM     22  O   UNL     1     -13.066   9.562  -6.085  1.00  0.00    -0.504 OA
ATOM     23  H   UNL     1     -12.604   9.871  -6.933  1.00  0.00     0.293 HD
ENDBRANCH  17  22
ENDBRANCH   1  12
BRANCH   2  24
ATOM     24  O   UNL     1     -14.045   4.825  -8.687  1.00  0.00    -0.502 OA
ATOM     25  H   UNL     1     -13.806   5.806  -8.767  1.00  0.00     0.293 HD
ENDBRANCH   2  24
BRANCH   6  26
ATOM     26  O   UNL     1     -12.875  -0.028  -7.232  1.00  0.00    -0.507 OA
ATOM     27  H   UNL     1     -11.999   0.126  -7.719  1.00  0.00     0.293 HD
ENDBRANCH   6  26
BRANCH   8  28
ATOM     28  O   UNL     1     -13.600   0.208  -2.451  1.00  0.00    -0.508 OA
ATOM     29  H   UNL     1     -13.255  -0.735  -2.321  1.00  0.00     0.293 HD
ENDBRANCH   8  28
TORSDOF 7
ENDMDL
MODEL 6
REMARK VINA RESULT:    -6.301      1.547      2.287
REMARK INTER + INTRA:          -7.977
REMARK INTER:                  -7.645
REMARK INTRA:                  -0.332
REMARK UNBOUND:                -0.203
REMARK SMILES O=c1c(O)c(-c2cc(O)c(O)c(O)c2)oc2cc(O)cc(O)c12
REMARK SMILES IDX 5 1 3 2 2 3 1 4 23 5 21 6 20 7 18 8 17 9 16 10 15 11 6 12
REMARK SMILES IDX 7 13 8 14 14 15 10 16 12 17 9 18 11 20 13 22 4 24 22 26
REMARK SMILES IDX 19 28
REMARK H PARENT 9 19 11 21 13 23 4 25 22 27 19 29
REMARK Flexibility Score: inf
ROOT
ATOM      1  C   UNL     1     -15.086   6.337  -5.664  1.00  0.00     0.180 A 
ATOM      2  C   UNL     1     -16.456   6.649  -5.759  1.00  0.00     0.208 A 
ATOM      3  C   UNL     1     -16.868   7.970  -5.524  1.00  0.00     0.238 A 
ATOM      4  O   UNL     1     -18.093   8.259  -5.596  1.00  0.00    -0.285 OA
ATOM      5  C   UNL     1     -15.908   8.956  -5.218  1.00  0.00     0.111 A 
ATOM      6  C   UNL     1     -16.240  10.310  -4.972  1.00  0.00     0.134 A 
ATOM      7  C   UNL     1     -15.224  11.234  -4.683  1.00  0.00     0.093 A 
ATOM      8  C   UNL     1     -13.886  10.830  -4.637  1.00  0.00     0.123 A 
ATOM      9  C   UNL     1     -13.553   9.495  -4.879  1.00  0.00     0.094 A 
ATOM     10  C   UNL     1     -14.551   8.559  -5.167  1.00  0.00     0.146 A 
ATOM     11  O   UNL     1     -14.207   7.296  -5.388  1.00  0.00    -0.452 OA
ENDROOT
BRANCH   1  12
ATOM     12  C   UNL     1     -14.575   4.964  -5.879  1.00  0.00     0.029 A 
ATOM     13  C   UNL     1     -14.679   4.019  -4.846  1.00  0.00     0.062 A 
ATOM     14  C   UNL     1     -14.220   2.707  -5.032  1.00  0.00     0.162 A 
ATOM     15  C   UNL     1     -14.040   4.568  -7.117  1.00  0.00     0.062 A 
ATOM     16  C   UNL     1     -13.669   2.325  -6.262  1.00  0.00     0.200 A 
ATOM     17  C   UNL     1     -13.582   3.257  -7.310  1.00  0.00     0.162 A 
BRANCH  14  18
ATOM     18  O   UNL     1     -14.312   1.777  -3.998  1.00  0.00    -0.504 OA
ATOM     19  H   UNL     1     -13.602   1.711  -3.278  1.00  0.00     0.293 HD
ENDBRANCH  14  18
BRANCH  16  20
ATOM     20  O   UNL     1     -13.217   1.016  -6.427  1.00  0.00    -0.502 OA
ATOM     21  H   UNL     1     -12.357   0.800  -6.919  1.00  0.00     0.293 HD
ENDBRANCH  16  20
BRANCH  17  22
ATOM     22  O   UNL     1     -13.048   2.876  -8.539  1.00  0.00    -0.504 OA
ATOM     23  H   UNL     1     -12.960   3.533  -9.306  1.00  0.00     0.293 HD
ENDBRANCH  17  22
ENDBRANCH   1  12
BRANCH   2  24
ATOM     24  O   UNL     1     -17.382   5.664  -6.112  1.00  0.00    -0.502 OA
ATOM     25  H   UNL     1     -17.900   5.692  -6.982  1.00  0.00     0.293 HD
ENDBRANCH   2  24
BRANCH   6  26
ATOM     26  O   UNL     1     -17.566  10.743  -5.011  1.00  0.00    -0.507 OA
ATOM     27  H   UNL     1     -18.067  11.001  -4.168  1.00  0.00     0.293 HD
ENDBRANCH   6  26
BRANCH   8  28
ATOM     28  O   UNL     1     -12.876  11.747  -4.351  1.00  0.00    -0.508 OA
ATOM     29  H   UNL     1     -12.075  11.860  -4.961  1.00  0.00     0.293 HD
ENDBRANCH   8  28
TORSDOF 7
ENDMDL
MODEL 7
REMARK VINA RESULT:    -6.295      1.324      2.863
REMARK INTER + INTRA:          -7.969
REMARK INTER:                  -7.911
REMARK INTRA:                  -0.059
REMARK UNBOUND:                -0.203
REMARK SMILES O=c1c(O)c(-c2cc(O)c(O)c(O)c2)oc2cc(O)cc(O)c12
REMARK SMILES IDX 5 1 3 2 2 3 1 4 23 5 21 6 20 7 18 8 17 9 16 10 15 11 6 12
REMARK SMILES IDX 7 13 8 14 14 15 10 16 12 17 9 18 11 20 13 22 4 24 22 26
REMARK SMILES IDX 19 28
REMARK H PARENT 9 19 11 21 13 23 4 25 22 27 19 29
REMARK Flexibility Score: inf
ROOT
ATOM      1  C   UNL     1     -14.476   8.030  -5.454  1.00  0.00     0.180 A 
ATOM      2  C   UNL     1     -13.795   8.959  -6.265  1.00  0.00     0.208 A 
ATOM      3  C   UNL     1     -14.036  10.329  -6.075  1.00  0.00     0.238 A 
ATOM      4  O   UNL     1     -13.440  11.169  -6.802  1.00  0.00    -0.285 OA
ATOM      5  C   UNL     1     -14.932  10.747  -5.070  1.00  0.00     0.111 A 
ATOM      6  C   UNL     1     -15.226  12.108  -4.811  1.00  0.00     0.134 A 
ATOM      7  C   UNL     1     -16.123  12.443  -3.786  1.00  0.00     0.093 A 
ATOM      8  C   UNL     1     -16.729  11.444  -3.015  1.00  0.00     0.123 A 
ATOM      9  C   UNL     1     -16.442  10.101  -3.266  1.00  0.00     0.094 A 
ATOM     10  C   UNL     1     -15.553   9.747  -4.285  1.00  0.00     0.146 A 
ATOM     11  O   UNL     1     -15.302   8.462  -4.506  1.00  0.00    -0.452 OA
ENDROOT
BRANCH   1  12
ATOM     12  C   UNL     1     -14.290   6.569  -5.606  1.00  0.00     0.029 A 
ATOM     13  C   UNL     1     -14.463   5.979  -6.868  1.00  0.00     0.062 A 
ATOM     14  C   UNL     1     -14.274   4.601  -7.041  1.00  0.00     0.162 A 
ATOM     15  C   UNL     1     -13.889   5.766  -4.525  1.00  0.00     0.062 A 
ATOM     16  C   UNL     1     -13.893   3.803  -5.955  1.00  0.00     0.200 A 
ATOM     17  C   UNL     1     -13.696   4.387  -4.693  1.00  0.00     0.162 A 
BRANCH  14  18
ATOM     18  O   UNL     1     -14.461   4.018  -8.294  1.00  0.00    -0.504 OA
ATOM     19  H   UNL     1     -14.314   3.027  -8.446  1.00  0.00     0.293 HD
ENDBRANCH  14  18
BRANCH  16  20
ATOM     20  O   UNL     1     -13.712   2.433  -6.147  1.00  0.00    -0.502 OA
ATOM     21  H   UNL     1     -13.544   2.035  -7.063  1.00  0.00     0.293 HD
ENDBRANCH  16  20
BRANCH  17  22
ATOM     22  O   UNL     1     -13.303   3.599  -3.613  1.00  0.00    -0.504 OA
ATOM     23  H   UNL     1     -13.980   3.101  -3.045  1.00  0.00     0.293 HD
ENDBRANCH  17  22
ENDBRANCH   1  12
BRANCH   2  24
ATOM     24  O   UNL     1     -12.875   8.521  -7.221  1.00  0.00    -0.502 OA
ATOM     25  H   UNL     1     -12.186   7.806  -7.023  1.00  0.00     0.293 HD
ENDBRANCH   2  24
BRANCH   6  26
ATOM     26  O   UNL     1     -14.636  13.124  -5.563  1.00  0.00    -0.507 OA
ATOM     27  H   UNL     1     -15.165  13.659  -6.243  1.00  0.00     0.293 HD
ENDBRANCH   6  26
BRANCH   8  28
ATOM     28  O   UNL     1     -17.619  11.777  -1.996  1.00  0.00    -0.508 OA
ATOM     29  H   UNL     1     -17.500  12.617  -1.442  1.00  0.00     0.293 HD
ENDBRANCH   8  28
TORSDOF 7
ENDMDL
MODEL 8
REMARK VINA RESULT:    -5.471      2.121      4.467
REMARK INTER + INTRA:          -6.953
REMARK INTER:                  -6.887
REMARK INTRA:                  -0.066
REMARK UNBOUND:                -0.203
REMARK SMILES O=c1c(O)c(-c2cc(O)c(O)c(O)c2)oc2cc(O)cc(O)c12
REMARK SMILES IDX 5 1 3 2 2 3 1 4 23 5 21 6 20 7 18 8 17 9 16 10 15 11 6 12
REMARK SMILES IDX 7 13 8 14 14 15 10 16 12 17 9 18 11 20 13 22 4 24 22 26
REMARK SMILES IDX 19 28
REMARK H PARENT 9 19 11 21 13 23 4 25 22 27 19 29
REMARK Flexibility Score: inf
ROOT
ATOM      1  C   UNL     1     -14.295   4.290  -5.142  1.00  0.00     0.180 A 
ATOM      2  C   UNL     1     -13.762   5.044  -6.204  1.00  0.00     0.208 A 
ATOM      3  C   UNL     1     -14.112   6.399  -6.318  1.00  0.00     0.238 A 
ATOM      4  O   UNL     1     -13.649   7.081  -7.271  1.00  0.00    -0.285 OA
ATOM      5  C   UNL     1     -14.970   6.979  -5.361  1.00  0.00     0.111 A 
ATOM      6  C   UNL     1     -15.368   8.338  -5.400  1.00  0.00     0.134 A 
ATOM      7  C   UNL     1     -16.217   8.843  -4.404  1.00  0.00     0.093 A 
ATOM      8  C   UNL     1     -16.674   8.017  -3.371  1.00  0.00     0.123 A 
ATOM      9  C   UNL     1     -16.284   6.677  -3.328  1.00  0.00     0.094 A 
ATOM     10  C   UNL     1     -15.440   6.154  -4.312  1.00  0.00     0.146 A 
ATOM     11  O   UNL     1     -15.089   4.875  -4.249  1.00  0.00    -0.452 OA
ENDROOT
BRANCH   1  12
ATOM     12  C   UNL     1     -13.988   2.852  -4.965  1.00  0.00     0.029 A 
ATOM     13  C   UNL     1     -13.596   2.380  -3.703  1.00  0.00     0.062 A 
ATOM     14  C   UNL     1     -13.319   1.020  -3.506  1.00  0.00     0.162 A 
ATOM     15  C   UNL     1     -14.136   1.938  -6.022  1.00  0.00     0.062 A 
ATOM     16  C   UNL     1     -13.449   0.117  -4.568  1.00  0.00     0.200 A 
ATOM     17  C   UNL     1     -13.862   0.576  -5.830  1.00  0.00     0.162 A 
BRANCH  14  18
ATOM     18  O   UNL     1     -12.916   0.559  -2.253  1.00  0.00    -0.504 OA
ATOM     19  H   UNL     1     -13.056  -0.403  -1.971  1.00  0.00     0.293 HD
ENDBRANCH  14  18
BRANCH  16  20
ATOM     20  O   UNL     1     -13.166  -1.232  -4.353  1.00  0.00    -0.502 OA
ATOM     21  H   UNL     1     -13.745  -1.971  -4.735  1.00  0.00     0.293 HD
ENDBRANCH  16  20
BRANCH  17  22
ATOM     22  O   UNL     1     -14.006  -0.322  -6.886  1.00  0.00    -0.504 OA
ATOM     23  H   UNL     1     -14.885  -0.423  -7.381  1.00  0.00     0.293 HD
ENDBRANCH  17  22
ENDBRANCH   1  12
BRANCH   2  24
ATOM     24  O   UNL     1     -12.875   4.458  -7.111  1.00  0.00    -0.502 OA
ATOM     25  H   UNL     1     -11.930   4.199  -6.856  1.00  0.00     0.293 HD
ENDBRANCH   2  24
BRANCH   6  26
ATOM     26  O   UNL     1     -14.928   9.185  -6.418  1.00  0.00    -0.507 OA
ATOM     27  H   UNL     1     -15.498   9.953  -6.755  1.00  0.00     0.293 HD
ENDBRANCH   6  26
BRANCH   8  28
ATOM     28  O   UNL     1     -17.516   8.519  -2.381  1.00  0.00    -0.508 OA
ATOM     29  H   UNL     1     -17.434   8.224  -1.416  1.00  0.00     0.293 HD
ENDBRANCH   8  28
TORSDOF 7
ENDMDL
MODEL 9
REMARK VINA RESULT:    -5.435      1.356      7.362
REMARK INTER + INTRA:          -6.909
REMARK INTER:                  -6.646
REMARK INTRA:                  -0.263
REMARK UNBOUND:                -0.203
REMARK SMILES O=c1c(O)c(-c2cc(O)c(O)c(O)c2)oc2cc(O)cc(O)c12
REMARK SMILES IDX 5 1 3 2 2 3 1 4 23 5 21 6 20 7 18 8 17 9 16 10 15 11 6 12
REMARK SMILES IDX 7 13 8 14 14 15 10 16 12 17 9 18 11 20 13 22 4 24 22 26
REMARK SMILES IDX 19 28
REMARK H PARENT 9 19 11 21 13 23 4 25 22 27 19 29
REMARK Flexibility Score: inf
ROOT
ATOM      1  C   UNL     1     -14.247   6.658  -5.313  1.00  0.00     0.180 A 
ATOM      2  C   UNL     1     -14.361   6.290  -6.667  1.00  0.00     0.208 A 
ATOM      3  C   UNL     1     -14.125   4.954  -7.029  1.00  0.00     0.238 A 
ATOM      4  O   UNL     1     -14.213   4.615  -8.239  1.00  0.00    -0.285 OA
ATOM      5  C   UNL     1     -13.800   4.010  -6.033  1.00  0.00     0.111 A 
ATOM      6  C   UNL     1     -13.551   2.644  -6.313  1.00  0.00     0.134 A 
ATOM      7  C   UNL     1     -13.243   1.764  -5.265  1.00  0.00     0.093 A 
ATOM      8  C   UNL     1     -13.180   2.223  -3.944  1.00  0.00     0.123 A 
ATOM      9  C   UNL     1     -13.425   3.569  -3.663  1.00  0.00     0.094 A 
ATOM     10  C   UNL     1     -13.731   4.462  -4.694  1.00  0.00     0.146 A 
ATOM     11  O   UNL     1     -13.954   5.737  -4.399  1.00  0.00    -0.452 OA
ENDROOT
BRANCH   1  12
ATOM     12  C   UNL     1     -14.463   8.050  -4.856  1.00  0.00     0.029 A 
ATOM     13  C   UNL     1     -15.556   8.343  -4.026  1.00  0.00     0.062 A 
ATOM     14  C   UNL     1     -15.771   9.649  -3.564  1.00  0.00     0.162 A 
ATOM     15  C   UNL     1     -13.562   9.077  -5.188  1.00  0.00     0.062 A 
ATOM     16  C   UNL     1     -14.881  10.671  -3.915  1.00  0.00     0.200 A 
ATOM     17  C   UNL     1     -13.771  10.385  -4.727  1.00  0.00     0.162 A 
BRANCH  14  18
ATOM     18  O   UNL     1     -16.866   9.936  -2.751  1.00  0.00    -0.504 OA
ATOM     19  H   UNL     1     -17.457  10.741  -2.922  1.00  0.00     0.293 HD
ENDBRANCH  14  18
BRANCH  16  20
ATOM     20  O   UNL     1     -15.112  11.966  -3.447  1.00  0.00    -0.502 OA
ATOM     21  H   UNL     1     -14.359  12.626  -3.295  1.00  0.00     0.293 HD
ENDBRANCH  16  20
BRANCH  17  22
ATOM     22  O   UNL     1     -12.875  11.398  -5.067  1.00  0.00    -0.504 OA
ATOM     23  H   UNL     1     -12.583  12.096  -4.393  1.00  0.00     0.293 HD
ENDBRANCH  17  22
ENDBRANCH   1  12
BRANCH   2  24
ATOM     24  O   UNL     1     -14.732   7.235  -7.627  1.00  0.00    -0.502 OA
ATOM     25  H   UNL     1     -14.636   8.231  -7.474  1.00  0.00     0.293 HD
ENDBRANCH   2  24
BRANCH   6  26
ATOM     26  O   UNL     1     -13.608   2.158  -7.620  1.00  0.00    -0.507 OA
ATOM     27  H   UNL     1     -14.281   1.452  -7.897  1.00  0.00     0.293 HD
ENDBRANCH   6  26
BRANCH   8  28
ATOM     28  O   UNL     1     -12.875   1.349  -2.902  1.00  0.00    -0.508 OA
ATOM     29  H   UNL     1     -13.559   1.112  -2.194  1.00  0.00     0.293 HD
ENDBRANCH   8  28
TORSDOF 7
ENDMDL
