MODEL 1
REMARK VINA RESULT:    -5.314      0.000      0.000
REMARK INTER + INTRA:          -6.785
REMARK INTER:                  -6.556
REMARK INTRA:                  -0.229
REMARK UNBOUND:                -0.229
REMARK SMILES [NH3+][C@H](Cc1ccc(O)cc1)C(=O)[O-]
REMARK SMILES IDX 3 1 2 2 1 3 11 7 12 8 13 9 4 10 5 11 10 12 6 13 9 14 7 15
REMARK SMILES IDX 8 16
REMARK H PARENT 1 4 1 5 1 6 8 17
REMARK Flexibility Score: inf
ROOT
ATOM      1  C   UNL     1      63.255   2.432   6.622  1.00  0.00     0.107 C 
ENDROOT
BRANCH   1   2
ATOM      2  C   UNL     1      63.925   2.213   5.250  1.00  0.00     0.232 C 
BRANCH   2   3
ATOM      3  N   UNL     1      63.465   3.199   4.263  1.00  0.00    -0.350 N 
ATOM      4  H   UNL     1      62.587   3.658   4.598  1.00  0.00     0.345 HD
ATOM      5  H   UNL     1      64.195   3.930   4.100  1.00  0.00     0.345 HD
ATOM      6  H   UNL     1      63.249   2.722   3.357  1.00  0.00     0.345 HD
ENDBRANCH   2   3
BRANCH   2   7
ATOM      7  C   UNL     1      65.421   2.290   5.400  1.00  0.00     0.099 C 
ATOM      8  O   UNL     1      65.956   2.095   6.523  1.00  0.00    -0.544 OA
ATOM      9  O   UNL     1      66.220   2.598   4.305  1.00  0.00    -0.544 OA
ENDBRANCH   2   7
ENDBRANCH   1   2
BRANCH   1  10
ATOM     10  C   UNL     1      62.409   1.254   7.030  1.00  0.00    -0.041 A 
ATOM     11  C   UNL     1      61.649   1.306   8.211  1.00  0.00     0.008 A 
ATOM     12  C   UNL     1      62.398   0.082   6.257  1.00  0.00     0.008 A 
ATOM     13  C   UNL     1      60.881   0.206   8.603  1.00  0.00     0.046 A 
ATOM     14  C   UNL     1      61.629  -1.017   6.652  1.00  0.00     0.046 A 
ATOM     15  C   UNL     1      60.869  -0.959   7.824  1.00  0.00     0.115 A 
BRANCH  15  16
ATOM     16  O   UNL     1      60.108  -2.061   8.206  1.00  0.00    -0.508 OA
ATOM     17  H   UNL     1      60.320  -2.586   9.047  1.00  0.00     0.293 HD
ENDBRANCH  15  16
ENDBRANCH   1  10
TORSDOF 5
ENDMDL
MODEL 2
REMARK VINA RESULT:    -5.272      2.634      5.489
REMARK INTER + INTRA:          -6.733
REMARK INTER:                  -6.501
REMARK INTRA:                  -0.232
REMARK UNBOUND:                -0.229
REMARK SMILES [NH3+][C@H](Cc1ccc(O)cc1)C(=O)[O-]
REMARK SMILES IDX 3 1 2 2 1 3 11 7 12 8 13 9 4 10 5 11 10 12 6 13 9 14 7 15
REMARK SMILES IDX 8 16
REMARK H PARENT 1 4 1 5 1 6 8 17
REMARK Flexibility Score: inf
ROOT
ATOM      1  C   UNL     1      62.040  -0.086   8.313  1.00  0.00     0.107 C 
ENDROOT
BRANCH   1   2
ATOM      2  C   UNL     1      60.523  -0.344   8.207  1.00  0.00     0.232 C 
BRANCH   2   3
ATOM      3  N   UNL     1      60.214  -1.779   8.283  1.00  0.00    -0.350 N 
ATOM      4  H   UNL     1      59.680  -1.984   9.159  1.00  0.00     0.345 HD
ATOM      5  H   UNL     1      59.649  -2.081   7.457  1.00  0.00     0.345 HD
ATOM      6  H   UNL     1      61.101  -2.332   8.314  1.00  0.00     0.345 HD
ENDBRANCH   2   3
BRANCH   2   7
ATOM      7  C   UNL     1      59.807   0.398   9.305  1.00  0.00     0.099 C 
ATOM      8  O   UNL     1      58.569   0.239   9.473  1.00  0.00    -0.544 OA
ATOM      9  O   UNL     1      60.502   1.278  10.125  1.00  0.00    -0.544 OA
ENDBRANCH   2   7
ENDBRANCH   1   2
BRANCH   1  10
ATOM     10  C   UNL     1      62.543   0.779   7.186  1.00  0.00    -0.041 A 
ATOM     11  C   UNL     1      63.089   2.045   7.457  1.00  0.00     0.008 A 
ATOM     12  C   UNL     1      62.439   0.346   5.854  1.00  0.00     0.008 A 
ATOM     13  C   UNL     1      63.535   2.859   6.412  1.00  0.00     0.046 A 
ATOM     14  C   UNL     1      62.886   1.162   4.810  1.00  0.00     0.046 A 
ATOM     15  C   UNL     1      63.435   2.419   5.085  1.00  0.00     0.115 A 
BRANCH  15  16
ATOM     16  O   UNL     1      63.876   3.221   4.035  1.00  0.00    -0.508 OA
ATOM     17  H   UNL     1      64.301   2.821   3.206  1.00  0.00     0.293 HD
ENDBRANCH  15  16
ENDBRANCH   1  10
TORSDOF 5
ENDMDL
MODEL 3
REMARK VINA RESULT:    -5.243      1.943      2.161
REMARK INTER + INTRA:          -6.698
REMARK INTER:                  -6.524
REMARK INTRA:                  -0.174
REMARK UNBOUND:                -0.229
REMARK SMILES [NH3+][C@H](Cc1ccc(O)cc1)C(=O)[O-]
REMARK SMILES IDX 3 1 2 2 1 3 11 7 12 8 13 9 4 10 5 11 10 12 6 13 9 14 7 15
REMARK SMILES IDX 8 16
REMARK H PARENT 1 4 1 5 1 6 8 17
REMARK Flexibility Score: inf
ROOT
ATOM      1  C   UNL     1      63.289   1.378   6.504  1.00  0.00     0.107 C 
ENDROOT
BRANCH   1   2
ATOM      2  C   UNL     1      62.844   1.624   5.047  1.00  0.00     0.232 C 
BRANCH   2   3
ATOM      3  N   UNL     1      63.363   2.899   4.533  1.00  0.00    -0.350 N 
ATOM      4  H   UNL     1      63.080   3.024   3.534  1.00  0.00     0.345 HD
ATOM      5  H   UNL     1      62.999   3.702   5.097  1.00  0.00     0.345 HD
ATOM      6  H   UNL     1      64.408   2.899   4.572  1.00  0.00     0.345 HD
ENDBRANCH   2   3
BRANCH   2   7
ATOM      7  C   UNL     1      63.313   0.487   4.178  1.00  0.00     0.099 C 
ATOM      8  O   UNL     1      64.389  -0.110   4.443  1.00  0.00    -0.544 OA
ATOM      9  O   UNL     1      62.572   0.104   3.066  1.00  0.00    -0.544 OA
ENDBRANCH   2   7
ENDBRANCH   1   2
BRANCH   1  10
ATOM     10  C   UNL     1      62.153   0.886   7.363  1.00  0.00    -0.041 A 
ATOM     11  C   UNL     1      61.524   1.757   8.269  1.00  0.00     0.008 A 
ATOM     12  C   UNL     1      61.736  -0.454   7.295  1.00  0.00     0.008 A 
ATOM     13  C   UNL     1      60.486   1.296   9.084  1.00  0.00     0.046 A 
ATOM     14  C   UNL     1      60.698  -0.912   8.112  1.00  0.00     0.046 A 
ATOM     15  C   UNL     1      60.070  -0.040   9.007  1.00  0.00     0.115 A 
BRANCH  15  16
ATOM     16  O   UNL     1      59.037  -0.510   9.815  1.00  0.00    -0.508 OA
ATOM     17  H   UNL     1      58.355  -1.176   9.468  1.00  0.00     0.293 HD
ENDBRANCH  15  16
ENDBRANCH   1  10
TORSDOF 5
ENDMDL
MODEL 4
REMARK VINA RESULT:    -5.157      2.180      2.789
REMARK INTER + INTRA:          -6.592
REMARK INTER:                  -6.363
REMARK INTRA:                  -0.229
REMARK UNBOUND:                -0.229
REMARK SMILES [NH3+][C@H](Cc1ccc(O)cc1)C(=O)[O-]
REMARK SMILES IDX 3 1 2 2 1 3 11 7 12 8 13 9 4 10 5 11 10 12 6 13 9 14 7 15
REMARK SMILES IDX 8 16
REMARK H PARENT 1 4 1 5 1 6 8 17
REMARK Flexibility Score: inf
ROOT
ATOM      1  C   UNL     1      63.742   0.038   6.589  1.00  0.00     0.107 C 
ENDROOT
BRANCH   1   2
ATOM      2  C   UNL     1      63.737   1.356   5.788  1.00  0.00     0.232 C 
BRANCH   2   3
ATOM      3  N   UNL     1      64.998   1.547   5.058  1.00  0.00    -0.350 N 
ATOM      4  H   UNL     1      65.543   0.654   5.045  1.00  0.00     0.345 HD
ATOM      5  H   UNL     1      64.815   1.853   4.075  1.00  0.00     0.345 HD
ATOM      6  H   UNL     1      65.581   2.270   5.539  1.00  0.00     0.345 HD
ENDBRANCH   2   3
BRANCH   2   7
ATOM      7  C   UNL     1      62.578   1.358   4.827  1.00  0.00     0.099 C 
ATOM      8  O   UNL     1      62.604   0.629   3.801  1.00  0.00    -0.544 OA
ATOM      9  O   UNL     1      61.481   2.180   5.055  1.00  0.00    -0.544 OA
ENDBRANCH   2   7
ENDBRANCH   1   2
BRANCH   1  10
ATOM     10  C   UNL     1      62.494  -0.121   7.419  1.00  0.00    -0.041 A 
ATOM     11  C   UNL     1      61.602  -1.174   7.158  1.00  0.00     0.008 A 
ATOM     12  C   UNL     1      62.192   0.800   8.436  1.00  0.00     0.008 A 
ATOM     13  C   UNL     1      60.432  -1.310   7.910  1.00  0.00     0.046 A 
ATOM     14  C   UNL     1      61.020   0.662   9.187  1.00  0.00     0.046 A 
ATOM     15  C   UNL     1      60.138  -0.392   8.927  1.00  0.00     0.115 A 
BRANCH  15  16
ATOM     16  O   UNL     1      58.976  -0.517   9.684  1.00  0.00    -0.508 OA
ATOM     17  H   UNL     1      59.001  -0.839  10.645  1.00  0.00     0.293 HD
ENDBRANCH  15  16
ENDBRANCH   1  10
TORSDOF 5
ENDMDL
MODEL 5
REMARK VINA RESULT:    -5.144      7.912      9.225
REMARK INTER + INTRA:          -6.576
REMARK INTER:                  -6.408
REMARK INTRA:                  -0.169
REMARK UNBOUND:                -0.229
REMARK SMILES [NH3+][C@H](Cc1ccc(O)cc1)C(=O)[O-]
REMARK SMILES IDX 3 1 2 2 1 3 11 7 12 8 13 9 4 10 5 11 10 12 6 13 9 14 7 15
REMARK SMILES IDX 8 16
REMARK H PARENT 1 4 1 5 1 6 8 17
REMARK Flexibility Score: inf
ROOT
ATOM      1  C   UNL     1      61.826  -2.963   0.931  1.00  0.00     0.107 C 
ENDROOT
BRANCH   1   2
ATOM      2  C   UNL     1      61.149  -4.002   1.850  1.00  0.00     0.232 C 
BRANCH   2   3
ATOM      3  N   UNL     1      61.269  -5.361   1.305  1.00  0.00    -0.350 N 
ATOM      4  H   UNL     1      60.552  -5.512   0.559  1.00  0.00     0.345 HD
ATOM      5  H   UNL     1      62.222  -5.517   0.905  1.00  0.00     0.345 HD
ATOM      6  H   UNL     1      61.095  -6.063   2.061  1.00  0.00     0.345 HD
ENDBRANCH   2   3
BRANCH   2   7
ATOM      7  C   UNL     1      61.763  -3.938   3.223  1.00  0.00     0.099 C 
ATOM      8  O   UNL     1      61.943  -4.993   3.886  1.00  0.00    -0.544 OA
ATOM      9  O   UNL     1      62.118  -2.713   3.775  1.00  0.00    -0.544 OA
ENDBRANCH   2   7
ENDBRANCH   1   2
BRANCH   1  10
ATOM     10  C   UNL     1      61.077  -2.784  -0.364  1.00  0.00    -0.041 A 
ATOM     11  C   UNL     1      61.776  -2.724  -1.581  1.00  0.00     0.008 A 
ATOM     12  C   UNL     1      59.680  -2.639  -0.366  1.00  0.00     0.008 A 
ATOM     13  C   UNL     1      61.085  -2.534  -2.782  1.00  0.00     0.046 A 
ATOM     14  C   UNL     1      58.992  -2.449  -1.568  1.00  0.00     0.046 A 
ATOM     15  C   UNL     1      59.691  -2.397  -2.778  1.00  0.00     0.115 A 
BRANCH  15  16
ATOM     16  O   UNL     1      58.992  -2.208  -3.968  1.00  0.00    -0.508 OA
ATOM     17  H   UNL     1      58.481  -2.965  -4.408  1.00  0.00     0.293 HD
ENDBRANCH  15  16
ENDBRANCH   1  10
TORSDOF 5
ENDMDL
MODEL 6
REMARK VINA RESULT:    -5.019      4.417      5.678
REMARK INTER + INTRA:          -6.421
REMARK INTER:                  -6.219
REMARK INTRA:                  -0.202
REMARK UNBOUND:                -0.229
REMARK SMILES [NH3+][C@H](Cc1ccc(O)cc1)C(=O)[O-]
REMARK SMILES IDX 3 1 2 2 1 3 11 7 12 8 13 9 4 10 5 11 10 12 6 13 9 14 7 15
REMARK SMILES IDX 8 16
REMARK H PARENT 1 4 1 5 1 6 8 17
REMARK Flexibility Score: inf
ROOT
ATOM      1  C   UNL     1      62.643  -2.472   6.354  1.00  0.00     0.107 C 
ENDROOT
BRANCH   1   2
ATOM      2  C   UNL     1      61.401  -1.591   6.603  1.00  0.00     0.232 C 
BRANCH   2   3
ATOM      3  N   UNL     1      60.676  -2.011   7.809  1.00  0.00    -0.350 N 
ATOM      4  H   UNL     1      61.049  -2.926   8.151  1.00  0.00     0.345 HD
ATOM      5  H   UNL     1      60.770  -1.296   8.567  1.00  0.00     0.345 HD
ATOM      6  H   UNL     1      59.662  -2.143   7.587  1.00  0.00     0.345 HD
ENDBRANCH   2   3
BRANCH   2   7
ATOM      7  C   UNL     1      61.822  -0.150   6.727  1.00  0.00     0.099 C 
ATOM      8  O   UNL     1      62.123   0.327   7.853  1.00  0.00    -0.544 OA
ATOM      9  O   UNL     1      61.861   0.668   5.604  1.00  0.00    -0.544 OA
ENDBRANCH   2   7
ENDBRANCH   1   2
BRANCH   1  10
ATOM     10  C   UNL     1      62.682  -3.004   4.944  1.00  0.00    -0.041 A 
ATOM     11  C   UNL     1      63.075  -2.169   3.885  1.00  0.00     0.008 A 
ATOM     12  C   UNL     1      62.292  -4.326   4.670  1.00  0.00     0.008 A 
ATOM     13  C   UNL     1      63.090  -2.654   2.574  1.00  0.00     0.046 A 
ATOM     14  C   UNL     1      62.307  -4.807   3.357  1.00  0.00     0.046 A 
ATOM     15  C   UNL     1      62.706  -3.974   2.307  1.00  0.00     0.115 A 
BRANCH  15  16
ATOM     16  O   UNL     1      62.716  -4.468   1.004  1.00  0.00    -0.508 OA
ATOM     17  H   UNL     1      62.467  -3.884   0.214  1.00  0.00     0.293 HD
ENDBRANCH  15  16
ENDBRANCH   1  10
TORSDOF 5
ENDMDL
MODEL 7
REMARK VINA RESULT:    -5.004      4.152      5.675
REMARK INTER + INTRA:          -6.403
REMARK INTER:                  -6.135
REMARK INTRA:                  -0.267
REMARK UNBOUND:                -0.229
REMARK SMILES [NH3+][C@H](Cc1ccc(O)cc1)C(=O)[O-]
REMARK SMILES IDX 3 1 2 2 1 3 11 7 12 8 13 9 4 10 5 11 10 12 6 13 9 14 7 15
REMARK SMILES IDX 8 16
REMARK H PARENT 1 4 1 5 1 6 8 17
REMARK Flexibility Score: inf
ROOT
ATOM      1  C   UNL     1      63.591  -3.545   4.760  1.00  0.00     0.107 C 
ENDROOT
BRANCH   1   2
ATOM      2  C   UNL     1      63.417  -3.633   3.230  1.00  0.00     0.232 C 
BRANCH   2   3
ATOM      3  N   UNL     1      64.338  -4.612   2.638  1.00  0.00    -0.350 N 
ATOM      4  H   UNL     1      64.222  -5.541   3.105  1.00  0.00     0.345 HD
ATOM      5  H   UNL     1      64.160  -4.717   1.613  1.00  0.00     0.345 HD
ATOM      6  H   UNL     1      65.327  -4.304   2.784  1.00  0.00     0.345 HD
ENDBRANCH   2   3
BRANCH   2   7
ATOM      7  C   UNL     1      61.993  -4.000   2.904  1.00  0.00     0.099 C 
ATOM      8  O   UNL     1      61.532  -5.118   3.253  1.00  0.00    -0.544 OA
ATOM      9  O   UNL     1      61.186  -3.115   2.199  1.00  0.00    -0.544 OA
ENDBRANCH   2   7
ENDBRANCH   1   2
BRANCH   1  10
ATOM     10  C   UNL     1      62.989  -2.284   5.324  1.00  0.00    -0.041 A 
ATOM     11  C   UNL     1      63.417  -1.029   4.859  1.00  0.00     0.008 A 
ATOM     12  C   UNL     1      62.024  -2.348   6.343  1.00  0.00     0.008 A 
ATOM     13  C   UNL     1      62.877   0.143   5.398  1.00  0.00     0.046 A 
ATOM     14  C   UNL     1      61.486  -1.174   6.880  1.00  0.00     0.046 A 
ATOM     15  C   UNL     1      61.910   0.073   6.409  1.00  0.00     0.115 A 
BRANCH  15  16
ATOM     16  O   UNL     1      61.365   1.234   6.953  1.00  0.00    -0.508 OA
ATOM     17  H   UNL     1      60.457   1.579   6.661  1.00  0.00     0.293 HD
ENDBRANCH  15  16
ENDBRANCH   1  10
TORSDOF 5
ENDMDL
MODEL 8
REMARK VINA RESULT:    -4.898      3.811      5.438
REMARK INTER + INTRA:          -6.272
REMARK INTER:                  -6.127
REMARK INTRA:                  -0.145
REMARK UNBOUND:                -0.229
REMARK SMILES [NH3+][C@H](Cc1ccc(O)cc1)C(=O)[O-]
REMARK SMILES IDX 3 1 2 2 1 3 11 7 12 8 13 9 4 10 5 11 10 12 6 13 9 14 7 15
REMARK SMILES IDX 8 16
REMARK H PARENT 1 4 1 5 1 6 8 17
REMARK Flexibility Score: inf
ROOT
ATOM      1  C   UNL     1      62.664  -1.559   6.943  1.00  0.00     0.107 C 
ENDROOT
BRANCH   1   2
ATOM      2  C   UNL     1      61.302  -0.949   7.332  1.00  0.00     0.232 C 
BRANCH   2   3
ATOM      3  N   UNL     1      60.400  -1.961   7.899  1.00  0.00    -0.350 N 
ATOM      4  H   UNL     1      59.485  -1.950   7.391  1.00  0.00     0.345 HD
ATOM      5  H   UNL     1      60.822  -2.915   7.828  1.00  0.00     0.345 HD
ATOM      6  H   UNL     1      60.210  -1.744   8.904  1.00  0.00     0.345 HD
ENDBRANCH   2   3
BRANCH   2   7
ATOM      7  C   UNL     1      61.512   0.168   8.319  1.00  0.00     0.099 C 
ATOM      8  O   UNL     1      61.668   1.350   7.914  1.00  0.00    -0.544 OA
ATOM      9  O   UNL     1      61.555  -0.100   9.682  1.00  0.00    -0.544 OA
ENDBRANCH   2   7
ENDBRANCH   1   2
BRANCH   1  10
ATOM     10  C   UNL     1      62.712  -1.952   5.489  1.00  0.00    -0.041 A 
ATOM     11  C   UNL     1      62.220  -3.203   5.080  1.00  0.00     0.008 A 
ATOM     12  C   UNL     1      63.278  -1.090   4.536  1.00  0.00     0.008 A 
ATOM     13  C   UNL     1      62.285  -3.579   3.735  1.00  0.00     0.046 A 
ATOM     14  C   UNL     1      63.342  -1.469   3.191  1.00  0.00     0.046 A 
ATOM     15  C   UNL     1      62.845  -2.713   2.787  1.00  0.00     0.115 A 
BRANCH  15  16
ATOM     16  O   UNL     1      62.914  -3.077   1.444  1.00  0.00    -0.508 OA
ATOM     17  H   UNL     1      63.676  -3.643   1.088  1.00  0.00     0.293 HD
ENDBRANCH  15  16
ENDBRANCH   1  10
TORSDOF 5
ENDMDL
MODEL 9
REMARK VINA RESULT:    -4.889      3.419      4.838
REMARK INTER + INTRA:          -6.261
REMARK INTER:                  -6.071
REMARK INTRA:                  -0.190
REMARK UNBOUND:                -0.229
REMARK SMILES [NH3+][C@H](Cc1ccc(O)cc1)C(=O)[O-]
REMARK SMILES IDX 3 1 2 2 1 3 11 7 12 8 13 9 4 10 5 11 10 12 6 13 9 14 7 15
REMARK SMILES IDX 8 16
REMARK H PARENT 1 4 1 5 1 6 8 17
REMARK Flexibility Score: inf
ROOT
ATOM      1  C   UNL     1      61.835  -2.277   6.385  1.00  0.00     0.107 C 
ENDROOT
BRANCH   1   2
ATOM      2  C   UNL     1      62.831  -2.405   5.213  1.00  0.00     0.232 C 
BRANCH   2   3
ATOM      3  N   UNL     1      64.142  -2.886   5.671  1.00  0.00    -0.350 N 
ATOM      4  H   UNL     1      64.123  -3.046   6.704  1.00  0.00     0.345 HD
ATOM      5  H   UNL     1      64.399  -3.777   5.188  1.00  0.00     0.345 HD
ATOM      6  H   UNL     1      64.873  -2.165   5.473  1.00  0.00     0.345 HD
ENDBRANCH   2   3
BRANCH   2   7
ATOM      7  C   UNL     1      62.270  -3.340   4.175  1.00  0.00     0.099 C 
ATOM      8  O   UNL     1      61.770  -2.882   3.114  1.00  0.00    -0.544 OA
ATOM      9  O   UNL     1      62.283  -4.714   4.389  1.00  0.00    -0.544 OA
ENDBRANCH   2   7
ENDBRANCH   1   2
BRANCH   1  10
ATOM     10  C   UNL     1      61.749  -0.863   6.899  1.00  0.00    -0.041 A 
ATOM     11  C   UNL     1      61.199  -0.605   8.166  1.00  0.00     0.008 A 
ATOM     12  C   UNL     1      62.184   0.211   6.106  1.00  0.00     0.008 A 
ATOM     13  C   UNL     1      61.097   0.708   8.635  1.00  0.00     0.046 A 
ATOM     14  C   UNL     1      62.080   1.524   6.578  1.00  0.00     0.046 A 
ATOM     15  C   UNL     1      61.538   1.776   7.843  1.00  0.00     0.115 A 
BRANCH  15  16
ATOM     16  O   UNL     1      61.441   3.088   8.299  1.00  0.00    -0.508 OA
ATOM     17  H   UNL     1      61.901   3.852   7.816  1.00  0.00     0.293 HD
ENDBRANCH  15  16
ENDBRANCH   1  10
TORSDOF 5
ENDMDL
