MODEL 1
REMARK VINA RESULT:    -2.516      0.000      0.000
REMARK INTER + INTRA:          -3.396
REMARK INTER:                  -3.105
REMARK INTRA:                  -0.291
REMARK UNBOUND:                -0.291
REMARK SMILES C=CC[C@@H](C)C(=O)CC
REMARK SMILES IDX 4 1 5 2 6 3 7 4 8 5 9 6 3 7 2 8 1 9
REMARK H PARENT
REMARK Flexibility Score: inf
ROOT
ATOM      1  C   UNL     1     -10.012 -23.034  22.741  1.00  0.00     0.057 C 
ATOM      2  C   UNL     1     -10.732 -24.334  22.357  1.00  0.00     0.016 C 
ENDROOT
BRANCH   1   3
ATOM      3  C   UNL     1      -9.794 -22.181  21.510  1.00  0.00     0.135 C 
ATOM      4  O   UNL     1      -8.662 -22.026  21.074  1.00  0.00    -0.299 OA
BRANCH   3   5
ATOM      5  C   UNL     1     -10.948 -21.513  20.809  1.00  0.00     0.072 C 
ATOM      6  C   UNL     1     -10.776 -21.583  19.296  1.00  0.00     0.012 C 
ENDBRANCH   3   5
ENDBRANCH   1   3
BRANCH   1   7
ATOM      7  C   UNL     1     -10.803 -22.235  23.800  1.00  0.00     0.038 C 
BRANCH   7   8
ATOM      8  C   UNL     1      -9.934 -21.781  24.944  1.00  0.00    -0.034 C 
ATOM      9  C   UNL     1      -8.624 -22.042  24.979  1.00  0.00     0.004 C 
ENDBRANCH   7   8
ENDBRANCH   1   7
TORSDOF 4
ENDMDL
MODEL 2
REMARK VINA RESULT:    -2.507      1.772      4.051
REMARK INTER + INTRA:          -3.384
REMARK INTER:                  -3.190
REMARK INTRA:                  -0.194
REMARK UNBOUND:                -0.291
REMARK SMILES C=CC[C@@H](C)C(=O)CC
REMARK SMILES IDX 4 1 5 2 6 3 7 4 8 5 9 6 3 7 2 8 1 9
REMARK H PARENT
REMARK Flexibility Score: inf
ROOT
ATOM      1  C   UNL     1      -9.003 -23.549  21.757  1.00  0.00     0.057 C 
ATOM      2  C   UNL     1      -7.810 -24.337  21.196  1.00  0.00     0.016 C 
ENDROOT
BRANCH   1   3
ATOM      3  C   UNL     1      -8.891 -23.447  23.263  1.00  0.00     0.135 C 
ATOM      4  O   UNL     1      -8.275 -24.302  23.884  1.00  0.00    -0.299 OA
BRANCH   3   5
ATOM      5  C   UNL     1      -9.530 -22.311  24.018  1.00  0.00     0.072 C 
ATOM      6  C   UNL     1      -8.593 -21.786  25.100  1.00  0.00     0.012 C 
ENDBRANCH   3   5
ENDBRANCH   1   3
BRANCH   1   7
ATOM      7  C   UNL     1      -9.095 -22.136  21.140  1.00  0.00     0.038 C 
BRANCH   7   8
ATOM      8  C   UNL     1     -10.471 -21.830  20.609  1.00  0.00    -0.034 C 
ATOM      9  C   UNL     1     -10.671 -21.473  19.337  1.00  0.00     0.004 C 
ENDBRANCH   7   8
ENDBRANCH   1   7
TORSDOF 4
ENDMDL
MODEL 3
REMARK VINA RESULT:    -2.447     12.146     13.990
REMARK INTER + INTRA:          -3.311
REMARK INTER:                  -3.029
REMARK INTRA:                  -0.282
REMARK UNBOUND:                -0.291
REMARK SMILES C=CC[C@@H](C)C(=O)CC
REMARK SMILES IDX 4 1 5 2 6 3 7 4 8 5 9 6 3 7 2 8 1 9
REMARK H PARENT
REMARK Flexibility Score: inf
ROOT
ATOM      1  C   UNL     1     -11.039 -21.384   8.318  1.00  0.00     0.057 C 
ATOM      2  C   UNL     1     -10.575 -21.700   6.889  1.00  0.00     0.016 C 
ENDROOT
BRANCH   1   3
ATOM      3  C   UNL     1     -10.164 -22.110   9.318  1.00  0.00     0.135 C 
ATOM      4  O   UNL     1      -8.970 -22.251   9.087  1.00  0.00    -0.299 OA
BRANCH   3   5
ATOM      5  C   UNL     1     -10.736 -22.670  10.594  1.00  0.00     0.072 C 
ATOM      6  C   UNL     1     -10.740 -24.194  10.562  1.00  0.00     0.012 C 
ENDBRANCH   3   5
ENDBRANCH   1   3
BRANCH   1   7
ATOM      7  C   UNL     1     -11.014 -19.867   8.604  1.00  0.00     0.038 C 
BRANCH   7   8
ATOM      8  C   UNL     1      -9.940 -19.153   7.826  1.00  0.00    -0.034 C 
ATOM      9  C   UNL     1      -8.838 -18.681   8.417  1.00  0.00     0.004 C 
ENDBRANCH   7   8
ENDBRANCH   1   7
TORSDOF 4
ENDMDL
MODEL 4
REMARK VINA RESULT:    -2.415      2.057      4.036
REMARK INTER + INTRA:          -3.271
REMARK INTER:                  -2.966
REMARK INTRA:                  -0.304
REMARK UNBOUND:                -0.291
REMARK SMILES C=CC[C@@H](C)C(=O)CC
REMARK SMILES IDX 4 1 5 2 6 3 7 4 8 5 9 6 3 7 2 8 1 9
REMARK H PARENT
REMARK Flexibility Score: inf
ROOT
ATOM      1  C   UNL     1      -9.151 -22.790  21.358  1.00  0.00     0.057 C 
ATOM      2  C   UNL     1      -9.820 -21.823  20.371  1.00  0.00     0.016 C 
ENDROOT
BRANCH   1   3
ATOM      3  C   UNL     1      -9.560 -22.445  22.775  1.00  0.00     0.135 C 
ATOM      4  O   UNL     1     -10.518 -21.709  22.966  1.00  0.00    -0.299 OA
BRANCH   3   5
ATOM      5  C   UNL     1      -8.805 -22.990  23.959  1.00  0.00     0.072 C 
ATOM      6  C   UNL     1      -8.626 -21.917  25.027  1.00  0.00     0.012 C 
ENDBRANCH   3   5
ENDBRANCH   1   3
BRANCH   1   7
ATOM      7  C   UNL     1      -9.511 -24.260  21.051  1.00  0.00     0.038 C 
BRANCH   7   8
ATOM      8  C   UNL     1      -8.296 -25.097  20.749  1.00  0.00    -0.034 C 
ATOM      9  C   UNL     1      -7.059 -24.664  21.012  1.00  0.00     0.004 C 
ENDBRANCH   7   8
ENDBRANCH   1   7
TORSDOF 4
ENDMDL
MODEL 5
REMARK VINA RESULT:    -2.356     12.187     13.498
REMARK INTER + INTRA:          -3.198
REMARK INTER:                  -2.965
REMARK INTRA:                  -0.233
REMARK UNBOUND:                -0.291
REMARK SMILES C=CC[C@@H](C)C(=O)CC
REMARK SMILES IDX 4 1 5 2 6 3 7 4 8 5 9 6 3 7 2 8 1 9
REMARK H PARENT
REMARK Flexibility Score: inf
ROOT
ATOM      1  C   UNL     1      -9.636 -21.712   9.429  1.00  0.00     0.057 C 
ATOM      2  C   UNL     1      -8.757 -22.755   8.724  1.00  0.00     0.016 C 
ENDROOT
BRANCH   1   3
ATOM      3  C   UNL     1     -10.244 -20.774   8.408  1.00  0.00     0.135 C 
ATOM      4  O   UNL     1     -10.722 -21.229   7.377  1.00  0.00    -0.299 OA
BRANCH   3   5
ATOM      5  C   UNL     1     -10.270 -19.286   8.633  1.00  0.00     0.072 C 
ATOM      6  C   UNL     1      -8.906 -18.671   8.341  1.00  0.00     0.012 C 
ENDBRANCH   3   5
ENDBRANCH   1   3
BRANCH   1   7
ATOM      7  C   UNL     1     -10.754 -22.376  10.262  1.00  0.00     0.038 C 
BRANCH   7   8
ATOM      8  C   UNL     1     -10.818 -23.866  10.051  1.00  0.00    -0.034 C 
ATOM      9  C   UNL     1     -11.005 -24.714  11.067  1.00  0.00     0.004 C 
ENDBRANCH   7   8
ENDBRANCH   1   7
TORSDOF 4
ENDMDL
MODEL 6
REMARK VINA RESULT:    -2.355     15.466     16.473
REMARK INTER + INTRA:          -3.197
REMARK INTER:                  -2.760
REMARK INTRA:                  -0.437
REMARK UNBOUND:                -0.291
REMARK SMILES C=CC[C@@H](C)C(=O)CC
REMARK SMILES IDX 4 1 5 2 6 3 7 4 8 5 9 6 3 7 2 8 1 9
REMARK H PARENT
REMARK Flexibility Score: inf
ROOT
ATOM      1  C   UNL     1      -8.781  -6.374  25.356  1.00  0.00     0.057 C 
ATOM      2  C   UNL     1      -8.886  -5.668  23.997  1.00  0.00     0.016 C 
ENDROOT
BRANCH   1   3
ATOM      3  C   UNL     1      -7.468  -6.020  26.022  1.00  0.00     0.135 C 
ATOM      4  O   UNL     1      -6.855  -5.026  25.659  1.00  0.00    -0.299 OA
BRANCH   3   5
ATOM      5  C   UNL     1      -6.898  -6.873  27.124  1.00  0.00     0.072 C 
ATOM      6  C   UNL     1      -7.065  -8.354  26.803  1.00  0.00     0.012 C 
ENDBRANCH   3   5
ENDBRANCH   1   3
BRANCH   1   7
ATOM      7  C   UNL     1      -9.958  -6.003  26.285  1.00  0.00     0.038 C 
BRANCH   7   8
ATOM      8  C   UNL     1     -11.041  -7.049  26.284  1.00  0.00    -0.034 C 
ATOM      9  C   UNL     1     -10.785  -8.328  26.576  1.00  0.00     0.004 C 
ENDBRANCH   7   8
ENDBRANCH   1   7
TORSDOF 4
ENDMDL
MODEL 7
REMARK VINA RESULT:    -2.308      2.059      3.603
REMARK INTER + INTRA:          -3.139
REMARK INTER:                  -2.724
REMARK INTRA:                  -0.415
REMARK UNBOUND:                -0.291
REMARK SMILES C=CC[C@@H](C)C(=O)CC
REMARK SMILES IDX 4 1 5 2 6 3 7 4 8 5 9 6 3 7 2 8 1 9
REMARK H PARENT
REMARK Flexibility Score: inf
ROOT
ATOM      1  C   UNL     1      -9.222 -22.528  23.348  1.00  0.00     0.057 C 
ATOM      2  C   UNL     1      -9.289 -22.012  24.792  1.00  0.00     0.016 C 
ENDROOT
BRANCH   1   3
ATOM      3  C   UNL     1      -8.654 -23.931  23.327  1.00  0.00     0.135 C 
ATOM      4  O   UNL     1      -8.140 -24.391  24.337  1.00  0.00    -0.299 OA
BRANCH   3   5
ATOM      5  C   UNL     1      -8.706 -24.775  22.080  1.00  0.00     0.072 C 
ATOM      6  C   UNL     1      -7.529 -24.459  21.164  1.00  0.00     0.012 C 
ENDBRANCH   3   5
ENDBRANCH   1   3
BRANCH   1   7
ATOM      7  C   UNL     1     -10.610 -22.513  22.672  1.00  0.00     0.038 C 
BRANCH   7   8
ATOM      8  C   UNL     1     -10.672 -21.557  21.510  1.00  0.00    -0.034 C 
ATOM      9  C   UNL     1     -10.242 -21.900  20.292  1.00  0.00     0.004 C 
ENDBRANCH   7   8
ENDBRANCH   1   7
TORSDOF 4
ENDMDL
MODEL 8
REMARK VINA RESULT:    -2.287      1.845      2.708
REMARK INTER + INTRA:          -3.113
REMARK INTER:                  -2.864
REMARK INTRA:                  -0.249
REMARK UNBOUND:                -0.291
REMARK SMILES C=CC[C@@H](C)C(=O)CC
REMARK SMILES IDX 4 1 5 2 6 3 7 4 8 5 9 6 3 7 2 8 1 9
REMARK H PARENT
REMARK Flexibility Score: inf
ROOT
ATOM      1  C   UNL     1     -10.053 -21.749  24.521  1.00  0.00     0.057 C 
ATOM      2  C   UNL     1      -8.590 -21.894  24.965  1.00  0.00     0.016 C 
ENDROOT
BRANCH   1   3
ATOM      3  C   UNL     1     -10.317 -22.629  23.318  1.00  0.00     0.135 C 
ATOM      4  O   UNL     1     -10.365 -23.843  23.455  1.00  0.00    -0.299 OA
BRANCH   3   5
ATOM      5  C   UNL     1     -10.518 -22.037  21.947  1.00  0.00     0.072 C 
ATOM      6  C   UNL     1      -9.239 -22.132  21.124  1.00  0.00     0.012 C 
ENDBRANCH   3   5
ENDBRANCH   1   3
BRANCH   1   7
ATOM      7  C   UNL     1     -11.033 -22.107  25.658  1.00  0.00     0.038 C 
BRANCH   7   8
ATOM      8  C   UNL     1     -10.342 -22.760  26.827  1.00  0.00    -0.034 C 
ATOM      9  C   UNL     1     -10.529 -24.049  27.125  1.00  0.00     0.004 C 
ENDBRANCH   7   8
ENDBRANCH   1   7
TORSDOF 4
ENDMDL
