MODEL 1
REMARK VINA RESULT:    -3.689      0.000      0.000
REMARK INTER + INTRA:          -6.064
REMARK INTER:                  -5.414
REMARK INTRA:                  -0.650
REMARK UNBOUND:                -0.650
REMARK SMILES O=C([O-])CCCCCCCC(=O)[O-]
REMARK SMILES IDX 7 1 6 2 5 3 4 4 2 5 1 6 3 7 8 8 9 9 10 10 11 11 12 12 13 13
REMARK H PARENT
REMARK Flexibility Score: inf
ROOT
ATOM      1  C   UNL     1      28.829 -22.734  25.532  1.00  0.00     0.000 C 
ENDROOT
BRANCH   1   2
ATOM      2  C   UNL     1      28.684 -23.813  24.437  1.00  0.00     0.000 C 
BRANCH   2   3
ATOM      3  C   UNL     1      29.396 -23.420  23.134  1.00  0.00     0.006 C 
BRANCH   3   4
ATOM      4  C   UNL     1      28.795 -22.142  22.541  1.00  0.00     0.053 C 
BRANCH   4   5
ATOM      5  C   UNL     1      29.876 -21.167  22.198  1.00  0.00     0.041 C 
ATOM      6  O   UNL     1      31.073 -21.550  22.120  1.00  0.00    -0.550 OA
ATOM      7  O   UNL     1      29.556 -19.845  21.918  1.00  0.00    -0.550 OA
ENDBRANCH   4   5
ENDBRANCH   3   4
ENDBRANCH   2   3
ENDBRANCH   1   2
BRANCH   1   8
ATOM      8  C   UNL     1      27.486 -22.279  26.136  1.00  0.00     0.000 C 
BRANCH   8   9
ATOM      9  C   UNL     1      27.106 -20.819  25.839  1.00  0.00     0.006 C 
BRANCH   9  10
ATOM     10  C   UNL     1      28.305 -19.971  25.396  1.00  0.00     0.053 C 
BRANCH  10  11
ATOM     11  C   UNL     1      28.730 -19.053  26.499  1.00  0.00     0.041 C 
ATOM     12  O   UNL     1      28.763 -19.464  27.689  1.00  0.00    -0.550 OA
ATOM     13  O   UNL     1      29.137 -17.758  26.205  1.00  0.00    -0.550 OA
ENDBRANCH  10  11
ENDBRANCH   9  10
ENDBRANCH   8   9
ENDBRANCH   1   8
TORSDOF 8
ENDMDL
MODEL 2
REMARK VINA RESULT:    -3.657      1.036      4.325
REMARK INTER + INTRA:          -6.018
REMARK INTER:                  -5.325
REMARK INTRA:                  -0.693
REMARK UNBOUND:                -0.650
REMARK SMILES O=C([O-])CCCCCCCC(=O)[O-]
REMARK SMILES IDX 7 1 6 2 5 3 4 4 2 5 1 6 3 7 8 8 9 9 10 10 11 11 12 12 13 13
REMARK H PARENT
REMARK Flexibility Score: inf
ROOT
ATOM      1  C   UNL     1      28.837 -22.820  25.661  1.00  0.00     0.000 C 
ENDROOT
BRANCH   1   2
ATOM      2  C   UNL     1      27.532 -22.132  26.116  1.00  0.00     0.000 C 
BRANCH   2   3
ATOM      3  C   UNL     1      27.289 -20.802  25.387  1.00  0.00     0.006 C 
BRANCH   3   4
ATOM      4  C   UNL     1      27.468 -19.613  26.336  1.00  0.00     0.053 C 
BRANCH   4   5
ATOM      5  C   UNL     1      28.806 -18.977  26.129  1.00  0.00     0.041 C 
ATOM      6  O   UNL     1      29.445 -18.514  27.111  1.00  0.00    -0.550 OA
ATOM      7  O   UNL     1      29.369 -18.937  24.861  1.00  0.00    -0.550 OA
ENDBRANCH   4   5
ENDBRANCH   3   4
ENDBRANCH   2   3
ENDBRANCH   1   2
BRANCH   1   8
ATOM      8  C   UNL     1      28.646 -23.797  24.484  1.00  0.00     0.000 C 
BRANCH   8   9
ATOM      9  C   UNL     1      29.537 -23.521  23.263  1.00  0.00     0.006 C 
BRANCH   9  10
ATOM     10  C   UNL     1      30.183 -22.129  23.301  1.00  0.00     0.053 C 
BRANCH  10  11
ATOM     11  C   UNL     1      29.617 -21.263  22.220  1.00  0.00     0.041 C 
ATOM     12  O   UNL     1      28.377 -21.248  22.004  1.00  0.00    -0.550 OA
ATOM     13  O   UNL     1      30.455 -20.434  21.486  1.00  0.00    -0.550 OA
ENDBRANCH  10  11
ENDBRANCH   9  10
ENDBRANCH   8   9
ENDBRANCH   1   8
TORSDOF 8
ENDMDL
MODEL 3
REMARK VINA RESULT:    -3.592      1.583      5.020
REMARK INTER + INTRA:          -5.922
REMARK INTER:                  -5.156
REMARK INTRA:                  -0.766
REMARK UNBOUND:                -0.650
REMARK SMILES O=C([O-])CCCCCCCC(=O)[O-]
REMARK SMILES IDX 7 1 6 2 5 3 4 4 2 5 1 6 3 7 8 8 9 9 10 10 11 11 12 12 13 13
REMARK H PARENT
REMARK Flexibility Score: inf
ROOT
ATOM      1  C   UNL     1      27.442 -22.285  25.955  1.00  0.00     0.000 C 
ENDROOT
BRANCH   1   2
ATOM      2  C   UNL     1      27.604 -20.766  25.734  1.00  0.00     0.000 C 
BRANCH   2   3
ATOM      3  C   UNL     1      29.002 -20.265  26.128  1.00  0.00     0.006 C 
BRANCH   3   4
ATOM      4  C   UNL     1      28.948 -19.442  27.419  1.00  0.00     0.053 C 
BRANCH   4   5
ATOM      5  C   UNL     1      29.500 -20.230  28.564  1.00  0.00     0.041 C 
ATOM      6  O   UNL     1      30.027 -21.356  28.363  1.00  0.00    -0.550 OA
ATOM      7  O   UNL     1      29.474 -19.701  29.848  1.00  0.00    -0.550 OA
ENDBRANCH   4   5
ENDBRANCH   3   4
ENDBRANCH   2   3
ENDBRANCH   1   2
BRANCH   1   8
ATOM      8  C   UNL     1      28.706 -23.099  25.618  1.00  0.00     0.000 C 
BRANCH   8   9
ATOM      9  C   UNL     1      28.676 -23.806  24.253  1.00  0.00     0.006 C 
BRANCH   9  10
ATOM     10  C   UNL     1      29.867 -23.430  23.362  1.00  0.00     0.053 C 
BRANCH  10  11
ATOM     11  C   UNL     1      29.717 -22.030  22.856  1.00  0.00     0.041 C 
ATOM     12  O   UNL     1      30.682 -21.224  22.926  1.00  0.00    -0.550 OA
ATOM     13  O   UNL     1      28.527 -21.631  22.261  1.00  0.00    -0.550 OA
ENDBRANCH  10  11
ENDBRANCH   9  10
ENDBRANCH   8   9
ENDBRANCH   1   8
TORSDOF 8
ENDMDL
MODEL 4
REMARK VINA RESULT:    -3.591      1.575      3.861
REMARK INTER + INTRA:          -5.921
REMARK INTER:                  -5.111
REMARK INTRA:                  -0.810
REMARK UNBOUND:                -0.650
REMARK SMILES O=C([O-])CCCCCCCC(=O)[O-]
REMARK SMILES IDX 7 1 6 2 5 3 4 4 2 5 1 6 3 7 8 8 9 9 10 10 11 11 12 12 13 13
REMARK H PARENT
REMARK Flexibility Score: inf
ROOT
ATOM      1  C   UNL     1      29.437 -22.709  23.922  1.00  0.00     0.000 C 
ENDROOT
BRANCH   1   2
ATOM      2  C   UNL     1      28.586 -23.589  24.863  1.00  0.00     0.000 C 
BRANCH   2   3
ATOM      3  C   UNL     1      27.962 -22.781  26.011  1.00  0.00     0.006 C 
BRANCH   3   4
ATOM      4  C   UNL     1      28.893 -21.651  26.458  1.00  0.00     0.053 C 
BRANCH   4   5
ATOM      5  C   UNL     1      28.191 -20.332  26.377  1.00  0.00     0.041 C 
ATOM      6  O   UNL     1      27.171 -20.202  25.650  1.00  0.00    -0.550 OA
ATOM      7  O   UNL     1      28.635 -19.260  27.140  1.00  0.00    -0.550 OA
ENDBRANCH   4   5
ENDBRANCH   3   4
ENDBRANCH   2   3
ENDBRANCH   1   2
BRANCH   1   8
ATOM      8  C   UNL     1      28.715 -22.318  22.618  1.00  0.00     0.000 C 
BRANCH   8   9
ATOM      9  C   UNL     1      28.814 -20.830  22.245  1.00  0.00     0.006 C 
BRANCH   9  10
ATOM     10  C   UNL     1      29.841 -20.072  23.096  1.00  0.00     0.053 C 
BRANCH  10  11
ATOM     11  C   UNL     1      29.569 -18.601  23.055  1.00  0.00     0.041 C 
ATOM     12  O   UNL     1      29.673 -17.908  24.101  1.00  0.00    -0.550 OA
ATOM     13  O   UNL     1      29.249 -17.989  21.850  1.00  0.00    -0.550 OA
ENDBRANCH  10  11
ENDBRANCH   9  10
ENDBRANCH   8   9
ENDBRANCH   1   8
TORSDOF 8
ENDMDL
MODEL 5
REMARK VINA RESULT:    -3.578      1.676      2.402
REMARK INTER + INTRA:          -5.901
REMARK INTER:                  -5.157
REMARK INTRA:                  -0.744
REMARK UNBOUND:                -0.650
REMARK SMILES O=C([O-])CCCCCCCC(=O)[O-]
REMARK SMILES IDX 7 1 6 2 5 3 4 4 2 5 1 6 3 7 8 8 9 9 10 10 11 11 12 12 13 13
REMARK H PARENT
REMARK Flexibility Score: inf
ROOT
ATOM      1  C   UNL     1      29.584 -22.680  23.948  1.00  0.00     0.000 C 
ENDROOT
BRANCH   1   2
ATOM      2  C   UNL     1      28.860 -22.329  22.631  1.00  0.00     0.000 C 
BRANCH   2   3
ATOM      3  C   UNL     1      28.598 -20.821  22.493  1.00  0.00     0.006 C 
BRANCH   3   4
ATOM      4  C   UNL     1      29.837 -20.094  21.961  1.00  0.00     0.053 C 
BRANCH   4   5
ATOM      5  C   UNL     1      30.257 -19.017  22.910  1.00  0.00     0.041 C 
ATOM      6  O   UNL     1      29.986 -17.813  22.661  1.00  0.00    -0.550 OA
ATOM      7  O   UNL     1      30.907 -19.347  24.092  1.00  0.00    -0.550 OA
ENDBRANCH   4   5
ENDBRANCH   3   4
ENDBRANCH   2   3
ENDBRANCH   1   2
BRANCH   1   8
ATOM      8  C   UNL     1      28.722 -23.497  24.930  1.00  0.00     0.000 C 
BRANCH   8   9
ATOM      9  C   UNL     1      27.912 -22.658  25.932  1.00  0.00     0.006 C 
BRANCH   9  10
ATOM     10  C   UNL     1      28.599 -21.334  26.290  1.00  0.00     0.053 C 
BRANCH  10  11
ATOM     11  C   UNL     1      27.678 -20.183  26.031  1.00  0.00     0.041 C 
ATOM     12  O   UNL     1      26.440 -20.378  25.904  1.00  0.00    -0.550 OA
ATOM     13  O   UNL     1      28.181 -18.889  25.982  1.00  0.00    -0.550 OA
ENDBRANCH  10  11
ENDBRANCH   9  10
ENDBRANCH   8   9
ENDBRANCH   1   8
TORSDOF 8
ENDMDL
MODEL 6
REMARK VINA RESULT:    -3.503      1.040      4.297
REMARK INTER + INTRA:          -5.792
REMARK INTER:                  -5.104
REMARK INTRA:                  -0.688
REMARK UNBOUND:                -0.650
REMARK SMILES O=C([O-])CCCCCCCC(=O)[O-]
REMARK SMILES IDX 7 1 6 2 5 3 4 4 2 5 1 6 3 7 8 8 9 9 10 10 11 11 12 12 13 13
REMARK H PARENT
REMARK Flexibility Score: inf
ROOT
ATOM      1  C   UNL     1      28.745 -23.454  24.222  1.00  0.00     0.000 C 
ENDROOT
BRANCH   1   2
ATOM      2  C   UNL     1      28.960 -22.399  25.328  1.00  0.00     0.000 C 
BRANCH   2   3
ATOM      3  C   UNL     1      27.666 -22.085  26.094  1.00  0.00     0.006 C 
BRANCH   3   4
ATOM      4  C   UNL     1      27.175 -20.668  25.787  1.00  0.00     0.053 C 
BRANCH   4   5
ATOM      5  C   UNL     1      28.199 -19.659  26.199  1.00  0.00     0.041 C 
ATOM      6  O   UNL     1      28.642 -18.828  25.362  1.00  0.00    -0.550 OA
ATOM      7  O   UNL     1      28.631 -19.604  27.518  1.00  0.00    -0.550 OA
ENDBRANCH   4   5
ENDBRANCH   3   4
ENDBRANCH   2   3
ENDBRANCH   1   2
BRANCH   1   8
ATOM      8  C   UNL     1      28.865 -22.888  22.794  1.00  0.00     0.000 C 
BRANCH   8   9
ATOM      9  C   UNL     1      28.843 -21.353  22.702  1.00  0.00     0.006 C 
BRANCH   9  10
ATOM     10  C   UNL     1      29.965 -20.795  21.816  1.00  0.00     0.053 C 
BRANCH  10  11
ATOM     11  C   UNL     1      31.240 -20.693  22.592  1.00  0.00     0.041 C 
ATOM     12  O   UNL     1      31.233 -20.232  23.764  1.00  0.00    -0.550 OA
ATOM     13  O   UNL     1      32.427 -21.156  22.040  1.00  0.00    -0.550 OA
ENDBRANCH  10  11
ENDBRANCH   9  10
ENDBRANCH   8   9
ENDBRANCH   1   8
TORSDOF 8
ENDMDL
MODEL 7
REMARK VINA RESULT:    -3.498      1.493      2.678
REMARK INTER + INTRA:          -5.784
REMARK INTER:                  -5.033
REMARK INTRA:                  -0.752
REMARK UNBOUND:                -0.650
REMARK SMILES O=C([O-])CCCCCCCC(=O)[O-]
REMARK SMILES IDX 7 1 6 2 5 3 4 4 2 5 1 6 3 7 8 8 9 9 10 10 11 11 12 12 13 13
REMARK H PARENT
REMARK Flexibility Score: inf
ROOT
ATOM      1  C   UNL     1      28.795 -22.767  22.784  1.00  0.00     0.000 C 
ENDROOT
BRANCH   1   2
ATOM      2  C   UNL     1      28.598 -21.310  22.312  1.00  0.00     0.000 C 
BRANCH   2   3
ATOM      3  C   UNL     1      29.629 -20.352  22.928  1.00  0.00     0.006 C 
BRANCH   3   4
ATOM      4  C   UNL     1      30.575 -19.801  21.857  1.00  0.00     0.053 C 
BRANCH   4   5
ATOM      5  C   UNL     1      31.605 -20.823  21.493  1.00  0.00     0.041 C 
ATOM      6  O   UNL     1      31.824 -21.099  20.284  1.00  0.00    -0.550 OA
ATOM      7  O   UNL     1      32.358 -21.435  22.487  1.00  0.00    -0.550 OA
ENDBRANCH   4   5
ENDBRANCH   3   4
ENDBRANCH   2   3
ENDBRANCH   1   2
BRANCH   1   8
ATOM      8  C   UNL     1      29.423 -22.884  24.186  1.00  0.00     0.000 C 
BRANCH   8   9
ATOM      9  C   UNL     1      28.413 -22.975  25.342  1.00  0.00     0.006 C 
BRANCH   9  10
ATOM     10  C   UNL     1      28.753 -22.031  26.503  1.00  0.00     0.053 C 
BRANCH  10  11
ATOM     11  C   UNL     1      28.051 -20.721  26.332  1.00  0.00     0.041 C 
ATOM     12  O   UNL     1      28.500 -19.684  26.888  1.00  0.00    -0.550 OA
ATOM     13  O   UNL     1      26.931 -20.635  25.515  1.00  0.00    -0.550 OA
ENDBRANCH  10  11
ENDBRANCH   9  10
ENDBRANCH   8   9
ENDBRANCH   1   8
TORSDOF 8
ENDMDL
MODEL 8
REMARK VINA RESULT:    -3.418      2.332      3.518
REMARK INTER + INTRA:          -5.666
REMARK INTER:                  -5.014
REMARK INTRA:                  -0.652
REMARK UNBOUND:                -0.650
REMARK SMILES O=C([O-])CCCCCCCC(=O)[O-]
REMARK SMILES IDX 7 1 6 2 5 3 4 4 2 5 1 6 3 7 8 8 9 9 10 10 11 11 12 12 13 13
REMARK H PARENT
REMARK Flexibility Score: inf
ROOT
ATOM      1  C   UNL     1      27.577 -19.543  26.371  1.00  0.00     0.000 C 
ENDROOT
BRANCH   1   2
ATOM      2  C   UNL     1      27.296 -20.862  25.620  1.00  0.00     0.000 C 
BRANCH   2   3
ATOM      3  C   UNL     1      28.587 -21.596  25.224  1.00  0.00     0.006 C 
BRANCH   3   4
ATOM      4  C   UNL     1      28.423 -23.112  25.363  1.00  0.00     0.053 C 
BRANCH   4   5
ATOM      5  C   UNL     1      28.843 -23.800  24.103  1.00  0.00     0.041 C 
ATOM      6  O   UNL     1      29.189 -25.011  24.128  1.00  0.00    -0.550 OA
ATOM      7  O   UNL     1      28.809 -23.119  22.894  1.00  0.00    -0.550 OA
ENDBRANCH   4   5
ENDBRANCH   3   4
ENDBRANCH   2   3
ENDBRANCH   1   2
BRANCH   1   8
ATOM      8  C   UNL     1      28.931 -18.901  26.009  1.00  0.00     0.000 C 
BRANCH   8   9
ATOM      9  C   UNL     1      29.909 -18.747  27.185  1.00  0.00     0.006 C 
BRANCH   9  10
ATOM     10  C   UNL     1      29.465 -19.525  28.432  1.00  0.00     0.053 C 
BRANCH  10  11
ATOM     11  C   UNL     1      30.190 -20.831  28.516  1.00  0.00     0.041 C 
ATOM     12  O   UNL     1      29.546 -21.908  28.610  1.00  0.00    -0.550 OA
ATOM     13  O   UNL     1      31.577 -20.861  28.439  1.00  0.00    -0.550 OA
ENDBRANCH  10  11
ENDBRANCH   9  10
ENDBRANCH   8   9
ENDBRANCH   1   8
TORSDOF 8
ENDMDL
MODEL 9
REMARK VINA RESULT:    -3.384      2.311      3.615
REMARK INTER + INTRA:          -5.616
REMARK INTER:                  -4.975
REMARK INTRA:                  -0.641
REMARK UNBOUND:                -0.650
REMARK SMILES O=C([O-])CCCCCCCC(=O)[O-]
REMARK SMILES IDX 7 1 6 2 5 3 4 4 2 5 1 6 3 7 8 8 9 9 10 10 11 11 12 12 13 13
REMARK H PARENT
REMARK Flexibility Score: inf
ROOT
ATOM      1  C   UNL     1      28.776 -20.912  22.446  1.00  0.00     0.000 C 
ENDROOT
BRANCH   1   2
ATOM      2  C   UNL     1      29.741 -20.132  23.365  1.00  0.00     0.000 C 
BRANCH   2   3
ATOM      3  C   UNL     1      31.089 -19.846  22.687  1.00  0.00     0.006 C 
BRANCH   3   4
ATOM      4  C   UNL     1      31.022 -20.134  21.184  1.00  0.00     0.053 C 
BRANCH   4   5
ATOM      5  C   UNL     1      32.087 -21.107  20.790  1.00  0.00     0.041 C 
ATOM      6  O   UNL     1      32.923 -20.804  19.898  1.00  0.00    -0.550 OA
ATOM      7  O   UNL     1      32.187 -22.330  21.440  1.00  0.00    -0.550 OA
ENDBRANCH   4   5
ENDBRANCH   3   4
ENDBRANCH   2   3
ENDBRANCH   1   2
BRANCH   1   8
ATOM      8  C   UNL     1      28.754 -22.429  22.715  1.00  0.00     0.000 C 
BRANCH   8   9
ATOM      9  C   UNL     1      29.388 -22.859  24.048  1.00  0.00     0.006 C 
BRANCH   9  10
ATOM     10  C   UNL     1      28.366 -23.448  25.029  1.00  0.00     0.053 C 
BRANCH  10  11
ATOM     11  C   UNL     1      28.082 -22.477  26.132  1.00  0.00     0.041 C 
ATOM     12  O   UNL     1      27.278 -21.526  25.948  1.00  0.00    -0.550 OA
ATOM     13  O   UNL     1      28.669 -22.654  27.379  1.00  0.00    -0.550 OA
ENDBRANCH  10  11
ENDBRANCH   9  10
ENDBRANCH   8   9
ENDBRANCH   1   8
TORSDOF 8
ENDMDL
