MODEL 1
REMARK VINA RESULT:    -4.858      0.000      0.000
REMARK INTER + INTRA:          -5.888
REMARK INTER:                  -5.710
REMARK INTRA:                  -0.178
REMARK UNBOUND:                -0.178
REMARK SMILES COc1cc2ccc(=O)oc2c(OC)c1OC
REMARK SMILES IDX 3 1 15 2 12 3 11 4 5 5 4 6 6 7 7 8 8 9 9 10 10 11 2 12 1 13
REMARK SMILES IDX 16 14 17 15 13 16 14 17
REMARK H PARENT
REMARK Flexibility Score: inf
ROOT
ATOM      1  C   UNL     1      18.807  -0.334 -17.020  1.00  0.00     0.165 A 
ATOM      2  C   UNL     1      19.932   0.443 -16.696  1.00  0.00     0.207 A 
ATOM      3  C   UNL     1      20.837   0.837 -17.708  1.00  0.00     0.208 A 
ATOM      4  C   UNL     1      20.661   0.370 -19.016  1.00  0.00     0.184 A 
ATOM      5  C   UNL     1      19.549  -0.436 -19.334  1.00  0.00     0.025 A 
ATOM      6  C   UNL     1      18.619  -0.772 -18.343  1.00  0.00     0.062 A 
ATOM      7  C   UNL     1      19.399  -0.876 -20.654  1.00  0.00     0.020 A 
ATOM      8  C   UNL     1      20.343  -0.507 -21.611  1.00  0.00     0.094 A 
ATOM      9  C   UNL     1      21.419   0.297 -21.224  1.00  0.00     0.336 A 
ATOM     10  O   UNL     1      22.282   0.644 -22.074  1.00  0.00    -0.246 OA
ATOM     11  O   UNL     1      21.537   0.702 -19.963  1.00  0.00    -0.419 OA
ENDROOT
BRANCH   1  12
ATOM     12  O   UNL     1      17.910  -0.665 -15.991  1.00  0.00    -0.493 OA
ATOM     13  C   UNL     1      17.874  -1.923 -15.325  1.00  0.00     0.278 C 
ENDBRANCH   1  12
BRANCH   2  14
ATOM     14  O   UNL     1      20.133   0.795 -15.358  1.00  0.00    -0.490 OA
ATOM     15  C   UNL     1      19.606   1.995 -14.800  1.00  0.00     0.278 C 
ENDBRANCH   2  14
BRANCH   3  16
ATOM     16  O   UNL     1      21.907   1.700 -17.445  1.00  0.00    -0.490 OA
ATOM     17  C   UNL     1      23.085   1.270 -16.770  1.00  0.00     0.278 C 
ENDBRANCH   3  16
TORSDOF 3
ENDMDL
MODEL 2
REMARK VINA RESULT:    -4.703      1.255      1.620
REMARK INTER + INTRA:          -5.707
REMARK INTER:                  -5.500
REMARK INTRA:                  -0.206
REMARK UNBOUND:                -0.178
REMARK SMILES COc1cc2ccc(=O)oc2c(OC)c1OC
REMARK SMILES IDX 3 1 15 2 12 3 11 4 5 5 4 6 6 7 7 8 8 9 9 10 10 11 2 12 1 13
REMARK SMILES IDX 16 14 17 15 13 16 14 17
REMARK H PARENT
REMARK Flexibility Score: inf
ROOT
ATOM      1  C   UNL     1      19.866   0.529 -16.434  1.00  0.00     0.165 A 
ATOM      2  C   UNL     1      21.113   1.124 -16.688  1.00  0.00     0.207 A 
ATOM      3  C   UNL     1      21.647   1.121 -17.998  1.00  0.00     0.208 A 
ATOM      4  C   UNL     1      20.974   0.440 -19.019  1.00  0.00     0.184 A 
ATOM      5  C   UNL     1      19.738  -0.185 -18.756  1.00  0.00     0.025 A 
ATOM      6  C   UNL     1      19.180  -0.124 -17.474  1.00  0.00     0.062 A 
ATOM      7  C   UNL     1      19.088  -0.847 -19.803  1.00  0.00     0.020 A 
ATOM      8  C   UNL     1      19.674  -0.871 -21.069  1.00  0.00     0.094 A 
ATOM      9  C   UNL     1      20.901  -0.228 -21.257  1.00  0.00     0.336 A 
ATOM     10  O   UNL     1      21.447  -0.235 -22.391  1.00  0.00    -0.246 OA
ATOM     11  O   UNL     1      21.497   0.395 -20.244  1.00  0.00    -0.419 OA
ENDROOT
BRANCH   1  12
ATOM     12  O   UNL     1      19.353   0.595 -15.129  1.00  0.00    -0.493 OA
ATOM     13  C   UNL     1      18.063   0.131 -14.745  1.00  0.00     0.278 C 
ENDBRANCH   1  12
BRANCH   2  14
ATOM     14  O   UNL     1      21.806   1.696 -15.618  1.00  0.00    -0.490 OA
ATOM     15  C   UNL     1      22.953   1.080 -15.038  1.00  0.00     0.278 C 
ENDBRANCH   2  14
BRANCH   3  16
ATOM     16  O   UNL     1      22.832   1.795 -18.312  1.00  0.00    -0.490 OA
ATOM     17  C   UNL     1      22.853   3.170 -18.685  1.00  0.00     0.278 C 
ENDBRANCH   3  16
TORSDOF 3
ENDMDL
MODEL 3
REMARK VINA RESULT:    -4.579      1.115      1.241
REMARK INTER + INTRA:          -5.561
REMARK INTER:                  -5.317
REMARK INTRA:                  -0.244
REMARK UNBOUND:                -0.178
REMARK SMILES COc1cc2ccc(=O)oc2c(OC)c1OC
REMARK SMILES IDX 3 1 15 2 12 3 11 4 5 5 4 6 6 7 7 8 8 9 9 10 10 11 2 12 1 13
REMARK SMILES IDX 16 14 17 15 13 16 14 17
REMARK H PARENT
REMARK Flexibility Score: inf
ROOT
ATOM      1  C   UNL     1      18.764  -0.007 -15.839  1.00  0.00     0.165 A 
ATOM      2  C   UNL     1      19.987   0.664 -15.674  1.00  0.00     0.207 A 
ATOM      3  C   UNL     1      20.798   0.948 -16.797  1.00  0.00     0.208 A 
ATOM      4  C   UNL     1      20.424   0.473 -18.060  1.00  0.00     0.184 A 
ATOM      5  C   UNL     1      19.212  -0.229 -18.220  1.00  0.00     0.025 A 
ATOM      6  C   UNL     1      18.379  -0.451 -17.117  1.00  0.00     0.062 A 
ATOM      7  C   UNL     1      18.864  -0.678 -19.499  1.00  0.00     0.020 A 
ATOM      8  C   UNL     1      19.718  -0.423 -20.571  1.00  0.00     0.094 A 
ATOM      9  C   UNL     1      20.903   0.281 -20.338  1.00  0.00     0.336 A 
ATOM     10  O   UNL     1      21.688   0.525 -21.293  1.00  0.00    -0.246 OA
ATOM     11  O   UNL     1      21.209   0.698 -19.113  1.00  0.00    -0.419 OA
ENDROOT
BRANCH   1  12
ATOM     12  O   UNL     1      17.969  -0.227 -14.703  1.00  0.00    -0.493 OA
ATOM     13  C   UNL     1      16.728   0.423 -14.448  1.00  0.00     0.278 C 
ENDBRANCH   1  12
BRANCH   2  14
ATOM     14  O   UNL     1      20.378   1.022 -14.381  1.00  0.00    -0.490 OA
ATOM     15  C   UNL     1      20.147   2.324 -13.850  1.00  0.00     0.278 C 
ENDBRANCH   2  14
BRANCH   3  16
ATOM     16  O   UNL     1      21.968   1.707 -16.688  1.00  0.00    -0.490 OA
ATOM     17  C   UNL     1      23.203   1.149 -16.248  1.00  0.00     0.278 C 
ENDBRANCH   3  16
TORSDOF 3
ENDMDL
MODEL 4
REMARK VINA RESULT:    -4.563      3.295      5.280
REMARK INTER + INTRA:          -5.542
REMARK INTER:                  -5.321
REMARK INTRA:                  -0.220
REMARK UNBOUND:                -0.178
REMARK SMILES COc1cc2ccc(=O)oc2c(OC)c1OC
REMARK SMILES IDX 3 1 15 2 12 3 11 4 5 5 4 6 6 7 7 8 8 9 9 10 10 11 2 12 1 13
REMARK SMILES IDX 16 14 17 15 13 16 14 17
REMARK H PARENT
REMARK Flexibility Score: inf
ROOT
ATOM      1  C   UNL     1      21.968   1.678 -18.702  1.00  0.00     0.165 A 
ATOM      2  C   UNL     1      21.575   1.294 -19.995  1.00  0.00     0.207 A 
ATOM      3  C   UNL     1      21.789   2.164 -21.089  1.00  0.00     0.208 A 
ATOM      4  C   UNL     1      22.304   3.447 -20.865  1.00  0.00     0.184 A 
ATOM      5  C   UNL     1      22.668   3.844 -19.562  1.00  0.00     0.025 A 
ATOM      6  C   UNL     1      22.516   2.956 -18.490  1.00  0.00     0.062 A 
ATOM      7  C   UNL     1      23.190   5.128 -19.376  1.00  0.00     0.020 A 
ATOM      8  C   UNL     1      23.336   5.975 -20.475  1.00  0.00     0.094 A 
ATOM      9  C   UNL     1      22.956   5.512 -21.738  1.00  0.00     0.336 A 
ATOM     10  O   UNL     1      23.082   6.259 -22.744  1.00  0.00    -0.246 OA
ATOM     11  O   UNL     1      22.464   4.286 -21.887  1.00  0.00    -0.419 OA
ENDROOT
BRANCH   1  12
ATOM     12  O   UNL     1      21.779   0.765 -17.652  1.00  0.00    -0.493 OA
ATOM     13  C   UNL     1      22.138   1.009 -16.296  1.00  0.00     0.278 C 
ENDBRANCH   1  12
BRANCH   2  14
ATOM     14  O   UNL     1      20.961   0.050 -20.160  1.00  0.00    -0.490 OA
ATOM     15  C   UNL     1      19.547  -0.095 -20.245  1.00  0.00     0.278 C 
ENDBRANCH   2  14
BRANCH   3  16
ATOM     16  O   UNL     1      21.512   1.776 -22.405  1.00  0.00    -0.490 OA
ATOM     17  C   UNL     1      22.343   0.871 -23.125  1.00  0.00     0.278 C 
ENDBRANCH   3  16
TORSDOF 3
ENDMDL
MODEL 5
REMARK VINA RESULT:    -4.480      1.640      5.604
REMARK INTER + INTRA:          -5.445
REMARK INTER:                  -5.227
REMARK INTRA:                  -0.217
REMARK UNBOUND:                -0.178
REMARK SMILES COc1cc2ccc(=O)oc2c(OC)c1OC
REMARK SMILES IDX 3 1 15 2 12 3 11 4 5 5 4 6 6 7 7 8 8 9 9 10 10 11 2 12 1 13
REMARK SMILES IDX 16 14 17 15 13 16 14 17
REMARK H PARENT
REMARK Flexibility Score: inf
ROOT
ATOM      1  C   UNL     1      21.362   0.812 -18.703  1.00  0.00     0.165 A 
ATOM      2  C   UNL     1      20.128   0.457 -18.133  1.00  0.00     0.207 A 
ATOM      3  C   UNL     1      19.893   0.679 -16.756  1.00  0.00     0.208 A 
ATOM      4  C   UNL     1      20.927   1.163 -15.945  1.00  0.00     0.184 A 
ATOM      5  C   UNL     1      22.176   1.489 -16.513  1.00  0.00     0.025 A 
ATOM      6  C   UNL     1      22.384   1.331 -17.888  1.00  0.00     0.062 A 
ATOM      7  C   UNL     1      23.182   1.981 -15.675  1.00  0.00     0.020 A 
ATOM      8  C   UNL     1      22.926   2.135 -14.313  1.00  0.00     0.094 A 
ATOM      9  C   UNL     1      21.663   1.793 -13.820  1.00  0.00     0.336 A 
ATOM     10  O   UNL     1      21.410   1.927 -12.594  1.00  0.00    -0.246 OA
ATOM     11  O   UNL     1      20.724   1.329 -14.639  1.00  0.00    -0.419 OA
ENDROOT
BRANCH   1  12
ATOM     12  O   UNL     1      21.535   0.618 -20.083  1.00  0.00    -0.493 OA
ATOM     13  C   UNL     1      21.472   1.653 -21.058  1.00  0.00     0.278 C 
ENDBRANCH   1  12
BRANCH   2  14
ATOM     14  O   UNL     1      19.161  -0.128 -18.954  1.00  0.00    -0.490 OA
ATOM     15  C   UNL     1      19.040  -1.540 -19.100  1.00  0.00     0.278 C 
ENDBRANCH   2  14
BRANCH   3  16
ATOM     16  O   UNL     1      18.644   0.439 -16.173  1.00  0.00    -0.490 OA
ATOM     17  C   UNL     1      18.275  -0.835 -15.655  1.00  0.00     0.278 C 
ENDBRANCH   3  16
TORSDOF 3
ENDMDL
MODEL 6
REMARK VINA RESULT:    -4.470     11.368     15.347
REMARK INTER + INTRA:          -5.432
REMARK INTER:                  -5.180
REMARK INTRA:                  -0.252
REMARK UNBOUND:                -0.178
REMARK SMILES COc1cc2ccc(=O)oc2c(OC)c1OC
REMARK SMILES IDX 3 1 15 2 12 3 11 4 5 5 4 6 6 7 7 8 8 9 9 10 10 11 2 12 1 13
REMARK SMILES IDX 16 14 17 15 13 16 14 17
REMARK H PARENT
REMARK Flexibility Score: inf
ROOT
ATOM      1  C   UNL     1      14.924   3.769  -6.635  1.00  0.00     0.165 A 
ATOM      2  C   UNL     1      14.001   3.119  -7.471  1.00  0.00     0.207 A 
ATOM      3  C   UNL     1      12.742   2.721  -6.964  1.00  0.00     0.208 A 
ATOM      4  C   UNL     1      12.458   2.891  -5.603  1.00  0.00     0.184 A 
ATOM      5  C   UNL     1      13.397   3.515  -4.758  1.00  0.00     0.025 A 
ATOM      6  C   UNL     1      14.617   3.967  -5.277  1.00  0.00     0.062 A 
ATOM      7  C   UNL     1      13.075   3.679  -3.407  1.00  0.00     0.020 A 
ATOM      8  C   UNL     1      11.844   3.224  -2.935  1.00  0.00     0.094 A 
ATOM      9  C   UNL     1      10.960   2.617  -3.832  1.00  0.00     0.336 A 
ATOM     10  O   UNL     1       9.841   2.202  -3.428  1.00  0.00    -0.246 OA
ATOM     11  O   UNL     1      11.291   2.476  -5.112  1.00  0.00    -0.419 OA
ENDROOT
BRANCH   1  12
ATOM     12  O   UNL     1      16.143   4.188  -7.192  1.00  0.00    -0.493 OA
ATOM     13  C   UNL     1      16.748   5.453  -6.949  1.00  0.00     0.278 C 
ENDBRANCH   1  12
BRANCH   2  14
ATOM     14  O   UNL     1      14.367   2.867  -8.796  1.00  0.00    -0.490 OA
ATOM     15  C   UNL     1      14.886   1.608  -9.215  1.00  0.00     0.278 C 
ENDBRANCH   2  14
BRANCH   3  16
ATOM     16  O   UNL     1      11.756   2.169  -7.789  1.00  0.00    -0.490 OA
ATOM     17  C   UNL     1      10.875   2.972  -8.568  1.00  0.00     0.278 C 
ENDBRANCH   3  16
TORSDOF 3
ENDMDL
MODEL 7
REMARK VINA RESULT:    -4.453     13.342     16.405
REMARK INTER + INTRA:          -5.412
REMARK INTER:                  -5.345
REMARK INTRA:                  -0.067
REMARK UNBOUND:                -0.178
REMARK SMILES COc1cc2ccc(=O)oc2c(OC)c1OC
REMARK SMILES IDX 3 1 15 2 12 3 11 4 5 5 4 6 6 7 7 8 8 9 9 10 10 11 2 12 1 13
REMARK SMILES IDX 16 14 17 15 13 16 14 17
REMARK H PARENT
REMARK Flexibility Score: inf
ROOT
ATOM      1  C   UNL     1       8.727  -8.344 -10.580  1.00  0.00     0.165 A 
ATOM      2  C   UNL     1      10.067  -7.920 -10.600  1.00  0.00     0.207 A 
ATOM      3  C   UNL     1      10.589  -7.173  -9.520  1.00  0.00     0.208 A 
ATOM      4  C   UNL     1       9.743  -6.774  -8.478  1.00  0.00     0.184 A 
ATOM      5  C   UNL     1       8.391  -7.172  -8.475  1.00  0.00     0.025 A 
ATOM      6  C   UNL     1       7.892  -7.968  -9.513  1.00  0.00     0.062 A 
ATOM      7  C   UNL     1       7.577  -6.765  -7.413  1.00  0.00     0.020 A 
ATOM      8  C   UNL     1       8.119  -5.983  -6.393  1.00  0.00     0.094 A 
ATOM      9  C   UNL     1       9.470  -5.628  -6.461  1.00  0.00     0.336 A 
ATOM     10  O   UNL     1       9.981  -4.925  -5.550  1.00  0.00    -0.246 OA
ATOM     11  O   UNL     1      10.221  -6.030  -7.481  1.00  0.00    -0.419 OA
ENDROOT
BRANCH   1  12
ATOM     12  O   UNL     1       8.263  -9.124 -11.652  1.00  0.00    -0.493 OA
ATOM     13  C   UNL     1       7.034  -8.903 -12.337  1.00  0.00     0.278 C 
ENDBRANCH   1  12
BRANCH   2  14
ATOM     14  O   UNL     1      10.849  -8.243 -11.711  1.00  0.00    -0.490 OA
ATOM     15  C   UNL     1      11.965  -9.124 -11.626  1.00  0.00     0.278 C 
ENDBRANCH   2  14
BRANCH   3  16
ATOM     16  O   UNL     1      11.943  -6.825  -9.451  1.00  0.00    -0.490 OA
ATOM     17  C   UNL     1      12.491  -5.737 -10.189  1.00  0.00     0.278 C 
ENDBRANCH   3  16
TORSDOF 3
ENDMDL
MODEL 8
REMARK VINA RESULT:    -4.363      1.677      4.990
REMARK INTER + INTRA:          -5.307
REMARK INTER:                  -5.040
REMARK INTRA:                  -0.267
REMARK UNBOUND:                -0.178
REMARK SMILES COc1cc2ccc(=O)oc2c(OC)c1OC
REMARK SMILES IDX 3 1 15 2 12 3 11 4 5 5 4 6 6 7 7 8 8 9 9 10 10 11 2 12 1 13
REMARK SMILES IDX 16 14 17 15 13 16 14 17
REMARK H PARENT
REMARK Flexibility Score: inf
ROOT
ATOM      1  C   UNL     1      20.171  -0.401 -18.307  1.00  0.00     0.165 A 
ATOM      2  C   UNL     1      20.996   0.538 -17.665  1.00  0.00     0.207 A 
ATOM      3  C   UNL     1      20.645   1.033 -16.387  1.00  0.00     0.208 A 
ATOM      4  C   UNL     1      19.427   0.658 -15.809  1.00  0.00     0.184 A 
ATOM      5  C   UNL     1      18.584  -0.260 -16.468  1.00  0.00     0.025 A 
ATOM      6  C   UNL     1      18.965  -0.799 -17.703  1.00  0.00     0.062 A 
ATOM      7  C   UNL     1      17.380  -0.620 -15.855  1.00  0.00     0.020 A 
ATOM      8  C   UNL     1      17.047  -0.068 -14.619  1.00  0.00     0.094 A 
ATOM      9  C   UNL     1      17.933   0.834 -14.022  1.00  0.00     0.336 A 
ATOM     10  O   UNL     1      17.653   1.342 -12.904  1.00  0.00    -0.246 OA
ATOM     11  O   UNL     1      19.072   1.158 -14.626  1.00  0.00    -0.419 OA
ENDROOT
BRANCH   1  12
ATOM     12  O   UNL     1      20.580  -0.901 -19.553  1.00  0.00    -0.493 OA
ATOM     13  C   UNL     1      19.985  -0.551 -20.799  1.00  0.00     0.278 C 
ENDBRANCH   1  12
BRANCH   2  14
ATOM     14  O   UNL     1      22.148   0.972 -18.326  1.00  0.00    -0.490 OA
ATOM     15  C   UNL     1      22.141   2.086 -19.213  1.00  0.00     0.278 C 
ENDBRANCH   2  14
BRANCH   3  16
ATOM     16  O   UNL     1      21.493   1.885 -15.669  1.00  0.00    -0.490 OA
ATOM     17  C   UNL     1      22.590   1.400 -14.901  1.00  0.00     0.278 C 
ENDBRANCH   3  16
TORSDOF 3
ENDMDL
MODEL 9
REMARK VINA RESULT:    -4.291      1.769      3.666
REMARK INTER + INTRA:          -5.222
REMARK INTER:                  -4.992
REMARK INTRA:                  -0.230
REMARK UNBOUND:                -0.178
REMARK SMILES COc1cc2ccc(=O)oc2c(OC)c1OC
REMARK SMILES IDX 3 1 15 2 12 3 11 4 5 5 4 6 6 7 7 8 8 9 9 10 10 11 2 12 1 13
REMARK SMILES IDX 16 14 17 15 13 16 14 17
REMARK H PARENT
REMARK Flexibility Score: inf
ROOT
ATOM      1  C   UNL     1      21.246   1.422 -15.285  1.00  0.00     0.165 A 
ATOM      2  C   UNL     1      19.949   0.905 -15.126  1.00  0.00     0.207 A 
ATOM      3  C   UNL     1      19.268   0.346 -16.231  1.00  0.00     0.208 A 
ATOM      4  C   UNL     1      19.851   0.396 -17.503  1.00  0.00     0.184 A 
ATOM      5  C   UNL     1      21.139   0.944 -17.668  1.00  0.00     0.025 A 
ATOM      6  C   UNL     1      21.839   1.438 -16.560  1.00  0.00     0.062 A 
ATOM      7  C   UNL     1      21.696   0.968 -18.951  1.00  0.00     0.020 A 
ATOM      8  C   UNL     1      20.968   0.453 -20.024  1.00  0.00     0.094 A 
ATOM      9  C   UNL     1      19.697  -0.077 -19.785  1.00  0.00     0.336 A 
ATOM     10  O   UNL     1      19.023  -0.549 -20.739  1.00  0.00    -0.246 OA
ATOM     11  O   UNL     1      19.192  -0.088 -18.555  1.00  0.00    -0.419 OA
ENDROOT
BRANCH   1  12
ATOM     12  O   UNL     1      21.904   1.925 -14.151  1.00  0.00    -0.493 OA
ATOM     13  C   UNL     1      23.290   2.244 -14.098  1.00  0.00     0.278 C 
ENDBRANCH   1  12
BRANCH   2  14
ATOM     14  O   UNL     1      19.357   0.975 -13.862  1.00  0.00    -0.490 OA
ATOM     15  C   UNL     1      18.433   2.001 -13.510  1.00  0.00     0.278 C 
ENDBRANCH   2  14
BRANCH   3  16
ATOM     16  O   UNL     1      18.021  -0.275 -16.091  1.00  0.00    -0.490 OA
ATOM     17  C   UNL     1      17.876  -1.583 -15.546  1.00  0.00     0.278 C 
ENDBRANCH   3  16
TORSDOF 3
ENDMDL
