MODEL 1
REMARK VINA RESULT:    -3.901      0.000      0.000
REMARK INTER + INTRA:          -5.019
REMARK INTER:                  -4.927
REMARK INTRA:                  -0.091
REMARK UNBOUND:                -0.091
REMARK SMILES CCCCCCO
REMARK SMILES IDX 4 1 3 2 2 3 1 4 5 5 6 6 7 7
REMARK H PARENT 7 8
REMARK Flexibility Score: inf
ROOT
ATOM      1  C   UNL     1       6.029   4.817  14.563  1.00  0.00     0.002 C 
ENDROOT
BRANCH   1   2
ATOM      2  C   UNL     1       5.625   5.116  13.111  1.00  0.00    -0.000 C 
BRANCH   2   3
ATOM      3  C   UNL     1       4.867   3.951  12.457  1.00  0.00    -0.003 C 
ATOM      4  C   UNL     1       5.811   2.798  12.128  1.00  0.00     0.004 C 
ENDBRANCH   2   3
ENDBRANCH   1   2
BRANCH   1   5
ATOM      5  C   UNL     1       6.764   5.994  15.227  1.00  0.00     0.028 C 
BRANCH   5   6
ATOM      6  C   UNL     1       7.307   6.978  14.189  1.00  0.00     0.156 C 
BRANCH   6   7
ATOM      7  O   UNL     1       6.734   8.243  14.378  1.00  0.00    -0.396 OA
ATOM      8  H   UNL     1       7.415   8.900  14.080  1.00  0.00     0.210 HD
ENDBRANCH   6   7
ENDBRANCH   5   6
ENDBRANCH   1   5
TORSDOF 5
ENDMDL
MODEL 2
REMARK VINA RESULT:    -3.878      2.367      4.175
REMARK INTER + INTRA:          -4.990
REMARK INTER:                  -4.914
REMARK INTRA:                  -0.076
REMARK UNBOUND:                -0.091
REMARK SMILES CCCCCCO
REMARK SMILES IDX 4 1 3 2 2 3 1 4 5 5 6 6 7 7
REMARK H PARENT 7 8
REMARK Flexibility Score: inf
ROOT
ATOM      1  C   UNL     1       5.626   5.133  13.192  1.00  0.00     0.002 C 
ENDROOT
BRANCH   1   2
ATOM      2  C   UNL     1       6.094   4.842  14.626  1.00  0.00    -0.000 C 
BRANCH   2   3
ATOM      3  C   UNL     1       6.827   6.032  15.262  1.00  0.00    -0.003 C 
ATOM      4  C   UNL     1       7.044   7.150  14.245  1.00  0.00     0.004 C 
ENDBRANCH   2   3
ENDBRANCH   1   2
BRANCH   1   5
ATOM      5  C   UNL     1       4.990   3.906  12.516  1.00  0.00     0.028 C 
BRANCH   5   6
ATOM      6  C   UNL     1       5.982   3.191  11.596  1.00  0.00     0.156 C 
BRANCH   6   7
ATOM      7  O   UNL     1       6.834   2.372  12.348  1.00  0.00    -0.396 OA
ATOM      8  H   UNL     1       6.824   1.484  11.906  1.00  0.00     0.210 HD
ENDBRANCH   6   7
ENDBRANCH   5   6
ENDBRANCH   1   5
TORSDOF 5
ENDMDL
MODEL 3
REMARK VINA RESULT:    -3.666      2.466      4.194
REMARK INTER + INTRA:          -4.722
REMARK INTER:                  -4.641
REMARK INTRA:                  -0.081
REMARK UNBOUND:                -0.091
REMARK SMILES CCCCCCO
REMARK SMILES IDX 4 1 3 2 2 3 1 4 5 5 6 6 7 7
REMARK H PARENT 7 8
REMARK Flexibility Score: inf
ROOT
ATOM      1  C   UNL     1       4.851   4.076  12.443  1.00  0.00     0.002 C 
ENDROOT
BRANCH   1   2
ATOM      2  C   UNL     1       5.663   5.170  13.152  1.00  0.00    -0.000 C 
BRANCH   2   3
ATOM      3  C   UNL     1       6.116   4.752  14.558  1.00  0.00    -0.003 C 
ATOM      4  C   UNL     1       6.837   5.897  15.266  1.00  0.00     0.004 C 
ENDBRANCH   2   3
ENDBRANCH   1   2
BRANCH   1   5
ATOM      5  C   UNL     1       5.740   2.969  11.850  1.00  0.00     0.028 C 
BRANCH   5   6
ATOM      6  C   UNL     1       6.195   3.311  10.430  1.00  0.00     0.156 C 
BRANCH   6   7
ATOM      7  O   UNL     1       7.584   3.493  10.400  1.00  0.00    -0.396 OA
ATOM      8  H   UNL     1       7.783   3.947   9.541  1.00  0.00     0.210 HD
ENDBRANCH   6   7
ENDBRANCH   5   6
ENDBRANCH   1   5
TORSDOF 5
ENDMDL
MODEL 4
REMARK VINA RESULT:    -3.618      4.863      6.407
REMARK INTER + INTRA:          -4.661
REMARK INTER:                  -4.595
REMARK INTRA:                  -0.066
REMARK UNBOUND:                -0.091
REMARK SMILES CCCCCCO
REMARK SMILES IDX 4 1 3 2 2 3 1 4 5 5 6 6 7 7
REMARK H PARENT 7 8
REMARK Flexibility Score: inf
ROOT
ATOM      1  C   UNL     1       2.172   2.640  11.736  1.00  0.00     0.002 C 
ENDROOT
BRANCH   1   2
ATOM      2  C   UNL     1       3.702   2.510  11.676  1.00  0.00    -0.000 C 
BRANCH   2   3
ATOM      3  C   UNL     1       4.422   3.745  12.238  1.00  0.00    -0.003 C 
ATOM      4  C   UNL     1       5.434   4.293  11.236  1.00  0.00     0.004 C 
ENDBRANCH   2   3
ENDBRANCH   1   2
BRANCH   1   5
ATOM      5  C   UNL     1       1.480   1.318  12.111  1.00  0.00     0.028 C 
BRANCH   5   6
ATOM      6  C   UNL     1       2.475   0.158  12.171  1.00  0.00     0.156 C 
BRANCH   6   7
ATOM      7  O   UNL     1       1.893  -0.944  12.810  1.00  0.00    -0.396 OA
ATOM      8  H   UNL     1       1.984  -1.707  12.183  1.00  0.00     0.210 HD
ENDBRANCH   6   7
ENDBRANCH   5   6
ENDBRANCH   1   5
TORSDOF 5
ENDMDL
MODEL 5
REMARK VINA RESULT:    -3.522      4.785      6.462
REMARK INTER + INTRA:          -4.540
REMARK INTER:                  -4.469
REMARK INTRA:                  -0.071
REMARK UNBOUND:                -0.091
REMARK SMILES CCCCCCO
REMARK SMILES IDX 4 1 3 2 2 3 1 4 5 5 6 6 7 7
REMARK H PARENT 7 8
REMARK Flexibility Score: inf
ROOT
ATOM      1  C   UNL     1       2.645   1.300  11.750  1.00  0.00     0.002 C 
ENDROOT
BRANCH   1   2
ATOM      2  C   UNL     1       2.986   2.796  11.822  1.00  0.00    -0.000 C 
BRANCH   2   3
ATOM      3  C   UNL     1       4.499   3.060  11.789  1.00  0.00    -0.003 C 
ATOM      4  C   UNL     1       4.841   4.376  12.482  1.00  0.00     0.004 C 
ENDBRANCH   2   3
ENDBRANCH   1   2
BRANCH   1   5
ATOM      5  C   UNL     1       1.172   1.045  11.386  1.00  0.00     0.028 C 
BRANCH   5   6
ATOM      6  C   UNL     1       0.302   2.274  11.660  1.00  0.00     0.156 C 
BRANCH   6   7
ATOM      7  O   UNL     1      -0.514   2.048  12.776  1.00  0.00    -0.396 OA
ATOM      8  H   UNL     1       0.101   1.904  13.541  1.00  0.00     0.210 HD
ENDBRANCH   6   7
ENDBRANCH   5   6
ENDBRANCH   1   5
TORSDOF 5
ENDMDL
MODEL 6
REMARK VINA RESULT:    -3.501      3.865      4.855
REMARK INTER + INTRA:          -4.513
REMARK INTER:                  -4.426
REMARK INTRA:                  -0.087
REMARK UNBOUND:                -0.091
REMARK SMILES CCCCCCO
REMARK SMILES IDX 4 1 3 2 2 3 1 4 5 5 6 6 7 7
REMARK H PARENT 7 8
REMARK Flexibility Score: inf
ROOT
ATOM      1  C   UNL     1       3.611   2.400  11.213  1.00  0.00     0.002 C 
ENDROOT
BRANCH   1   2
ATOM      2  C   UNL     1       2.222   2.593  11.841  1.00  0.00    -0.000 C 
BRANCH   2   3
ATOM      3  C   UNL     1       1.529   1.262  12.164  1.00  0.00    -0.003 C 
ATOM      4  C   UNL     1       2.529   0.108  12.165  1.00  0.00     0.004 C 
ENDBRANCH   2   3
ENDBRANCH   1   2
BRANCH   1   5
ATOM      5  C   UNL     1       4.690   3.269  11.882  1.00  0.00     0.028 C 
BRANCH   5   6
ATOM      6  C   UNL     1       6.097   2.858  11.445  1.00  0.00     0.156 C 
BRANCH   6   7
ATOM      7  O   UNL     1       6.839   2.428  12.552  1.00  0.00    -0.396 OA
ATOM      8  H   UNL     1       6.516   2.961  13.324  1.00  0.00     0.210 HD
ENDBRANCH   6   7
ENDBRANCH   5   6
ENDBRANCH   1   5
TORSDOF 5
ENDMDL
MODEL 7
REMARK VINA RESULT:    -3.478      1.551      1.660
REMARK INTER + INTRA:          -4.485
REMARK INTER:                  -4.441
REMARK INTRA:                  -0.044
REMARK UNBOUND:                -0.091
REMARK SMILES CCCCCCO
REMARK SMILES IDX 4 1 3 2 2 3 1 4 5 5 6 6 7 7
REMARK H PARENT 7 8
REMARK Flexibility Score: inf
ROOT
ATOM      1  C   UNL     1       6.162   4.980  14.853  1.00  0.00     0.002 C 
ENDROOT
BRANCH   1   2
ATOM      2  C   UNL     1       6.019   4.177  13.550  1.00  0.00    -0.000 C 
BRANCH   2   3
ATOM      3  C   UNL     1       4.824   4.635  12.702  1.00  0.00    -0.003 C 
ATOM      4  C   UNL     1       4.117   3.443  12.062  1.00  0.00     0.004 C 
ENDBRANCH   2   3
ENDBRANCH   1   2
BRANCH   1   5
ATOM      5  C   UNL     1       6.888   6.320  14.645  1.00  0.00     0.028 C 
BRANCH   5   6
ATOM      6  C   UNL     1       7.658   6.744  15.897  1.00  0.00     0.156 C 
BRANCH   6   7
ATOM      7  O   UNL     1       9.007   6.387  15.778  1.00  0.00    -0.396 OA
ATOM      8  H   UNL     1       9.148   6.159  14.823  1.00  0.00     0.210 HD
ENDBRANCH   6   7
ENDBRANCH   5   6
ENDBRANCH   1   5
TORSDOF 5
ENDMDL
MODEL 8
REMARK VINA RESULT:    -3.444      2.126      3.941
REMARK INTER + INTRA:          -4.441
REMARK INTER:                  -4.369
REMARK INTRA:                  -0.072
REMARK UNBOUND:                -0.091
REMARK SMILES CCCCCCO
REMARK SMILES IDX 4 1 3 2 2 3 1 4 5 5 6 6 7 7
REMARK H PARENT 7 8
REMARK Flexibility Score: inf
ROOT
ATOM      1  C   UNL     1       6.372   4.898  14.669  1.00  0.00     0.002 C 
ENDROOT
BRANCH   1   2
ATOM      2  C   UNL     1       7.120   6.111  15.243  1.00  0.00    -0.000 C 
BRANCH   2   3
ATOM      3  C   UNL     1       7.074   7.330  14.310  1.00  0.00    -0.003 C 
ATOM      4  C   UNL     1       8.400   7.508  13.575  1.00  0.00     0.004 C 
ENDBRANCH   2   3
ENDBRANCH   1   2
BRANCH   1   5
ATOM      5  C   UNL     1       5.588   5.237  13.390  1.00  0.00     0.028 C 
BRANCH   5   6
ATOM      6  C   UNL     1       5.258   3.982  12.580  1.00  0.00     0.156 C 
BRANCH   6   7
ATOM      7  O   UNL     1       4.466   4.316  11.474  1.00  0.00    -0.396 OA
ATOM      8  H   UNL     1       4.628   3.609  10.796  1.00  0.00     0.210 HD
ENDBRANCH   6   7
ENDBRANCH   5   6
ENDBRANCH   1   5
TORSDOF 5
ENDMDL
MODEL 9
REMARK VINA RESULT:    -3.424      1.494      2.113
REMARK INTER + INTRA:          -4.417
REMARK INTER:                  -4.290
REMARK INTRA:                  -0.126
REMARK UNBOUND:                -0.091
REMARK SMILES CCCCCCO
REMARK SMILES IDX 4 1 3 2 2 3 1 4 5 5 6 6 7 7
REMARK H PARENT 7 8
REMARK Flexibility Score: inf
ROOT
ATOM      1  C   UNL     1       7.556   6.280  15.124  1.00  0.00     0.002 C 
ENDROOT
BRANCH   1   2
ATOM      2  C   UNL     1       6.431   5.245  14.969  1.00  0.00    -0.000 C 
BRANCH   2   3
ATOM      3  C   UNL     1       5.772   5.291  13.582  1.00  0.00    -0.003 C 
ATOM      4  C   UNL     1       5.730   3.902  12.949  1.00  0.00     0.004 C 
ENDBRANCH   2   3
ENDBRANCH   1   2
BRANCH   1   5
ATOM      5  C   UNL     1       7.386   7.483  14.181  1.00  0.00     0.028 C 
BRANCH   5   6
ATOM      6  C   UNL     1       8.585   7.638  13.242  1.00  0.00     0.156 C 
BRANCH   6   7
ATOM      7  O   UNL     1       8.401   6.860  12.093  1.00  0.00    -0.396 OA
ATOM      8  H   UNL     1       8.625   5.929  12.352  1.00  0.00     0.210 HD
ENDBRANCH   6   7
ENDBRANCH   5   6
ENDBRANCH   1   5
TORSDOF 5
ENDMDL
