MODEL 1
REMARK VINA RESULT:    -4.243      0.000      0.000
REMARK INTER + INTRA:          -6.942
REMARK INTER:                  -6.228
REMARK INTRA:                  -0.715
REMARK UNBOUND:                -0.715
REMARK SMILES O=C([O-])CCCCCCCC(=O)[O-]
REMARK SMILES IDX 7 1 6 2 5 3 4 4 2 5 1 6 3 7 8 8 9 9 10 10 11 11 12 12 13 13
REMARK H PARENT
REMARK Flexibility Score: inf
ROOT
ATOM      1  C   UNL     1      28.124   6.137   7.247  1.00  0.00     0.000 C 
ENDROOT
BRANCH   1   2
ATOM      2  C   UNL     1      27.731   5.831   8.701  1.00  0.00     0.000 C 
BRANCH   2   3
ATOM      3  C   UNL     1      27.436   7.101   9.515  1.00  0.00     0.006 C 
BRANCH   3   4
ATOM      4  C   UNL     1      27.395   8.334   8.607  1.00  0.00     0.053 C 
BRANCH   4   5
ATOM      5  C   UNL     1      26.207   9.185   8.932  1.00  0.00     0.041 C 
ATOM      6  O   UNL     1      25.609   9.043  10.030  1.00  0.00    -0.550 OA
ATOM      7  O   UNL     1      25.791  10.167   8.041  1.00  0.00    -0.550 OA
ENDBRANCH   4   5
ENDBRANCH   3   4
ENDBRANCH   2   3
ENDBRANCH   1   2
BRANCH   1   8
ATOM      8  C   UNL     1      27.273   5.364   6.229  1.00  0.00     0.000 C 
BRANCH   8   9
ATOM      9  C   UNL     1      25.798   5.777   6.321  1.00  0.00     0.006 C 
BRANCH   9  10
ATOM     10  C   UNL     1      25.574   7.157   5.695  1.00  0.00     0.053 C 
BRANCH  10  11
ATOM     11  C   UNL     1      24.157   7.595   5.887  1.00  0.00     0.041 C 
ATOM     12  O   UNL     1      23.798   8.751   5.541  1.00  0.00    -0.550 OA
ATOM     13  O   UNL     1      23.220   6.710   6.405  1.00  0.00    -0.550 OA
ENDBRANCH  10  11
ENDBRANCH   9  10
ENDBRANCH   8   9
ENDBRANCH   1   8
TORSDOF 8
ENDMDL
MODEL 2
REMARK VINA RESULT:    -4.022     13.990     15.295
REMARK INTER + INTRA:          -6.617
REMARK INTER:                  -5.862
REMARK INTRA:                  -0.756
REMARK UNBOUND:                -0.715
REMARK SMILES O=C([O-])CCCCCCCC(=O)[O-]
REMARK SMILES IDX 7 1 6 2 5 3 4 4 2 5 1 6 3 7 8 8 9 9 10 10 11 11 12 12 13 13
REMARK H PARENT
REMARK Flexibility Score: inf
ROOT
ATOM      1  C   UNL     1      15.385   3.016   0.895  1.00  0.00     0.000 C 
ENDROOT
BRANCH   1   2
ATOM      2  C   UNL     1      14.370   3.416   1.977  1.00  0.00     0.000 C 
BRANCH   2   3
ATOM      3  C   UNL     1      13.634   4.723   1.643  1.00  0.00     0.006 C 
BRANCH   3   4
ATOM      4  C   UNL     1      12.115   4.532   1.724  1.00  0.00     0.053 C 
BRANCH   4   5
ATOM      5  C   UNL     1      11.677   3.430   0.812  1.00  0.00     0.041 C 
ATOM      6  O   UNL     1      11.089   2.420   1.276  1.00  0.00    -0.550 OA
ATOM      7  O   UNL     1      11.877   3.543  -0.559  1.00  0.00    -0.550 OA
ENDBRANCH   4   5
ENDBRANCH   3   4
ENDBRANCH   2   3
ENDBRANCH   1   2
BRANCH   1   8
ATOM      8  C   UNL     1      15.425   4.009  -0.276  1.00  0.00     0.000 C 
BRANCH   8   9
ATOM      9  C   UNL     1      15.296   3.280  -1.619  1.00  0.00     0.006 C 
BRANCH   9  10
ATOM     10  C   UNL     1      14.871   1.822  -1.414  1.00  0.00     0.053 C 
BRANCH  10  11
ATOM     11  C   UNL     1      15.820   0.898  -2.107  1.00  0.00     0.041 C 
ATOM     12  O   UNL     1      15.383  -0.069  -2.785  1.00  0.00    -0.550 OA
ATOM     13  O   UNL     1      17.188   1.131  -2.045  1.00  0.00    -0.550 OA
ENDBRANCH  10  11
ENDBRANCH   9  10
ENDBRANCH   8   9
ENDBRANCH   1   8
TORSDOF 8
ENDMDL
MODEL 3
REMARK VINA RESULT:    -4.011     14.049     15.488
REMARK INTER + INTRA:          -6.602
REMARK INTER:                  -5.988
REMARK INTRA:                  -0.614
REMARK UNBOUND:                -0.715
REMARK SMILES O=C([O-])CCCCCCCC(=O)[O-]
REMARK SMILES IDX 7 1 6 2 5 3 4 4 2 5 1 6 3 7 8 8 9 9 10 10 11 11 12 12 13 13
REMARK H PARENT
REMARK Flexibility Score: inf
ROOT
ATOM      1  C   UNL     1      15.247   2.940   0.971  1.00  0.00     0.000 C 
ENDROOT
BRANCH   1   2
ATOM      2  C   UNL     1      15.469   3.942  -0.174  1.00  0.00     0.000 C 
BRANCH   2   3
ATOM      3  C   UNL     1      15.233   3.320  -1.559  1.00  0.00     0.006 C 
BRANCH   3   4
ATOM      4  C   UNL     1      14.814   1.851  -1.435  1.00  0.00     0.053 C 
BRANCH   4   5
ATOM      5  C   UNL     1      15.806   0.964  -2.117  1.00  0.00     0.041 C 
ATOM      6  O   UNL     1      17.040   1.158  -1.963  1.00  0.00    -0.550 OA
ATOM      7  O   UNL     1      15.367  -0.109  -2.884  1.00  0.00    -0.550 OA
ENDBRANCH   4   5
ENDBRANCH   3   4
ENDBRANCH   2   3
ENDBRANCH   1   2
BRANCH   1   8
ATOM      8  C   UNL     1      14.375   3.512   2.098  1.00  0.00     0.000 C 
BRANCH   8   9
ATOM      9  C   UNL     1      13.587   4.736   1.614  1.00  0.00     0.006 C 
BRANCH   9  10
ATOM     10  C   UNL     1      12.130   4.672   2.082  1.00  0.00     0.053 C 
BRANCH  10  11
ATOM     11  C   UNL     1      11.230   4.310   0.943  1.00  0.00     0.041 C 
ATOM     12  O   UNL     1      10.095   4.843   0.838  1.00  0.00    -0.550 OA
ATOM     13  O   UNL     1      11.664   3.416  -0.028  1.00  0.00    -0.550 OA
ENDBRANCH  10  11
ENDBRANCH   9  10
ENDBRANCH   8   9
ENDBRANCH   1   8
TORSDOF 8
ENDMDL
MODEL 4
REMARK VINA RESULT:    -3.985      0.941      4.113
REMARK INTER + INTRA:          -6.563
REMARK INTER:                  -6.018
REMARK INTRA:                  -0.545
REMARK UNBOUND:                -0.715
REMARK SMILES O=C([O-])CCCCCCCC(=O)[O-]
REMARK SMILES IDX 7 1 6 2 5 3 4 4 2 5 1 6 3 7 8 8 9 9 10 10 11 11 12 12 13 13
REMARK H PARENT
REMARK Flexibility Score: inf
ROOT
ATOM      1  C   UNL     1      27.738   5.989   7.307  1.00  0.00     0.000 C 
ENDROOT
BRANCH   1   2
ATOM      2  C   UNL     1      26.395   5.480   6.759  1.00  0.00     0.000 C 
BRANCH   2   3
ATOM      3  C   UNL     1      25.822   6.387   5.659  1.00  0.00     0.006 C 
BRANCH   3   4
ATOM      4  C   UNL     1      25.397   7.742   6.233  1.00  0.00     0.053 C 
BRANCH   4   5
ATOM      5  C   UNL     1      23.949   7.997   5.955  1.00  0.00     0.041 C 
ATOM      6  O   UNL     1      23.580   9.101   5.477  1.00  0.00    -0.550 OA
ATOM      7  O   UNL     1      23.011   6.996   6.180  1.00  0.00    -0.550 OA
ENDBRANCH   4   5
ENDBRANCH   3   4
ENDBRANCH   2   3
ENDBRANCH   1   2
BRANCH   1   8
ATOM      8  C   UNL     1      27.689   6.284   8.813  1.00  0.00     0.000 C 
BRANCH   8   9
ATOM      9  C   UNL     1      27.893   7.780   9.086  1.00  0.00     0.006 C 
BRANCH   9  10
ATOM     10  C   UNL     1      26.592   8.435   9.561  1.00  0.00     0.053 C 
BRANCH  10  11
ATOM     11  C   UNL     1      26.629   9.910   9.316  1.00  0.00     0.041 C 
ATOM     12  O   UNL     1      27.389  10.387   8.433  1.00  0.00    -0.550 OA
ATOM     13  O   UNL     1      25.789  10.754  10.030  1.00  0.00    -0.550 OA
ENDBRANCH  10  11
ENDBRANCH   9  10
ENDBRANCH   8   9
ENDBRANCH   1   8
TORSDOF 8
ENDMDL
MODEL 5
REMARK VINA RESULT:    -3.948     14.040     15.995
REMARK INTER + INTRA:          -6.510
REMARK INTER:                  -6.091
REMARK INTRA:                  -0.419
REMARK UNBOUND:                -0.715
REMARK SMILES O=C([O-])CCCCCCCC(=O)[O-]
REMARK SMILES IDX 7 1 6 2 5 3 4 4 2 5 1 6 3 7 8 8 9 9 10 10 11 11 12 12 13 13
REMARK H PARENT
REMARK Flexibility Score: inf
ROOT
ATOM      1  C   UNL     1      13.576   4.729   1.632  1.00  0.00     0.000 C 
ENDROOT
BRANCH   1   2
ATOM      2  C   UNL     1      12.083   4.853   1.976  1.00  0.00     0.000 C 
BRANCH   2   3
ATOM      3  C   UNL     1      11.181   4.126   0.967  1.00  0.00     0.006 C 
BRANCH   3   4
ATOM      4  C   UNL     1       9.701   4.332   1.308  1.00  0.00     0.053 C 
BRANCH   4   5
ATOM      5  C   UNL     1       9.152   5.511   0.569  1.00  0.00     0.041 C 
ATOM      6  O   UNL     1       8.478   6.382   1.178  1.00  0.00    -0.550 OA
ATOM      7  O   UNL     1       9.427   5.673  -0.784  1.00  0.00    -0.550 OA
ENDBRANCH   4   5
ENDBRANCH   3   4
ENDBRANCH   2   3
ENDBRANCH   1   2
BRANCH   1   8
ATOM      8  C   UNL     1      14.165   3.369   2.035  1.00  0.00     0.000 C 
BRANCH   8   9
ATOM      9  C   UNL     1      15.196   2.892   1.005  1.00  0.00     0.006 C 
BRANCH   9  10
ATOM     10  C   UNL     1      15.490   3.985  -0.026  1.00  0.00     0.053 C 
BRANCH  10  11
ATOM     11  C   UNL     1      15.310   3.458  -1.414  1.00  0.00     0.041 C 
ATOM     12  O   UNL     1      14.566   4.062  -2.231  1.00  0.00    -0.550 OA
ATOM     13  O   UNL     1      16.000   2.323  -1.822  1.00  0.00    -0.550 OA
ENDBRANCH  10  11
ENDBRANCH   9  10
ENDBRANCH   8   9
ENDBRANCH   1   8
TORSDOF 8
ENDMDL
MODEL 6
REMARK VINA RESULT:    -3.941     10.640     13.462
REMARK INTER + INTRA:          -6.499
REMARK INTER:                  -6.260
REMARK INTRA:                  -0.239
REMARK UNBOUND:                -0.715
REMARK SMILES O=C([O-])CCCCCCCC(=O)[O-]
REMARK SMILES IDX 7 1 6 2 5 3 4 4 2 5 1 6 3 7 8 8 9 9 10 10 11 11 12 12 13 13
REMARK H PARENT
REMARK Flexibility Score: inf
ROOT
ATOM      1  C   UNL     1      14.450   1.943   3.393  1.00  0.00     0.000 C 
ENDROOT
BRANCH   1   2
ATOM      2  C   UNL     1      15.208   2.897   2.456  1.00  0.00     0.000 C 
BRANCH   2   3
ATOM      3  C   UNL     1      14.944   2.601   0.972  1.00  0.00     0.006 C 
BRANCH   3   4
ATOM      4  C   UNL     1      15.312   3.807   0.100  1.00  0.00     0.053 C 
BRANCH   4   5
ATOM      5  C   UNL     1      15.317   3.425  -1.346  1.00  0.00     0.041 C 
ATOM      6  O   UNL     1      14.674   4.109  -2.184  1.00  0.00    -0.550 OA
ATOM      7  O   UNL     1      16.073   2.341  -1.776  1.00  0.00    -0.550 OA
ENDBRANCH   4   5
ENDBRANCH   3   4
ENDBRANCH   2   3
ENDBRANCH   1   2
BRANCH   1   8
ATOM      8  C   UNL     1      15.385   1.176   4.340  1.00  0.00     0.000 C 
BRANCH   8   9
ATOM      9  C   UNL     1      15.485   1.879   5.700  1.00  0.00     0.006 C 
BRANCH   9  10
ATOM     10  C   UNL     1      16.936   2.249   6.022  1.00  0.00     0.053 C 
BRANCH  10  11
ATOM     11  C   UNL     1      17.655   1.080   6.615  1.00  0.00     0.041 C 
ATOM     12  O   UNL     1      17.020   0.207   7.263  1.00  0.00    -0.550 OA
ATOM     13  O   UNL     1      19.021   0.928   6.412  1.00  0.00    -0.550 OA
ENDBRANCH  10  11
ENDBRANCH   9  10
ENDBRANCH   8   9
ENDBRANCH   1   8
TORSDOF 8
ENDMDL
MODEL 7
REMARK VINA RESULT:    -3.918     13.439     15.418
REMARK INTER + INTRA:          -6.466
REMARK INTER:                  -5.638
REMARK INTRA:                  -0.828
REMARK UNBOUND:                -0.715
REMARK SMILES O=C([O-])CCCCCCCC(=O)[O-]
REMARK SMILES IDX 7 1 6 2 5 3 4 4 2 5 1 6 3 7 8 8 9 9 10 10 11 11 12 12 13 13
REMARK H PARENT
REMARK Flexibility Score: inf
ROOT
ATOM      1  C   UNL     1      15.711   0.717  -1.870  1.00  0.00     0.000 C 
ENDROOT
BRANCH   1   2
ATOM      2  C   UNL     1      15.701   2.253  -1.797  1.00  0.00     0.000 C 
BRANCH   2   3
ATOM      3  C   UNL     1      16.024   2.781  -0.391  1.00  0.00     0.006 C 
BRANCH   3   4
ATOM      4  C   UNL     1      15.195   4.029  -0.072  1.00  0.00     0.053 C 
BRANCH   4   5
ATOM      5  C   UNL     1      14.664   3.962   1.325  1.00  0.00     0.041 C 
ATOM      6  O   UNL     1      15.185   3.182   2.164  1.00  0.00    -0.550 OA
ATOM      7  O   UNL     1      13.624   4.798   1.714  1.00  0.00    -0.550 OA
ENDBRANCH   4   5
ENDBRANCH   3   4
ENDBRANCH   2   3
ENDBRANCH   1   2
BRANCH   1   8
ATOM      8  C   UNL     1      14.382   0.140  -2.377  1.00  0.00     0.000 C 
BRANCH   8   9
ATOM      9  C   UNL     1      13.366   1.258  -2.647  1.00  0.00     0.006 C 
BRANCH   9  10
ATOM     10  C   UNL     1      12.082   1.040  -1.841  1.00  0.00     0.053 C 
BRANCH  10  11
ATOM     11  C   UNL     1      12.041   1.960  -0.663  1.00  0.00     0.041 C 
ATOM     12  O   UNL     1      12.288   1.524   0.492  1.00  0.00    -0.550 OA
ATOM     13  O   UNL     1      11.776   3.312  -0.845  1.00  0.00    -0.550 OA
ENDBRANCH  10  11
ENDBRANCH   9  10
ENDBRANCH   8   9
ENDBRANCH   1   8
TORSDOF 8
ENDMDL
MODEL 8
REMARK VINA RESULT:    -3.907     13.444     15.723
REMARK INTER + INTRA:          -6.449
REMARK INTER:                  -5.683
REMARK INTRA:                  -0.765
REMARK UNBOUND:                -0.715
REMARK SMILES O=C([O-])CCCCCCCC(=O)[O-]
REMARK SMILES IDX 7 1 6 2 5 3 4 4 2 5 1 6 3 7 8 8 9 9 10 10 11 11 12 12 13 13
REMARK H PARENT
REMARK Flexibility Score: inf
ROOT
ATOM      1  C   UNL     1      15.914   0.759  -1.914  1.00  0.00     0.000 C 
ENDROOT
BRANCH   1   2
ATOM      2  C   UNL     1      14.707   0.152  -2.647  1.00  0.00     0.000 C 
BRANCH   2   3
ATOM      3  C   UNL     1      13.469   0.025  -1.745  1.00  0.00     0.006 C 
BRANCH   3   4
ATOM      4  C   UNL     1      12.424   1.088  -2.098  1.00  0.00     0.053 C 
BRANCH   4   5
ATOM      5  C   UNL     1      12.226   2.029  -0.952  1.00  0.00     0.041 C 
ATOM      6  O   UNL     1      12.387   1.629   0.230  1.00  0.00    -0.550 OA
ATOM      7  O   UNL     1      11.910   3.361  -1.193  1.00  0.00    -0.550 OA
ENDBRANCH   4   5
ENDBRANCH   3   4
ENDBRANCH   2   3
ENDBRANCH   1   2
BRANCH   1   8
ATOM      8  C   UNL     1      15.821   2.286  -1.785  1.00  0.00     0.000 C 
BRANCH   8   9
ATOM      9  C   UNL     1      16.060   2.729  -0.336  1.00  0.00     0.006 C 
BRANCH   9  10
ATOM     10  C   UNL     1      15.330   4.042  -0.035  1.00  0.00     0.053 C 
BRANCH  10  11
ATOM     11  C   UNL     1      14.650   3.969   1.295  1.00  0.00     0.041 C 
ATOM     12  O   UNL     1      15.092   3.205   2.193  1.00  0.00    -0.550 OA
ATOM     13  O   UNL     1      13.555   4.781   1.561  1.00  0.00    -0.550 OA
ENDBRANCH  10  11
ENDBRANCH   9  10
ENDBRANCH   8   9
ENDBRANCH   1   8
TORSDOF 8
ENDMDL
MODEL 9
REMARK VINA RESULT:    -3.864     10.997     12.860
REMARK INTER + INTRA:          -6.386
REMARK INTER:                  -6.108
REMARK INTRA:                  -0.278
REMARK UNBOUND:                -0.715
REMARK SMILES O=C([O-])CCCCCCCC(=O)[O-]
REMARK SMILES IDX 7 1 6 2 5 3 4 4 2 5 1 6 3 7 8 8 9 9 10 10 11 11 12 12 13 13
REMARK H PARENT
REMARK Flexibility Score: inf
ROOT
ATOM      1  C   UNL     1      15.275   1.853   3.504  1.00  0.00     0.000 C 
ENDROOT
BRANCH   1   2
ATOM      2  C   UNL     1      14.291   1.734   4.679  1.00  0.00     0.000 C 
BRANCH   2   3
ATOM      3  C   UNL     1      14.988   1.825   6.045  1.00  0.00     0.006 C 
BRANCH   3   4
ATOM      4  C   UNL     1      16.506   1.948   5.878  1.00  0.00     0.053 C 
BRANCH   4   5
ATOM      5  C   UNL     1      17.211   0.942   6.732  1.00  0.00     0.041 C 
ATOM      6  O   UNL     1      16.992  -0.287   6.574  1.00  0.00    -0.550 OA
ATOM      7  O   UNL     1      18.146   1.361   7.672  1.00  0.00    -0.550 OA
ENDBRANCH   4   5
ENDBRANCH   3   4
ENDBRANCH   2   3
ENDBRANCH   1   2
BRANCH   1   8
ATOM      8  C   UNL     1      14.899   2.979   2.529  1.00  0.00     0.000 C 
BRANCH   8   9
ATOM      9  C   UNL     1      15.055   2.519   1.074  1.00  0.00     0.006 C 
BRANCH   9  10
ATOM     10  C   UNL     1      15.535   3.668   0.183  1.00  0.00     0.053 C 
BRANCH  10  11
ATOM     11  C   UNL     1      15.436   3.288  -1.260  1.00  0.00     0.041 C 
ATOM     12  O   UNL     1      14.722   3.964  -2.047  1.00  0.00    -0.550 OA
ATOM     13  O   UNL     1      16.170   2.214  -1.748  1.00  0.00    -0.550 OA
ENDBRANCH  10  11
ENDBRANCH   9  10
ENDBRANCH   8   9
ENDBRANCH   1   8
TORSDOF 8
ENDMDL
