MODEL 1
REMARK VINA RESULT:    -3.545      0.000      0.000
REMARK INTER + INTRA:          -4.157
REMARK INTER:                  -4.167
REMARK INTRA:                   0.010
REMARK UNBOUND:                 0.010
REMARK SMILES O=C([O-])CCC(=O)[O-]
REMARK SMILES IDX 4 1 2 2 1 3 3 4 5 5 6 6 7 7 8 8
REMARK H PARENT
REMARK Flexibility Score: inf
ROOT
ATOM      1  C   UNL     1       5.166  21.753 -53.032  1.00  0.00     0.059 C 
ENDROOT
BRANCH   1   2
ATOM      2  C   UNL     1       6.395  21.032 -53.496  1.00  0.00     0.042 C 
ATOM      3  O   UNL     1       6.301  20.092 -54.327  1.00  0.00    -0.550 OA
ATOM      4  O   UNL     1       7.639  21.374 -52.980  1.00  0.00    -0.550 OA
ENDBRANCH   1   2
BRANCH   1   5
ATOM      5  C   UNL     1       5.234  23.250 -53.355  1.00  0.00     0.059 C 
BRANCH   5   6
ATOM      6  C   UNL     1       4.748  23.537 -54.743  1.00  0.00     0.042 C 
ATOM      7  O   UNL     1       4.664  24.724 -55.152  1.00  0.00    -0.550 OA
ATOM      8  O   UNL     1       4.429  22.489 -55.597  1.00  0.00    -0.550 OA
ENDBRANCH   5   6
ENDBRANCH   1   5
TORSDOF 3
ENDMDL
MODEL 2
REMARK VINA RESULT:    -3.520      0.400      3.796
REMARK INTER + INTRA:          -4.127
REMARK INTER:                  -4.083
REMARK INTRA:                  -0.044
REMARK UNBOUND:                 0.010
REMARK SMILES O=C([O-])CCC(=O)[O-]
REMARK SMILES IDX 4 1 2 2 1 3 3 4 5 5 6 6 7 7 8 8
REMARK H PARENT
REMARK Flexibility Score: inf
ROOT
ATOM      1  C   UNL     1       5.336  23.270 -53.128  1.00  0.00     0.059 C 
ENDROOT
BRANCH   1   2
ATOM      2  C   UNL     1       4.678  23.737 -54.390  1.00  0.00     0.042 C 
ATOM      3  O   UNL     1       4.135  24.872 -54.438  1.00  0.00    -0.550 OA
ATOM      4  O   UNL     1       4.631  22.904 -55.501  1.00  0.00    -0.550 OA
ENDBRANCH   1   2
BRANCH   1   5
ATOM      5  C   UNL     1       5.192  21.755 -52.944  1.00  0.00     0.059 C 
BRANCH   5   6
ATOM      6  C   UNL     1       6.406  21.023 -53.430  1.00  0.00     0.042 C 
ATOM      7  O   UNL     1       6.293  20.105 -54.284  1.00  0.00    -0.550 OA
ATOM      8  O   UNL     1       7.666  21.384 -52.969  1.00  0.00    -0.550 OA
ENDBRANCH   5   6
ENDBRANCH   1   5
TORSDOF 3
ENDMDL
MODEL 3
REMARK VINA RESULT:    -3.470      1.387      3.963
REMARK INTER + INTRA:          -4.069
REMARK INTER:                  -4.037
REMARK INTRA:                  -0.032
REMARK UNBOUND:                 0.010
REMARK SMILES O=C([O-])CCC(=O)[O-]
REMARK SMILES IDX 4 1 2 2 1 3 3 4 5 5 6 6 7 7 8 8
REMARK H PARENT
REMARK Flexibility Score: inf
ROOT
ATOM      1  C   UNL     1       4.718  22.783 -55.369  1.00  0.00     0.059 C 
ENDROOT
BRANCH   1   2
ATOM      2  C   UNL     1       4.375  24.109 -55.975  1.00  0.00     0.042 C 
ATOM      3  O   UNL     1       4.736  24.379 -57.150  1.00  0.00    -0.550 OA
ATOM      4  O   UNL     1       3.692  25.061 -55.229  1.00  0.00    -0.550 OA
ENDBRANCH   1   2
BRANCH   1   5
ATOM      5  C   UNL     1       5.096  22.919 -53.889  1.00  0.00     0.059 C 
BRANCH   5   6
ATOM      6  C   UNL     1       5.487  21.600 -53.297  1.00  0.00     0.042 C 
ATOM      7  O   UNL     1       5.306  21.377 -52.071  1.00  0.00    -0.550 OA
ATOM      8  O   UNL     1       6.012  20.602 -54.108  1.00  0.00    -0.550 OA
ENDBRANCH   5   6
ENDBRANCH   1   5
TORSDOF 3
ENDMDL
MODEL 4
REMARK VINA RESULT:    -3.459      2.227      3.676
REMARK INTER + INTRA:          -4.055
REMARK INTER:                  -4.002
REMARK INTRA:                  -0.053
REMARK UNBOUND:                 0.010
REMARK SMILES O=C([O-])CCC(=O)[O-]
REMARK SMILES IDX 4 1 2 2 1 3 3 4 5 5 6 6 7 7 8 8
REMARK H PARENT
REMARK Flexibility Score: inf
ROOT
ATOM      1  C   UNL     1       4.994  23.562 -52.988  1.00  0.00     0.059 C 
ENDROOT
BRANCH   1   2
ATOM      2  C   UNL     1       4.063  24.074 -51.932  1.00  0.00     0.042 C 
ATOM      3  O   UNL     1       3.398  25.125 -52.130  1.00  0.00    -0.550 OA
ATOM      4  O   UNL     1       3.959  23.413 -50.714  1.00  0.00    -0.550 OA
ENDBRANCH   1   2
BRANCH   1   5
ATOM      5  C   UNL     1       5.315  22.077 -52.786  1.00  0.00     0.059 C 
BRANCH   5   6
ATOM      6  C   UNL     1       5.303  21.329 -54.084  1.00  0.00     0.042 C 
ATOM      7  O   UNL     1       4.557  21.706 -55.025  1.00  0.00    -0.550 OA
ATOM      8  O   UNL     1       6.147  20.241 -54.267  1.00  0.00    -0.550 OA
ENDBRANCH   5   6
ENDBRANCH   1   5
TORSDOF 3
ENDMDL
MODEL 5
REMARK VINA RESULT:    -3.458     17.274     18.221
REMARK INTER + INTRA:          -4.054
REMARK INTER:                  -3.944
REMARK INTRA:                  -0.110
REMARK UNBOUND:                 0.010
REMARK SMILES O=C([O-])CCC(=O)[O-]
REMARK SMILES IDX 4 1 2 2 1 3 3 4 5 5 6 6 7 7 8 8
REMARK H PARENT
REMARK Flexibility Score: inf
ROOT
ATOM      1  C   UNL     1      -5.379   7.943 -58.882  1.00  0.00     0.059 C 
ENDROOT
BRANCH   1   2
ATOM      2  C   UNL     1      -6.303   7.403 -57.835  1.00  0.00     0.042 C 
ATOM      3  O   UNL     1      -5.845   6.742 -56.866  1.00  0.00    -0.550 OA
ATOM      4  O   UNL     1      -7.674   7.594 -57.949  1.00  0.00    -0.550 OA
ENDBRANCH   1   2
BRANCH   1   5
ATOM      5  C   UNL     1      -4.557   9.125 -58.355  1.00  0.00     0.059 C 
BRANCH   5   6
ATOM      6  C   UNL     1      -3.086   8.859 -58.451  1.00  0.00     0.042 C 
ATOM      7  O   UNL     1      -2.333   9.671 -59.049  1.00  0.00    -0.550 OA
ATOM      8  O   UNL     1      -2.542   7.735 -57.843  1.00  0.00    -0.550 OA
ENDBRANCH   5   6
ENDBRANCH   1   5
TORSDOF 3
ENDMDL
MODEL 6
REMARK VINA RESULT:    -3.376     17.249     18.192
REMARK INTER + INTRA:          -3.959
REMARK INTER:                  -3.846
REMARK INTRA:                  -0.113
REMARK UNBOUND:                 0.010
REMARK SMILES O=C([O-])CCC(=O)[O-]
REMARK SMILES IDX 4 1 2 2 1 3 3 4 5 5 6 6 7 7 8 8
REMARK H PARENT
REMARK Flexibility Score: inf
ROOT
ATOM      1  C   UNL     1      -4.507   9.080 -58.287  1.00  0.00     0.059 C 
ENDROOT
BRANCH   1   2
ATOM      2  C   UNL     1      -3.062   8.818 -58.578  1.00  0.00     0.042 C 
ATOM      3  O   UNL     1      -2.342   9.723 -59.075  1.00  0.00    -0.550 OA
ATOM      4  O   UNL     1      -2.519   7.562 -58.336  1.00  0.00    -0.550 OA
ENDBRANCH   1   2
BRANCH   1   5
ATOM      5  C   UNL     1      -5.396   7.919 -58.749  1.00  0.00     0.059 C 
BRANCH   5   6
ATOM      6  C   UNL     1      -5.977   7.173 -57.586  1.00  0.00     0.042 C 
ATOM      7  O   UNL     1      -5.273   6.935 -56.570  1.00  0.00    -0.550 OA
ATOM      8  O   UNL     1      -7.309   6.779 -57.609  1.00  0.00    -0.550 OA
ENDBRANCH   5   6
ENDBRANCH   1   5
TORSDOF 3
ENDMDL
MODEL 7
REMARK VINA RESULT:    -3.248     16.439     17.282
REMARK INTER + INTRA:          -3.808
REMARK INTER:                  -3.723
REMARK INTRA:                  -0.085
REMARK UNBOUND:                 0.010
REMARK SMILES O=C([O-])CCC(=O)[O-]
REMARK SMILES IDX 4 1 2 2 1 3 3 4 5 5 6 6 7 7 8 8
REMARK H PARENT
REMARK Flexibility Score: inf
ROOT
ATOM      1  C   UNL     1      -1.725   7.160 -59.015  1.00  0.00     0.059 C 
ENDROOT
BRANCH   1   2
ATOM      2  C   UNL     1      -1.199   6.414 -57.827  1.00  0.00     0.042 C 
ATOM      3  O   UNL     1      -1.676   6.630 -56.682  1.00  0.00    -0.550 OA
ATOM      4  O   UNL     1      -0.155   5.510 -57.978  1.00  0.00    -0.550 OA
ENDBRANCH   1   2
BRANCH   1   5
ATOM      5  C   UNL     1      -3.236   7.398 -58.909  1.00  0.00     0.059 C 
BRANCH   5   6
ATOM      6  C   UNL     1      -3.548   8.834 -58.619  1.00  0.00     0.042 C 
ATOM      7  O   UNL     1      -2.684   9.725 -58.828  1.00  0.00    -0.550 OA
ATOM      8  O   UNL     1      -4.809   9.191 -58.158  1.00  0.00    -0.550 OA
ENDBRANCH   5   6
ENDBRANCH   1   5
TORSDOF 3
ENDMDL
MODEL 8
REMARK VINA RESULT:    -3.245     16.243     17.505
REMARK INTER + INTRA:          -3.804
REMARK INTER:                  -3.717
REMARK INTRA:                  -0.087
REMARK UNBOUND:                 0.010
REMARK SMILES O=C([O-])CCC(=O)[O-]
REMARK SMILES IDX 4 1 2 2 1 3 3 4 5 5 6 6 7 7 8 8
REMARK H PARENT
REMARK Flexibility Score: inf
ROOT
ATOM      1  C   UNL     1      -3.158   7.548 -58.609  1.00  0.00     0.059 C 
ENDROOT
BRANCH   1   2
ATOM      2  C   UNL     1      -3.321   9.034 -58.708  1.00  0.00     0.042 C 
ATOM      3  O   UNL     1      -2.349   9.756 -59.052  1.00  0.00    -0.550 OA
ATOM      4  O   UNL     1      -4.536   9.625 -58.381  1.00  0.00    -0.550 OA
ENDBRANCH   1   2
BRANCH   1   5
ATOM      5  C   UNL     1      -1.716   7.118 -58.905  1.00  0.00     0.059 C 
BRANCH   5   6
ATOM      6  C   UNL     1      -1.116   6.376 -57.750  1.00  0.00     0.042 C 
ATOM      7  O   UNL     1      -1.495   6.618 -56.574  1.00  0.00    -0.550 OA
ATOM      8  O   UNL     1      -0.165   5.388 -57.977  1.00  0.00    -0.550 OA
ENDBRANCH   5   6
ENDBRANCH   1   5
TORSDOF 3
ENDMDL
MODEL 9
REMARK VINA RESULT:    -3.217     17.231     18.071
REMARK INTER + INTRA:          -3.771
REMARK INTER:                  -3.585
REMARK INTRA:                  -0.186
REMARK UNBOUND:                 0.010
REMARK SMILES O=C([O-])CCC(=O)[O-]
REMARK SMILES IDX 4 1 2 2 1 3 3 4 5 5 6 6 7 7 8 8
REMARK H PARENT
REMARK Flexibility Score: inf
ROOT
ATOM      1  C   UNL     1      -4.331   7.354 -59.500  1.00  0.00     0.059 C 
ENDROOT
BRANCH   1   2
ATOM      2  C   UNL     1      -4.656   8.503 -58.596  1.00  0.00     0.042 C 
ATOM      3  O   UNL     1      -5.460   8.348 -57.640  1.00  0.00    -0.550 OA
ATOM      4  O   UNL     1      -4.103   9.755 -58.834  1.00  0.00    -0.550 OA
ENDBRANCH   1   2
BRANCH   1   5
ATOM      5  C   UNL     1      -3.497   6.287 -58.779  1.00  0.00     0.059 C 
BRANCH   5   6
ATOM      6  C   UNL     1      -2.217   6.855 -58.247  1.00  0.00     0.042 C 
ATOM      7  O   UNL     1      -1.957   6.788 -57.017  1.00  0.00    -0.550 OA
ATOM      8  O   UNL     1      -1.294   7.421 -59.117  1.00  0.00    -0.550 OA
ENDBRANCH   5   6
ENDBRANCH   1   5
TORSDOF 3
ENDMDL
