MODEL 1
REMARK VINA RESULT:    -3.592      0.000      0.000
REMARK INTER + INTRA:          -3.897
REMARK INTER:                  -3.802
REMARK INTRA:                  -0.095
REMARK UNBOUND:                -0.095
REMARK SMILES C=C(C)[C@H]1CC=C(C)C(=O)C1
REMARK SMILES IDX 8 1 7 2 6 3 5 4 4 5 11 6 9 7 10 8 2 9 1 10 3 11
REMARK H PARENT
REMARK Flexibility Score: inf
ROOT
ATOM      1  C   UNL     1     190.710 203.829 213.387  1.00  0.00     0.048 C 
ATOM      2  C   UNL     1     189.491 203.036 213.007  1.00  0.00    -0.012 C 
ATOM      3  C   UNL     1     188.780 202.405 213.958  1.00  0.00    -0.019 C 
ATOM      4  C   UNL     1     187.561 201.583 213.631  1.00  0.00     0.036 C 
ATOM      5  C   UNL     1     186.811 202.162 212.415  1.00  0.00     0.025 C 
ATOM      6  C   UNL     1     187.764 202.297 211.214  1.00  0.00     0.089 C 
ATOM      7  C   UNL     1     189.004 203.053 211.605  1.00  0.00     0.158 C 
ATOM      8  O   UNL     1     189.650 203.673 210.717  1.00  0.00    -0.295 OA
ENDROOT
BRANCH   5   9
ATOM      9  C   UNL     1     185.580 201.340 212.069  1.00  0.00    -0.077 C 
ATOM     10  C   UNL     1     185.525 200.019 212.317  1.00  0.00     0.008 C 
ATOM     11  C   UNL     1     184.404 202.036 211.436  1.00  0.00     0.039 C 
ENDBRANCH   5   9
TORSDOF 1
ENDMDL
MODEL 2
REMARK VINA RESULT:    -3.492      1.810      4.718
REMARK INTER + INTRA:          -3.791
REMARK INTER:                  -3.697
REMARK INTRA:                  -0.094
REMARK UNBOUND:                -0.095
REMARK SMILES C=C(C)[C@H]1CC=C(C)C(=O)C1
REMARK SMILES IDX 8 1 7 2 6 3 5 4 4 5 11 6 9 7 10 8 2 9 1 10 3 11
REMARK H PARENT
REMARK Flexibility Score: inf
ROOT
ATOM      1  C   UNL     1     185.208 201.664 211.488  1.00  0.00     0.048 C 
ATOM      2  C   UNL     1     186.627 201.941 211.898  1.00  0.00    -0.012 C 
ATOM      3  C   UNL     1     187.474 202.518 211.029  1.00  0.00    -0.019 C 
ATOM      4  C   UNL     1     188.911 202.802 211.382  1.00  0.00     0.036 C 
ATOM      5  C   UNL     1     189.059 203.130 212.881  1.00  0.00     0.025 C 
ATOM      6  C   UNL     1     188.459 201.999 213.737  1.00  0.00     0.089 C 
ATOM      7  C   UNL     1     187.054 201.692 213.298  1.00  0.00     0.158 C 
ATOM      8  O   UNL     1     186.250 201.182 214.125  1.00  0.00    -0.295 OA
ENDROOT
BRANCH   5   9
ATOM      9  C   UNL     1     190.505 203.414 213.255  1.00  0.00    -0.077 C 
ATOM     10  C   UNL     1     191.397 202.420 213.418  1.00  0.00     0.008 C 
ATOM     11  C   UNL     1     190.933 204.846 213.441  1.00  0.00     0.039 C 
ENDBRANCH   5   9
TORSDOF 1
ENDMDL
MODEL 3
REMARK VINA RESULT:    -3.336      1.593      2.424
REMARK INTER + INTRA:          -3.626
REMARK INTER:                  -3.532
REMARK INTRA:                  -0.093
REMARK UNBOUND:                -0.095
REMARK SMILES C=C(C)[C@H]1CC=C(C)C(=O)C1
REMARK SMILES IDX 8 1 7 2 6 3 5 4 4 5 11 6 9 7 10 8 2 9 1 10 3 11
REMARK H PARENT
REMARK Flexibility Score: inf
ROOT
ATOM      1  C   UNL     1     190.379 203.409 212.135  1.00  0.00     0.048 C 
ATOM      2  C   UNL     1     188.974 202.924 211.916  1.00  0.00    -0.012 C 
ATOM      3  C   UNL     1     188.403 203.051 210.706  1.00  0.00    -0.019 C 
ATOM      4  C   UNL     1     186.993 202.598 210.435  1.00  0.00     0.036 C 
ATOM      5  C   UNL     1     186.630 201.370 211.293  1.00  0.00     0.025 C 
ATOM      6  C   UNL     1     186.873 201.670 212.784  1.00  0.00     0.089 C 
ATOM      7  C   UNL     1     188.265 202.196 212.998  1.00  0.00     0.158 C 
ATOM      8  O   UNL     1     188.812 202.046 214.124  1.00  0.00    -0.295 OA
ENDROOT
BRANCH   5   9
ATOM      9  C   UNL     1     185.206 200.904 211.036  1.00  0.00    -0.077 C 
ATOM     10  C   UNL     1     184.152 201.711 211.253  1.00  0.00     0.008 C 
ATOM     11  C   UNL     1     184.988 199.504 210.524  1.00  0.00     0.039 C 
ENDBRANCH   5   9
TORSDOF 1
ENDMDL
MODEL 4
REMARK VINA RESULT:    -3.248      1.895      2.706
REMARK INTER + INTRA:          -3.533
REMARK INTER:                  -3.435
REMARK INTRA:                  -0.098
REMARK UNBOUND:                -0.095
REMARK SMILES C=C(C)[C@H]1CC=C(C)C(=O)C1
REMARK SMILES IDX 8 1 7 2 6 3 5 4 4 5 11 6 9 7 10 8 2 9 1 10 3 11
REMARK H PARENT
REMARK Flexibility Score: inf
ROOT
ATOM      1  C   UNL     1     189.686 203.957 208.780  1.00  0.00     0.048 C 
ATOM      2  C   UNL     1     188.839 203.149 209.724  1.00  0.00    -0.012 C 
ATOM      3  C   UNL     1     189.044 203.237 211.049  1.00  0.00    -0.019 C 
ATOM      4  C   UNL     1     188.236 202.438 212.038  1.00  0.00     0.036 C 
ATOM      5  C   UNL     1     186.798 202.218 211.529  1.00  0.00     0.025 C 
ATOM      6  C   UNL     1     186.818 201.571 210.132  1.00  0.00     0.089 C 
ATOM      7  C   UNL     1     187.700 202.354 209.199  1.00  0.00     0.158 C 
ATOM      8  O   UNL     1     187.485 202.297 207.958  1.00  0.00    -0.295 OA
ENDROOT
BRANCH   5   9
ATOM      9  C   UNL     1     185.971 201.407 212.514  1.00  0.00    -0.077 C 
ATOM     10  C   UNL     1     185.405 200.238 212.162  1.00  0.00     0.008 C 
ATOM     11  C   UNL     1     185.792 201.937 213.913  1.00  0.00     0.039 C 
ENDBRANCH   5   9
TORSDOF 1
ENDMDL
MODEL 5
REMARK VINA RESULT:    -3.244      3.443      4.614
REMARK INTER + INTRA:          -3.529
REMARK INTER:                  -3.431
REMARK INTRA:                  -0.098
REMARK UNBOUND:                -0.095
REMARK SMILES C=C(C)[C@H]1CC=C(C)C(=O)C1
REMARK SMILES IDX 8 1 7 2 6 3 5 4 4 5 11 6 9 7 10 8 2 9 1 10 3 11
REMARK H PARENT
REMARK Flexibility Score: inf
ROOT
ATOM      1  C   UNL     1     188.578 196.481 211.463  1.00  0.00     0.048 C 
ATOM      2  C   UNL     1     187.963 197.827 211.729  1.00  0.00    -0.012 C 
ATOM      3  C   UNL     1     187.295 198.462 210.751  1.00  0.00    -0.019 C 
ATOM      4  C   UNL     1     186.675 199.819 210.958  1.00  0.00     0.036 C 
ATOM      5  C   UNL     1     186.191 199.992 212.411  1.00  0.00     0.025 C 
ATOM      6  C   UNL     1     187.343 199.720 213.395  1.00  0.00     0.089 C 
ATOM      7  C   UNL     1     187.987 198.393 213.101  1.00  0.00     0.158 C 
ATOM      8  O   UNL     1     188.584 197.781 214.029  1.00  0.00    -0.295 OA
ENDROOT
BRANCH   5   9
ATOM      9  C   UNL     1     185.567 201.359 212.638  1.00  0.00    -0.077 C 
ATOM     10  C   UNL     1     184.889 201.993 211.664  1.00  0.00     0.008 C 
ATOM     11  C   UNL     1     185.718 202.005 213.991  1.00  0.00     0.039 C 
ENDBRANCH   5   9
TORSDOF 1
ENDMDL
MODEL 6
REMARK VINA RESULT:    -3.233      1.628      2.513
REMARK INTER + INTRA:          -3.517
REMARK INTER:                  -3.416
REMARK INTRA:                  -0.101
REMARK UNBOUND:                -0.095
REMARK SMILES C=C(C)[C@H]1CC=C(C)C(=O)C1
REMARK SMILES IDX 8 1 7 2 6 3 5 4 4 5 11 6 9 7 10 8 2 9 1 10 3 11
REMARK H PARENT
REMARK Flexibility Score: inf
ROOT
ATOM      1  C   UNL     1     191.016 202.357 209.740  1.00  0.00     0.048 C 
ATOM      2  C   UNL     1     189.703 202.421 210.469  1.00  0.00    -0.012 C 
ATOM      3  C   UNL     1     188.564 202.604 209.780  1.00  0.00    -0.019 C 
ATOM      4  C   UNL     1     187.224 202.693 210.462  1.00  0.00     0.036 C 
ATOM      5  C   UNL     1     187.185 201.815 211.727  1.00  0.00     0.025 C 
ATOM      6  C   UNL     1     188.346 202.182 212.669  1.00  0.00     0.089 C 
ATOM      7  C   UNL     1     189.655 202.161 211.930  1.00  0.00     0.158 C 
ATOM      8  O   UNL     1     190.720 201.955 212.572  1.00  0.00    -0.295 OA
ENDROOT
BRANCH   5   9
ATOM      9  C   UNL     1     185.840 201.898 212.430  1.00  0.00    -0.077 C 
ATOM     10  C   UNL     1     185.743 201.844 213.771  1.00  0.00     0.008 C 
ATOM     11  C   UNL     1     184.597 202.047 211.592  1.00  0.00     0.039 C 
ENDBRANCH   5   9
TORSDOF 1
ENDMDL
MODEL 7
REMARK VINA RESULT:    -3.224      3.136      5.592
REMARK INTER + INTRA:          -3.508
REMARK INTER:                  -3.413
REMARK INTRA:                  -0.095
REMARK UNBOUND:                -0.095
REMARK SMILES C=C(C)[C@H]1CC=C(C)C(=O)C1
REMARK SMILES IDX 8 1 7 2 6 3 5 4 4 5 11 6 9 7 10 8 2 9 1 10 3 11
REMARK H PARENT
REMARK Flexibility Score: inf
ROOT
ATOM      1  C   UNL     1     183.960 197.279 208.962  1.00  0.00     0.048 C 
ATOM      2  C   UNL     1     184.615 198.439 209.659  1.00  0.00    -0.012 C 
ATOM      3  C   UNL     1     183.875 199.493 210.044  1.00  0.00    -0.019 C 
ATOM      4  C   UNL     1     184.483 200.688 210.730  1.00  0.00     0.036 C 
ATOM      5  C   UNL     1     185.684 200.275 211.603  1.00  0.00     0.025 C 
ATOM      6  C   UNL     1     186.713 199.497 210.763  1.00  0.00     0.089 C 
ATOM      7  C   UNL     1     186.050 198.363 210.031  1.00  0.00     0.158 C 
ATOM      8  O   UNL     1     186.738 197.360 209.701  1.00  0.00    -0.295 OA
ENDROOT
BRANCH   5   9
ATOM      9  C   UNL     1     186.312 201.471 212.299  1.00  0.00    -0.077 C 
ATOM     10  C   UNL     1     187.252 202.222 211.696  1.00  0.00     0.008 C 
ATOM     11  C   UNL     1     185.860 201.813 213.695  1.00  0.00     0.039 C 
ENDBRANCH   5   9
TORSDOF 1
ENDMDL
MODEL 8
REMARK VINA RESULT:    -3.197      2.257      4.379
REMARK INTER + INTRA:          -3.479
REMARK INTER:                  -3.383
REMARK INTRA:                  -0.096
REMARK UNBOUND:                -0.095
REMARK SMILES C=C(C)[C@H]1CC=C(C)C(=O)C1
REMARK SMILES IDX 8 1 7 2 6 3 5 4 4 5 11 6 9 7 10 8 2 9 1 10 3 11
REMARK H PARENT
REMARK Flexibility Score: inf
ROOT
ATOM      1  C   UNL     1     185.589 199.489 208.089  1.00  0.00     0.048 C 
ATOM      2  C   UNL     1     185.786 200.161 209.418  1.00  0.00    -0.012 C 
ATOM      3  C   UNL     1     185.037 199.794 210.471  1.00  0.00    -0.019 C 
ATOM      4  C   UNL     1     185.181 200.447 211.821  1.00  0.00     0.036 C 
ATOM      5  C   UNL     1     186.637 200.885 212.073  1.00  0.00     0.025 C 
ATOM      6  C   UNL     1     187.127 201.792 210.930  1.00  0.00     0.089 C 
ATOM      7  C   UNL     1     186.890 201.138 209.597  1.00  0.00     0.158 C 
ATOM      8  O   UNL     1     187.618 201.458 208.618  1.00  0.00    -0.295 OA
ENDROOT
BRANCH   5   9
ATOM      9  C   UNL     1     186.798 201.551 213.430  1.00  0.00    -0.077 C 
ATOM     10  C   UNL     1     185.736 201.996 214.125  1.00  0.00     0.008 C 
ATOM     11  C   UNL     1     188.186 201.705 213.996  1.00  0.00     0.039 C 
ENDBRANCH   5   9
TORSDOF 1
ENDMDL
