MODEL 1
REMARK VINA RESULT:    -5.024      0.000      0.000
REMARK INTER + INTRA:         -12.978
REMARK INTER:                 -10.899
REMARK INTRA:                  -2.079
REMARK UNBOUND:                -2.079
REMARK SMILES CCCCCCCCCCCCCCCCCCCCCC(=O)[O-]
REMARK SMILES IDX 12 1 11 2 10 3 9 4 8 5 7 6 6 7 5 8 4 9 3 10 2 11 1 12 13 13
REMARK SMILES IDX 14 14 15 15 16 16 17 17 18 18 19 19 20 20 21 21 22 22 23 23
REMARK SMILES IDX 24 24
REMARK H PARENT
REMARK Flexibility Score: inf
ROOT
ATOM      1  C   UNL     1      21.074 117.772 295.929  1.00  0.00     0.000 C 
ENDROOT
BRANCH   1   2
ATOM      2  C   UNL     1      20.595 118.830 296.929  1.00  0.00     0.000 C 
BRANCH   2   3
ATOM      3  C   UNL     1      20.521 120.214 296.272  1.00  0.00     0.000 C 
BRANCH   3   4
ATOM      4  C   UNL     1      19.930 120.121 294.858  1.00  0.00    -0.000 C 
BRANCH   4   5
ATOM      5  C   UNL     1      18.542 120.775 294.753  1.00  0.00    -0.000 C 
BRANCH   5   6
ATOM      6  C   UNL     1      17.453 119.779 294.316  1.00  0.00    -0.000 C 
BRANCH   6   7
ATOM      7  C   UNL     1      18.029 118.409 293.925  1.00  0.00    -0.000 C 
BRANCH   7   8
ATOM      8  C   UNL     1      16.982 117.282 293.998  1.00  0.00    -0.000 C 
BRANCH   8   9
ATOM      9  C   UNL     1      17.306 116.109 293.056  1.00  0.00    -0.000 C 
BRANCH   9  10
ATOM     10  C   UNL     1      18.260 116.453 291.891  1.00  0.00    -0.000 C 
BRANCH  10  11
ATOM     11  C   UNL     1      17.809 115.942 290.510  1.00  0.00    -0.003 C 
ATOM     12  C   UNL     1      17.333 114.489 290.536  1.00  0.00     0.004 C 
ENDBRANCH  10  11
ENDBRANCH   9  10
ENDBRANCH   8   9
ENDBRANCH   7   8
ENDBRANCH   6   7
ENDBRANCH   5   6
ENDBRANCH   4   5
ENDBRANCH   3   4
ENDBRANCH   2   3
ENDBRANCH   1   2
BRANCH   1  13
ATOM     13  C   UNL     1      22.477 117.267 296.288  1.00  0.00     0.000 C 
BRANCH  13  14
ATOM     14  C   UNL     1      23.551 117.988 295.458  1.00  0.00     0.000 C 
BRANCH  14  15
ATOM     15  C   UNL     1      23.110 118.240 294.001  1.00  0.00     0.000 C 
BRANCH  15  16
ATOM     16  C   UNL     1      24.021 119.213 293.227  1.00  0.00     0.000 C 
BRANCH  16  17
ATOM     17  C   UNL     1      25.502 118.799 293.130  1.00  0.00     0.000 C 
BRANCH  17  18
ATOM     18  C   UNL     1      25.950 118.301 291.743  1.00  0.00     0.000 C 
BRANCH  18  19
ATOM     19  C   UNL     1      25.266 116.988 291.327  1.00  0.00     0.000 C 
BRANCH  19  20
ATOM     20  C   UNL     1      24.586 117.077 289.946  1.00  0.00     0.006 C 
BRANCH  20  21
ATOM     21  C   UNL     1      24.655 118.477 289.307  1.00  0.00     0.053 C 
BRANCH  21  22
ATOM     22  C   UNL     1      23.657 118.659 288.206  1.00  0.00     0.041 C 
ATOM     23  O   UNL     1      23.227 117.662 287.567  1.00  0.00    -0.550 OA
ATOM     24  O   UNL     1      23.206 119.933 287.877  1.00  0.00    -0.550 OA
ENDBRANCH  21  22
ENDBRANCH  20  21
ENDBRANCH  19  20
ENDBRANCH  18  19
ENDBRANCH  17  18
ENDBRANCH  16  17
ENDBRANCH  15  16
ENDBRANCH  14  15
ENDBRANCH  13  14
ENDBRANCH   1  13
TORSDOF 20
ENDMDL
MODEL 2
REMARK VINA RESULT:    -5.008      2.196      4.271
REMARK INTER + INTRA:         -12.941
REMARK INTER:                 -10.112
REMARK INTRA:                  -2.830
REMARK UNBOUND:                -2.079
REMARK SMILES CCCCCCCCCCCCCCCCCCCCCC(=O)[O-]
REMARK SMILES IDX 12 1 11 2 10 3 9 4 8 5 7 6 6 7 5 8 4 9 3 10 2 11 1 12 13 13
REMARK SMILES IDX 14 14 15 15 16 16 17 17 18 18 19 19 20 20 21 21 22 22 23 23
REMARK SMILES IDX 24 24
REMARK H PARENT
REMARK Flexibility Score: inf
ROOT
ATOM      1  C   UNL     1      19.815 121.373 294.237  1.00  0.00     0.000 C 
ENDROOT
BRANCH   1   2
ATOM      2  C   UNL     1      18.957 122.604 294.547  1.00  0.00     0.000 C 
BRANCH   2   3
ATOM      3  C   UNL     1      17.559 122.470 293.927  1.00  0.00     0.000 C 
BRANCH   3   4
ATOM      4  C   UNL     1      16.505 122.184 295.007  1.00  0.00    -0.000 C 
BRANCH   4   5
ATOM      5  C   UNL     1      16.009 120.729 294.978  1.00  0.00    -0.000 C 
BRANCH   5   6
ATOM      6  C   UNL     1      15.759 120.221 293.547  1.00  0.00    -0.000 C 
BRANCH   6   7
ATOM      7  C   UNL     1      16.195 118.760 293.355  1.00  0.00    -0.000 C 
BRANCH   7   8
ATOM      8  C   UNL     1      17.562 118.459 293.999  1.00  0.00    -0.000 C 
BRANCH   8   9
ATOM      9  C   UNL     1      18.345 117.367 293.247  1.00  0.00    -0.000 C 
BRANCH   9  10
ATOM     10  C   UNL     1      17.500 116.508 292.282  1.00  0.00    -0.000 C 
BRANCH  10  11
ATOM     11  C   UNL     1      18.278 115.908 291.096  1.00  0.00    -0.003 C 
ATOM     12  C   UNL     1      17.586 114.689 290.484  1.00  0.00     0.004 C 
ENDBRANCH  10  11
ENDBRANCH   9  10
ENDBRANCH   8   9
ENDBRANCH   7   8
ENDBRANCH   6   7
ENDBRANCH   5   6
ENDBRANCH   4   5
ENDBRANCH   3   4
ENDBRANCH   2   3
ENDBRANCH   1   2
BRANCH   1  13
ATOM     13  C   UNL     1      20.583 120.909 295.481  1.00  0.00     0.000 C 
BRANCH  13  14
ATOM     14  C   UNL     1      19.662 120.857 296.710  1.00  0.00     0.000 C 
BRANCH  14  15
ATOM     15  C   UNL     1      18.918 119.511 296.842  1.00  0.00     0.000 C 
BRANCH  15  16
ATOM     16  C   UNL     1      19.775 118.372 297.429  1.00  0.00     0.000 C 
BRANCH  16  17
ATOM     17  C   UNL     1      20.610 117.577 296.406  1.00  0.00     0.000 C 
BRANCH  17  18
ATOM     18  C   UNL     1      22.064 117.300 296.830  1.00  0.00     0.000 C 
BRANCH  18  19
ATOM     19  C   UNL     1      23.040 117.271 295.641  1.00  0.00     0.000 C 
BRANCH  19  20
ATOM     20  C   UNL     1      22.500 118.018 294.404  1.00  0.00     0.006 C 
BRANCH  20  21
ATOM     21  C   UNL     1      23.406 119.170 293.929  1.00  0.00     0.053 C 
BRANCH  21  22
ATOM     22  C   UNL     1      24.561 118.693 293.104  1.00  0.00     0.041 C 
ATOM     23  O   UNL     1      25.644 118.364 293.657  1.00  0.00    -0.550 OA
ATOM     24  O   UNL     1      24.446 118.619 291.719  1.00  0.00    -0.550 OA
ENDBRANCH  21  22
ENDBRANCH  20  21
ENDBRANCH  19  20
ENDBRANCH  18  19
ENDBRANCH  17  18
ENDBRANCH  16  17
ENDBRANCH  15  16
ENDBRANCH  14  15
ENDBRANCH  13  14
ENDBRANCH   1  13
TORSDOF 20
ENDMDL
MODEL 3
REMARK VINA RESULT:    -4.850      4.143      5.751
REMARK INTER + INTRA:         -12.600
REMARK INTER:                  -9.287
REMARK INTRA:                  -3.313
REMARK UNBOUND:                -2.079
REMARK SMILES CCCCCCCCCCCCCCCCCCCCCC(=O)[O-]
REMARK SMILES IDX 12 1 11 2 10 3 9 4 8 5 7 6 6 7 5 8 4 9 3 10 2 11 1 12 13 13
REMARK SMILES IDX 14 14 15 15 16 16 17 17 18 18 19 19 20 20 21 21 22 22 23 23
REMARK SMILES IDX 24 24
REMARK H PARENT
REMARK Flexibility Score: inf
ROOT
ATOM      1  C   UNL     1      17.802 121.559 294.288  1.00  0.00     0.000 C 
ENDROOT
BRANCH   1   2
ATOM      2  C   UNL     1      16.285 121.567 294.069  1.00  0.00     0.000 C 
BRANCH   2   3
ATOM      3  C   UNL     1      15.829 120.302 293.331  1.00  0.00     0.000 C 
BRANCH   3   4
ATOM      4  C   UNL     1      14.620 119.664 294.031  1.00  0.00    -0.000 C 
BRANCH   4   5
ATOM      5  C   UNL     1      14.870 119.409 295.527  1.00  0.00    -0.000 C 
BRANCH   5   6
ATOM      6  C   UNL     1      15.404 117.991 295.801  1.00  0.00    -0.000 C 
BRANCH   6   7
ATOM      7  C   UNL     1      16.840 117.997 296.347  1.00  0.00    -0.000 C 
BRANCH   7   8
ATOM      8  C   UNL     1      17.885 117.643 295.272  1.00  0.00    -0.000 C 
BRANCH   8   9
ATOM      9  C   UNL     1      17.289 116.825 294.112  1.00  0.00    -0.000 C 
BRANCH   9  10
ATOM     10  C   UNL     1      17.905 117.116 292.726  1.00  0.00    -0.000 C 
BRANCH  10  11
ATOM     11  C   UNL     1      17.407 116.204 291.590  1.00  0.00    -0.003 C 
ATOM     12  C   UNL     1      18.545 115.508 290.841  1.00  0.00     0.004 C 
ENDBRANCH  10  11
ENDBRANCH   9  10
ENDBRANCH   8   9
ENDBRANCH   7   8
ENDBRANCH   6   7
ENDBRANCH   5   6
ENDBRANCH   4   5
ENDBRANCH   3   4
ENDBRANCH   2   3
ENDBRANCH   1   2
BRANCH   1  13
ATOM     13  C   UNL     1      18.144 121.601 295.783  1.00  0.00     0.000 C 
BRANCH  13  14
ATOM     14  C   UNL     1      19.455 120.853 296.070  1.00  0.00     0.000 C 
BRANCH  14  15
ATOM     15  C   UNL     1      20.440 120.898 294.884  1.00  0.00     0.000 C 
BRANCH  15  16
ATOM     16  C   UNL     1      21.019 119.524 294.493  1.00  0.00     0.000 C 
BRANCH  16  17
ATOM     17  C   UNL     1      22.556 119.454 294.403  1.00  0.00     0.000 C 
BRANCH  17  18
ATOM     18  C   UNL     1      23.306 120.094 295.587  1.00  0.00     0.000 C 
BRANCH  18  19
ATOM     19  C   UNL     1      23.835 119.057 296.592  1.00  0.00     0.000 C 
BRANCH  19  20
ATOM     20  C   UNL     1      22.748 118.555 297.565  1.00  0.00     0.006 C 
BRANCH  20  21
ATOM     21  C   UNL     1      22.167 117.178 297.193  1.00  0.00     0.053 C 
BRANCH  21  22
ATOM     22  C   UNL     1      20.730 117.032 297.588  1.00  0.00     0.041 C 
ATOM     23  O   UNL     1      20.122 117.988 298.138  1.00  0.00    -0.550 OA
ATOM     24  O   UNL     1      20.062 115.834 297.354  1.00  0.00    -0.550 OA
ENDBRANCH  21  22
ENDBRANCH  20  21
ENDBRANCH  19  20
ENDBRANCH  18  19
ENDBRANCH  17  18
ENDBRANCH  16  17
ENDBRANCH  15  16
ENDBRANCH  14  15
ENDBRANCH  13  14
ENDBRANCH   1  13
TORSDOF 20
ENDMDL
MODEL 4
REMARK VINA RESULT:    -4.763      5.066      6.877
REMARK INTER + INTRA:         -12.411
REMARK INTER:                 -10.443
REMARK INTRA:                  -1.968
REMARK UNBOUND:                -2.079
REMARK SMILES CCCCCCCCCCCCCCCCCCCCCC(=O)[O-]
REMARK SMILES IDX 12 1 11 2 10 3 9 4 8 5 7 6 6 7 5 8 4 9 3 10 2 11 1 12 13 13
REMARK SMILES IDX 14 14 15 15 16 16 17 17 18 18 19 19 20 20 21 21 22 22 23 23
REMARK SMILES IDX 24 24
REMARK H PARENT
REMARK Flexibility Score: inf
ROOT
ATOM      1  C   UNL     1      21.016 118.385 299.425  1.00  0.00     0.000 C 
ENDROOT
BRANCH   1   2
ATOM      2  C   UNL     1      21.254 118.251 297.917  1.00  0.00     0.000 C 
BRANCH   2   3
ATOM      3  C   UNL     1      20.589 116.983 297.366  1.00  0.00     0.000 C 
BRANCH   3   4
ATOM      4  C   UNL     1      19.612 117.324 296.231  1.00  0.00    -0.000 C 
BRANCH   4   5
ATOM      5  C   UNL     1      19.419 118.840 296.052  1.00  0.00    -0.000 C 
BRANCH   5   6
ATOM      6  C   UNL     1      18.340 119.176 295.007  1.00  0.00    -0.000 C 
BRANCH   6   7
ATOM      7  C   UNL     1      17.330 118.035 294.813  1.00  0.00    -0.000 C 
BRANCH   7   8
ATOM      8  C   UNL     1      16.938 117.834 293.337  1.00  0.00    -0.000 C 
BRANCH   8   9
ATOM      9  C   UNL     1      17.355 116.454 292.795  1.00  0.00    -0.000 C 
BRANCH   9  10
ATOM     10  C   UNL     1      18.484 116.482 291.742  1.00  0.00    -0.000 C 
BRANCH  10  11
ATOM     11  C   UNL     1      18.418 115.360 290.690  1.00  0.00    -0.003 C 
ATOM     12  C   UNL     1      17.073 114.633 290.676  1.00  0.00     0.004 C 
ENDBRANCH  10  11
ENDBRANCH   9  10
ENDBRANCH   8   9
ENDBRANCH   7   8
ENDBRANCH   6   7
ENDBRANCH   5   6
ENDBRANCH   4   5
ENDBRANCH   3   4
ENDBRANCH   2   3
ENDBRANCH   1   2
BRANCH   1  13
ATOM     13  C   UNL     1      19.911 119.407 299.722  1.00  0.00     0.000 C 
BRANCH  13  14
ATOM     14  C   UNL     1      20.502 120.808 299.944  1.00  0.00     0.000 C 
BRANCH  14  15
ATOM     15  C   UNL     1      20.719 121.134 301.437  1.00  0.00     0.000 C 
BRANCH  15  16
ATOM     16  C   UNL     1      22.180 121.461 301.804  1.00  0.00     0.000 C 
BRANCH  16  17
ATOM     17  C   UNL     1      23.095 121.826 300.619  1.00  0.00     0.000 C 
BRANCH  17  18
ATOM     18  C   UNL     1      24.593 121.549 300.845  1.00  0.00     0.000 C 
BRANCH  18  19
ATOM     19  C   UNL     1      24.895 120.067 301.123  1.00  0.00     0.000 C 
BRANCH  19  20
ATOM     20  C   UNL     1      24.200 119.117 300.125  1.00  0.00     0.006 C 
BRANCH  20  21
ATOM     21  C   UNL     1      24.929 118.990 298.775  1.00  0.00     0.053 C 
BRANCH  21  22
ATOM     22  C   UNL     1      26.413 118.863 298.930  1.00  0.00     0.041 C 
ATOM     23  O   UNL     1      26.914 117.815 299.418  1.00  0.00    -0.550 OA
ATOM     24  O   UNL     1      27.247 119.907 298.542  1.00  0.00    -0.550 OA
ENDBRANCH  21  22
ENDBRANCH  20  21
ENDBRANCH  19  20
ENDBRANCH  18  19
ENDBRANCH  17  18
ENDBRANCH  16  17
ENDBRANCH  15  16
ENDBRANCH  14  15
ENDBRANCH  13  14
ENDBRANCH   1  13
TORSDOF 20
ENDMDL
MODEL 5
REMARK VINA RESULT:    -4.757      5.600      7.761
REMARK INTER + INTRA:         -12.397
REMARK INTER:                 -10.314
REMARK INTRA:                  -2.083
REMARK UNBOUND:                -2.079
REMARK SMILES CCCCCCCCCCCCCCCCCCCCCC(=O)[O-]
REMARK SMILES IDX 12 1 11 2 10 3 9 4 8 5 7 6 6 7 5 8 4 9 3 10 2 11 1 12 13 13
REMARK SMILES IDX 14 14 15 15 16 16 17 17 18 18 19 19 20 20 21 21 22 22 23 23
REMARK SMILES IDX 24 24
REMARK H PARENT
REMARK Flexibility Score: inf
ROOT
ATOM      1  C   UNL     1      22.299 118.383 298.971  1.00  0.00     0.000 C 
ENDROOT
BRANCH   1   2
ATOM      2  C   UNL     1      21.835 119.277 297.816  1.00  0.00     0.000 C 
BRANCH   2   3
ATOM      3  C   UNL     1      21.317 118.437 296.642  1.00  0.00     0.000 C 
BRANCH   3   4
ATOM      4  C   UNL     1      20.765 117.089 297.133  1.00  0.00    -0.000 C 
BRANCH   4   5
ATOM      5  C   UNL     1      19.302 116.864 296.718  1.00  0.00    -0.000 C 
BRANCH   5   6
ATOM      6  C   UNL     1      18.454 118.144 296.834  1.00  0.00    -0.000 C 
BRANCH   6   7
ATOM      7  C   UNL     1      17.136 118.051 296.049  1.00  0.00    -0.000 C 
BRANCH   7   8
ATOM      8  C   UNL     1      17.348 118.108 294.524  1.00  0.00    -0.000 C 
BRANCH   8   9
ATOM      9  C   UNL     1      17.240 116.725 293.858  1.00  0.00    -0.000 C 
BRANCH   9  10
ATOM     10  C   UNL     1      17.611 116.694 292.359  1.00  0.00    -0.000 C 
BRANCH  10  11
ATOM     11  C   UNL     1      17.239 115.393 291.625  1.00  0.00    -0.003 C 
ATOM     12  C   UNL     1      18.000 115.210 290.311  1.00  0.00     0.004 C 
ENDBRANCH  10  11
ENDBRANCH   9  10
ENDBRANCH   8   9
ENDBRANCH   7   8
ENDBRANCH   6   7
ENDBRANCH   5   6
ENDBRANCH   4   5
ENDBRANCH   3   4
ENDBRANCH   2   3
ENDBRANCH   1   2
BRANCH   1  13
ATOM     13  C   UNL     1      23.584 118.926 299.609  1.00  0.00     0.000 C 
BRANCH  13  14
ATOM     14  C   UNL     1      24.121 120.132 298.824  1.00  0.00     0.000 C 
BRANCH  14  15
ATOM     15  C   UNL     1      25.662 120.206 298.823  1.00  0.00     0.000 C 
BRANCH  15  16
ATOM     16  C   UNL     1      26.313 119.785 300.156  1.00  0.00     0.000 C 
BRANCH  16  17
ATOM     17  C   UNL     1      26.811 120.941 301.044  1.00  0.00     0.000 C 
BRANCH  17  18
ATOM     18  C   UNL     1      26.332 120.891 302.506  1.00  0.00     0.000 C 
BRANCH  18  19
ATOM     19  C   UNL     1      24.851 120.494 302.639  1.00  0.00     0.000 C 
BRANCH  19  20
ATOM     20  C   UNL     1      23.887 121.639 302.265  1.00  0.00     0.006 C 
BRANCH  20  21
ATOM     21  C   UNL     1      22.407 121.325 302.552  1.00  0.00     0.053 C 
BRANCH  21  22
ATOM     22  C   UNL     1      21.542 121.458 301.337  1.00  0.00     0.041 C 
ATOM     23  O   UNL     1      21.740 122.392 300.516  1.00  0.00    -0.550 OA
ATOM     24  O   UNL     1      20.509 120.554 301.115  1.00  0.00    -0.550 OA
ENDBRANCH  21  22
ENDBRANCH  20  21
ENDBRANCH  19  20
ENDBRANCH  18  19
ENDBRANCH  17  18
ENDBRANCH  16  17
ENDBRANCH  15  16
ENDBRANCH  14  15
ENDBRANCH  13  14
ENDBRANCH   1  13
TORSDOF 20
ENDMDL
MODEL 6
REMARK VINA RESULT:    -4.733      2.229      3.407
REMARK INTER + INTRA:         -12.345
REMARK INTER:                  -9.954
REMARK INTRA:                  -2.390
REMARK UNBOUND:                -2.079
REMARK SMILES CCCCCCCCCCCCCCCCCCCCCC(=O)[O-]
REMARK SMILES IDX 12 1 11 2 10 3 9 4 8 5 7 6 6 7 5 8 4 9 3 10 2 11 1 12 13 13
REMARK SMILES IDX 14 14 15 15 16 16 17 17 18 18 19 19 20 20 21 21 22 22 23 23
REMARK SMILES IDX 24 24
REMARK H PARENT
REMARK Flexibility Score: inf
ROOT
ATOM      1  C   UNL     1      19.895 117.675 295.978  1.00  0.00     0.000 C 
ENDROOT
BRANCH   1   2
ATOM      2  C   UNL     1      20.722 118.320 294.860  1.00  0.00     0.000 C 
BRANCH   2   3
ATOM      3  C   UNL     1      20.287 119.772 294.622  1.00  0.00     0.000 C 
BRANCH   3   4
ATOM      4  C   UNL     1      19.116 120.153 295.540  1.00  0.00    -0.000 C 
BRANCH   4   5
ATOM      5  C   UNL     1      17.796 120.331 294.771  1.00  0.00    -0.000 C 
BRANCH   5   6
ATOM      6  C   UNL     1      16.603 119.679 295.493  1.00  0.00    -0.000 C 
BRANCH   6   7
ATOM      7  C   UNL     1      16.165 118.361 294.836  1.00  0.00    -0.000 C 
BRANCH   7   8
ATOM      8  C   UNL     1      16.841 118.123 293.473  1.00  0.00    -0.000 C 
BRANCH   8   9
ATOM      9  C   UNL     1      17.314 116.670 293.290  1.00  0.00    -0.000 C 
BRANCH   9  10
ATOM     10  C   UNL     1      18.134 116.409 292.008  1.00  0.00    -0.000 C 
BRANCH  10  11
ATOM     11  C   UNL     1      17.318 115.894 290.808  1.00  0.00    -0.003 C 
ATOM     12  C   UNL     1      17.303 114.369 290.706  1.00  0.00     0.004 C 
ENDBRANCH  10  11
ENDBRANCH   9  10
ENDBRANCH   8   9
ENDBRANCH   7   8
ENDBRANCH   6   7
ENDBRANCH   5   6
ENDBRANCH   4   5
ENDBRANCH   3   4
ENDBRANCH   2   3
ENDBRANCH   1   2
BRANCH   1  13
ATOM     13  C   UNL     1      20.792 116.906 296.955  1.00  0.00     0.000 C 
BRANCH  13  14
ATOM     14  C   UNL     1      21.185 117.787 298.151  1.00  0.00     0.000 C 
BRANCH  14  15
ATOM     15  C   UNL     1      22.695 118.103 298.189  1.00  0.00     0.000 C 
BRANCH  15  16
ATOM     16  C   UNL     1      23.046 119.548 297.783  1.00  0.00     0.000 C 
BRANCH  16  17
ATOM     17  C   UNL     1      23.687 119.707 296.390  1.00  0.00     0.000 C 
BRANCH  17  18
ATOM     18  C   UNL     1      25.043 120.436 296.377  1.00  0.00     0.000 C 
BRANCH  18  19
ATOM     19  C   UNL     1      25.652 120.547 294.969  1.00  0.00     0.000 C 
BRANCH  19  20
ATOM     20  C   UNL     1      26.689 119.444 294.675  1.00  0.00     0.006 C 
BRANCH  20  21
ATOM     21  C   UNL     1      26.784 119.058 293.187  1.00  0.00     0.053 C 
BRANCH  21  22
ATOM     22  C   UNL     1      25.548 118.377 292.688  1.00  0.00     0.041 C 
ATOM     23  O   UNL     1      25.201 118.494 291.482  1.00  0.00    -0.550 OA
ATOM     24  O   UNL     1      24.772 117.617 293.556  1.00  0.00    -0.550 OA
ENDBRANCH  21  22
ENDBRANCH  20  21
ENDBRANCH  19  20
ENDBRANCH  18  19
ENDBRANCH  17  18
ENDBRANCH  16  17
ENDBRANCH  15  16
ENDBRANCH  14  15
ENDBRANCH  13  14
ENDBRANCH   1  13
TORSDOF 20
ENDMDL
MODEL 7
REMARK VINA RESULT:    -4.729      4.758      6.466
REMARK INTER + INTRA:         -12.336
REMARK INTER:                  -9.626
REMARK INTRA:                  -2.710
REMARK UNBOUND:                -2.079
REMARK SMILES CCCCCCCCCCCCCCCCCCCCCC(=O)[O-]
REMARK SMILES IDX 12 1 11 2 10 3 9 4 8 5 7 6 6 7 5 8 4 9 3 10 2 11 1 12 13 13
REMARK SMILES IDX 14 14 15 15 16 16 17 17 18 18 19 19 20 20 21 21 22 22 23 23
REMARK SMILES IDX 24 24
REMARK H PARENT
REMARK Flexibility Score: inf
ROOT
ATOM      1  C   UNL     1      24.225 121.554 300.912  1.00  0.00     0.000 C 
ENDROOT
BRANCH   1   2
ATOM      2  C   UNL     1      23.240 120.784 300.026  1.00  0.00     0.000 C 
BRANCH   2   3
ATOM      3  C   UNL     1      23.121 119.322 300.476  1.00  0.00     0.000 C 
BRANCH   3   4
ATOM      4  C   UNL     1      22.228 118.523 299.515  1.00  0.00    -0.000 C 
BRANCH   4   5
ATOM      5  C   UNL     1      22.170 119.142 298.109  1.00  0.00    -0.000 C 
BRANCH   5   6
ATOM      6  C   UNL     1      22.386 118.098 296.998  1.00  0.00    -0.000 C 
BRANCH   6   7
ATOM      7  C   UNL     1      21.223 117.100 296.892  1.00  0.00    -0.000 C 
BRANCH   7   8
ATOM      8  C   UNL     1      19.989 117.698 296.191  1.00  0.00    -0.000 C 
BRANCH   8   9
ATOM      9  C   UNL     1      18.702 116.901 296.471  1.00  0.00    -0.000 C 
BRANCH   9  10
ATOM     10  C   UNL     1      17.607 117.033 295.391  1.00  0.00    -0.000 C 
BRANCH  10  11
ATOM     11  C   UNL     1      18.051 117.743 294.098  1.00  0.00    -0.003 C 
ATOM     12  C   UNL     1      17.811 116.903 292.843  1.00  0.00     0.004 C 
ENDBRANCH  10  11
ENDBRANCH   9  10
ENDBRANCH   8   9
ENDBRANCH   7   8
ENDBRANCH   6   7
ENDBRANCH   5   6
ENDBRANCH   4   5
ENDBRANCH   3   4
ENDBRANCH   2   3
ENDBRANCH   1   2
BRANCH   1  13
ATOM     13  C   UNL     1      24.557 120.764 302.184  1.00  0.00     0.000 C 
BRANCH  13  14
ATOM     14  C   UNL     1      26.076 120.619 302.362  1.00  0.00     0.000 C 
BRANCH  14  15
ATOM     15  C   UNL     1      26.866 121.013 301.096  1.00  0.00     0.000 C 
BRANCH  15  16
ATOM     16  C   UNL     1      27.648 119.850 300.454  1.00  0.00     0.000 C 
BRANCH  16  17
ATOM     17  C   UNL     1      26.803 118.629 300.046  1.00  0.00     0.000 C 
BRANCH  17  18
ATOM     18  C   UNL     1      26.083 118.760 298.691  1.00  0.00     0.000 C 
BRANCH  18  19
ATOM     19  C   UNL     1      26.732 119.803 297.765  1.00  0.00     0.000 C 
BRANCH  19  20
ATOM     20  C   UNL     1      25.727 120.851 297.245  1.00  0.00     0.006 C 
BRANCH  20  21
ATOM     21  C   UNL     1      25.487 120.784 295.725  1.00  0.00     0.053 C 
BRANCH  21  22
ATOM     22  C   UNL     1      25.835 122.063 295.029  1.00  0.00     0.041 C 
ATOM     23  O   UNL     1      25.629 123.170 295.593  1.00  0.00    -0.550 OA
ATOM     24  O   UNL     1      26.380 122.034 293.749  1.00  0.00    -0.550 OA
ENDBRANCH  21  22
ENDBRANCH  20  21
ENDBRANCH  19  20
ENDBRANCH  18  19
ENDBRANCH  17  18
ENDBRANCH  16  17
ENDBRANCH  15  16
ENDBRANCH  14  15
ENDBRANCH  13  14
ENDBRANCH   1  13
TORSDOF 20
ENDMDL
MODEL 8
REMARK VINA RESULT:    -4.722      4.652      6.041
REMARK INTER + INTRA:         -12.323
REMARK INTER:                  -9.729
REMARK INTRA:                  -2.594
REMARK UNBOUND:                -2.079
REMARK SMILES CCCCCCCCCCCCCCCCCCCCCC(=O)[O-]
REMARK SMILES IDX 12 1 11 2 10 3 9 4 8 5 7 6 6 7 5 8 4 9 3 10 2 11 1 12 13 13
REMARK SMILES IDX 14 14 15 15 16 16 17 17 18 18 19 19 20 20 21 21 22 22 23 23
REMARK SMILES IDX 24 24
REMARK H PARENT
REMARK Flexibility Score: inf
ROOT
ATOM      1  C   UNL     1      22.373 119.496 297.706  1.00  0.00     0.000 C 
ENDROOT
BRANCH   1   2
ATOM      2  C   UNL     1      22.035 118.136 298.325  1.00  0.00     0.000 C 
BRANCH   2   3
ATOM      3  C   UNL     1      20.542 117.816 298.170  1.00  0.00     0.000 C 
BRANCH   3   4
ATOM      4  C   UNL     1      20.336 116.571 297.294  1.00  0.00    -0.000 C 
BRANCH   4   5
ATOM      5  C   UNL     1      18.999 116.598 296.535  1.00  0.00    -0.000 C 
BRANCH   5   6
ATOM      6  C   UNL     1      18.286 117.958 296.647  1.00  0.00    -0.000 C 
BRANCH   6   7
ATOM      7  C   UNL     1      18.129 118.656 295.287  1.00  0.00    -0.000 C 
BRANCH   7   8
ATOM      8  C   UNL     1      18.527 117.751 294.106  1.00  0.00    -0.000 C 
BRANCH   8   9
ATOM      9  C   UNL     1      17.308 117.201 293.342  1.00  0.00    -0.000 C 
BRANCH   9  10
ATOM     10  C   UNL     1      17.611 116.684 291.920  1.00  0.00    -0.000 C 
BRANCH  10  11
ATOM     11  C   UNL     1      17.209 115.219 291.663  1.00  0.00    -0.003 C 
ATOM     12  C   UNL     1      17.790 114.660 290.363  1.00  0.00     0.004 C 
ENDBRANCH  10  11
ENDBRANCH   9  10
ENDBRANCH   8   9
ENDBRANCH   7   8
ENDBRANCH   6   7
ENDBRANCH   5   6
ENDBRANCH   4   5
ENDBRANCH   3   4
ENDBRANCH   2   3
ENDBRANCH   1   2
BRANCH   1  13
ATOM     13  C   UNL     1      21.221 120.005 296.829  1.00  0.00     0.000 C 
BRANCH  13  14
ATOM     14  C   UNL     1      21.692 120.247 295.386  1.00  0.00     0.000 C 
BRANCH  14  15
ATOM     15  C   UNL     1      22.138 118.950 294.679  1.00  0.00     0.000 C 
BRANCH  15  16
ATOM     16  C   UNL     1      23.604 118.963 294.203  1.00  0.00     0.000 C 
BRANCH  16  17
ATOM     17  C   UNL     1      24.515 119.996 294.894  1.00  0.00     0.000 C 
BRANCH  17  18
ATOM     18  C   UNL     1      25.769 119.409 295.568  1.00  0.00     0.000 C 
BRANCH  18  19
ATOM     19  C   UNL     1      26.116 120.100 296.897  1.00  0.00     0.000 C 
BRANCH  19  20
ATOM     20  C   UNL     1      26.738 119.137 297.930  1.00  0.00     0.006 C 
BRANCH  20  21
ATOM     21  C   UNL     1      25.928 119.016 299.234  1.00  0.00     0.053 C 
BRANCH  21  22
ATOM     22  C   UNL     1      26.664 119.554 300.422  1.00  0.00     0.041 C 
ATOM     23  O   UNL     1      27.292 118.775 301.187  1.00  0.00    -0.550 OA
ATOM     24  O   UNL     1      26.649 120.919 300.692  1.00  0.00    -0.550 OA
ENDBRANCH  21  22
ENDBRANCH  20  21
ENDBRANCH  19  20
ENDBRANCH  18  19
ENDBRANCH  17  18
ENDBRANCH  16  17
ENDBRANCH  15  16
ENDBRANCH  14  15
ENDBRANCH  13  14
ENDBRANCH   1  13
TORSDOF 20
ENDMDL
MODEL 9
REMARK VINA RESULT:    -4.696      5.138      6.553
REMARK INTER + INTRA:         -12.264
REMARK INTER:                  -9.766
REMARK INTRA:                  -2.499
REMARK UNBOUND:                -2.079
REMARK SMILES CCCCCCCCCCCCCCCCCCCCCC(=O)[O-]
REMARK SMILES IDX 12 1 11 2 10 3 9 4 8 5 7 6 6 7 5 8 4 9 3 10 2 11 1 12 13 13
REMARK SMILES IDX 14 14 15 15 16 16 17 17 18 18 19 19 20 20 21 21 22 22 23 23
REMARK SMILES IDX 24 24
REMARK H PARENT
REMARK Flexibility Score: inf
ROOT
ATOM      1  C   UNL     1      18.784 121.463 295.693  1.00  0.00     0.000 C 
ENDROOT
BRANCH   1   2
ATOM      2  C   UNL     1      17.596 121.301 296.648  1.00  0.00     0.000 C 
BRANCH   2   3
ATOM      3  C   UNL     1      16.279 121.676 295.955  1.00  0.00     0.000 C 
BRANCH   3   4
ATOM      4  C   UNL     1      16.479 121.824 294.439  1.00  0.00    -0.000 C 
BRANCH   4   5
ATOM      5  C   UNL     1      15.809 120.693 293.642  1.00  0.00    -0.000 C 
BRANCH   5   6
ATOM      6  C   UNL     1      15.344 119.534 294.542  1.00  0.00    -0.000 C 
BRANCH   6   7
ATOM      7  C   UNL     1      16.185 118.263 294.350  1.00  0.00    -0.000 C 
BRANCH   7   8
ATOM      8  C   UNL     1      17.542 118.545 293.678  1.00  0.00    -0.000 C 
BRANCH   8   9
ATOM      9  C   UNL     1      18.265 117.260 293.236  1.00  0.00    -0.000 C 
BRANCH   9  10
ATOM     10  C   UNL     1      17.397 116.269 292.432  1.00  0.00    -0.000 C 
BRANCH  10  11
ATOM     11  C   UNL     1      17.959 115.886 291.050  1.00  0.00    -0.003 C 
ATOM     12  C   UNL     1      17.280 114.654 290.450  1.00  0.00     0.004 C 
ENDBRANCH  10  11
ENDBRANCH   9  10
ENDBRANCH   8   9
ENDBRANCH   7   8
ENDBRANCH   6   7
ENDBRANCH   5   6
ENDBRANCH   4   5
ENDBRANCH   3   4
ENDBRANCH   2   3
ENDBRANCH   1   2
BRANCH   1  13
ATOM     13  C   UNL     1      19.879 120.431 295.995  1.00  0.00     0.000 C 
BRANCH  13  14
ATOM     14  C   UNL     1      19.426 119.451 297.088  1.00  0.00     0.000 C 
BRANCH  14  15
ATOM     15  C   UNL     1      19.448 117.981 296.619  1.00  0.00     0.000 C 
BRANCH  15  16
ATOM     16  C   UNL     1      20.518 117.115 297.311  1.00  0.00     0.000 C 
BRANCH  16  17
ATOM     17  C   UNL     1      21.975 117.417 296.911  1.00  0.00     0.000 C 
BRANCH  17  18
ATOM     18  C   UNL     1      22.897 117.828 298.074  1.00  0.00     0.000 C 
BRANCH  18  19
ATOM     19  C   UNL     1      22.129 118.420 299.268  1.00  0.00     0.000 C 
BRANCH  19  20
ATOM     20  C   UNL     1      22.601 119.841 299.640  1.00  0.00     0.006 C 
BRANCH  20  21
ATOM     21  C   UNL     1      23.938 120.242 298.989  1.00  0.00     0.053 C 
BRANCH  21  22
ATOM     22  C   UNL     1      24.911 120.813 299.974  1.00  0.00     0.041 C 
ATOM     23  O   UNL     1      26.146 120.602 299.843  1.00  0.00    -0.550 OA
ATOM     24  O   UNL     1      24.453 121.573 301.045  1.00  0.00    -0.550 OA
ENDBRANCH  21  22
ENDBRANCH  20  21
ENDBRANCH  19  20
ENDBRANCH  18  19
ENDBRANCH  17  18
ENDBRANCH  16  17
ENDBRANCH  15  16
ENDBRANCH  14  15
ENDBRANCH  13  14
ENDBRANCH   1  13
TORSDOF 20
ENDMDL
