MODEL 1
REMARK VINA RESULT:    -3.041      0.000      0.000
REMARK INTER + INTRA:          -3.650
REMARK INTER:                  -3.219
REMARK INTRA:                  -0.431
REMARK UNBOUND:                -0.431
REMARK SMILES CC1=CC[C@@H]2[C@H]3[C@H](C(C)C)CC[C@]2(C)[C@@H]13
REMARK SMILES IDX 1 1 2 2 3 3 4 4 5 5 6 6 15 7 13 8 12 9 11 10 7 11 14 12 8 13
REMARK SMILES IDX 9 14 10 15
REMARK H PARENT
REMARK Flexibility Score: inf
ROOT
ATOM      1  C   UNL     1     138.144 149.663 124.440  1.00  0.00     0.039 C 
ATOM      2  C   UNL     1     137.032 150.613 124.112  1.00  0.00    -0.073 C 
ATOM      3  C   UNL     1     135.995 150.238 123.319  1.00  0.00    -0.027 C 
ATOM      4  C   UNL     1     134.875 151.247 123.036  1.00  0.00     0.031 C 
ATOM      5  C   UNL     1     135.187 152.613 123.731  1.00  0.00     0.003 C 
ATOM      6  C   UNL     1     136.664 152.961 123.436  1.00  0.00     0.004 C 
ATOM      7  C   UNL     1     137.023 152.052 124.636  1.00  0.00     0.024 C 
ATOM      8  C   UNL     1     135.623 152.410 125.200  1.00  0.00    -0.022 C 
ATOM      9  C   UNL     1     135.645 153.796 125.906  1.00  0.00     0.008 C 
ATOM     10  C   UNL     1     136.643 154.780 125.246  1.00  0.00     0.005 C 
ATOM     11  C   UNL     1     136.932 154.469 123.740  1.00  0.00    -0.005 C 
ATOM     12  C   UNL     1     134.875 151.366 126.062  1.00  0.00     0.012 C 
ENDROOT
BRANCH  11  13
ATOM     13  C   UNL     1     138.374 154.918 123.333  1.00  0.00    -0.014 C 
ATOM     14  C   UNL     1     138.987 153.953 122.300  1.00  0.00     0.007 C 
ATOM     15  C   UNL     1     139.323 155.013 124.543  1.00  0.00     0.007 C 
ENDBRANCH  11  13
TORSDOF 1
ENDMDL
MODEL 2
REMARK VINA RESULT:    -2.923     13.066     16.007
REMARK INTER + INTRA:          -3.525
REMARK INTER:                  -3.247
REMARK INTRA:                  -0.279
REMARK UNBOUND:                -0.431
REMARK SMILES CC1=CC[C@@H]2[C@H]3[C@H](C(C)C)CC[C@]2(C)[C@@H]13
REMARK SMILES IDX 1 1 2 2 3 3 4 4 5 5 6 6 15 7 13 8 12 9 11 10 7 11 14 12 8 13
REMARK SMILES IDX 9 14 10 15
REMARK H PARENT
REMARK Flexibility Score: inf
ROOT
ATOM      1  C   UNL     1     141.293 137.970 124.527  1.00  0.00     0.039 C 
ATOM      2  C   UNL     1     140.191 137.040 124.115  1.00  0.00    -0.073 C 
ATOM      3  C   UNL     1     140.416 136.023 123.242  1.00  0.00    -0.027 C 
ATOM      4  C   UNL     1     139.254 135.092 122.875  1.00  0.00     0.031 C 
ATOM      5  C   UNL     1     137.943 135.549 123.595  1.00  0.00     0.003 C 
ATOM      6  C   UNL     1     137.822 137.080 123.417  1.00  0.00     0.004 C 
ATOM      7  C   UNL     1     138.762 137.206 124.640  1.00  0.00     0.024 C 
ATOM      8  C   UNL     1     138.194 135.835 125.093  1.00  0.00    -0.022 C 
ATOM      9  C   UNL     1     136.820 136.008 125.802  1.00  0.00     0.008 C 
ATOM     10  C   UNL     1     136.002 137.190 125.223  1.00  0.00     0.005 C 
ATOM     11  C   UNL     1     136.367 137.546 123.744  1.00  0.00    -0.005 C 
ATOM     12  C   UNL     1     139.107 134.875 125.891  1.00  0.00     0.012 C 
ENDROOT
BRANCH  11  13
ATOM     13  C   UNL     1     136.141 139.066 123.452  1.00  0.00    -0.014 C 
ATOM     14  C   UNL     1     136.016 139.871 124.759  1.00  0.00     0.007 C 
ATOM     15  C   UNL     1     134.886 139.318 122.595  1.00  0.00     0.007 C 
ENDBRANCH  11  13
TORSDOF 1
ENDMDL
MODEL 3
REMARK VINA RESULT:    -2.711     13.398     16.608
REMARK INTER + INTRA:          -3.301
REMARK INTER:                  -2.894
REMARK INTRA:                  -0.407
REMARK UNBOUND:                -0.431
REMARK SMILES CC1=CC[C@@H]2[C@H]3[C@H](C(C)C)CC[C@]2(C)[C@@H]13
REMARK SMILES IDX 1 1 2 2 3 3 4 4 5 5 6 6 15 7 13 8 12 9 11 10 7 11 14 12 8 13
REMARK SMILES IDX 9 14 10 15
REMARK H PARENT
REMARK Flexibility Score: inf
ROOT
ATOM      1  C   UNL     1     136.424 139.508 124.513  1.00  0.00     0.039 C 
ATOM      2  C   UNL     1     136.427 138.185 123.806  1.00  0.00    -0.073 C 
ATOM      3  C   UNL     1     135.278 137.635 123.334  1.00  0.00    -0.027 C 
ATOM      4  C   UNL     1     135.347 136.290 122.600  1.00  0.00     0.031 C 
ATOM      5  C   UNL     1     136.819 135.762 122.572  1.00  0.00     0.003 C 
ATOM      6  C   UNL     1     137.400 135.922 123.995  1.00  0.00     0.004 C 
ATOM      7  C   UNL     1     137.718 137.385 123.603  1.00  0.00     0.024 C 
ATOM      8  C   UNL     1     137.806 136.871 122.142  1.00  0.00    -0.022 C 
ATOM      9  C   UNL     1     139.192 136.220 121.864  1.00  0.00     0.008 C 
ATOM     10  C   UNL     1     139.778 135.521 123.116  1.00  0.00     0.005 C 
ATOM     11  C   UNL     1     138.695 135.061 124.147  1.00  0.00    -0.005 C 
ATOM     12  C   UNL     1     137.404 137.821 120.990  1.00  0.00     0.012 C 
ENDROOT
BRANCH  11  13
ATOM     13  C   UNL     1     139.257 135.072 125.607  1.00  0.00    -0.014 C 
ATOM     14  C   UNL     1     138.212 135.611 126.602  1.00  0.00     0.007 C 
ATOM     15  C   UNL     1     140.541 135.915 125.735  1.00  0.00     0.007 C 
ENDBRANCH  11  13
TORSDOF 1
ENDMDL
MODEL 4
REMARK VINA RESULT:    -2.418     13.862     16.241
REMARK INTER + INTRA:          -2.991
REMARK INTER:                  -2.707
REMARK INTRA:                  -0.284
REMARK UNBOUND:                -0.431
REMARK SMILES CC1=CC[C@@H]2[C@H]3[C@H](C(C)C)CC[C@]2(C)[C@@H]13
REMARK SMILES IDX 1 1 2 2 3 3 4 4 5 5 6 6 15 7 13 8 12 9 11 10 7 11 14 12 8 13
REMARK SMILES IDX 9 14 10 15
REMARK H PARENT
REMARK Flexibility Score: inf
ROOT
ATOM      1  C   UNL     1     137.858 137.822 120.538  1.00  0.00     0.039 C 
ATOM      2  C   UNL     1     137.419 137.891 121.970  1.00  0.00    -0.073 C 
ATOM      3  C   UNL     1     136.856 139.018 122.481  1.00  0.00    -0.027 C 
ATOM      4  C   UNL     1     136.408 139.022 123.947  1.00  0.00     0.031 C 
ATOM      5  C   UNL     1     136.743 137.651 124.623  1.00  0.00     0.003 C 
ATOM      6  C   UNL     1     138.194 137.283 124.236  1.00  0.00     0.004 C 
ATOM      7  C   UNL     1     137.603 136.708 122.926  1.00  0.00     0.024 C 
ATOM      8  C   UNL     1     136.302 136.465 123.735  1.00  0.00    -0.022 C 
ATOM      9  C   UNL     1     136.403 135.156 124.570  1.00  0.00     0.008 C 
ATOM     10  C   UNL     1     137.847 134.875 125.056  1.00  0.00     0.005 C 
ATOM     11  C   UNL     1     138.733 136.160 125.178  1.00  0.00    -0.005 C 
ATOM     12  C   UNL     1     134.941 136.546 123.004  1.00  0.00     0.012 C 
ENDROOT
BRANCH  11  13
ATOM     13  C   UNL     1     140.242 135.837 124.928  1.00  0.00    -0.014 C 
ATOM     14  C   UNL     1     141.081 137.127 124.841  1.00  0.00     0.007 C 
ATOM     15  C   UNL     1     140.462 135.018 123.642  1.00  0.00     0.007 C 
ENDBRANCH  11  13
TORSDOF 1
ENDMDL
MODEL 5
REMARK VINA RESULT:    -2.308      1.304      4.439
REMARK INTER + INTRA:          -2.874
REMARK INTER:                  -2.545
REMARK INTRA:                  -0.330
REMARK UNBOUND:                -0.431
REMARK SMILES CC1=CC[C@@H]2[C@H]3[C@H](C(C)C)CC[C@]2(C)[C@@H]13
REMARK SMILES IDX 1 1 2 2 3 3 4 4 5 5 6 6 15 7 13 8 12 9 11 10 7 11 14 12 8 13
REMARK SMILES IDX 9 14 10 15
REMARK H PARENT
REMARK Flexibility Score: inf
ROOT
ATOM      1  C   UNL     1     139.468 153.903 124.387  1.00  0.00     0.039 C 
ATOM      2  C   UNL     1     138.076 153.949 123.832  1.00  0.00    -0.073 C 
ATOM      3  C   UNL     1     137.409 155.125 123.699  1.00  0.00    -0.027 C 
ATOM      4  C   UNL     1     135.995 155.111 123.105  1.00  0.00     0.031 C 
ATOM      5  C   UNL     1     135.555 153.645 122.783  1.00  0.00     0.003 C 
ATOM      6  C   UNL     1     135.911 152.771 124.007  1.00  0.00     0.004 C 
ATOM      7  C   UNL     1     137.336 152.676 123.411  1.00  0.00     0.024 C 
ATOM      8  C   UNL     1     136.665 152.878 122.027  1.00  0.00    -0.022 C 
ATOM      9  C   UNL     1     136.070 151.542 121.496  1.00  0.00     0.008 C 
ATOM     10  C   UNL     1     135.555 150.630 122.638  1.00  0.00     0.005 C 
ATOM     11  C   UNL     1     135.152 151.408 123.934  1.00  0.00    -0.005 C 
ATOM     12  C   UNL     1     137.451 153.610 120.914  1.00  0.00     0.012 C 
ENDROOT
BRANCH  11  13
ATOM     13  C   UNL     1     135.363 150.532 125.212  1.00  0.00    -0.014 C 
ATOM     14  C   UNL     1     135.290 151.388 126.492  1.00  0.00     0.007 C 
ATOM     15  C   UNL     1     136.709 149.784 125.196  1.00  0.00     0.007 C 
ENDBRANCH  11  13
TORSDOF 1
ENDMDL
MODEL 6
REMARK VINA RESULT:    -0.759     12.971     16.057
REMARK INTER + INTRA:          -1.235
REMARK INTER:                  -0.957
REMARK INTRA:                  -0.278
REMARK UNBOUND:                -0.431
REMARK SMILES CC1=CC[C@@H]2[C@H]3[C@H](C(C)C)CC[C@]2(C)[C@@H]13
REMARK SMILES IDX 1 1 2 2 3 3 4 4 5 5 6 6 15 7 13 8 12 9 11 10 7 11 14 12 8 13
REMARK SMILES IDX 9 14 10 15
REMARK H PARENT
REMARK Flexibility Score: inf
ROOT
ATOM      1  C   UNL     1     138.760 134.877 126.202  1.00  0.00     0.039 C 
ATOM      2  C   UNL     1     138.999 135.806 125.050  1.00  0.00    -0.073 C 
ATOM      3  C   UNL     1     140.220 136.362 124.834  1.00  0.00    -0.027 C 
ATOM      4  C   UNL     1     140.409 137.287 123.626  1.00  0.00     0.031 C 
ATOM      5  C   UNL     1     139.061 137.451 122.849  1.00  0.00     0.003 C 
ATOM      6  C   UNL     1     137.952 137.721 123.892  1.00  0.00     0.004 C 
ATOM      7  C   UNL     1     137.878 136.186 124.078  1.00  0.00     0.024 C 
ATOM      8  C   UNL     1     138.379 136.084 122.613  1.00  0.00    -0.022 C 
ATOM      9  C   UNL     1     137.208 136.281 121.609  1.00  0.00     0.008 C 
ATOM     10  C   UNL     1     136.133 137.262 122.140  1.00  0.00     0.005 C 
ATOM     11  C   UNL     1     136.679 138.289 123.187  1.00  0.00    -0.005 C 
ATOM     12  C   UNL     1     139.255 134.875 122.206  1.00  0.00     0.012 C 
ENDROOT
BRANCH  11  13
ATOM     13  C   UNL     1     135.567 138.712 124.202  1.00  0.00    -0.014 C 
ATOM     14  C   UNL     1     134.948 140.070 123.816  1.00  0.00     0.007 C 
ATOM     15  C   UNL     1     136.095 138.804 125.647  1.00  0.00     0.007 C 
ENDBRANCH  11  13
TORSDOF 1
ENDMDL
MODEL 7
REMARK VINA RESULT:    -0.691     13.919     15.776
REMARK INTER + INTRA:          -1.163
REMARK INTER:                  -0.866
REMARK INTRA:                  -0.297
REMARK UNBOUND:                -0.431
REMARK SMILES CC1=CC[C@@H]2[C@H]3[C@H](C(C)C)CC[C@]2(C)[C@@H]13
REMARK SMILES IDX 1 1 2 2 3 3 4 4 5 5 6 6 15 7 13 8 12 9 11 10 7 11 14 12 8 13
REMARK SMILES IDX 9 14 10 15
REMARK H PARENT
REMARK Flexibility Score: inf
ROOT
ATOM      1  C   UNL     1     140.422 136.225 124.862  1.00  0.00     0.039 C 
ATOM      2  C   UNL     1     138.977 136.102 124.479  1.00  0.00    -0.073 C 
ATOM      3  C   UNL     1     138.299 134.937 124.651  1.00  0.00    -0.027 C 
ATOM      4  C   UNL     1     136.817 134.878 124.261  1.00  0.00     0.031 C 
ATOM      5  C   UNL     1     136.357 136.249 123.666  1.00  0.00     0.003 C 
ATOM      6  C   UNL     1     137.430 136.700 122.649  1.00  0.00     0.004 C 
ATOM      7  C   UNL     1     138.207 137.272 123.859  1.00  0.00     0.024 C 
ATOM      8  C   UNL     1     136.826 137.430 124.547  1.00  0.00    -0.022 C 
ATOM      9  C   UNL     1     136.109 138.724 124.064  1.00  0.00     0.008 C 
ATOM     10  C   UNL     1     136.441 139.069 122.590  1.00  0.00     0.005 C 
ATOM     11  C   UNL     1     136.860 137.829 121.732  1.00  0.00    -0.005 C 
ATOM     12  C   UNL     1     136.737 137.294 126.085  1.00  0.00     0.012 C 
ENDROOT
BRANCH  11  13
ATOM     13  C   UNL     1     137.850 138.236 120.591  1.00  0.00    -0.014 C 
ATOM     14  C   UNL     1     137.096 138.829 119.385  1.00  0.00     0.007 C 
ATOM     15  C   UNL     1     138.703 137.049 120.104  1.00  0.00     0.007 C 
ENDBRANCH  11  13
TORSDOF 1
ENDMDL
