MODEL 1
REMARK VINA RESULT:    -4.982      0.000      0.000
REMARK INTER + INTRA:          -5.507
REMARK INTER:                  -5.273
REMARK INTRA:                  -0.233
REMARK UNBOUND:                -0.233
REMARK SMILES O=c1cc(-c2ccccc2)oc2ccccc12
REMARK SMILES IDX 4 1 3 2 2 3 1 4 17 5 16 6 15 7 14 8 13 9 12 10 11 11 5 12
REMARK SMILES IDX 8 13 7 14 9 15 6 16 10 17
REMARK H PARENT
REMARK Flexibility Score: inf
ROOT
ATOM      1  C   UNL     1      -5.756  -8.470 -10.051  1.00  0.00     0.138 A 
ATOM      2  C   UNL     1      -4.539  -8.840 -10.660  1.00  0.00     0.100 A 
ATOM      3  C   UNL     1      -3.335  -8.602  -9.994  1.00  0.00     0.193 A 
ATOM      4  O   UNL     1      -2.247  -8.933 -10.539  1.00  0.00    -0.289 OA
ATOM      5  C   UNL     1      -3.354  -7.998  -8.729  1.00  0.00     0.065 A 
ATOM      6  C   UNL     1      -2.178  -7.730  -8.005  1.00  0.00     0.016 A 
ATOM      7  C   UNL     1      -2.254  -7.125  -6.746  1.00  0.00     0.001 A 
ATOM      8  C   UNL     1      -3.496  -6.784  -6.203  1.00  0.00     0.004 A 
ATOM      9  C   UNL     1      -4.670  -7.048  -6.916  1.00  0.00     0.048 A 
ATOM     10  C   UNL     1      -4.606  -7.652  -8.176  1.00  0.00     0.138 A 
ATOM     11  O   UNL     1      -5.726  -7.898  -8.846  1.00  0.00    -0.456 OA
ENDROOT
BRANCH   1  12
ATOM     12  C   UNL     1      -7.089  -8.689 -10.694  1.00  0.00     0.017 A 
ATOM     13  C   UNL     1      -9.618  -9.008 -11.907  1.00  0.00     0.000 A 
ATOM     14  C   UNL     1      -9.158  -7.734 -11.575  1.00  0.00     0.001 A 
ATOM     15  C   UNL     1      -8.826 -10.125 -11.640  1.00  0.00     0.001 A 
ATOM     16  C   UNL     1      -7.905  -7.574 -10.975  1.00  0.00     0.012 A 
ATOM     17  C   UNL     1      -7.572  -9.973 -11.039  1.00  0.00     0.012 A 
ENDBRANCH   1  12
TORSDOF 1
ENDMDL
MODEL 2
REMARK VINA RESULT:    -4.919     18.101     20.542
REMARK INTER + INTRA:          -5.440
REMARK INTER:                  -5.205
REMARK INTRA:                  -0.236
REMARK UNBOUND:                -0.233
REMARK SMILES O=c1cc(-c2ccccc2)oc2ccccc12
REMARK SMILES IDX 4 1 3 2 2 3 1 4 17 5 16 6 15 7 14 8 13 9 12 10 11 11 5 12
REMARK SMILES IDX 8 13 7 14 9 15 6 16 10 17
REMARK H PARENT
REMARK Flexibility Score: inf
ROOT
ATOM      1  C   UNL     1       5.843   8.549 -10.241  1.00  0.00     0.138 A 
ATOM      2  C   UNL     1       4.661   9.011 -10.856  1.00  0.00     0.100 A 
ATOM      3  C   UNL     1       3.438   8.853 -10.202  1.00  0.00     0.193 A 
ATOM      4  O   UNL     1       2.380   9.266 -10.751  1.00  0.00    -0.289 OA
ATOM      5  C   UNL     1       3.404   8.236  -8.943  1.00  0.00     0.065 A 
ATOM      6  C   UNL     1       2.205   8.045  -8.230  1.00  0.00     0.016 A 
ATOM      7  C   UNL     1       2.227   7.424  -6.977  1.00  0.00     0.001 A 
ATOM      8  C   UNL     1       3.438   6.990  -6.428  1.00  0.00     0.004 A 
ATOM      9  C   UNL     1       4.633   7.177  -7.130  1.00  0.00     0.048 A 
ATOM     10  C   UNL     1       4.622   7.796  -8.384  1.00  0.00     0.138 A 
ATOM     11  O   UNL     1       5.763   7.969  -9.043  1.00  0.00    -0.456 OA
ENDROOT
BRANCH   1  12
ATOM     12  C   UNL     1       7.194   8.679 -10.872  1.00  0.00     0.017 A 
ATOM     13  C   UNL     1       9.728   9.021 -12.068  1.00  0.00     0.000 A 
ATOM     14  C   UNL     1       8.904  10.125 -11.850  1.00  0.00     0.001 A 
ATOM     15  C   UNL     1       9.298   7.748 -11.694  1.00  0.00     0.001 A 
ATOM     16  C   UNL     1       7.649   9.958 -11.257  1.00  0.00     0.012 A 
ATOM     17  C   UNL     1       8.043   7.572 -11.101  1.00  0.00     0.012 A 
ENDBRANCH   1  12
TORSDOF 1
ENDMDL
MODEL 3
REMARK VINA RESULT:    -4.811      1.212      2.457
REMARK INTER + INTRA:          -5.326
REMARK INTER:                  -5.070
REMARK INTRA:                  -0.256
REMARK UNBOUND:                -0.233
REMARK SMILES O=c1cc(-c2ccccc2)oc2ccccc12
REMARK SMILES IDX 4 1 3 2 2 3 1 4 17 5 16 6 15 7 14 8 13 9 12 10 11 11 5 12
REMARK SMILES IDX 8 13 7 14 9 15 6 16 10 17
REMARK H PARENT
REMARK Flexibility Score: inf
ROOT
ATOM      1  C   UNL     1      -6.433  -7.740  -9.264  1.00  0.00     0.138 A 
ATOM      2  C   UNL     1      -6.748  -6.743  -8.317  1.00  0.00     0.100 A 
ATOM      3  C   UNL     1      -5.750  -6.259  -7.470  1.00  0.00     0.193 A 
ATOM      4  O   UNL     1      -6.032  -5.367  -6.623  1.00  0.00    -0.289 OA
ATOM      5  C   UNL     1      -4.449  -6.771  -7.572  1.00  0.00     0.065 A 
ATOM      6  C   UNL     1      -3.397  -6.326  -6.749  1.00  0.00     0.016 A 
ATOM      7  C   UNL     1      -2.117  -6.872  -6.893  1.00  0.00     0.001 A 
ATOM      8  C   UNL     1      -1.877  -7.858  -7.854  1.00  0.00     0.004 A 
ATOM      9  C   UNL     1      -2.916  -8.305  -8.676  1.00  0.00     0.048 A 
ATOM     10  C   UNL     1      -4.201  -7.767  -8.540  1.00  0.00     0.138 A 
ATOM     11  O   UNL     1      -5.182  -8.198  -9.326  1.00  0.00    -0.456 OA
ENDROOT
BRANCH   1  12
ATOM     12  C   UNL     1      -7.441  -8.314 -10.209  1.00  0.00     0.017 A 
ATOM     13  C   UNL     1      -9.389  -9.310 -11.992  1.00  0.00     0.000 A 
ATOM     14  C   UNL     1      -9.482  -8.003 -11.516  1.00  0.00     0.001 A 
ATOM     15  C   UNL     1      -8.332 -10.125 -11.587  1.00  0.00     0.001 A 
ATOM     16  C   UNL     1      -8.517  -7.507 -10.634  1.00  0.00     0.012 A 
ATOM     17  C   UNL     1      -7.363  -9.636 -10.703  1.00  0.00     0.012 A 
ENDBRANCH   1  12
TORSDOF 1
ENDMDL
MODEL 4
REMARK VINA RESULT:    -4.647      6.183      9.911
REMARK INTER + INTRA:          -5.152
REMARK INTER:                  -4.906
REMARK INTRA:                  -0.246
REMARK UNBOUND:                -0.233
REMARK SMILES O=c1cc(-c2ccccc2)oc2ccccc12
REMARK SMILES IDX 4 1 3 2 2 3 1 4 17 5 16 6 15 7 14 8 13 9 12 10 11 11 5 12
REMARK SMILES IDX 8 13 7 14 9 15 6 16 10 17
REMARK H PARENT
REMARK Flexibility Score: inf
ROOT
ATOM      1  C   UNL     1       0.771  -2.384  -7.517  1.00  0.00     0.138 A 
ATOM      2  C   UNL     1       0.215  -2.743  -8.763  1.00  0.00     0.100 A 
ATOM      3  C   UNL     1      -0.724  -3.774  -8.826  1.00  0.00     0.193 A 
ATOM      4  O   UNL     1      -1.221  -4.096  -9.939  1.00  0.00    -0.289 OA
ATOM      5  C   UNL     1      -1.100  -4.438  -7.649  1.00  0.00     0.065 A 
ATOM      6  C   UNL     1      -2.040  -5.486  -7.643  1.00  0.00     0.016 A 
ATOM      7  C   UNL     1      -2.379  -6.114  -6.440  1.00  0.00     0.001 A 
ATOM      8  C   UNL     1      -1.786  -5.706  -5.241  1.00  0.00     0.004 A 
ATOM      9  C   UNL     1      -0.853  -4.665  -5.239  1.00  0.00     0.048 A 
ATOM     10  C   UNL     1      -0.505  -4.030  -6.436  1.00  0.00     0.138 A 
ATOM     11  O   UNL     1       0.384  -3.042  -6.424  1.00  0.00    -0.456 OA
ENDROOT
BRANCH   1  12
ATOM     12  C   UNL     1       1.781  -1.291  -7.361  1.00  0.00     0.017 A 
ATOM     13  C   UNL     1       3.639   0.801  -6.988  1.00  0.00     0.000 A 
ATOM     14  C   UNL     1       2.558   0.664  -6.118  1.00  0.00     0.001 A 
ATOM     15  C   UNL     1       3.802  -0.098  -8.042  1.00  0.00     0.001 A 
ATOM     16  C   UNL     1       1.637  -0.372  -6.301  1.00  0.00     0.012 A 
ATOM     17  C   UNL     1       2.884  -1.136  -8.232  1.00  0.00     0.012 A 
ENDBRANCH   1  12
TORSDOF 1
ENDMDL
MODEL 5
REMARK VINA RESULT:    -4.636     11.065     13.025
REMARK INTER + INTRA:          -5.141
REMARK INTER:                  -4.892
REMARK INTRA:                  -0.249
REMARK UNBOUND:                -0.233
REMARK SMILES O=c1cc(-c2ccccc2)oc2ccccc12
REMARK SMILES IDX 4 1 3 2 2 3 1 4 17 5 16 6 15 7 14 8 13 9 12 10 11 11 5 12
REMARK SMILES IDX 8 13 7 14 9 15 6 16 10 17
REMARK H PARENT
REMARK Flexibility Score: inf
ROOT
ATOM      1  C   UNL     1      -0.357   2.603  -7.256  1.00  0.00     0.138 A 
ATOM      2  C   UNL     1       0.180   3.018  -8.492  1.00  0.00     0.100 A 
ATOM      3  C   UNL     1       1.109   4.060  -8.524  1.00  0.00     0.193 A 
ATOM      4  O   UNL     1       1.589   4.431  -9.630  1.00  0.00    -0.289 OA
ATOM      5  C   UNL     1       1.494   4.678  -7.327  1.00  0.00     0.065 A 
ATOM      6  C   UNL     1       2.425   5.734  -7.289  1.00  0.00     0.016 A 
ATOM      7  C   UNL     1       2.773   6.316  -6.066  1.00  0.00     0.001 A 
ATOM      8  C   UNL     1       2.200   5.853  -4.878  1.00  0.00     0.004 A 
ATOM      9  C   UNL     1       1.275   4.805  -4.906  1.00  0.00     0.048 A 
ATOM     10  C   UNL     1       0.918   4.216  -6.124  1.00  0.00     0.138 A 
ATOM     11  O   UNL     1       0.038   3.221  -6.141  1.00  0.00    -0.456 OA
ENDROOT
BRANCH   1  12
ATOM     12  C   UNL     1      -1.356   1.496  -7.132  1.00  0.00     0.017 A 
ATOM     13  C   UNL     1      -3.194  -0.623  -6.818  1.00  0.00     0.000 A 
ATOM     14  C   UNL     1      -2.142  -0.471  -5.915  1.00  0.00     0.001 A 
ATOM     15  C   UNL     1      -3.336   0.274  -7.877  1.00  0.00     0.001 A 
ATOM     16  C   UNL     1      -1.231   0.579  -6.068  1.00  0.00     0.012 A 
ATOM     17  C   UNL     1      -2.428   1.326  -8.037  1.00  0.00     0.012 A 
ENDBRANCH   1  12
TORSDOF 1
ENDMDL
MODEL 6
REMARK VINA RESULT:    -4.593     17.804     20.467
REMARK INTER + INTRA:          -5.095
REMARK INTER:                  -4.853
REMARK INTRA:                  -0.242
REMARK UNBOUND:                -0.233
REMARK SMILES O=c1cc(-c2ccccc2)oc2ccccc12
REMARK SMILES IDX 4 1 3 2 2 3 1 4 17 5 16 6 15 7 14 8 13 9 12 10 11 11 5 12
REMARK SMILES IDX 8 13 7 14 9 15 6 16 10 17
REMARK H PARENT
REMARK Flexibility Score: inf
ROOT
ATOM      1  C   UNL     1       6.157   8.431  -9.181  1.00  0.00     0.138 A 
ATOM      2  C   UNL     1       5.974   9.211  -8.021  1.00  0.00     0.100 A 
ATOM      3  C   UNL     1       4.918   8.920  -7.155  1.00  0.00     0.193 A 
ATOM      4  O   UNL     1       4.754   9.618  -6.117  1.00  0.00    -0.289 OA
ATOM      5  C   UNL     1       4.056   7.854  -7.451  1.00  0.00     0.065 A 
ATOM      6  C   UNL     1       2.974   7.507  -6.621  1.00  0.00     0.016 A 
ATOM      7  C   UNL     1       2.144   6.435  -6.964  1.00  0.00     0.001 A 
ATOM      8  C   UNL     1       2.386   5.704  -8.131  1.00  0.00     0.004 A 
ATOM      9  C   UNL     1       3.459   6.042  -8.961  1.00  0.00     0.048 A 
ATOM     10  C   UNL     1       4.295   7.113  -8.628  1.00  0.00     0.138 A 
ATOM     11  O   UNL     1       5.312   7.427  -9.423  1.00  0.00    -0.456 OA
ENDROOT
BRANCH   1  12
ATOM     12  C   UNL     1       7.260   8.674 -10.161  1.00  0.00     0.017 A 
ATOM     13  C   UNL     1       9.365   9.040 -12.007  1.00  0.00     0.000 A 
ATOM     14  C   UNL     1       9.112   7.775 -11.478  1.00  0.00     0.001 A 
ATOM     15  C   UNL     1       8.577  10.125 -11.623  1.00  0.00     0.001 A 
ATOM     16  C   UNL     1       8.069   7.591 -10.565  1.00  0.00     0.012 A 
ATOM     17  C   UNL     1       7.532   9.950 -10.709  1.00  0.00     0.012 A 
ENDBRANCH   1  12
TORSDOF 1
ENDMDL
MODEL 7
REMARK VINA RESULT:    -4.488      9.264     10.422
REMARK INTER + INTRA:          -4.984
REMARK INTER:                  -4.735
REMARK INTRA:                  -0.249
REMARK UNBOUND:                -0.233
REMARK SMILES O=c1cc(-c2ccccc2)oc2ccccc12
REMARK SMILES IDX 4 1 3 2 2 3 1 4 17 5 16 6 15 7 14 8 13 9 12 10 11 11 5 12
REMARK SMILES IDX 8 13 7 14 9 15 6 16 10 17
REMARK H PARENT
REMARK Flexibility Score: inf
ROOT
ATOM      1  C   UNL     1      -0.330  -0.298  -7.181  1.00  0.00     0.138 A 
ATOM      2  C   UNL     1       0.119  -0.801  -8.420  1.00  0.00     0.100 A 
ATOM      3  C   UNL     1       1.489  -0.861  -8.683  1.00  0.00     0.193 A 
ATOM      4  O   UNL     1       1.890  -1.311  -9.791  1.00  0.00    -0.289 OA
ATOM      5  C   UNL     1       2.398  -0.421  -7.711  1.00  0.00     0.065 A 
ATOM      6  C   UNL     1       3.791  -0.454  -7.912  1.00  0.00     0.016 A 
ATOM      7  C   UNL     1       4.654  -0.002  -6.909  1.00  0.00     0.001 A 
ATOM      8  C   UNL     1       4.138   0.485  -5.704  1.00  0.00     0.004 A 
ATOM      9  C   UNL     1       2.756   0.521  -5.496  1.00  0.00     0.048 A 
ATOM     10  C   UNL     1       1.883   0.072  -6.493  1.00  0.00     0.138 A 
ATOM     11  O   UNL     1       0.571   0.110  -6.286  1.00  0.00    -0.456 OA
ENDROOT
BRANCH   1  12
ATOM     12  C   UNL     1      -1.778  -0.199  -6.818  1.00  0.00     0.017 A 
ATOM     13  C   UNL     1      -4.529   0.014  -6.225  1.00  0.00     0.000 A 
ATOM     14  C   UNL     1      -4.066   0.313  -7.505  1.00  0.00     0.001 A 
ATOM     15  C   UNL     1      -3.632  -0.391  -5.237  1.00  0.00     0.001 A 
ATOM     16  C   UNL     1      -2.704   0.208  -7.802  1.00  0.00     0.012 A 
ATOM     17  C   UNL     1      -2.267  -0.499  -5.526  1.00  0.00     0.012 A 
ENDBRANCH   1  12
TORSDOF 1
ENDMDL
MODEL 8
REMARK VINA RESULT:    -4.461      9.402     11.803
REMARK INTER + INTRA:          -4.955
REMARK INTER:                  -4.706
REMARK INTRA:                  -0.249
REMARK UNBOUND:                -0.233
REMARK SMILES O=c1cc(-c2ccccc2)oc2ccccc12
REMARK SMILES IDX 4 1 3 2 2 3 1 4 17 5 16 6 15 7 14 8 13 9 12 10 11 11 5 12
REMARK SMILES IDX 8 13 7 14 9 15 6 16 10 17
REMARK H PARENT
REMARK Flexibility Score: inf
ROOT
ATOM      1  C   UNL     1       0.571   0.259  -7.241  1.00  0.00     0.138 A 
ATOM      2  C   UNL     1       0.019   0.691  -8.464  1.00  0.00     0.100 A 
ATOM      3  C   UNL     1      -1.368   0.739  -8.615  1.00  0.00     0.193 A 
ATOM      4  O   UNL     1      -1.862   1.125  -9.709  1.00  0.00    -0.289 OA
ATOM      5  C   UNL     1      -2.191   0.357  -7.547  1.00  0.00     0.065 A 
ATOM      6  C   UNL     1      -3.596   0.382  -7.632  1.00  0.00     0.016 A 
ATOM      7  C   UNL     1      -4.371  -0.011  -6.535  1.00  0.00     0.001 A 
ATOM      8  C   UNL     1      -3.755  -0.428  -5.352  1.00  0.00     0.004 A 
ATOM      9  C   UNL     1      -2.360  -0.455  -5.258  1.00  0.00     0.048 A 
ATOM     10  C   UNL     1      -1.575  -0.065  -6.349  1.00  0.00     0.138 A 
ATOM     11  O   UNL     1      -0.250  -0.095  -6.251  1.00  0.00    -0.456 OA
ENDROOT
BRANCH   1  12
ATOM     12  C   UNL     1       2.045   0.178  -6.995  1.00  0.00     0.017 A 
ATOM     13  C   UNL     1       4.837  -0.005  -6.624  1.00  0.00     0.000 A 
ATOM     14  C   UNL     1       4.270  -0.367  -7.845  1.00  0.00     0.001 A 
ATOM     15  C   UNL     1       4.023   0.448  -5.586  1.00  0.00     0.001 A 
ATOM     16  C   UNL     1       2.888  -0.276  -8.032  1.00  0.00     0.012 A 
ATOM     17  C   UNL     1       2.639   0.541  -5.764  1.00  0.00     0.012 A 
ENDBRANCH   1  12
TORSDOF 1
ENDMDL
