MODEL 1
REMARK VINA RESULT:    -4.566      0.000      0.000
REMARK INTER + INTRA:          -7.973
REMARK INTER:                  -6.969
REMARK INTRA:                  -1.005
REMARK UNBOUND:                -1.005
REMARK SMILES O=C([O-])CCCCCCCCC(=O)[O-]
REMARK SMILES IDX 7 1 6 2 5 3 4 4 2 5 1 6 3 7 8 8 9 9 10 10 11 11 12 12 13 13
REMARK SMILES IDX 14 14
REMARK H PARENT
REMARK Flexibility Score: inf
ROOT
ATOM      1  C   UNL     1     159.317 161.621 151.453  1.00  0.00     0.000 C 
ENDROOT
BRANCH   1   2
ATOM      2  C   UNL     1     160.474 161.847 150.473  1.00  0.00     0.000 C 
BRANCH   2   3
ATOM      3  C   UNL     1     159.956 162.313 149.106  1.00  0.00     0.006 C 
BRANCH   3   4
ATOM      4  C   UNL     1     160.465 161.402 147.986  1.00  0.00     0.053 C 
BRANCH   4   5
ATOM      5  C   UNL     1     159.405 160.430 147.577  1.00  0.00     0.041 C 
ATOM      6  O   UNL     1     158.270 160.462 148.124  1.00  0.00    -0.550 OA
ATOM      7  O   UNL     1     159.650 159.521 146.557  1.00  0.00    -0.550 OA
ENDBRANCH   4   5
ENDBRANCH   3   4
ENDBRANCH   2   3
ENDBRANCH   1   2
BRANCH   1   8
ATOM      8  C   UNL     1     159.018 160.124 151.618  1.00  0.00     0.000 C 
BRANCH   8   9
ATOM      9  C   UNL     1     160.229 159.238 151.284  1.00  0.00     0.000 C 
BRANCH   9  10
ATOM     10  C   UNL     1     159.825 157.903 150.640  1.00  0.00     0.006 C 
BRANCH  10  11
ATOM     11  C   UNL     1     158.332 157.891 150.295  1.00  0.00     0.053 C 
BRANCH  11  12
ATOM     12  C   UNL     1     158.025 156.793 149.327  1.00  0.00     0.041 C 
ATOM     13  O   UNL     1     158.746 156.626 148.308  1.00  0.00    -0.550 OA
ATOM     14  O   UNL     1     156.913 155.984 149.523  1.00  0.00    -0.550 OA
ENDBRANCH  11  12
ENDBRANCH  10  11
ENDBRANCH   9  10
ENDBRANCH   8   9
ENDBRANCH   1   8
TORSDOF 9
ENDMDL
MODEL 2
REMARK VINA RESULT:    -4.561      2.900      4.914
REMARK INTER + INTRA:          -7.966
REMARK INTER:                  -6.938
REMARK INTRA:                  -1.028
REMARK UNBOUND:                -1.005
REMARK SMILES O=C([O-])CCCCCCCCC(=O)[O-]
REMARK SMILES IDX 7 1 6 2 5 3 4 4 2 5 1 6 3 7 8 8 9 9 10 10 11 11 12 12 13 13
REMARK SMILES IDX 14 14
REMARK H PARENT
REMARK Flexibility Score: inf
ROOT
ATOM      1  C   UNL     1     160.777 157.503 149.928  1.00  0.00     0.000 C 
ENDROOT
BRANCH   1   2
ATOM      2  C   UNL     1     160.211 157.788 151.325  1.00  0.00     0.000 C 
BRANCH   2   3
ATOM      3  C   UNL     1     160.337 159.276 151.677  1.00  0.00     0.006 C 
BRANCH   3   4
ATOM      4  C   UNL     1     159.038 160.025 151.368  1.00  0.00     0.053 C 
BRANCH   4   5
ATOM      5  C   UNL     1     159.024 161.355 152.051  1.00  0.00     0.041 C 
ATOM      6  O   UNL     1     159.241 162.407 151.394  1.00  0.00    -0.550 OA
ATOM      7  O   UNL     1     158.722 161.439 153.404  1.00  0.00    -0.550 OA
ENDBRANCH   4   5
ENDBRANCH   3   4
ENDBRANCH   2   3
ENDBRANCH   1   2
BRANCH   1   8
ATOM      8  C   UNL     1     159.658 157.117 148.950  1.00  0.00     0.000 C 
BRANCH   8   9
ATOM      9  C   UNL     1     159.224 158.288 148.054  1.00  0.00     0.000 C 
BRANCH   9  10
ATOM     10  C   UNL     1     160.390 159.221 147.694  1.00  0.00     0.006 C 
BRANCH  10  11
ATOM     11  C   UNL     1     159.908 160.669 147.556  1.00  0.00     0.053 C 
BRANCH  11  12
ATOM     12  C   UNL     1     160.758 161.586 148.378  1.00  0.00     0.041 C 
ATOM     13  O   UNL     1     160.595 162.832 148.311  1.00  0.00    -0.550 OA
ATOM     14  O   UNL     1     161.766 161.066 149.181  1.00  0.00    -0.550 OA
ENDBRANCH  11  12
ENDBRANCH  10  11
ENDBRANCH   9  10
ENDBRANCH   8   9
ENDBRANCH   1   8
TORSDOF 9
ENDMDL
MODEL 3
REMARK VINA RESULT:    -4.553      2.094      3.260
REMARK INTER + INTRA:          -7.953
REMARK INTER:                  -6.895
REMARK INTRA:                  -1.058
REMARK UNBOUND:                -1.005
REMARK SMILES O=C([O-])CCCCCCCCC(=O)[O-]
REMARK SMILES IDX 7 1 6 2 5 3 4 4 2 5 1 6 3 7 8 8 9 9 10 10 11 11 12 12 13 13
REMARK SMILES IDX 14 14
REMARK H PARENT
REMARK Flexibility Score: inf
ROOT
ATOM      1  C   UNL     1     160.479 159.279 151.698  1.00  0.00     0.000 C 
ENDROOT
BRANCH   1   2
ATOM      2  C   UNL     1     159.154 159.992 151.400  1.00  0.00     0.000 C 
BRANCH   2   3
ATOM      3  C   UNL     1     159.355 161.509 151.296  1.00  0.00     0.006 C 
BRANCH   3   4
ATOM      4  C   UNL     1     159.272 161.975 149.840  1.00  0.00     0.053 C 
BRANCH   4   5
ATOM      5  C   UNL     1     160.607 162.456 149.366  1.00  0.00     0.041 C 
ATOM      6  O   UNL     1     160.685 163.265 148.404  1.00  0.00    -0.550 OA
ATOM      7  O   UNL     1     161.764 162.051 150.019  1.00  0.00    -0.550 OA
ENDBRANCH   4   5
ENDBRANCH   3   4
ENDBRANCH   2   3
ENDBRANCH   1   2
BRANCH   1   8
ATOM      8  C   UNL     1     160.352 157.765 151.472  1.00  0.00     0.000 C 
BRANCH   8   9
ATOM      9  C   UNL     1     159.228 157.404 150.489  1.00  0.00     0.000 C 
BRANCH   9  10
ATOM     10  C   UNL     1     159.753 157.081 149.083  1.00  0.00     0.006 C 
BRANCH  10  11
ATOM     11  C   UNL     1     159.155 158.035 148.043  1.00  0.00     0.053 C 
BRANCH  11  12
ATOM     12  C   UNL     1     160.163 159.062 147.632  1.00  0.00     0.041 C 
ATOM     13  O   UNL     1     161.264 159.146 148.235  1.00  0.00    -0.550 OA
ATOM     14  O   UNL     1     159.864 159.960 146.615  1.00  0.00    -0.550 OA
ENDBRANCH  11  12
ENDBRANCH  10  11
ENDBRANCH   9  10
ENDBRANCH   8   9
ENDBRANCH   1   8
TORSDOF 9
ENDMDL
MODEL 4
REMARK VINA RESULT:    -4.536      3.003      4.131
REMARK INTER + INTRA:          -7.928
REMARK INTER:                  -6.918
REMARK INTRA:                  -1.009
REMARK UNBOUND:                -1.005
REMARK SMILES O=C([O-])CCCCCCCCC(=O)[O-]
REMARK SMILES IDX 7 1 6 2 5 3 4 4 2 5 1 6 3 7 8 8 9 9 10 10 11 11 12 12 13 13
REMARK SMILES IDX 14 14
REMARK H PARENT
REMARK Flexibility Score: inf
ROOT
ATOM      1  C   UNL     1     159.575 157.384 148.889  1.00  0.00     0.000 C 
ENDROOT
BRANCH   1   2
ATOM      2  C   UNL     1     159.589 158.397 147.738  1.00  0.00     0.000 C 
BRANCH   2   3
ATOM      3  C   UNL     1     160.673 159.461 147.954  1.00  0.00     0.006 C 
BRANCH   3   4
ATOM      4  C   UNL     1     160.095 160.871 147.813  1.00  0.00     0.053 C 
BRANCH   4   5
ATOM      5  C   UNL     1     160.913 161.854 148.588  1.00  0.00     0.041 C 
ATOM      6  O   UNL     1     161.837 161.453 149.344  1.00  0.00    -0.550 OA
ATOM      7  O   UNL     1     160.690 163.216 148.438  1.00  0.00    -0.550 OA
ENDBRANCH   4   5
ENDBRANCH   3   4
ENDBRANCH   2   3
ENDBRANCH   1   2
BRANCH   1   8
ATOM      8  C   UNL     1     160.754 157.618 149.844  1.00  0.00     0.000 C 
BRANCH   8   9
ATOM      9  C   UNL     1     160.305 157.861 151.293  1.00  0.00     0.000 C 
BRANCH   9  10
ATOM     10  C   UNL     1     160.349 159.344 151.686  1.00  0.00     0.006 C 
BRANCH  10  11
ATOM     11  C   UNL     1     158.999 160.020 151.423  1.00  0.00     0.053 C 
BRANCH  11  12
ATOM     12  C   UNL     1     158.936 161.350 152.105  1.00  0.00     0.041 C 
ATOM     13  O   UNL     1     159.222 162.401 151.474  1.00  0.00    -0.550 OA
ATOM     14  O   UNL     1     158.610 161.425 153.454  1.00  0.00    -0.550 OA
ENDBRANCH  11  12
ENDBRANCH  10  11
ENDBRANCH   9  10
ENDBRANCH   8   9
ENDBRANCH   1   8
TORSDOF 9
ENDMDL
MODEL 5
REMARK VINA RESULT:    -4.469      1.944      4.249
REMARK INTER + INTRA:          -7.824
REMARK INTER:                  -6.780
REMARK INTRA:                  -1.045
REMARK UNBOUND:                -1.005
REMARK SMILES O=C([O-])CCCCCCCCC(=O)[O-]
REMARK SMILES IDX 7 1 6 2 5 3 4 4 2 5 1 6 3 7 8 8 9 9 10 10 11 11 12 12 13 13
REMARK SMILES IDX 14 14
REMARK H PARENT
REMARK Flexibility Score: inf
ROOT
ATOM      1  C   UNL     1     159.811 160.565 147.757  1.00  0.00     0.000 C 
ENDROOT
BRANCH   1   2
ATOM      2  C   UNL     1     160.503 159.198 147.714  1.00  0.00     0.000 C 
BRANCH   2   3
ATOM      3  C   UNL     1     159.889 158.236 148.739  1.00  0.00     0.006 C 
BRANCH   3   4
ATOM      4  C   UNL     1     158.377 158.446 148.852  1.00  0.00     0.053 C 
BRANCH   4   5
ATOM      5  C   UNL     1     157.723 157.239 149.446  1.00  0.00     0.041 C 
ATOM      6  O   UNL     1     156.780 157.370 150.271  1.00  0.00    -0.550 OA
ATOM      7  O   UNL     1     158.119 155.968 149.052  1.00  0.00    -0.550 OA
ENDBRANCH   4   5
ENDBRANCH   3   4
ENDBRANCH   2   3
ENDBRANCH   1   2
BRANCH   1   8
ATOM      8  C   UNL     1     160.733 161.629 148.371  1.00  0.00     0.000 C 
BRANCH   8   9
ATOM      9  C   UNL     1     159.974 162.639 149.246  1.00  0.00     0.000 C 
BRANCH   9  10
ATOM     10  C   UNL     1     158.820 161.994 150.028  1.00  0.00     0.006 C 
BRANCH  10  11
ATOM     11  C   UNL     1     159.183 161.838 151.509  1.00  0.00     0.053 C 
BRANCH  11  12
ATOM     12  C   UNL     1     159.557 160.421 151.811  1.00  0.00     0.041 C 
ATOM     13  O   UNL     1     160.738 160.025 151.630  1.00  0.00    -0.550 OA
ATOM     14  O   UNL     1     158.589 159.524 152.243  1.00  0.00    -0.550 OA
ENDBRANCH  11  12
ENDBRANCH  10  11
ENDBRANCH   9  10
ENDBRANCH   8   9
ENDBRANCH   1   8
TORSDOF 9
ENDMDL
MODEL 6
REMARK VINA RESULT:    -4.459      2.048      4.350
REMARK INTER + INTRA:          -7.810
REMARK INTER:                  -6.822
REMARK INTRA:                  -0.988
REMARK UNBOUND:                -1.005
REMARK SMILES O=C([O-])CCCCCCCCC(=O)[O-]
REMARK SMILES IDX 7 1 6 2 5 3 4 4 2 5 1 6 3 7 8 8 9 9 10 10 11 11 12 12 13 13
REMARK SMILES IDX 14 14
REMARK H PARENT
REMARK Flexibility Score: inf
ROOT
ATOM      1  C   UNL     1     160.442 157.600 151.227  1.00  0.00     0.000 C 
ENDROOT
BRANCH   1   2
ATOM      2  C   UNL     1     159.210 157.392 150.339  1.00  0.00     0.000 C 
BRANCH   2   3
ATOM      3  C   UNL     1     159.617 156.999 148.913  1.00  0.00     0.006 C 
BRANCH   3   4
ATOM      4  C   UNL     1     159.071 157.998 147.890  1.00  0.00     0.053 C 
BRANCH   4   5
ATOM      5  C   UNL     1     160.041 159.117 147.680  1.00  0.00     0.041 C 
ATOM      6  O   UNL     1     161.218 159.026 148.119  1.00  0.00    -0.550 OA
ATOM      7  O   UNL     1     159.663 160.238 146.955  1.00  0.00    -0.550 OA
ENDBRANCH   4   5
ENDBRANCH   3   4
ENDBRANCH   2   3
ENDBRANCH   1   2
BRANCH   1   8
ATOM      8  C   UNL     1     160.308 158.882 152.063  1.00  0.00     0.000 C 
BRANCH   8   9
ATOM      9  C   UNL     1     159.077 159.716 151.676  1.00  0.00     0.000 C 
BRANCH   9  10
ATOM     10  C   UNL     1     159.374 161.222 151.629  1.00  0.00     0.006 C 
BRANCH  10  11
ATOM     11  C   UNL     1     159.317 161.747 150.191  1.00  0.00     0.053 C 
BRANCH  11  12
ATOM     12  C   UNL     1     160.676 162.169 149.731  1.00  0.00     0.041 C 
ATOM     13  O   UNL     1     160.799 163.051 148.841  1.00  0.00    -0.550 OA
ATOM     14  O   UNL     1     161.808 161.553 150.250  1.00  0.00    -0.550 OA
ENDBRANCH  11  12
ENDBRANCH  10  11
ENDBRANCH   9  10
ENDBRANCH   8   9
ENDBRANCH   1   8
TORSDOF 9
ENDMDL
MODEL 7
REMARK VINA RESULT:    -4.454      2.737      5.398
REMARK INTER + INTRA:          -7.803
REMARK INTER:                  -6.845
REMARK INTRA:                  -0.958
REMARK UNBOUND:                -1.005
REMARK SMILES O=C([O-])CCCCCCCCC(=O)[O-]
REMARK SMILES IDX 7 1 6 2 5 3 4 4 2 5 1 6 3 7 8 8 9 9 10 10 11 11 12 12 13 13
REMARK SMILES IDX 14 14
REMARK H PARENT
REMARK Flexibility Score: inf
ROOT
ATOM      1  C   UNL     1     160.217 158.864 147.570  1.00  0.00     0.000 C 
ENDROOT
BRANCH   1   2
ATOM      2  C   UNL     1     159.136 157.932 148.131  1.00  0.00     0.000 C 
BRANCH   2   3
ATOM      3  C   UNL     1     159.664 157.134 149.330  1.00  0.00     0.006 C 
BRANCH   3   4
ATOM      4  C   UNL     1     160.667 157.959 150.140  1.00  0.00     0.053 C 
BRANCH   4   5
ATOM      5  C   UNL     1     160.069 158.382 151.444  1.00  0.00     0.041 C 
ATOM      6  O   UNL     1     158.938 158.937 151.472  1.00  0.00    -0.550 OA
ATOM      7  O   UNL     1     160.735 158.117 152.633  1.00  0.00    -0.550 OA
ENDBRANCH   4   5
ENDBRANCH   3   4
ENDBRANCH   2   3
ENDBRANCH   1   2
BRANCH   1   8
ATOM      8  C   UNL     1     159.666 160.283 147.366  1.00  0.00     0.000 C 
BRANCH   8   9
ATOM      9  C   UNL     1     158.739 160.730 148.507  1.00  0.00     0.000 C 
BRANCH   9  10
ATOM     10  C   UNL     1     159.348 161.852 149.360  1.00  0.00     0.006 C 
BRANCH  10  11
ATOM     11  C   UNL     1     160.617 162.409 148.706  1.00  0.00     0.053 C 
BRANCH  11  12
ATOM     12  C   UNL     1     161.780 162.298 149.640  1.00  0.00     0.041 C 
ATOM     13  O   UNL     1     161.862 161.328 150.439  1.00  0.00    -0.550 OA
ATOM     14  O   UNL     1     162.749 163.294 149.665  1.00  0.00    -0.550 OA
ENDBRANCH  11  12
ENDBRANCH  10  11
ENDBRANCH   9  10
ENDBRANCH   8   9
ENDBRANCH   1   8
TORSDOF 9
ENDMDL
MODEL 8
REMARK VINA RESULT:    -4.431      2.562      3.692
REMARK INTER + INTRA:          -7.767
REMARK INTER:                  -6.684
REMARK INTRA:                  -1.083
REMARK UNBOUND:                -1.005
REMARK SMILES O=C([O-])CCCCCCCCC(=O)[O-]
REMARK SMILES IDX 7 1 6 2 5 3 4 4 2 5 1 6 3 7 8 8 9 9 10 10 11 11 12 12 13 13
REMARK SMILES IDX 14 14
REMARK H PARENT
REMARK Flexibility Score: inf
ROOT
ATOM      1  C   UNL     1     160.011 161.168 147.871  1.00  0.00     0.000 C 
ENDROOT
BRANCH   1   2
ATOM      2  C   UNL     1     161.093 161.207 148.957  1.00  0.00     0.000 C 
BRANCH   2   3
ATOM      3  C   UNL     1     160.605 161.971 150.194  1.00  0.00     0.006 C 
BRANCH   3   4
ATOM      4  C   UNL     1     159.112 162.293 150.088  1.00  0.00     0.053 C 
BRANCH   4   5
ATOM      5  C   UNL     1     158.545 162.601 151.437  1.00  0.00     0.041 C 
ATOM      6  O   UNL     1     157.710 163.534 151.576  1.00  0.00    -0.550 OA
ATOM      7  O   UNL     1     158.899 161.826 152.534  1.00  0.00    -0.550 OA
ENDBRANCH   4   5
ENDBRANCH   3   4
ENDBRANCH   2   3
ENDBRANCH   1   2
BRANCH   1   8
ATOM      8  C   UNL     1     159.761 159.730 147.395  1.00  0.00     0.000 C 
BRANCH   8   9
ATOM      9  C   UNL     1     160.644 158.702 148.120  1.00  0.00     0.000 C 
BRANCH   9  10
ATOM     10  C   UNL     1     159.825 157.612 148.826  1.00  0.00     0.006 C 
BRANCH  10  11
ATOM     11  C   UNL     1     160.319 157.399 150.261  1.00  0.00     0.053 C 
BRANCH  11  12
ATOM     12  C   UNL     1     159.785 158.465 151.163  1.00  0.00     0.041 C 
ATOM     13  O   UNL     1     160.500 158.926 152.093  1.00  0.00    -0.550 OA
ATOM     14  O   UNL     1     158.480 158.915 151.012  1.00  0.00    -0.550 OA
ENDBRANCH  11  12
ENDBRANCH  10  11
ENDBRANCH   9  10
ENDBRANCH   8   9
ENDBRANCH   1   8
TORSDOF 9
ENDMDL
MODEL 9
REMARK VINA RESULT:    -4.426      2.262      4.938
REMARK INTER + INTRA:          -7.760
REMARK INTER:                  -6.799
REMARK INTRA:                  -0.960
REMARK UNBOUND:                -1.005
REMARK SMILES O=C([O-])CCCCCCCCC(=O)[O-]
REMARK SMILES IDX 7 1 6 2 5 3 4 4 2 5 1 6 3 7 8 8 9 9 10 10 11 11 12 12 13 13
REMARK SMILES IDX 14 14
REMARK H PARENT
REMARK Flexibility Score: inf
ROOT
ATOM      1  C   UNL     1     159.477 159.923 147.361  1.00  0.00     0.000 C 
ENDROOT
BRANCH   1   2
ATOM      2  C   UNL     1     158.496 159.576 148.487  1.00  0.00     0.000 C 
BRANCH   2   3
ATOM      3  C   UNL     1     158.580 158.088 148.852  1.00  0.00     0.006 C 
BRANCH   3   4
ATOM      4  C   UNL     1     158.735 157.901 150.364  1.00  0.00     0.053 C 
BRANCH   4   5
ATOM      5  C   UNL     1     160.177 157.734 150.726  1.00  0.00     0.041 C 
ATOM      6  O   UNL     1     161.020 157.420 149.845  1.00  0.00    -0.550 OA
ATOM      7  O   UNL     1     160.599 157.974 152.027  1.00  0.00    -0.550 OA
ENDBRANCH   4   5
ENDBRANCH   3   4
ENDBRANCH   2   3
ENDBRANCH   1   2
BRANCH   1   8
ATOM      8  C   UNL     1     160.350 161.127 147.743  1.00  0.00     0.000 C 
BRANCH   8   9
ATOM      9  C   UNL     1     161.220 160.859 148.981  1.00  0.00     0.000 C 
BRANCH   9  10
ATOM     10  C   UNL     1     161.103 161.968 150.038  1.00  0.00     0.006 C 
BRANCH  10  11
ATOM     11  C   UNL     1     159.732 162.649 149.966  1.00  0.00     0.053 C 
BRANCH  11  12
ATOM     12  C   UNL     1     158.928 162.340 151.189  1.00  0.00     0.041 C 
ATOM     13  O   UNL     1     158.997 161.202 151.723  1.00  0.00    -0.550 OA
ATOM     14  O   UNL     1     158.062 163.294 151.711  1.00  0.00    -0.550 OA
ENDBRANCH  11  12
ENDBRANCH  10  11
ENDBRANCH   9  10
ENDBRANCH   8   9
ENDBRANCH   1   8
TORSDOF 9
ENDMDL
