MODEL 1
REMARK VINA RESULT:    -6.188      0.000      0.000
REMARK INTER + INTRA:          -6.644
REMARK INTER:                  -6.550
REMARK INTRA:                  -0.094
REMARK UNBOUND:                -0.094
REMARK SMILES C=C(C)[C@H]1CC=C(C)C(=O)C1
REMARK SMILES IDX 8 1 7 2 6 3 5 4 4 5 11 6 9 7 10 8 2 9 1 10 3 11
REMARK H PARENT
REMARK Flexibility Score: inf
ROOT
ATOM      1  C   UNL     1      -2.889 -11.364  25.764  1.00  0.00     0.048 C 
ATOM      2  C   UNL     1      -3.747 -12.160  26.709  1.00  0.00    -0.012 C 
ATOM      3  C   UNL     1      -4.144 -13.398  26.369  1.00  0.00    -0.019 C 
ATOM      4  C   UNL     1      -5.019 -14.231  27.270  1.00  0.00     0.036 C 
ATOM      5  C   UNL     1      -4.729 -13.933  28.753  1.00  0.00     0.025 C 
ATOM      6  C   UNL     1      -4.873 -12.426  29.034  1.00  0.00     0.089 C 
ATOM      7  C   UNL     1      -4.049 -11.627  28.061  1.00  0.00     0.158 C 
ATOM      8  O   UNL     1      -3.647 -10.479  28.395  1.00  0.00    -0.295 OA
ENDROOT
BRANCH   5   9
ATOM      9  C   UNL     1      -5.623 -14.757  29.671  1.00  0.00    -0.077 C 
ATOM     10  C   UNL     1      -5.410 -14.755  30.996  1.00  0.00     0.008 C 
ATOM     11  C   UNL     1      -6.760 -15.587  29.125  1.00  0.00     0.039 C 
ENDBRANCH   5   9
TORSDOF 1
ENDMDL
MODEL 2
REMARK VINA RESULT:    -6.087      2.988      3.981
REMARK INTER + INTRA:          -6.536
REMARK INTER:                  -6.440
REMARK INTRA:                  -0.097
REMARK UNBOUND:                -0.094
REMARK SMILES C=C(C)[C@H]1CC=C(C)C(=O)C1
REMARK SMILES IDX 8 1 7 2 6 3 5 4 4 5 11 6 9 7 10 8 2 9 1 10 3 11
REMARK H PARENT
REMARK Flexibility Score: inf
ROOT
ATOM      1  C   UNL     1      -0.482 -12.612  31.614  1.00  0.00     0.048 C 
ATOM      2  C   UNL     1      -1.536 -13.112  30.664  1.00  0.00    -0.012 C 
ATOM      3  C   UNL     1      -2.824 -13.131  31.045  1.00  0.00    -0.019 C 
ATOM      4  C   UNL     1      -3.917 -13.639  30.141  1.00  0.00     0.036 C 
ATOM      5  C   UNL     1      -3.592 -13.350  28.663  1.00  0.00     0.025 C 
ATOM      6  C   UNL     1      -2.214 -13.930  28.295  1.00  0.00     0.089 C 
ATOM      7  C   UNL     1      -1.168 -13.466  29.270  1.00  0.00     0.158 C 
ATOM      8  O   UNL     1       0.037 -13.414  28.899  1.00  0.00    -0.295 OA
ENDROOT
BRANCH   5   9
ATOM      9  C   UNL     1      -4.683 -13.877  27.740  1.00  0.00    -0.077 C 
ATOM     10  C   UNL     1      -4.486 -13.902  26.412  1.00  0.00     0.008 C 
ATOM     11  C   UNL     1      -5.997 -14.381  28.283  1.00  0.00     0.039 C 
ENDBRANCH   5   9
TORSDOF 1
ENDMDL
MODEL 3
REMARK VINA RESULT:    -6.042      1.839      4.288
REMARK INTER + INTRA:          -6.489
REMARK INTER:                  -6.392
REMARK INTRA:                  -0.097
REMARK UNBOUND:                -0.094
REMARK SMILES C=C(C)[C@H]1CC=C(C)C(=O)C1
REMARK SMILES IDX 8 1 7 2 6 3 5 4 4 5 11 6 9 7 10 8 2 9 1 10 3 11
REMARK H PARENT
REMARK Flexibility Score: inf
ROOT
ATOM      1  C   UNL     1      -6.981 -16.010  29.239  1.00  0.00     0.048 C 
ATOM      2  C   UNL     1      -5.955 -14.961  28.908  1.00  0.00    -0.012 C 
ATOM      3  C   UNL     1      -5.820 -14.536  27.640  1.00  0.00    -0.019 C 
ATOM      4  C   UNL     1      -4.797 -13.501  27.250  1.00  0.00     0.036 C 
ATOM      5  C   UNL     1      -4.565 -12.494  28.392  1.00  0.00     0.025 C 
ATOM      6  C   UNL     1      -4.182 -13.232  29.687  1.00  0.00     0.089 C 
ATOM      7  C   UNL     1      -5.184 -14.311  29.996  1.00  0.00     0.158 C 
ATOM      8  O   UNL     1      -5.335 -14.685  31.191  1.00  0.00    -0.295 OA
ENDROOT
BRANCH   5   9
ATOM      9  C   UNL     1      -3.517 -11.455  28.014  1.00  0.00    -0.077 C 
ATOM     10  C   UNL     1      -3.029 -10.621  28.946  1.00  0.00     0.008 C 
ATOM     11  C   UNL     1      -3.003 -11.335  26.600  1.00  0.00     0.039 C 
ENDBRANCH   5   9
TORSDOF 1
ENDMDL
MODEL 4
REMARK VINA RESULT:    -6.037      1.743      4.442
REMARK INTER + INTRA:          -6.484
REMARK INTER:                  -6.386
REMARK INTRA:                  -0.098
REMARK UNBOUND:                -0.094
REMARK SMILES C=C(C)[C@H]1CC=C(C)C(=O)C1
REMARK SMILES IDX 8 1 7 2 6 3 5 4 4 5 11 6 9 7 10 8 2 9 1 10 3 11
REMARK H PARENT
REMARK Flexibility Score: inf
ROOT
ATOM      1  C   UNL     1      -5.353 -14.764  32.462  1.00  0.00     0.048 C 
ATOM      2  C   UNL     1      -4.899 -14.401  31.075  1.00  0.00    -0.012 C 
ATOM      3  C   UNL     1      -5.661 -14.727  30.016  1.00  0.00    -0.019 C 
ATOM      4  C   UNL     1      -5.245 -14.405  28.604  1.00  0.00     0.036 C 
ATOM      5  C   UNL     1      -4.435 -13.096  28.551  1.00  0.00     0.025 C 
ATOM      6  C   UNL     1      -3.231 -13.173  29.509  1.00  0.00     0.089 C 
ATOM      7  C   UNL     1      -3.679 -13.579  30.887  1.00  0.00     0.158 C 
ATOM      8  O   UNL     1      -2.982 -13.241  31.882  1.00  0.00    -0.295 OA
ENDROOT
BRANCH   5   9
ATOM      9  C   UNL     1      -3.994 -12.772  27.129  1.00  0.00    -0.077 C 
ATOM     10  C   UNL     1      -4.182 -13.667  26.146  1.00  0.00     0.008 C 
ATOM     11  C   UNL     1      -3.345 -11.453  26.789  1.00  0.00     0.039 C 
ENDBRANCH   5   9
TORSDOF 1
ENDMDL
MODEL 5
REMARK VINA RESULT:    -5.975      2.117      4.830
REMARK INTER + INTRA:          -6.418
REMARK INTER:                  -6.322
REMARK INTRA:                  -0.096
REMARK UNBOUND:                -0.094
REMARK SMILES C=C(C)[C@H]1CC=C(C)C(=O)C1
REMARK SMILES IDX 8 1 7 2 6 3 5 4 4 5 11 6 9 7 10 8 2 9 1 10 3 11
REMARK H PARENT
REMARK Flexibility Score: inf
ROOT
ATOM      1  C   UNL     1      -5.291 -15.129  32.346  1.00  0.00     0.048 C 
ATOM      2  C   UNL     1      -4.999 -14.381  31.074  1.00  0.00    -0.012 C 
ATOM      3  C   UNL     1      -4.046 -13.434  31.059  1.00  0.00    -0.019 C 
ATOM      4  C   UNL     1      -3.726 -12.642  29.818  1.00  0.00     0.036 C 
ATOM      5  C   UNL     1      -3.938 -13.490  28.550  1.00  0.00     0.025 C 
ATOM      6  C   UNL     1      -5.367 -14.063  28.523  1.00  0.00     0.089 C 
ATOM      7  C   UNL     1      -5.676 -14.774  29.813  1.00  0.00     0.158 C 
ATOM      8  O   UNL     1      -6.545 -15.687  29.818  1.00  0.00    -0.295 OA
ENDROOT
BRANCH   5   9
ATOM      9  C   UNL     1      -3.636 -12.692  27.289  1.00  0.00    -0.077 C 
ATOM     10  C   UNL     1      -3.860 -13.232  26.081  1.00  0.00     0.008 C 
ATOM     11  C   UNL     1      -3.084 -11.288  27.360  1.00  0.00     0.039 C 
ENDBRANCH   5   9
TORSDOF 1
ENDMDL
MODEL 6
REMARK VINA RESULT:    -5.874      2.958      3.887
REMARK INTER + INTRA:          -6.312
REMARK INTER:                  -6.214
REMARK INTRA:                  -0.098
REMARK UNBOUND:                -0.094
REMARK SMILES C=C(C)[C@H]1CC=C(C)C(=O)C1
REMARK SMILES IDX 8 1 7 2 6 3 5 4 4 5 11 6 9 7 10 8 2 9 1 10 3 11
REMARK H PARENT
REMARK Flexibility Score: inf
ROOT
ATOM      1  C   UNL     1      -0.229 -12.830  31.442  1.00  0.00     0.048 C 
ATOM      2  C   UNL     1      -1.342 -12.942  30.436  1.00  0.00    -0.012 C 
ATOM      3  C   UNL     1      -1.065 -12.871  29.123  1.00  0.00    -0.019 C 
ATOM      4  C   UNL     1      -2.143 -12.959  28.074  1.00  0.00     0.036 C 
ATOM      5  C   UNL     1      -3.290 -13.879  28.534  1.00  0.00     0.025 C 
ATOM      6  C   UNL     1      -3.838 -13.410  29.894  1.00  0.00     0.089 C 
ATOM      7  C   UNL     1      -2.720 -13.254  30.889  1.00  0.00     0.158 C 
ATOM      8  O   UNL     1      -2.975 -13.357  32.120  1.00  0.00    -0.295 OA
ENDROOT
BRANCH   5   9
ATOM      9  C   UNL     1      -4.393 -13.959  27.488  1.00  0.00    -0.077 C 
ATOM     10  C   UNL     1      -4.136 -13.629  26.212  1.00  0.00     0.008 C 
ATOM     11  C   UNL     1      -5.788 -14.407  27.849  1.00  0.00     0.039 C 
ENDBRANCH   5   9
TORSDOF 1
ENDMDL
MODEL 7
REMARK VINA RESULT:    -5.840      1.038      1.328
REMARK INTER + INTRA:          -6.276
REMARK INTER:                  -6.180
REMARK INTRA:                  -0.095
REMARK UNBOUND:                -0.094
REMARK SMILES C=C(C)[C@H]1CC=C(C)C(=O)C1
REMARK SMILES IDX 8 1 7 2 6 3 5 4 4 5 11 6 9 7 10 8 2 9 1 10 3 11
REMARK H PARENT
REMARK Flexibility Score: inf
ROOT
ATOM      1  C   UNL     1      -3.277 -11.419  25.867  1.00  0.00     0.048 C 
ATOM      2  C   UNL     1      -3.763 -12.012  27.161  1.00  0.00    -0.012 C 
ATOM      3  C   UNL     1      -4.281 -13.252  27.175  1.00  0.00    -0.019 C 
ATOM      4  C   UNL     1      -4.799 -13.886  28.439  1.00  0.00     0.036 C 
ATOM      5  C   UNL     1      -3.999 -13.410  29.667  1.00  0.00     0.025 C 
ATOM      6  C   UNL     1      -4.003 -11.872  29.742  1.00  0.00     0.089 C 
ATOM      7  C   UNL     1      -3.559 -11.277  28.434  1.00  0.00     0.158 C 
ATOM      8  O   UNL     1      -3.041 -10.127  28.427  1.00  0.00    -0.295 OA
ENDROOT
BRANCH   5   9
ATOM      9  C   UNL     1      -4.529 -14.031  30.952  1.00  0.00    -0.077 C 
ATOM     10  C   UNL     1      -3.953 -13.738  32.128  1.00  0.00     0.008 C 
ATOM     11  C   UNL     1      -5.703 -14.980  30.942  1.00  0.00     0.039 C 
ENDBRANCH   5   9
TORSDOF 1
ENDMDL
MODEL 8
REMARK VINA RESULT:    -5.789      2.739      4.331
REMARK INTER + INTRA:          -6.221
REMARK INTER:                  -6.130
REMARK INTRA:                  -0.092
REMARK UNBOUND:                -0.094
REMARK SMILES C=C(C)[C@H]1CC=C(C)C(=O)C1
REMARK SMILES IDX 8 1 7 2 6 3 5 4 4 5 11 6 9 7 10 8 2 9 1 10 3 11
REMARK H PARENT
REMARK Flexibility Score: inf
ROOT
ATOM      1  C   UNL     1      -6.651 -14.715  28.223  1.00  0.00     0.048 C 
ATOM      2  C   UNL     1      -5.282 -14.156  28.498  1.00  0.00    -0.012 C 
ATOM      3  C   UNL     1      -4.865 -14.004  29.767  1.00  0.00    -0.019 C 
ATOM      4  C   UNL     1      -3.511 -13.432  30.100  1.00  0.00     0.036 C 
ATOM      5  C   UNL     1      -2.473 -13.806  29.025  1.00  0.00     0.025 C 
ATOM      6  C   UNL     1      -2.964 -13.369  27.632  1.00  0.00     0.089 C 
ATOM      7  C   UNL     1      -4.351 -13.891  27.374  1.00  0.00     0.158 C 
ATOM      8  O   UNL     1      -4.728 -14.067  26.183  1.00  0.00    -0.295 OA
ENDROOT
BRANCH   5   9
ATOM      9  C   UNL     1      -1.106 -13.216  29.343  1.00  0.00    -0.077 C 
ATOM     10  C   UNL     1      -0.003 -13.731  28.778  1.00  0.00     0.008 C 
ATOM     11  C   UNL     1      -0.953 -12.048  30.287  1.00  0.00     0.039 C 
ENDBRANCH   5   9
TORSDOF 1
ENDMDL
MODEL 9
REMARK VINA RESULT:    -5.714      1.782      2.525
REMARK INTER + INTRA:          -6.141
REMARK INTER:                  -6.043
REMARK INTRA:                  -0.098
REMARK UNBOUND:                -0.094
REMARK SMILES C=C(C)[C@H]1CC=C(C)C(=O)C1
REMARK SMILES IDX 8 1 7 2 6 3 5 4 4 5 11 6 9 7 10 8 2 9 1 10 3 11
REMARK H PARENT
REMARK Flexibility Score: inf
ROOT
ATOM      1  C   UNL     1      -3.372 -11.368  25.753  1.00  0.00     0.048 C 
ATOM      2  C   UNL     1      -3.441 -12.047  27.093  1.00  0.00    -0.012 C 
ATOM      3  C   UNL     1      -3.024 -11.396  28.193  1.00  0.00    -0.019 C 
ATOM      4  C   UNL     1      -3.054 -12.035  29.558  1.00  0.00     0.036 C 
ATOM      5  C   UNL     1      -4.238 -13.012  29.686  1.00  0.00     0.025 C 
ATOM      6  C   UNL     1      -4.195 -14.056  28.555  1.00  0.00     0.089 C 
ATOM      7  C   UNL     1      -4.082 -13.379  27.216  1.00  0.00     0.158 C 
ATOM      8  O   UNL     1      -4.507 -13.976  26.190  1.00  0.00    -0.295 OA
ENDROOT
BRANCH   5   9
ATOM      9  C   UNL     1      -4.265 -13.677  31.056  1.00  0.00    -0.077 C 
ATOM     10  C   UNL     1      -3.360 -13.335  31.988  1.00  0.00     0.008 C 
ATOM     11  C   UNL     1      -5.296 -14.723  31.403  1.00  0.00     0.039 C 
ENDBRANCH   5   9
TORSDOF 1
ENDMDL
