MODEL 1
REMARK VINA RESULT:    -4.896      0.000      0.000
REMARK INTER + INTRA:         -10.212
REMARK INTER:                  -8.616
REMARK INTRA:                  -1.596
REMARK UNBOUND:                -1.596
REMARK SMILES CCCCCCCCCCCCCCC(=O)[O-]
REMARK SMILES IDX 9 1 10 2 11 3 12 4 13 5 14 6 15 7 16 8 17 9 8 10 7 11 6 12
REMARK SMILES IDX 5 13 4 14 3 15 2 16 1 17
REMARK H PARENT
REMARK Flexibility Score: inf
ROOT
ATOM      1  C   UNL     1       2.775  43.137  10.256  1.00  0.00     0.000 C 
ENDROOT
BRANCH   1   2
ATOM      2  C   UNL     1       1.956  43.846   9.163  1.00  0.00     0.000 C 
BRANCH   2   3
ATOM      3  C   UNL     1       0.997  44.903   9.729  1.00  0.00     0.000 C 
BRANCH   3   4
ATOM      4  C   UNL     1       0.578  45.902   8.644  1.00  0.00     0.000 C 
BRANCH   4   5
ATOM      5  C   UNL     1       1.191  47.284   8.902  1.00  0.00     0.006 C 
BRANCH   5   6
ATOM      6  C   UNL     1       1.998  47.763   7.692  1.00  0.00     0.053 C 
BRANCH   6   7
ATOM      7  C   UNL     1       2.341  49.212   7.832  1.00  0.00     0.041 C 
ATOM      8  O   UNL     1       3.265  49.715   7.138  1.00  0.00    -0.550 OA
ATOM      9  O   UNL     1       1.676  49.998   8.767  1.00  0.00    -0.550 OA
ENDBRANCH   6   7
ENDBRANCH   5   6
ENDBRANCH   4   5
ENDBRANCH   3   4
ENDBRANCH   2   3
ENDBRANCH   1   2
BRANCH   1  10
ATOM     10  C   UNL     1       2.386  43.505  11.702  1.00  0.00     0.000 C 
BRANCH  10  11
ATOM     11  C   UNL     1       3.409  44.376  12.456  1.00  0.00    -0.000 C 
BRANCH  11  12
ATOM     12  C   UNL     1       4.542  44.944  11.582  1.00  0.00    -0.000 C 
BRANCH  12  13
ATOM     13  C   UNL     1       4.179  46.297  10.944  1.00  0.00    -0.000 C 
BRANCH  13  14
ATOM     14  C   UNL     1       4.788  46.476   9.542  1.00  0.00    -0.000 C 
BRANCH  14  15
ATOM     15  C   UNL     1       5.592  47.777   9.344  1.00  0.00    -0.000 C 
BRANCH  15  16
ATOM     16  C   UNL     1       7.117  47.630   9.499  1.00  0.00    -0.003 C 
ATOM     17  C   UNL     1       7.835  48.973   9.625  1.00  0.00     0.004 C 
ENDBRANCH  15  16
ENDBRANCH  14  15
ENDBRANCH  13  14
ENDBRANCH  12  13
ENDBRANCH  11  12
ENDBRANCH  10  11
ENDBRANCH   1  10
TORSDOF 13
ENDMDL
MODEL 2
REMARK VINA RESULT:    -4.890      2.140      4.757
REMARK INTER + INTRA:         -10.202
REMARK INTER:                  -8.287
REMARK INTRA:                  -1.915
REMARK UNBOUND:                -1.596
REMARK SMILES CCCCCCCCCCCCCCC(=O)[O-]
REMARK SMILES IDX 9 1 10 2 11 3 12 4 13 5 14 6 15 7 16 8 17 9 8 10 7 11 6 12
REMARK SMILES IDX 5 13 4 14 3 15 2 16 1 17
REMARK H PARENT
REMARK Flexibility Score: inf
ROOT
ATOM      1  C   UNL     1      -0.393  47.562   8.159  1.00  0.00     0.000 C 
ENDROOT
BRANCH   1   2
ATOM      2  C   UNL     1       0.310  48.922   8.006  1.00  0.00     0.000 C 
BRANCH   2   3
ATOM      3  C   UNL     1       1.679  48.967   8.701  1.00  0.00     0.000 C 
BRANCH   3   4
ATOM      4  C   UNL     1       2.781  49.382   7.718  1.00  0.00     0.000 C 
BRANCH   4   5
ATOM      5  C   UNL     1       3.875  48.311   7.636  1.00  0.00     0.006 C 
BRANCH   5   6
ATOM      6  C   UNL     1       3.779  47.335   8.812  1.00  0.00     0.053 C 
BRANCH   6   7
ATOM      7  C   UNL     1       5.097  47.229   9.512  1.00  0.00     0.041 C 
ATOM      8  O   UNL     1       5.175  46.660  10.634  1.00  0.00    -0.550 OA
ATOM      9  O   UNL     1       6.231  47.804   8.952  1.00  0.00    -0.550 OA
ENDBRANCH   6   7
ENDBRANCH   5   6
ENDBRANCH   4   5
ENDBRANCH   3   4
ENDBRANCH   2   3
ENDBRANCH   1   2
BRANCH   1  10
ATOM     10  C   UNL     1       0.386  46.360   7.587  1.00  0.00     0.000 C 
BRANCH  10  11
ATOM     11  C   UNL     1       0.734  45.257   8.607  1.00  0.00    -0.000 C 
BRANCH  11  12
ATOM     12  C   UNL     1       0.663  45.696  10.081  1.00  0.00    -0.000 C 
BRANCH  12  13
ATOM     13  C   UNL     1       1.054  44.571  11.055  1.00  0.00    -0.000 C 
BRANCH  13  14
ATOM     14  C   UNL     1       2.420  44.811  11.724  1.00  0.00    -0.000 C 
BRANCH  14  15
ATOM     15  C   UNL     1       3.433  43.659  11.566  1.00  0.00    -0.000 C 
BRANCH  15  16
ATOM     16  C   UNL     1       3.292  42.842  10.269  1.00  0.00    -0.003 C 
ATOM     17  C   UNL     1       4.052  43.455   9.093  1.00  0.00     0.004 C 
ENDBRANCH  15  16
ENDBRANCH  14  15
ENDBRANCH  13  14
ENDBRANCH  12  13
ENDBRANCH  11  12
ENDBRANCH  10  11
ENDBRANCH   1  10
TORSDOF 13
ENDMDL
MODEL 3
REMARK VINA RESULT:    -4.845      1.142      2.263
REMARK INTER + INTRA:         -10.124
REMARK INTER:                  -8.516
REMARK INTRA:                  -1.608
REMARK UNBOUND:                -1.596
REMARK SMILES CCCCCCCCCCCCCCC(=O)[O-]
REMARK SMILES IDX 9 1 10 2 11 3 12 4 13 5 14 6 15 7 16 8 17 9 8 10 7 11 6 12
REMARK SMILES IDX 5 13 4 14 3 15 2 16 1 17
REMARK H PARENT
REMARK Flexibility Score: inf
ROOT
ATOM      1  C   UNL     1       1.498  44.379   8.971  1.00  0.00     0.000 C 
ENDROOT
BRANCH   1   2
ATOM      2  C   UNL     1       0.473  44.397   7.824  1.00  0.00     0.000 C 
BRANCH   2   3
ATOM      3  C   UNL     1       0.072  45.819   7.405  1.00  0.00     0.000 C 
BRANCH   3   4
ATOM      4  C   UNL     1       0.519  46.847   8.452  1.00  0.00     0.000 C 
BRANCH   4   5
ATOM      5  C   UNL     1       0.857  48.190   7.794  1.00  0.00     0.006 C 
BRANCH   5   6
ATOM      6  C   UNL     1       1.919  48.945   8.598  1.00  0.00     0.053 C 
BRANCH   6   7
ATOM      7  C   UNL     1       3.017  49.419   7.700  1.00  0.00     0.041 C 
ATOM      8  O   UNL     1       3.661  48.596   6.997  1.00  0.00    -0.550 OA
ATOM      9  O   UNL     1       3.364  50.765   7.676  1.00  0.00    -0.550 OA
ENDBRANCH   6   7
ENDBRANCH   5   6
ENDBRANCH   4   5
ENDBRANCH   3   4
ENDBRANCH   2   3
ENDBRANCH   1   2
BRANCH   1  10
ATOM     10  C   UNL     1       2.315  43.076   9.093  1.00  0.00     0.000 C 
BRANCH  10  11
ATOM     11  C   UNL     1       2.832  42.756  10.509  1.00  0.00    -0.000 C 
BRANCH  11  12
ATOM     12  C   UNL     1       2.374  43.739  11.602  1.00  0.00    -0.000 C 
BRANCH  12  13
ATOM     13  C   UNL     1       3.520  44.170  12.534  1.00  0.00    -0.000 C 
BRANCH  13  14
ATOM     14  C   UNL     1       4.498  45.149  11.861  1.00  0.00    -0.000 C 
BRANCH  14  15
ATOM     15  C   UNL     1       3.835  46.233  10.987  1.00  0.00    -0.000 C 
BRANCH  15  16
ATOM     16  C   UNL     1       4.443  46.398   9.583  1.00  0.00    -0.003 C 
ATOM     17  C   UNL     1       5.614  47.380   9.553  1.00  0.00     0.004 C 
ENDBRANCH  15  16
ENDBRANCH  14  15
ENDBRANCH  13  14
ENDBRANCH  12  13
ENDBRANCH  11  12
ENDBRANCH  10  11
ENDBRANCH   1  10
TORSDOF 13
ENDMDL
MODEL 4
REMARK VINA RESULT:    -4.736      1.858      4.534
REMARK INTER + INTRA:          -9.930
REMARK INTER:                  -8.390
REMARK INTRA:                  -1.540
REMARK UNBOUND:                -1.596
REMARK SMILES CCCCCCCCCCCCCCC(=O)[O-]
REMARK SMILES IDX 9 1 10 2 11 3 12 4 13 5 14 6 15 7 16 8 17 9 8 10 7 11 6 12
REMARK SMILES IDX 5 13 4 14 3 15 2 16 1 17
REMARK H PARENT
REMARK Flexibility Score: inf
ROOT
ATOM      1  C   UNL     1       5.312  47.287   9.069  1.00  0.00     0.000 C 
ENDROOT
BRANCH   1   2
ATOM      2  C   UNL     1       4.905  48.573   8.330  1.00  0.00     0.000 C 
BRANCH   2   3
ATOM      3  C   UNL     1       3.631  48.400   7.490  1.00  0.00     0.000 C 
BRANCH   3   4
ATOM      4  C   UNL     1       2.715  49.623   7.622  1.00  0.00     0.000 C 
BRANCH   4   5
ATOM      5  C   UNL     1       1.275  49.200   7.937  1.00  0.00     0.006 C 
BRANCH   5   6
ATOM      6  C   UNL     1       1.146  47.674   7.976  1.00  0.00     0.053 C 
BRANCH   6   7
ATOM      7  C   UNL     1      -0.145  47.242   7.357  1.00  0.00     0.041 C 
ATOM      8  O   UNL     1      -1.125  48.034   7.317  1.00  0.00    -0.550 OA
ATOM      9  O   UNL     1      -0.286  45.948   6.870  1.00  0.00    -0.550 OA
ENDBRANCH   6   7
ENDBRANCH   5   6
ENDBRANCH   4   5
ENDBRANCH   3   4
ENDBRANCH   2   3
ENDBRANCH   1   2
BRANCH   1  10
ATOM     10  C   UNL     1       4.147  46.334   9.407  1.00  0.00     0.000 C 
BRANCH  10  11
ATOM     11  C   UNL     1       3.744  46.292  10.895  1.00  0.00    -0.000 C 
BRANCH  11  12
ATOM     12  C   UNL     1       4.520  45.269  11.745  1.00  0.00    -0.000 C 
BRANCH  12  13
ATOM     13  C   UNL     1       3.595  44.318  12.522  1.00  0.00    -0.000 C 
BRANCH  13  14
ATOM     14  C   UNL     1       2.576  43.605  11.615  1.00  0.00    -0.000 C 
BRANCH  14  15
ATOM     15  C   UNL     1       3.193  42.697  10.532  1.00  0.00    -0.000 C 
BRANCH  15  16
ATOM     16  C   UNL     1       2.692  42.960   9.100  1.00  0.00    -0.003 C 
ATOM     17  C   UNL     1       1.501  43.917   9.052  1.00  0.00     0.004 C 
ENDBRANCH  15  16
ENDBRANCH  14  15
ENDBRANCH  13  14
ENDBRANCH  12  13
ENDBRANCH  11  12
ENDBRANCH  10  11
ENDBRANCH   1  10
TORSDOF 13
ENDMDL
MODEL 5
REMARK VINA RESULT:    -4.689      1.224      4.297
REMARK INTER + INTRA:          -9.848
REMARK INTER:                  -8.377
REMARK INTRA:                  -1.471
REMARK UNBOUND:                -1.596
REMARK SMILES CCCCCCCCCCCCCCC(=O)[O-]
REMARK SMILES IDX 9 1 10 2 11 3 12 4 13 5 14 6 15 7 16 8 17 9 8 10 7 11 6 12
REMARK SMILES IDX 5 13 4 14 3 15 2 16 1 17
REMARK H PARENT
REMARK Flexibility Score: inf
ROOT
ATOM      1  C   UNL     1       4.438  45.200  11.856  1.00  0.00     0.000 C 
ENDROOT
BRANCH   1   2
ATOM      2  C   UNL     1       3.780  46.292  10.995  1.00  0.00     0.000 C 
BRANCH   2   3
ATOM      3  C   UNL     1       4.288  46.294   9.545  1.00  0.00     0.000 C 
BRANCH   3   4
ATOM      4  C   UNL     1       5.369  47.363   9.343  1.00  0.00     0.000 C 
BRANCH   4   5
ATOM      5  C   UNL     1       4.938  48.386   8.285  1.00  0.00     0.006 C 
BRANCH   5   6
ATOM      6  C   UNL     1       3.503  48.125   7.819  1.00  0.00     0.053 C 
BRANCH   6   7
ATOM      7  C   UNL     1       2.730  49.404   7.764  1.00  0.00     0.041 C 
ATOM      8  O   UNL     1       3.304  50.478   7.442  1.00  0.00    -0.550 OA
ATOM      9  O   UNL     1       1.387  49.422   8.120  1.00  0.00    -0.550 OA
ENDBRANCH   6   7
ENDBRANCH   5   6
ENDBRANCH   4   5
ENDBRANCH   3   4
ENDBRANCH   2   3
ENDBRANCH   1   2
BRANCH   1  10
ATOM     10  C   UNL     1       3.708  43.841  11.852  1.00  0.00     0.000 C 
BRANCH  10  11
ATOM     11  C   UNL     1       4.117  42.880  10.719  1.00  0.00    -0.000 C 
BRANCH  11  12
ATOM     12  C   UNL     1       3.055  42.686   9.621  1.00  0.00    -0.000 C 
BRANCH  12  13
ATOM     13  C   UNL     1       1.824  43.588   9.819  1.00  0.00    -0.000 C 
BRANCH  13  14
ATOM     14  C   UNL     1       1.339  44.229   8.507  1.00  0.00    -0.000 C 
BRANCH  14  15
ATOM     15  C   UNL     1       0.751  45.647   8.654  1.00  0.00    -0.000 C 
BRANCH  15  16
ATOM     16  C   UNL     1      -0.103  46.124   7.465  1.00  0.00    -0.003 C 
ATOM     17  C   UNL     1      -0.545  44.982   6.553  1.00  0.00     0.004 C 
ENDBRANCH  15  16
ENDBRANCH  14  15
ENDBRANCH  13  14
ENDBRANCH  12  13
ENDBRANCH  11  12
ENDBRANCH  10  11
ENDBRANCH   1  10
TORSDOF 13
ENDMDL
MODEL 6
REMARK VINA RESULT:    -4.669      2.814      4.748
REMARK INTER + INTRA:          -9.813
REMARK INTER:                  -8.034
REMARK INTRA:                  -1.779
REMARK UNBOUND:                -1.596
REMARK SMILES CCCCCCCCCCCCCCC(=O)[O-]
REMARK SMILES IDX 9 1 10 2 11 3 12 4 13 5 14 6 15 7 16 8 17 9 8 10 7 11 6 12
REMARK SMILES IDX 5 13 4 14 3 15 2 16 1 17
REMARK H PARENT
REMARK Flexibility Score: inf
ROOT
ATOM      1  C   UNL     1      -0.625  45.956   7.821  1.00  0.00     0.000 C 
ENDROOT
BRANCH   1   2
ATOM      2  C   UNL     1       0.343  44.790   7.559  1.00  0.00     0.000 C 
BRANCH   2   3
ATOM      3  C   UNL     1       1.141  44.385   8.807  1.00  0.00     0.000 C 
BRANCH   3   4
ATOM      4  C   UNL     1       0.717  45.218  10.024  1.00  0.00     0.000 C 
BRANCH   4   5
ATOM      5  C   UNL     1       1.390  44.704  11.302  1.00  0.00     0.006 C 
BRANCH   5   6
ATOM      6  C   UNL     1       2.133  43.390  11.043  1.00  0.00     0.053 C 
BRANCH   6   7
ATOM      7  C   UNL     1       3.600  43.564  11.277  1.00  0.00     0.041 C 
ATOM      8  O   UNL     1       4.432  43.121  10.440  1.00  0.00    -0.550 OA
ATOM      9  O   UNL     1       4.052  44.169  12.443  1.00  0.00    -0.550 OA
ENDBRANCH   6   7
ENDBRANCH   5   6
ENDBRANCH   4   5
ENDBRANCH   3   4
ENDBRANCH   2   3
ENDBRANCH   1   2
BRANCH   1  10
ATOM     10  C   UNL     1      -0.143  47.330   7.311  1.00  0.00     0.000 C 
BRANCH  10  11
ATOM     11  C   UNL     1       0.074  48.396   8.402  1.00  0.00    -0.000 C 
BRANCH  11  12
ATOM     12  C   UNL     1       1.535  48.844   8.586  1.00  0.00    -0.000 C 
BRANCH  12  13
ATOM     13  C   UNL     1       2.497  48.152   7.604  1.00  0.00    -0.000 C 
BRANCH  13  14
ATOM     14  C   UNL     1       3.892  47.911   8.207  1.00  0.00    -0.000 C 
BRANCH  14  15
ATOM     15  C   UNL     1       3.927  46.924   9.391  1.00  0.00    -0.000 C 
BRANCH  15  16
ATOM     16  C   UNL     1       5.250  46.897  10.178  1.00  0.00    -0.003 C 
ATOM     17  C   UNL     1       6.368  47.679   9.490  1.00  0.00     0.004 C 
ENDBRANCH  15  16
ENDBRANCH  14  15
ENDBRANCH  13  14
ENDBRANCH  12  13
ENDBRANCH  11  12
ENDBRANCH  10  11
ENDBRANCH   1  10
TORSDOF 13
ENDMDL
MODEL 7
REMARK VINA RESULT:    -4.647      2.978      6.116
REMARK INTER + INTRA:          -9.774
REMARK INTER:                  -8.264
REMARK INTRA:                  -1.510
REMARK UNBOUND:                -1.596
REMARK SMILES CCCCCCCCCCCCCCC(=O)[O-]
REMARK SMILES IDX 9 1 10 2 11 3 12 4 13 5 14 6 15 7 16 8 17 9 8 10 7 11 6 12
REMARK SMILES IDX 5 13 4 14 3 15 2 16 1 17
REMARK H PARENT
REMARK Flexibility Score: inf
ROOT
ATOM      1  C   UNL     1       5.110  47.781   8.862  1.00  0.00     0.000 C 
ENDROOT
BRANCH   1   2
ATOM      2  C   UNL     1       4.673  46.708   9.874  1.00  0.00     0.000 C 
BRANCH   2   3
ATOM      3  C   UNL     1       3.428  45.933   9.420  1.00  0.00     0.000 C 
BRANCH   3   4
ATOM      4  C   UNL     1       2.320  46.003  10.478  1.00  0.00     0.000 C 
BRANCH   4   5
ATOM      5  C   UNL     1       1.522  44.694  10.527  1.00  0.00     0.006 C 
BRANCH   5   6
ATOM      6  C   UNL     1       1.905  43.863  11.754  1.00  0.00     0.053 C 
BRANCH   6   7
ATOM      7  C   UNL     1       3.392  43.736  11.857  1.00  0.00     0.041 C 
ATOM      8  O   UNL     1       4.022  43.001  11.051  1.00  0.00    -0.550 OA
ATOM      9  O   UNL     1       4.077  44.387  12.876  1.00  0.00    -0.550 OA
ENDBRANCH   6   7
ENDBRANCH   5   6
ENDBRANCH   4   5
ENDBRANCH   3   4
ENDBRANCH   2   3
ENDBRANCH   1   2
BRANCH   1  10
ATOM     10  C   UNL     1       4.047  48.153   7.808  1.00  0.00     0.000 C 
BRANCH  10  11
ATOM     11  C   UNL     1       3.777  49.663   7.652  1.00  0.00    -0.000 C 
BRANCH  11  12
ATOM     12  C   UNL     1       2.288  50.049   7.583  1.00  0.00    -0.000 C 
BRANCH  12  13
ATOM     13  C   UNL     1       1.450  49.388   8.691  1.00  0.00    -0.000 C 
BRANCH  13  14
ATOM     14  C   UNL     1       0.217  48.648   8.144  1.00  0.00    -0.000 C 
BRANCH  14  15
ATOM     15  C   UNL     1       0.510  47.272   7.512  1.00  0.00    -0.000 C 
BRANCH  15  16
ATOM     16  C   UNL     1      -0.668  46.282   7.533  1.00  0.00    -0.003 C 
ATOM     17  C   UNL     1      -0.339  44.950   6.861  1.00  0.00     0.004 C 
ENDBRANCH  15  16
ENDBRANCH  14  15
ENDBRANCH  13  14
ENDBRANCH  12  13
ENDBRANCH  11  12
ENDBRANCH  10  11
ENDBRANCH   1  10
TORSDOF 13
ENDMDL
MODEL 8
REMARK VINA RESULT:    -4.575      2.245      4.682
REMARK INTER + INTRA:          -9.647
REMARK INTER:                  -8.334
REMARK INTRA:                  -1.313
REMARK UNBOUND:                -1.596
REMARK SMILES CCCCCCCCCCCCCCC(=O)[O-]
REMARK SMILES IDX 9 1 10 2 11 3 12 4 13 5 14 6 15 7 16 8 17 9 8 10 7 11 6 12
REMARK SMILES IDX 5 13 4 14 3 15 2 16 1 17
REMARK H PARENT
REMARK Flexibility Score: inf
ROOT
ATOM      1  C   UNL     1       4.092  48.867   7.671  1.00  0.00     0.000 C 
ENDROOT
BRANCH   1   2
ATOM      2  C   UNL     1       2.761  49.637   7.617  1.00  0.00     0.000 C 
BRANCH   2   3
ATOM      3  C   UNL     1       1.681  49.023   8.520  1.00  0.00     0.000 C 
BRANCH   3   4
ATOM      4  C   UNL     1       0.280  49.274   7.950  1.00  0.00     0.000 C 
BRANCH   4   5
ATOM      5  C   UNL     1      -0.641  48.075   8.205  1.00  0.00     0.006 C 
BRANCH   5   6
ATOM      6  C   UNL     1      -0.461  47.004   7.125  1.00  0.00     0.053 C 
BRANCH   6   7
ATOM      7  C   UNL     1      -0.012  45.715   7.736  1.00  0.00     0.041 C 
ATOM      8  O   UNL     1       0.006  44.659   7.049  1.00  0.00    -0.550 OA
ATOM      9  O   UNL     1       0.338  45.666   9.081  1.00  0.00    -0.550 OA
ENDBRANCH   6   7
ENDBRANCH   5   6
ENDBRANCH   4   5
ENDBRANCH   3   4
ENDBRANCH   2   3
ENDBRANCH   1   2
BRANCH   1  10
ATOM     10  C   UNL     1       4.039  47.528   8.435  1.00  0.00     0.000 C 
BRANCH  10  11
ATOM     11  C   UNL     1       5.197  47.290   9.425  1.00  0.00    -0.000 C 
BRANCH  11  12
ATOM     12  C   UNL     1       4.795  46.578  10.729  1.00  0.00    -0.000 C 
BRANCH  12  13
ATOM     13  C   UNL     1       3.287  46.280  10.804  1.00  0.00    -0.000 C 
BRANCH  13  14
ATOM     14  C   UNL     1       2.975  44.967  11.543  1.00  0.00    -0.000 C 
BRANCH  14  15
ATOM     15  C   UNL     1       3.962  43.815  11.266  1.00  0.00    -0.000 C 
BRANCH  15  16
ATOM     16  C   UNL     1       4.003  43.330   9.806  1.00  0.00    -0.003 C 
ATOM     17  C   UNL     1       2.623  42.966   9.260  1.00  0.00     0.004 C 
ENDBRANCH  15  16
ENDBRANCH  14  15
ENDBRANCH  13  14
ENDBRANCH  12  13
ENDBRANCH  11  12
ENDBRANCH  10  11
ENDBRANCH   1  10
TORSDOF 13
ENDMDL
MODEL 9
REMARK VINA RESULT:    -4.541      2.641      4.760
REMARK INTER + INTRA:          -9.587
REMARK INTER:                  -8.257
REMARK INTRA:                  -1.331
REMARK UNBOUND:                -1.596
REMARK SMILES CCCCCCCCCCCCCCC(=O)[O-]
REMARK SMILES IDX 9 1 10 2 11 3 12 4 13 5 14 6 15 7 16 8 17 9 8 10 7 11 6 12
REMARK SMILES IDX 5 13 4 14 3 15 2 16 1 17
REMARK H PARENT
REMARK Flexibility Score: inf
ROOT
ATOM      1  C   UNL     1      -0.114  47.363   7.714  1.00  0.00     0.000 C 
ENDROOT
BRANCH   1   2
ATOM      2  C   UNL     1       0.245  46.374   8.836  1.00  0.00     0.000 C 
BRANCH   2   3
ATOM      3  C   UNL     1       0.686  45.003   8.304  1.00  0.00     0.000 C 
BRANCH   3   4
ATOM      4  C   UNL     1       1.450  44.216   9.376  1.00  0.00     0.000 C 
BRANCH   4   5
ATOM      5  C   UNL     1       1.425  44.954  10.721  1.00  0.00     0.006 C 
BRANCH   5   6
ATOM      6  C   UNL     1       2.183  44.166  11.794  1.00  0.00     0.053 C 
BRANCH   6   7
ATOM      7  C   UNL     1       3.652  44.180  11.513  1.00  0.00     0.041 C 
ATOM      8  O   UNL     1       4.366  45.131  11.927  1.00  0.00    -0.550 OA
ATOM      9  O   UNL     1       4.225  43.170  10.750  1.00  0.00    -0.550 OA
ENDBRANCH   6   7
ENDBRANCH   5   6
ENDBRANCH   4   5
ENDBRANCH   3   4
ENDBRANCH   2   3
ENDBRANCH   1   2
BRANCH   1  10
ATOM     10  C   UNL     1       0.122  48.849   8.055  1.00  0.00     0.000 C 
BRANCH  10  11
ATOM     11  C   UNL     1       1.514  49.177   8.631  1.00  0.00    -0.000 C 
BRANCH  11  12
ATOM     12  C   UNL     1       2.538  49.679   7.597  1.00  0.00    -0.000 C 
BRANCH  12  13
ATOM     13  C   UNL     1       3.805  48.807   7.543  1.00  0.00    -0.000 C 
BRANCH  13  14
ATOM     14  C   UNL     1       3.736  47.597   8.491  1.00  0.00    -0.000 C 
BRANCH  14  15
ATOM     15  C   UNL     1       5.033  47.307   9.273  1.00  0.00    -0.000 C 
BRANCH  15  16
ATOM     16  C   UNL     1       6.244  48.165   8.865  1.00  0.00    -0.003 C 
ATOM     17  C   UNL     1       7.509  47.821   9.651  1.00  0.00     0.004 C 
ENDBRANCH  15  16
ENDBRANCH  14  15
ENDBRANCH  13  14
ENDBRANCH  12  13
ENDBRANCH  11  12
ENDBRANCH  10  11
ENDBRANCH   1  10
TORSDOF 13
ENDMDL
