MODEL 1
REMARK VINA RESULT:    -6.711      0.000      0.000
REMARK INTER + INTRA:         -11.852
REMARK INTER:                 -10.438
REMARK INTRA:                  -1.414
REMARK UNBOUND:                -1.414
REMARK SMILES C[C@@]12C[C@@]3(O)O[C@@H](O1)[C@]1(COC(=O)c4ccccc4)[C@H]3C[C@@]12O[C@@H]1O[C@H](CO)[C@@H](O)[C@@H](O)[C@H]1O
REMARK SMILES IDX 1 1 2 2 3 3 4 4 20 5 21 6 22 7 9 8 7 9 8 10 6 11 23 12 24 13
REMARK SMILES IDX 33 14 25 15 31 16 26 17 29 18 34 19 32 21 27 23 28 24 30 26
REMARK SMILES IDX 5 28 10 30 11 31 12 32 13 33 14 34 15 35 19 36 16 37 18 38
REMARK SMILES IDX 17 39
REMARK H PARENT 34 20 32 22 28 25 30 27 5 29
REMARK Flexibility Score: inf
ROOT
ATOM      1  C   UNL     1      54.807 -36.836 -25.748  1.00  0.00     0.046 C 
ATOM      2  C   UNL     1      54.496 -37.075 -24.271  1.00  0.00     0.104 C 
ATOM      3  C   UNL     1      55.261 -36.060 -23.355  1.00  0.00     0.104 C 
ATOM      4  C   UNL     1      54.866 -36.497 -21.902  1.00  0.00     0.175 C 
ATOM      5  C   UNL     1      55.024 -38.038 -21.719  1.00  0.00     0.070 C 
ATOM      6  C   UNL     1      55.940 -38.656 -22.753  1.00  0.00     0.050 C 
ATOM      7  C   UNL     1      54.767 -38.542 -23.764  1.00  0.00     0.115 C 
ATOM      8  C   UNL     1      53.832 -38.505 -22.536  1.00  0.00     0.096 C 
ATOM      9  C   UNL     1      52.939 -37.281 -22.685  1.00  0.00     0.267 C 
ATOM     10  O   UNL     1      53.121 -36.848 -24.025  1.00  0.00    -0.342 OA
ATOM     11  O   UNL     1      53.473 -36.298 -21.808  1.00  0.00    -0.320 OA
ENDROOT
BRANCH   7  12
ATOM     12  O   UNL     1      54.470 -39.606 -24.684  1.00  0.00    -0.339 OA
BRANCH  12  13
ATOM     13  C   UNL     1      55.592 -40.300 -25.271  1.00  0.00     0.282 C 
ATOM     14  C   UNL     1      55.661 -41.779 -24.759  1.00  0.00     0.202 C 
ATOM     15  O   UNL     1      55.667 -40.178 -26.690  1.00  0.00    -0.341 OA
ATOM     16  C   UNL     1      55.578 -42.877 -25.865  1.00  0.00     0.179 C 
ATOM     17  C   UNL     1      56.646 -41.022 -27.247  1.00  0.00     0.178 C 
ATOM     18  C   UNL     1      56.035 -42.428 -27.286  1.00  0.00     0.177 C 
BRANCH  14  19
ATOM     19  O   UNL     1      56.855 -41.954 -24.038  1.00  0.00    -0.385 OA
ATOM     20  H   UNL     1      56.766 -41.432 -23.190  1.00  0.00     0.211 HD
ENDBRANCH  14  19
BRANCH  16  21
ATOM     21  O   UNL     1      56.283 -44.026 -25.451  1.00  0.00    -0.387 OA
ATOM     22  H   UNL     1      55.629 -44.767 -25.415  1.00  0.00     0.211 HD
ENDBRANCH  16  21
BRANCH  17  23
ATOM     23  C   UNL     1      56.994 -40.457 -28.638  1.00  0.00     0.191 C 
BRANCH  23  24
ATOM     24  O   UNL     1      57.889 -41.293 -29.328  1.00  0.00    -0.394 OA
ATOM     25  H   UNL     1      57.776 -41.097 -30.307  1.00  0.00     0.210 HD
ENDBRANCH  23  24
ENDBRANCH  17  23
BRANCH  18  26
ATOM     26  O   UNL     1      56.940 -43.354 -27.865  1.00  0.00    -0.387 OA
ATOM     27  H   UNL     1      57.175 -43.997 -27.137  1.00  0.00     0.211 HD
ENDBRANCH  18  26
ENDBRANCH  12  13
ENDBRANCH   7  12
BRANCH   4  28
ATOM     28  O   UNL     1      55.580 -35.784 -20.928  1.00  0.00    -0.365 OA
ATOM     29  H   UNL     1      56.106 -35.089 -21.408  1.00  0.00     0.214 HD
ENDBRANCH   4  28
BRANCH   8  30
ATOM     30  C   UNL     1      53.204 -39.853 -22.057  1.00  0.00     0.249 C 
BRANCH  30  31
ATOM     31  O   UNL     1      51.859 -40.040 -22.496  1.00  0.00    -0.461 OA
BRANCH  31  32
ATOM     32  C   UNL     1      51.098 -41.204 -22.316  1.00  0.00     0.338 C 
ATOM     33  O   UNL     1      50.518 -41.434 -21.223  1.00  0.00    -0.246 OA
BRANCH  32  34
ATOM     34  C   UNL     1      50.945 -42.145 -23.447  1.00  0.00     0.060 A 
ATOM     35  C   UNL     1      51.829 -42.072 -24.538  1.00  0.00     0.015 A 
ATOM     36  C   UNL     1      49.965 -43.166 -23.420  1.00  0.00     0.015 A 
ATOM     37  C   UNL     1      51.753 -43.009 -25.575  1.00  0.00     0.001 A 
ATOM     38  C   UNL     1      49.917 -44.122 -24.438  1.00  0.00     0.001 A 
ATOM     39  C   UNL     1      50.808 -44.044 -25.518  1.00  0.00     0.000 A 
ENDBRANCH  32  34
ENDBRANCH  31  32
ENDBRANCH  30  31
ENDBRANCH   8  30
TORSDOF 12
ENDMDL
MODEL 2
REMARK VINA RESULT:    -6.403      2.015      2.931
REMARK INTER + INTRA:         -11.373
REMARK INTER:                 -10.010
REMARK INTRA:                  -1.363
REMARK UNBOUND:                -1.414
REMARK SMILES C[C@@]12C[C@@]3(O)O[C@@H](O1)[C@]1(COC(=O)c4ccccc4)[C@H]3C[C@@]12O[C@@H]1O[C@H](CO)[C@@H](O)[C@@H](O)[C@H]1O
REMARK SMILES IDX 1 1 2 2 3 3 4 4 20 5 21 6 22 7 9 8 7 9 8 10 6 11 23 12 24 13
REMARK SMILES IDX 33 14 25 15 31 16 26 17 29 18 34 19 32 21 27 23 28 24 30 26
REMARK SMILES IDX 5 28 10 30 11 31 12 32 13 33 14 34 15 35 19 36 16 37 18 38
REMARK SMILES IDX 17 39
REMARK H PARENT 34 20 32 22 28 25 30 27 5 29
REMARK Flexibility Score: inf
ROOT
ATOM      1  C   UNL     1      52.221 -35.342 -23.294  1.00  0.00     0.046 C 
ATOM      2  C   UNL     1      51.966 -35.997 -21.937  1.00  0.00     0.104 C 
ATOM      3  C   UNL     1      52.336 -35.032 -20.759  1.00  0.00     0.104 C 
ATOM      4  C   UNL     1      52.066 -35.890 -19.475  1.00  0.00     0.175 C 
ATOM      5  C   UNL     1      52.711 -37.304 -19.601  1.00  0.00     0.070 C 
ATOM      6  C   UNL     1      53.805 -37.353 -20.646  1.00  0.00     0.050 C 
ATOM      7  C   UNL     1      52.686 -37.382 -21.722  1.00  0.00     0.115 C 
ATOM      8  C   UNL     1      51.758 -37.919 -20.612  1.00  0.00     0.096 C 
ATOM      9  C   UNL     1      50.520 -37.033 -20.589  1.00  0.00     0.267 C 
ATOM     10  O   UNL     1      50.587 -36.271 -21.786  1.00  0.00    -0.342 OA
ATOM     11  O   UNL     1      50.682 -36.161 -19.479  1.00  0.00    -0.320 OA
ENDROOT
BRANCH   7  12
ATOM     12  O   UNL     1      52.775 -38.245 -22.868  1.00  0.00    -0.339 OA
BRANCH  12  13
ATOM     13  C   UNL     1      54.066 -38.357 -23.508  1.00  0.00     0.282 C 
ATOM     14  C   UNL     1      54.802 -39.661 -23.051  1.00  0.00     0.202 C 
ATOM     15  O   UNL     1      54.022 -38.185 -24.923  1.00  0.00    -0.341 OA
ATOM     16  C   UNL     1      55.171 -40.659 -24.193  1.00  0.00     0.179 C 
ATOM     17  C   UNL     1      55.252 -38.495 -25.535  1.00  0.00     0.178 C 
ATOM     18  C   UNL     1      55.326 -40.025 -25.608  1.00  0.00     0.177 C 
BRANCH  14  19
ATOM     19  O   UNL     1      55.977 -39.303 -22.368  1.00  0.00    -0.385 OA
ATOM     20  H   UNL     1      55.867 -38.355 -22.070  1.00  0.00     0.211 HD
ENDBRANCH  14  19
BRANCH  16  21
ATOM     21  O   UNL     1      56.327 -41.384 -23.839  1.00  0.00    -0.387 OA
ATOM     22  H   UNL     1      56.024 -42.256 -23.485  1.00  0.00     0.211 HD
ENDBRANCH  16  21
BRANCH  17  23
ATOM     23  C   UNL     1      55.258 -37.806 -26.914  1.00  0.00     0.191 C 
BRANCH  23  24
ATOM     24  O   UNL     1      54.805 -38.668 -27.927  1.00  0.00    -0.394 OA
ATOM     25  H   UNL     1      55.294 -39.537 -27.812  1.00  0.00     0.210 HD
ENDBRANCH  23  24
ENDBRANCH  17  23
BRANCH  18  26
ATOM     26  O   UNL     1      56.524 -40.441 -26.243  1.00  0.00    -0.387 OA
ATOM     27  H   UNL     1      57.208 -40.510 -25.519  1.00  0.00     0.211 HD
ENDBRANCH  18  26
ENDBRANCH  12  13
ENDBRANCH   7  12
BRANCH   4  28
ATOM     28  O   UNL     1      52.484 -35.233 -18.309  1.00  0.00    -0.365 OA
ATOM     29  H   UNL     1      51.763 -35.358 -17.634  1.00  0.00     0.214 HD
ENDBRANCH   4  28
BRANCH   8  30
ATOM     30  C   UNL     1      51.590 -39.467 -20.487  1.00  0.00     0.249 C 
BRANCH  30  31
ATOM     31  O   UNL     1      50.537 -39.990 -21.295  1.00  0.00    -0.461 OA
BRANCH  31  32
ATOM     32  C   UNL     1      50.222 -41.349 -21.444  1.00  0.00     0.338 C 
ATOM     33  O   UNL     1      49.671 -41.990 -20.512  1.00  0.00    -0.246 OA
BRANCH  32  34
ATOM     34  C   UNL     1      50.505 -42.015 -22.734  1.00  0.00     0.060 A 
ATOM     35  C   UNL     1      51.488 -41.486 -23.590  1.00  0.00     0.015 A 
ATOM     36  C   UNL     1      49.852 -43.218 -23.093  1.00  0.00     0.015 A 
ATOM     37  C   UNL     1      51.829 -42.152 -24.773  1.00  0.00     0.001 A 
ATOM     38  C   UNL     1      50.222 -43.900 -24.256  1.00  0.00     0.001 A 
ATOM     39  C   UNL     1      51.208 -43.367 -25.099  1.00  0.00     0.000 A 
ENDBRANCH  32  34
ENDBRANCH  31  32
ENDBRANCH  30  31
ENDBRANCH   8  30
TORSDOF 12
ENDMDL
MODEL 3
REMARK VINA RESULT:    -6.335      1.045      1.692
REMARK INTER + INTRA:         -11.267
REMARK INTER:                 -10.264
REMARK INTRA:                  -1.003
REMARK UNBOUND:                -1.414
REMARK SMILES C[C@@]12C[C@@]3(O)O[C@@H](O1)[C@]1(COC(=O)c4ccccc4)[C@H]3C[C@@]12O[C@@H]1O[C@H](CO)[C@@H](O)[C@@H](O)[C@H]1O
REMARK SMILES IDX 1 1 2 2 3 3 4 4 20 5 21 6 22 7 9 8 7 9 8 10 6 11 23 12 24 13
REMARK SMILES IDX 33 14 25 15 31 16 26 17 29 18 34 19 32 21 27 23 28 24 30 26
REMARK SMILES IDX 5 28 10 30 11 31 12 32 13 33 14 34 15 35 19 36 16 37 18 38
REMARK SMILES IDX 17 39
REMARK H PARENT 34 20 32 22 28 25 30 27 5 29
REMARK Flexibility Score: inf
ROOT
ATOM      1  C   UNL     1      55.117 -36.844 -25.792  1.00  0.00     0.046 C 
ATOM      2  C   UNL     1      54.676 -37.144 -24.359  1.00  0.00     0.104 C 
ATOM      3  C   UNL     1      55.402 -36.211 -23.331  1.00  0.00     0.104 C 
ATOM      4  C   UNL     1      54.872 -36.704 -21.940  1.00  0.00     0.175 C 
ATOM      5  C   UNL     1      54.955 -38.257 -21.828  1.00  0.00     0.070 C 
ATOM      6  C   UNL     1      55.928 -38.860 -22.817  1.00  0.00     0.050 C 
ATOM      7  C   UNL     1      54.848 -38.645 -23.912  1.00  0.00     0.115 C 
ATOM      8  C   UNL     1      53.817 -38.631 -22.763  1.00  0.00     0.096 C 
ATOM      9  C   UNL     1      52.988 -37.364 -22.916  1.00  0.00     0.267 C 
ATOM     10  O   UNL     1      53.296 -36.871 -24.212  1.00  0.00    -0.342 OA
ATOM     11  O   UNL     1      53.485 -36.450 -21.947  1.00  0.00    -0.320 OA
ENDROOT
BRANCH   7  12
ATOM     12  O   UNL     1      54.587 -39.647 -24.909  1.00  0.00    -0.339 OA
BRANCH  12  13
ATOM     13  C   UNL     1      55.725 -40.374 -25.424  1.00  0.00     0.282 C 
ATOM     14  C   UNL     1      55.689 -41.867 -24.954  1.00  0.00     0.202 C 
ATOM     15  O   UNL     1      55.920 -40.216 -26.828  1.00  0.00    -0.341 OA
ATOM     16  C   UNL     1      55.653 -42.931 -26.097  1.00  0.00     0.179 C 
ATOM     17  C   UNL     1      56.906 -41.087 -27.329  1.00  0.00     0.178 C 
ATOM     18  C   UNL     1      56.243 -42.463 -27.461  1.00  0.00     0.177 C 
BRANCH  14  19
ATOM     19  O   UNL     1      56.812 -42.115 -24.145  1.00  0.00    -0.385 OA
ATOM     20  H   UNL     1      56.492 -42.146 -23.199  1.00  0.00     0.211 HD
ENDBRANCH  14  19
BRANCH  16  21
ATOM     21  O   UNL     1      56.273 -44.120 -25.663  1.00  0.00    -0.387 OA
ATOM     22  H   UNL     1      56.996 -44.320 -26.307  1.00  0.00     0.211 HD
ENDBRANCH  16  21
BRANCH  17  23
ATOM     23  C   UNL     1      57.390 -40.499 -28.670  1.00  0.00     0.191 C 
BRANCH  23  24
ATOM     24  O   UNL     1      57.067 -39.137 -28.786  1.00  0.00    -0.394 OA
ATOM     25  H   UNL     1      56.095 -39.046 -28.549  1.00  0.00     0.210 HD
ENDBRANCH  23  24
ENDBRANCH  17  23
BRANCH  18  26
ATOM     26  O   UNL     1      57.153 -43.412 -27.993  1.00  0.00    -0.387 OA
ATOM     27  H   UNL     1      56.657 -43.890 -28.717  1.00  0.00     0.211 HD
ENDBRANCH  18  26
ENDBRANCH  12  13
ENDBRANCH   7  12
BRANCH   4  28
ATOM     28  O   UNL     1      55.530 -36.072 -20.875  1.00  0.00    -0.365 OA
ATOM     29  H   UNL     1      55.912 -35.226 -21.234  1.00  0.00     0.214 HD
ENDBRANCH   4  28
BRANCH   8  30
ATOM     30  C   UNL     1      53.101 -39.973 -22.409  1.00  0.00     0.249 C 
BRANCH  30  31
ATOM     31  O   UNL     1      51.932 -40.216 -23.191  1.00  0.00    -0.461 OA
BRANCH  31  32
ATOM     32  C   UNL     1      51.472 -41.476 -23.601  1.00  0.00     0.338 C 
ATOM     33  O   UNL     1      51.913 -42.013 -24.650  1.00  0.00    -0.246 OA
BRANCH  32  34
ATOM     34  C   UNL     1      50.491 -42.193 -22.757  1.00  0.00     0.060 A 
ATOM     35  C   UNL     1      49.916 -43.389 -23.222  1.00  0.00     0.015 A 
ATOM     36  C   UNL     1      50.169 -41.730 -21.459  1.00  0.00     0.015 A 
ATOM     37  C   UNL     1      49.053 -44.125 -22.401  1.00  0.00     0.001 A 
ATOM     38  C   UNL     1      49.336 -42.487 -20.629  1.00  0.00     0.001 A 
ATOM     39  C   UNL     1      48.775 -43.683 -21.099  1.00  0.00     0.000 A 
ENDBRANCH  32  34
ENDBRANCH  31  32
ENDBRANCH  30  31
ENDBRANCH   8  30
TORSDOF 12
ENDMDL
MODEL 4
REMARK VINA RESULT:    -6.121     12.161     15.002
REMARK INTER + INTRA:         -10.935
REMARK INTER:                 -10.316
REMARK INTRA:                  -0.619
REMARK UNBOUND:                -1.414
REMARK SMILES C[C@@]12C[C@@]3(O)O[C@@H](O1)[C@]1(COC(=O)c4ccccc4)[C@H]3C[C@@]12O[C@@H]1O[C@H](CO)[C@@H](O)[C@@H](O)[C@H]1O
REMARK SMILES IDX 1 1 2 2 3 3 4 4 20 5 21 6 22 7 9 8 7 9 8 10 6 11 23 12 24 13
REMARK SMILES IDX 33 14 25 15 31 16 26 17 29 18 34 19 32 21 27 23 28 24 30 26
REMARK SMILES IDX 5 28 10 30 11 31 12 32 13 33 14 34 15 35 19 36 16 37 18 38
REMARK SMILES IDX 17 39
REMARK H PARENT 34 20 32 22 28 25 30 27 5 29
REMARK Flexibility Score: inf
ROOT
ATOM      1  C   UNL     1      46.566 -25.472 -29.352  1.00  0.00     0.046 C 
ATOM      2  C   UNL     1      47.539 -26.566 -29.793  1.00  0.00     0.104 C 
ATOM      3  C   UNL     1      48.376 -26.117 -31.039  1.00  0.00     0.104 C 
ATOM      4  C   UNL     1      49.255 -27.372 -31.370  1.00  0.00     0.175 C 
ATOM      5  C   UNL     1      48.392 -28.670 -31.395  1.00  0.00     0.070 C 
ATOM      6  C   UNL     1      46.917 -28.384 -31.581  1.00  0.00     0.050 C 
ATOM      7  C   UNL     1      46.876 -27.965 -30.086  1.00  0.00     0.115 C 
ATOM      8  C   UNL     1      48.144 -28.828 -29.904  1.00  0.00     0.096 C 
ATOM      9  C   UNL     1      49.191 -27.955 -29.227  1.00  0.00     0.267 C 
ATOM     10  O   UNL     1      48.483 -26.812 -28.769  1.00  0.00    -0.342 OA
ATOM     11  O   UNL     1      50.093 -27.558 -30.251  1.00  0.00    -0.320 OA
ENDROOT
BRANCH   7  12
ATOM     12  O   UNL     1      45.787 -28.353 -29.232  1.00  0.00    -0.339 OA
BRANCH  12  13
ATOM     13  C   UNL     1      44.725 -29.127 -29.833  1.00  0.00     0.282 C 
ATOM     14  C   UNL     1      44.120 -30.136 -28.798  1.00  0.00     0.202 C 
ATOM     15  O   UNL     1      43.748 -28.338 -30.508  1.00  0.00    -0.341 OA
ATOM     16  C   UNL     1      42.594 -29.970 -28.512  1.00  0.00     0.179 C 
ATOM     17  C   UNL     1      42.632 -29.098 -30.905  1.00  0.00     0.178 C 
ATOM     18  C   UNL     1      41.772 -29.296 -29.651  1.00  0.00     0.177 C 
BRANCH  14  19
ATOM     19  O   UNL     1      44.353 -31.445 -29.253  1.00  0.00    -0.385 OA
ATOM     20  H   UNL     1      43.470 -31.820 -29.536  1.00  0.00     0.211 HD
ENDBRANCH  14  19
BRANCH  16  21
ATOM     21  O   UNL     1      42.036 -31.215 -28.160  1.00  0.00    -0.387 OA
ATOM     22  H   UNL     1      41.061 -31.146 -28.306  1.00  0.00     0.211 HD
ENDBRANCH  16  21
BRANCH  17  23
ATOM     23  C   UNL     1      41.924 -28.311 -32.027  1.00  0.00     0.191 C 
BRANCH  23  24
ATOM     24  O   UNL     1      42.404 -28.674 -33.297  1.00  0.00    -0.394 OA
ATOM     25  H   UNL     1      42.161 -29.638 -33.437  1.00  0.00     0.210 HD
ENDBRANCH  23  24
ENDBRANCH  17  23
BRANCH  18  26
ATOM     26  O   UNL     1      40.597 -30.029 -29.956  1.00  0.00    -0.387 OA
ATOM     27  H   UNL     1      40.382 -30.555 -29.135  1.00  0.00     0.211 HD
ENDBRANCH  18  26
ENDBRANCH  12  13
ENDBRANCH   7  12
BRANCH   4  28
ATOM     28  O   UNL     1      49.976 -27.207 -32.561  1.00  0.00    -0.365 OA
ATOM     29  H   UNL     1      50.086 -28.112 -32.960  1.00  0.00     0.214 HD
ENDBRANCH   4  28
BRANCH   8  30
ATOM     30  C   UNL     1      47.958 -30.305 -29.430  1.00  0.00     0.249 C 
BRANCH  30  31
ATOM     31  O   UNL     1      49.092 -30.825 -28.738  1.00  0.00    -0.461 OA
BRANCH  31  32
ATOM     32  C   UNL     1      49.395 -32.184 -28.574  1.00  0.00     0.338 C 
ATOM     33  O   UNL     1      50.571 -32.606 -28.720  1.00  0.00    -0.246 OA
BRANCH  32  34
ATOM     34  C   UNL     1      48.317 -33.118 -28.180  1.00  0.00     0.060 A 
ATOM     35  C   UNL     1      47.612 -33.825 -29.170  1.00  0.00     0.015 A 
ATOM     36  C   UNL     1      48.027 -33.364 -26.816  1.00  0.00     0.015 A 
ATOM     37  C   UNL     1      46.650 -34.777 -28.810  1.00  0.00     0.001 A 
ATOM     38  C   UNL     1      47.093 -34.341 -26.461  1.00  0.00     0.001 A 
ATOM     39  C   UNL     1      46.401 -35.047 -27.456  1.00  0.00     0.000 A 
ENDBRANCH  32  34
ENDBRANCH  31  32
ENDBRANCH  30  31
ENDBRANCH   8  30
TORSDOF 12
ENDMDL
MODEL 5
REMARK VINA RESULT:    -6.050      2.656      4.317
REMARK INTER + INTRA:         -10.825
REMARK INTER:                 -10.297
REMARK INTRA:                  -0.527
REMARK UNBOUND:                -1.414
REMARK SMILES C[C@@]12C[C@@]3(O)O[C@@H](O1)[C@]1(COC(=O)c4ccccc4)[C@H]3C[C@@]12O[C@@H]1O[C@H](CO)[C@@H](O)[C@@H](O)[C@H]1O
REMARK SMILES IDX 1 1 2 2 3 3 4 4 20 5 21 6 22 7 9 8 7 9 8 10 6 11 23 12 24 13
REMARK SMILES IDX 33 14 25 15 31 16 26 17 29 18 34 19 32 21 27 23 28 24 30 26
REMARK SMILES IDX 5 28 10 30 11 31 12 32 13 33 14 34 15 35 19 36 16 37 18 38
REMARK SMILES IDX 17 39
REMARK H PARENT 34 20 32 22 28 25 30 27 5 29
REMARK Flexibility Score: inf
ROOT
ATOM      1  C   UNL     1      56.725 -38.457 -27.126  1.00  0.00     0.046 C 
ATOM      2  C   UNL     1      55.805 -39.176 -26.139  1.00  0.00     0.104 C 
ATOM      3  C   UNL     1      56.119 -38.765 -24.661  1.00  0.00     0.104 C 
ATOM      4  C   UNL     1      55.130 -39.637 -23.812  1.00  0.00     0.175 C 
ATOM      5  C   UNL     1      55.168 -41.128 -24.267  1.00  0.00     0.070 C 
ATOM      6  C   UNL     1      56.428 -41.472 -25.030  1.00  0.00     0.050 C 
ATOM      7  C   UNL     1      55.807 -40.748 -26.255  1.00  0.00     0.115 C 
ATOM      8  C   UNL     1      54.435 -40.998 -25.592  1.00  0.00     0.096 C 
ATOM      9  C   UNL     1      53.714 -39.659 -25.525  1.00  0.00     0.267 C 
ATOM     10  O   UNL     1      54.462 -38.791 -26.364  1.00  0.00    -0.342 OA
ATOM     11  O   UNL     1      53.836 -39.215 -24.180  1.00  0.00    -0.320 OA
ENDROOT
BRANCH   7  12
ATOM     12  O   UNL     1      55.915 -41.295 -27.580  1.00  0.00    -0.339 OA
BRANCH  12  13
ATOM     13  C   UNL     1      55.192 -40.618 -28.632  1.00  0.00     0.282 C 
ATOM     14  C   UNL     1      56.061 -40.525 -29.932  1.00  0.00     0.202 C 
ATOM     15  O   UNL     1      53.880 -41.131 -28.850  1.00  0.00    -0.341 OA
ATOM     16  C   UNL     1      55.447 -41.200 -31.199  1.00  0.00     0.179 C 
ATOM     17  C   UNL     1      53.282 -40.589 -30.004  1.00  0.00     0.178 C 
ATOM     18  C   UNL     1      53.894 -41.330 -31.199  1.00  0.00     0.177 C 
BRANCH  14  19
ATOM     19  O   UNL     1      56.306 -39.171 -30.217  1.00  0.00    -0.385 OA
ATOM     20  H   UNL     1      56.722 -39.132 -31.126  1.00  0.00     0.211 HD
ENDBRANCH  14  19
BRANCH  16  21
ATOM     21  O   UNL     1      55.895 -40.536 -32.358  1.00  0.00    -0.387 OA
ATOM     22  H   UNL     1      55.239 -40.728 -33.073  1.00  0.00     0.211 HD
ENDBRANCH  16  21
BRANCH  17  23
ATOM     23  C   UNL     1      51.759 -40.790 -29.862  1.00  0.00     0.191 C 
BRANCH  23  24
ATOM     24  O   UNL     1      51.405 -41.161 -28.553  1.00  0.00    -0.394 OA
ATOM     25  H   UNL     1      50.533 -40.707 -28.347  1.00  0.00     0.210 HD
ENDBRANCH  23  24
ENDBRANCH  17  23
BRANCH  18  26
ATOM     26  O   UNL     1      53.328 -40.875 -32.417  1.00  0.00    -0.387 OA
ATOM     27  H   UNL     1      52.460 -41.359 -32.513  1.00  0.00     0.211 HD
ENDBRANCH  18  26
ENDBRANCH  12  13
ENDBRANCH   7  12
BRANCH   4  28
ATOM     28  O   UNL     1      55.368 -39.509 -22.436  1.00  0.00    -0.365 OA
ATOM     29  H   UNL     1      55.551 -40.424 -22.089  1.00  0.00     0.214 HD
ENDBRANCH   4  28
BRANCH   8  30
ATOM     30  C   UNL     1      53.640 -42.272 -26.021  1.00  0.00     0.249 C 
BRANCH  30  31
ATOM     31  O   UNL     1      52.225 -42.124 -25.903  1.00  0.00    -0.461 OA
BRANCH  31  32
ATOM     32  C   UNL     1      51.366 -43.011 -25.237  1.00  0.00     0.338 C 
ATOM     33  O   UNL     1      51.023 -44.099 -25.769  1.00  0.00    -0.246 OA
BRANCH  32  34
ATOM     34  C   UNL     1      50.899 -42.673 -23.875  1.00  0.00     0.060 A 
ATOM     35  C   UNL     1      51.402 -41.530 -23.230  1.00  0.00     0.015 A 
ATOM     36  C   UNL     1      49.900 -43.444 -23.234  1.00  0.00     0.015 A 
ATOM     37  C   UNL     1      50.907 -41.147 -21.977  1.00  0.00     0.001 A 
ATOM     38  C   UNL     1      49.381 -43.038 -22.001  1.00  0.00     0.001 A 
ATOM     39  C   UNL     1      49.885 -41.892 -21.370  1.00  0.00     0.000 A 
ENDBRANCH  32  34
ENDBRANCH  31  32
ENDBRANCH  30  31
ENDBRANCH   8  30
TORSDOF 12
ENDMDL
MODEL 6
REMARK VINA RESULT:    -6.042      2.270      2.831
REMARK INTER + INTRA:         -10.812
REMARK INTER:                  -9.298
REMARK INTRA:                  -1.514
REMARK UNBOUND:                -1.414
REMARK SMILES C[C@@]12C[C@@]3(O)O[C@@H](O1)[C@]1(COC(=O)c4ccccc4)[C@H]3C[C@@]12O[C@@H]1O[C@H](CO)[C@@H](O)[C@@H](O)[C@H]1O
REMARK SMILES IDX 1 1 2 2 3 3 4 4 20 5 21 6 22 7 9 8 7 9 8 10 6 11 23 12 24 13
REMARK SMILES IDX 33 14 25 15 31 16 26 17 29 18 34 19 32 21 27 23 28 24 30 26
REMARK SMILES IDX 5 28 10 30 11 31 12 32 13 33 14 34 15 35 19 36 16 37 18 38
REMARK SMILES IDX 17 39
REMARK H PARENT 34 20 32 22 28 25 30 27 5 29
REMARK Flexibility Score: inf
ROOT
ATOM      1  C   UNL     1      55.173 -37.017 -25.949  1.00  0.00     0.046 C 
ATOM      2  C   UNL     1      54.688 -37.853 -24.765  1.00  0.00     0.104 C 
ATOM      3  C   UNL     1      55.462 -37.488 -23.453  1.00  0.00     0.104 C 
ATOM      4  C   UNL     1      54.874 -38.475 -22.386  1.00  0.00     0.175 C 
ATOM      5  C   UNL     1      54.841 -39.935 -22.932  1.00  0.00     0.070 C 
ATOM      6  C   UNL     1      55.785 -40.142 -24.097  1.00  0.00     0.050 C 
ATOM      7  C   UNL     1      54.743 -39.412 -24.986  1.00  0.00     0.115 C 
ATOM      8  C   UNL     1      53.696 -39.802 -23.921  1.00  0.00     0.096 C 
ATOM      9  C   UNL     1      52.963 -38.529 -23.520  1.00  0.00     0.267 C 
ATOM     10  O   UNL     1      53.329 -37.566 -24.498  1.00  0.00    -0.342 OA
ATOM     11  O   UNL     1      53.509 -38.140 -22.266  1.00  0.00    -0.320 OA
ENDROOT
BRANCH   7  12
ATOM     12  O   UNL     1      54.426 -39.886 -26.306  1.00  0.00    -0.339 OA
BRANCH  12  13
ATOM     13  C   UNL     1      55.516 -40.414 -27.094  1.00  0.00     0.282 C 
ATOM     14  C   UNL     1      55.370 -41.962 -27.278  1.00  0.00     0.202 C 
ATOM     15  O   UNL     1      55.741 -39.706 -28.311  1.00  0.00    -0.341 OA
ATOM     16  C   UNL     1      55.274 -42.456 -28.757  1.00  0.00     0.179 C 
ATOM     17  C   UNL     1      56.670 -40.360 -29.144  1.00  0.00     0.178 C 
ATOM     18  C   UNL     1      55.913 -41.511 -29.818  1.00  0.00     0.177 C 
BRANCH  14  19
ATOM     19  O   UNL     1      56.462 -42.597 -26.662  1.00  0.00    -0.385 OA
ATOM     20  H   UNL     1      56.096 -43.153 -25.916  1.00  0.00     0.211 HD
ENDBRANCH  14  19
BRANCH  16  21
ATOM     21  O   UNL     1      55.803 -43.758 -28.861  1.00  0.00    -0.387 OA
ATOM     22  H   UNL     1      55.218 -44.258 -29.482  1.00  0.00     0.211 HD
ENDBRANCH  16  21
BRANCH  17  23
ATOM     23  C   UNL     1      57.212 -39.308 -30.132  1.00  0.00     0.191 C 
BRANCH  23  24
ATOM     24  O   UNL     1      56.479 -39.298 -31.331  1.00  0.00    -0.394 OA
ATOM     25  H   UNL     1      57.118 -39.541 -32.067  1.00  0.00     0.210 HD
ENDBRANCH  23  24
ENDBRANCH  17  23
BRANCH  18  26
ATOM     26  O   UNL     1      56.761 -42.217 -30.709  1.00  0.00    -0.387 OA
ATOM     27  H   UNL     1      57.472 -42.629 -30.141  1.00  0.00     0.211 HD
ENDBRANCH  18  26
ENDBRANCH  12  13
ENDBRANCH   7  12
BRANCH   4  28
ATOM     28  O   UNL     1      55.558 -38.394 -21.165  1.00  0.00    -0.365 OA
ATOM     29  H   UNL     1      55.985 -39.280 -21.014  1.00  0.00     0.214 HD
ENDBRANCH   4  28
BRANCH   8  30
ATOM     30  C   UNL     1      52.878 -41.113 -24.147  1.00  0.00     0.249 C 
BRANCH  30  31
ATOM     31  O   UNL     1      51.648 -40.903 -24.840  1.00  0.00    -0.461 OA
BRANCH  31  32
ATOM     32  C   UNL     1      50.981 -41.854 -25.624  1.00  0.00     0.338 C 
ATOM     33  O   UNL     1      50.585 -42.939 -25.125  1.00  0.00    -0.246 OA
BRANCH  32  34
ATOM     34  C   UNL     1      50.707 -41.550 -27.046  1.00  0.00     0.060 A 
ATOM     35  C   UNL     1      51.773 -41.257 -27.914  1.00  0.00     0.015 A 
ATOM     36  C   UNL     1      49.391 -41.615 -27.565  1.00  0.00     0.015 A 
ATOM     37  C   UNL     1      51.540 -41.052 -29.279  1.00  0.00     0.001 A 
ATOM     38  C   UNL     1      49.167 -41.447 -28.934  1.00  0.00     0.001 A 
ATOM     39  C   UNL     1      50.239 -41.163 -29.793  1.00  0.00     0.000 A 
ENDBRANCH  32  34
ENDBRANCH  31  32
ENDBRANCH  30  31
ENDBRANCH   8  30
TORSDOF 12
ENDMDL
MODEL 7
REMARK VINA RESULT:    -6.031     13.306     15.716
REMARK INTER + INTRA:         -10.794
REMARK INTER:                  -9.289
REMARK INTRA:                  -1.505
REMARK UNBOUND:                -1.414
REMARK SMILES C[C@@]12C[C@@]3(O)O[C@@H](O1)[C@]1(COC(=O)c4ccccc4)[C@H]3C[C@@]12O[C@@H]1O[C@H](CO)[C@@H](O)[C@@H](O)[C@H]1O
REMARK SMILES IDX 1 1 2 2 3 3 4 4 20 5 21 6 22 7 9 8 7 9 8 10 6 11 23 12 24 13
REMARK SMILES IDX 33 14 25 15 31 16 26 17 29 18 34 19 32 21 27 23 28 24 30 26
REMARK SMILES IDX 5 28 10 30 11 31 12 32 13 33 14 34 15 35 19 36 16 37 18 38
REMARK SMILES IDX 17 39
REMARK H PARENT 34 20 32 22 28 25 30 27 5 29
REMARK Flexibility Score: inf
ROOT
ATOM      1  C   UNL     1      47.370 -28.307 -26.722  1.00  0.00     0.046 C 
ATOM      2  C   UNL     1      46.100 -28.785 -27.427  1.00  0.00     0.104 C 
ATOM      3  C   UNL     1      45.506 -30.057 -26.734  1.00  0.00     0.104 C 
ATOM      4  C   UNL     1      44.266 -30.421 -27.622  1.00  0.00     0.175 C 
ATOM      5  C   UNL     1      44.641 -30.420 -29.135  1.00  0.00     0.070 C 
ATOM      6  C   UNL     1      46.131 -30.555 -29.365  1.00  0.00     0.050 C 
ATOM      7  C   UNL     1      46.262 -29.059 -28.970  1.00  0.00     0.115 C 
ATOM      8  C   UNL     1      44.772 -28.922 -29.354  1.00  0.00     0.096 C 
ATOM      9  C   UNL     1      44.059 -28.278 -28.173  1.00  0.00     0.267 C 
ATOM     10  O   UNL     1      45.095 -27.794 -27.331  1.00  0.00    -0.342 OA
ATOM     11  O   UNL     1      43.378 -29.332 -27.504  1.00  0.00    -0.320 OA
ENDROOT
BRANCH   7  12
ATOM     12  O   UNL     1      47.127 -28.169 -29.695  1.00  0.00    -0.339 OA
BRANCH  12  13
ATOM     13  C   UNL     1      48.126 -28.773 -30.547  1.00  0.00     0.282 C 
ATOM     14  C   UNL     1      48.039 -28.197 -32.000  1.00  0.00     0.202 C 
ATOM     15  O   UNL     1      49.441 -28.751 -29.996  1.00  0.00    -0.341 OA
ATOM     16  C   UNL     1      49.334 -27.500 -32.525  1.00  0.00     0.179 C 
ATOM     17  C   UNL     1      50.415 -29.162 -30.926  1.00  0.00     0.178 C 
ATOM     18  C   UNL     1      50.660 -27.966 -31.854  1.00  0.00     0.177 C 
BRANCH  14  19
ATOM     19  O   UNL     1      47.699 -29.238 -32.881  1.00  0.00    -0.385 OA
ATOM     20  H   UNL     1      47.070 -28.858 -33.558  1.00  0.00     0.211 HD
ENDBRANCH  14  19
BRANCH  16  21
ATOM     21  O   UNL     1      49.409 -27.627 -33.927  1.00  0.00    -0.387 OA
ATOM     22  H   UNL     1      48.533 -27.347 -34.289  1.00  0.00     0.211 HD
ENDBRANCH  16  21
BRANCH  17  23
ATOM     23  C   UNL     1      51.659 -29.589 -30.120  1.00  0.00     0.191 C 
BRANCH  23  24
ATOM     24  O   UNL     1      52.660 -30.116 -30.954  1.00  0.00    -0.394 OA
ATOM     25  H   UNL     1      53.063 -29.343 -31.452  1.00  0.00     0.210 HD
ENDBRANCH  23  24
ENDBRANCH  17  23
BRANCH  18  26
ATOM     26  O   UNL     1      51.658 -28.271 -32.815  1.00  0.00    -0.387 OA
ATOM     27  H   UNL     1      51.284 -29.011 -33.371  1.00  0.00     0.211 HD
ENDBRANCH  18  26
ENDBRANCH  12  13
ENDBRANCH   7  12
BRANCH   4  28
ATOM     28  O   UNL     1      43.683 -31.636 -27.234  1.00  0.00    -0.365 OA
ATOM     29  H   UNL     1      42.955 -31.828 -27.886  1.00  0.00     0.214 HD
ENDBRANCH   4  28
BRANCH   8  30
ATOM     30  C   UNL     1      44.433 -28.446 -30.802  1.00  0.00     0.249 C 
BRANCH  30  31
ATOM     31  O   UNL     1      43.135 -27.864 -30.919  1.00  0.00    -0.461 OA
BRANCH  31  32
ATOM     32  C   UNL     1      41.953 -28.560 -31.213  1.00  0.00     0.338 C 
ATOM     33  O   UNL     1      41.690 -28.915 -32.391  1.00  0.00    -0.246 OA
BRANCH  32  34
ATOM     34  C   UNL     1      41.034 -28.915 -30.109  1.00  0.00     0.060 A 
ATOM     35  C   UNL     1      40.242 -27.917 -29.515  1.00  0.00     0.015 A 
ATOM     36  C   UNL     1      40.888 -30.258 -29.685  1.00  0.00     0.015 A 
ATOM     37  C   UNL     1      39.304 -28.251 -28.530  1.00  0.00     0.001 A 
ATOM     38  C   UNL     1      39.925 -30.592 -28.728  1.00  0.00     0.001 A 
ATOM     39  C   UNL     1      39.134 -29.590 -28.147  1.00  0.00     0.000 A 
ENDBRANCH  32  34
ENDBRANCH  31  32
ENDBRANCH  30  31
ENDBRANCH   8  30
TORSDOF 12
ENDMDL
MODEL 8
REMARK VINA RESULT:    -6.013      2.433      6.705
REMARK INTER + INTRA:         -10.766
REMARK INTER:                  -8.883
REMARK INTRA:                  -1.883
REMARK UNBOUND:                -1.414
REMARK SMILES C[C@@]12C[C@@]3(O)O[C@@H](O1)[C@]1(COC(=O)c4ccccc4)[C@H]3C[C@@]12O[C@@H]1O[C@H](CO)[C@@H](O)[C@@H](O)[C@H]1O
REMARK SMILES IDX 1 1 2 2 3 3 4 4 20 5 21 6 22 7 9 8 7 9 8 10 6 11 23 12 24 13
REMARK SMILES IDX 33 14 25 15 31 16 26 17 29 18 34 19 32 21 27 23 28 24 30 26
REMARK SMILES IDX 5 28 10 30 11 31 12 32 13 33 14 34 15 35 19 36 16 37 18 38
REMARK SMILES IDX 17 39
REMARK H PARENT 34 20 32 22 28 25 30 27 5 29
REMARK Flexibility Score: inf
ROOT
ATOM      1  C   UNL     1      56.230 -36.229 -23.073  1.00  0.00     0.046 C 
ATOM      2  C   UNL     1      56.265 -37.364 -24.097  1.00  0.00     0.104 C 
ATOM      3  C   UNL     1      56.343 -36.810 -25.560  1.00  0.00     0.104 C 
ATOM      4  C   UNL     1      56.310 -38.101 -26.450  1.00  0.00     0.175 C 
ATOM      5  C   UNL     1      55.165 -39.059 -26.003  1.00  0.00     0.070 C 
ATOM      6  C   UNL     1      54.096 -38.353 -25.196  1.00  0.00     0.050 C 
ATOM      7  C   UNL     1      55.074 -38.390 -23.990  1.00  0.00     0.115 C 
ATOM      8  C   UNL     1      55.765 -39.572 -24.705  1.00  0.00     0.096 C 
ATOM      9  C   UNL     1      57.250 -39.242 -24.790  1.00  0.00     0.267 C 
ATOM     10  O   UNL     1      57.436 -38.136 -23.919  1.00  0.00    -0.342 OA
ATOM     11  O   UNL     1      57.481 -38.818 -26.127  1.00  0.00    -0.320 OA
ENDROOT
BRANCH   7  12
ATOM     12  O   UNL     1      54.614 -38.707 -22.666  1.00  0.00    -0.339 OA
BRANCH  12  13
ATOM     13  C   UNL     1      53.375 -38.099 -22.238  1.00  0.00     0.282 C 
ATOM     14  C   UNL     1      52.282 -39.190 -21.979  1.00  0.00     0.202 C 
ATOM     15  O   UNL     1      53.530 -37.172 -21.166  1.00  0.00    -0.341 OA
ATOM     16  C   UNL     1      51.699 -39.226 -20.531  1.00  0.00     0.179 C 
ATOM     17  C   UNL     1      52.292 -36.751 -20.643  1.00  0.00     0.178 C 
ATOM     18  C   UNL     1      51.794 -37.886 -19.741  1.00  0.00     0.177 C 
BRANCH  14  19
ATOM     19  O   UNL     1      51.225 -38.996 -22.885  1.00  0.00    -0.385 OA
ATOM     20  H   UNL     1      50.866 -38.076 -22.727  1.00  0.00     0.211 HD
ENDBRANCH  14  19
BRANCH  16  21
ATOM     21  O   UNL     1      50.371 -39.697 -20.562  1.00  0.00    -0.387 OA
ATOM     22  H   UNL     1      50.064 -39.758 -19.624  1.00  0.00     0.211 HD
ENDBRANCH  16  21
BRANCH  17  23
ATOM     23  C   UNL     1      52.542 -35.426 -19.895  1.00  0.00     0.191 C 
BRANCH  23  24
ATOM     24  O   UNL     1      52.541 -35.610 -18.502  1.00  0.00    -0.394 OA
ATOM     25  H   UNL     1      52.397 -34.706 -18.088  1.00  0.00     0.210 HD
ENDBRANCH  23  24
ENDBRANCH  17  23
BRANCH  18  26
ATOM     26  O   UNL     1      50.558 -37.543 -19.136  1.00  0.00    -0.387 OA
ATOM     27  H   UNL     1      50.790 -37.105 -18.269  1.00  0.00     0.211 HD
ENDBRANCH  18  26
ENDBRANCH  12  13
ENDBRANCH   7  12
BRANCH   4  28
ATOM     28  O   UNL     1      56.225 -37.794 -27.815  1.00  0.00    -0.365 OA
ATOM     29  H   UNL     1      57.106 -37.414 -28.081  1.00  0.00     0.214 HD
ENDBRANCH   4  28
BRANCH   8  30
ATOM     30  C   UNL     1      55.327 -41.019 -24.313  1.00  0.00     0.249 C 
BRANCH  30  31
ATOM     31  O   UNL     1      56.244 -42.025 -24.739  1.00  0.00    -0.461 OA
BRANCH  31  32
ATOM     32  C   UNL     1      56.068 -42.875 -25.840  1.00  0.00     0.338 C 
ATOM     33  O   UNL     1      56.045 -44.125 -25.693  1.00  0.00    -0.246 OA
BRANCH  32  34
ATOM     34  C   UNL     1      55.863 -42.284 -27.180  1.00  0.00     0.060 A 
ATOM     35  C   UNL     1      54.568 -42.232 -27.727  1.00  0.00     0.015 A 
ATOM     36  C   UNL     1      56.939 -41.705 -27.895  1.00  0.00     0.015 A 
ATOM     37  C   UNL     1      54.344 -41.597 -28.955  1.00  0.00     0.001 A 
ATOM     38  C   UNL     1      56.704 -41.041 -29.102  1.00  0.00     0.001 A 
ATOM     39  C   UNL     1      55.408 -40.988 -29.635  1.00  0.00     0.000 A 
ENDBRANCH  32  34
ENDBRANCH  31  32
ENDBRANCH  30  31
ENDBRANCH   8  30
TORSDOF 12
ENDMDL
MODEL 9
REMARK VINA RESULT:    -5.954      2.667      6.482
REMARK INTER + INTRA:         -10.674
REMARK INTER:                  -8.892
REMARK INTRA:                  -1.782
REMARK UNBOUND:                -1.414
REMARK SMILES C[C@@]12C[C@@]3(O)O[C@@H](O1)[C@]1(COC(=O)c4ccccc4)[C@H]3C[C@@]12O[C@@H]1O[C@H](CO)[C@@H](O)[C@@H](O)[C@H]1O
REMARK SMILES IDX 1 1 2 2 3 3 4 4 20 5 21 6 22 7 9 8 7 9 8 10 6 11 23 12 24 13
REMARK SMILES IDX 33 14 25 15 31 16 26 17 29 18 34 19 32 21 27 23 28 24 30 26
REMARK SMILES IDX 5 28 10 30 11 31 12 32 13 33 14 34 15 35 19 36 16 37 18 38
REMARK SMILES IDX 17 39
REMARK H PARENT 34 20 32 22 28 25 30 27 5 29
REMARK Flexibility Score: inf
ROOT
ATOM      1  C   UNL     1      56.980 -39.796 -24.024  1.00  0.00     0.046 C 
ATOM      2  C   UNL     1      56.084 -40.313 -25.150  1.00  0.00     0.104 C 
ATOM      3  C   UNL     1      56.600 -39.841 -26.552  1.00  0.00     0.104 C 
ATOM      4  C   UNL     1      55.536 -40.411 -27.552  1.00  0.00     0.175 C 
ATOM      5  C   UNL     1      54.087 -40.094 -27.069  1.00  0.00     0.070 C 
ATOM      6  C   UNL     1      54.041 -38.951 -26.078  1.00  0.00     0.050 C 
ATOM      7  C   UNL     1      54.559 -39.947 -25.005  1.00  0.00     0.115 C 
ATOM      8  C   UNL     1      53.998 -41.068 -25.906  1.00  0.00     0.096 C 
ATOM      9  C   UNL     1      55.122 -42.070 -26.133  1.00  0.00     0.267 C 
ATOM     10  O   UNL     1      56.124 -41.727 -25.186  1.00  0.00    -0.342 OA
ATOM     11  O   UNL     1      55.618 -41.815 -27.440  1.00  0.00    -0.320 OA
ENDROOT
BRANCH   7  12
ATOM     12  O   UNL     1      54.019 -39.954 -23.673  1.00  0.00    -0.339 OA
BRANCH  12  13
ATOM     13  C   UNL     1      53.600 -38.684 -23.126  1.00  0.00     0.282 C 
ATOM     14  C   UNL     1      52.328 -38.858 -22.229  1.00  0.00     0.202 C 
ATOM     15  O   UNL     1      54.651 -37.951 -22.501  1.00  0.00    -0.341 OA
ATOM     16  C   UNL     1      52.487 -38.405 -20.743  1.00  0.00     0.179 C 
ATOM     17  C   UNL     1      54.174 -36.821 -21.809  1.00  0.00     0.178 C 
ATOM     18  C   UNL     1      53.591 -37.336 -20.488  1.00  0.00     0.177 C 
BRANCH  14  19
ATOM     19  O   UNL     1      51.265 -38.143 -22.806  1.00  0.00    -0.385 OA
ATOM     20  H   UNL     1      51.666 -37.446 -23.400  1.00  0.00     0.211 HD
ENDBRANCH  14  19
BRANCH  16  21
ATOM     21  O   UNL     1      51.244 -37.973 -20.240  1.00  0.00    -0.387 OA
ATOM     22  H   UNL     1      50.673 -38.776 -20.153  1.00  0.00     0.211 HD
ENDBRANCH  16  21
BRANCH  17  23
ATOM     23  C   UNL     1      55.368 -35.862 -21.631  1.00  0.00     0.191 C 
BRANCH  23  24
ATOM     24  O   UNL     1      54.953 -34.595 -21.186  1.00  0.00    -0.394 OA
ATOM     25  H   UNL     1      55.778 -34.029 -21.107  1.00  0.00     0.210 HD
ENDBRANCH  23  24
ENDBRANCH  17  23
BRANCH  18  26
ATOM     26  O   UNL     1      53.110 -36.261 -19.698  1.00  0.00    -0.387 OA
ATOM     27  H   UNL     1      52.755 -35.585 -20.342  1.00  0.00     0.211 HD
ENDBRANCH  18  26
ENDBRANCH  12  13
ENDBRANCH   7  12
BRANCH   4  28
ATOM     28  O   UNL     1      55.754 -39.961 -28.862  1.00  0.00    -0.365 OA
ATOM     29  H   UNL     1      55.951 -40.766 -29.414  1.00  0.00     0.214 HD
ENDBRANCH   4  28
BRANCH   8  30
ATOM     30  C   UNL     1      52.557 -41.592 -25.607  1.00  0.00     0.249 C 
BRANCH  30  31
ATOM     31  O   UNL     1      52.275 -42.852 -26.215  1.00  0.00    -0.461 OA
BRANCH  31  32
ATOM     32  C   UNL     1      51.451 -43.051 -27.332  1.00  0.00     0.338 C 
ATOM     33  O   UNL     1      50.405 -43.745 -27.247  1.00  0.00    -0.246 OA
BRANCH  32  34
ATOM     34  C   UNL     1      51.803 -42.396 -28.611  1.00  0.00     0.060 A 
ATOM     35  C   UNL     1      51.013 -41.336 -29.091  1.00  0.00     0.015 A 
ATOM     36  C   UNL     1      52.964 -42.772 -29.329  1.00  0.00     0.015 A 
ATOM     37  C   UNL     1      51.381 -40.648 -30.253  1.00  0.00     0.001 A 
ATOM     38  C   UNL     1      53.348 -42.059 -30.468  1.00  0.00     0.001 A 
ATOM     39  C   UNL     1      52.557 -40.999 -30.933  1.00  0.00     0.000 A 
ENDBRANCH  32  34
ENDBRANCH  31  32
ENDBRANCH  30  31
ENDBRANCH   8  30
TORSDOF 12
ENDMDL
