MODEL 1
REMARK VINA RESULT:    -5.298      0.000      0.000
REMARK INTER + INTRA:          -7.102
REMARK INTER:                  -6.847
REMARK INTRA:                  -0.255
REMARK UNBOUND:                -0.255
REMARK SMILES CO[C@]1(CO)O[C@H](CO)[C@H](O)[C@@H]1O
REMARK SMILES IDX 3 1 12 2 10 3 7 4 6 5 2 6 1 7 4 8 5 9 13 11 11 13 8 15 9 16
REMARK H PARENT 5 10 13 12 11 14 9 17
REMARK Flexibility Score: inf
ROOT
ATOM      1  C   UNL     1     -23.695   7.331 -40.727  1.00  0.00     0.221 C 
ATOM      2  C   UNL     1     -22.767   8.442 -40.189  1.00  0.00     0.207 C 
ATOM      3  C   UNL     1     -21.492   7.702 -39.890  1.00  0.00     0.180 C 
ATOM      4  C   UNL     1     -21.519   6.628 -40.976  1.00  0.00     0.179 C 
ATOM      5  O   UNL     1     -22.859   6.356 -41.326  1.00  0.00    -0.337 OA
ENDROOT
BRANCH   1   6
ATOM      6  O   UNL     1     -24.369   6.660 -39.656  1.00  0.00    -0.349 OA
ATOM      7  C   UNL     1     -24.893   5.387 -39.972  1.00  0.00     0.198 C 
ENDBRANCH   1   6
BRANCH   1   8
ATOM      8  C   UNL     1     -24.624   7.852 -41.865  1.00  0.00     0.224 C 
BRANCH   8   9
ATOM      9  O   UNL     1     -24.348   7.246 -43.103  1.00  0.00    -0.391 OA
ATOM     10  H   UNL     1     -23.390   7.410 -43.302  1.00  0.00     0.210 HD
ENDBRANCH   8   9
ENDBRANCH   1   8
BRANCH   2  11
ATOM     11  O   UNL     1     -23.279   9.081 -39.048  1.00  0.00    -0.385 OA
ATOM     12  H   UNL     1     -22.639   8.901 -38.312  1.00  0.00     0.211 HD
ENDBRANCH   2  11
BRANCH   3  13
ATOM     13  O   UNL     1     -21.549   7.144 -38.599  1.00  0.00    -0.387 OA
ATOM     14  H   UNL     1     -22.324   6.524 -38.588  1.00  0.00     0.211 HD
ENDBRANCH   3  13
BRANCH   4  15
ATOM     15  C   UNL     1     -20.781   5.328 -40.612  1.00  0.00     0.191 C 
BRANCH  15  16
ATOM     16  O   UNL     1     -21.244   4.246 -41.377  1.00  0.00    -0.394 OA
ATOM     17  H   UNL     1     -21.118   3.430 -40.826  1.00  0.00     0.210 HD
ENDBRANCH  15  16
ENDBRANCH   4  15
TORSDOF 7
ENDMDL
MODEL 2
REMARK VINA RESULT:    -5.133      1.602      2.535
REMARK INTER + INTRA:          -6.889
REMARK INTER:                  -6.377
REMARK INTRA:                  -0.511
REMARK UNBOUND:                -0.255
REMARK SMILES CO[C@]1(CO)O[C@H](CO)[C@H](O)[C@@H]1O
REMARK SMILES IDX 3 1 12 2 10 3 7 4 6 5 2 6 1 7 4 8 5 9 13 11 11 13 8 15 9 16
REMARK H PARENT 5 10 13 12 11 14 9 17
REMARK Flexibility Score: inf
ROOT
ATOM      1  C   UNL     1     -23.395   6.185 -40.302  1.00  0.00     0.221 C 
ATOM      2  C   UNL     1     -23.167   7.553 -40.982  1.00  0.00     0.207 C 
ATOM      3  C   UNL     1     -22.325   8.293 -39.977  1.00  0.00     0.180 C 
ATOM      4  C   UNL     1     -21.523   7.144 -39.370  1.00  0.00     0.179 C 
ATOM      5  O   UNL     1     -22.272   5.951 -39.470  1.00  0.00    -0.337 OA
ENDROOT
BRANCH   1   6
ATOM      6  O   UNL     1     -24.526   6.227 -39.427  1.00  0.00    -0.349 OA
ATOM      7  C   UNL     1     -24.497   5.310 -38.352  1.00  0.00     0.198 C 
ENDBRANCH   1   6
BRANCH   1   8
ATOM      8  C   UNL     1     -23.406   5.018 -41.337  1.00  0.00     0.224 C 
BRANCH   8   9
ATOM      9  O   UNL     1     -23.946   5.405 -42.576  1.00  0.00    -0.391 OA
ATOM     10  H   UNL     1     -23.352   6.107 -42.948  1.00  0.00     0.210 HD
ENDBRANCH   8   9
ENDBRANCH   1   8
BRANCH   2  11
ATOM     11  O   UNL     1     -24.363   8.233 -41.262  1.00  0.00    -0.385 OA
ATOM     12  H   UNL     1     -25.008   7.549 -41.581  1.00  0.00     0.211 HD
ENDBRANCH   2  11
BRANCH   3  13
ATOM     13  O   UNL     1     -23.150   8.919 -39.025  1.00  0.00    -0.387 OA
ATOM     14  H   UNL     1     -23.902   8.297 -38.843  1.00  0.00     0.211 HD
ENDBRANCH   3  13
BRANCH   4  15
ATOM     15  C   UNL     1     -21.067   7.376 -37.919  1.00  0.00     0.191 C 
BRANCH  15  16
ATOM     16  O   UNL     1     -20.209   8.483 -37.824  1.00  0.00    -0.394 OA
ATOM     17  H   UNL     1     -19.610   8.452 -38.615  1.00  0.00     0.210 HD
ENDBRANCH  15  16
ENDBRANCH   4  15
TORSDOF 7
ENDMDL
MODEL 3
REMARK VINA RESULT:    -5.093     14.165     15.826
REMARK INTER + INTRA:          -6.836
REMARK INTER:                  -6.316
REMARK INTRA:                  -0.520
REMARK UNBOUND:                -0.255
REMARK SMILES CO[C@]1(CO)O[C@H](CO)[C@H](O)[C@@H]1O
REMARK SMILES IDX 3 1 12 2 10 3 7 4 6 5 2 6 1 7 4 8 5 9 13 11 11 13 8 15 9 16
REMARK H PARENT 5 10 13 12 11 14 9 17
REMARK Flexibility Score: inf
ROOT
ATOM      1  C   UNL     1     -36.628   5.749 -45.696  1.00  0.00     0.221 C 
ATOM      2  C   UNL     1     -36.664   6.744 -46.877  1.00  0.00     0.207 C 
ATOM      3  C   UNL     1     -37.589   6.072 -47.855  1.00  0.00     0.180 C 
ATOM      4  C   UNL     1     -38.545   5.355 -46.905  1.00  0.00     0.179 C 
ATOM      5  O   UNL     1     -37.871   5.069 -45.697  1.00  0.00    -0.337 OA
ENDROOT
BRANCH   1   6
ATOM      6  O   UNL     1     -35.632   4.741 -45.903  1.00  0.00    -0.349 OA
ATOM      7  C   UNL     1     -35.742   3.602 -45.074  1.00  0.00     0.198 C 
ENDBRANCH   1   6
BRANCH   1   8
ATOM      8  C   UNL     1     -36.547   6.483 -44.322  1.00  0.00     0.224 C 
BRANCH   8   9
ATOM      9  O   UNL     1     -37.667   7.297 -44.082  1.00  0.00    -0.391 OA
ATOM     10  H   UNL     1     -37.375   8.238 -44.193  1.00  0.00     0.210 HD
ENDBRANCH   8   9
ENDBRANCH   1   8
BRANCH   2  11
ATOM     11  O   UNL     1     -35.398   6.981 -47.435  1.00  0.00    -0.385 OA
ATOM     12  H   UNL     1     -35.552   7.440 -48.301  1.00  0.00     0.211 HD
ENDBRANCH   2  11
BRANCH   3  13
ATOM     13  O   UNL     1     -36.869   5.168 -48.658  1.00  0.00    -0.387 OA
ATOM     14  H   UNL     1     -37.412   4.339 -48.714  1.00  0.00     0.211 HD
ENDBRANCH   3  13
BRANCH   4  15
ATOM     15  C   UNL     1     -39.187   4.081 -47.480  1.00  0.00     0.191 C 
BRANCH  15  16
ATOM     16  O   UNL     1     -38.280   3.009 -47.487  1.00  0.00    -0.394 OA
ATOM     17  H   UNL     1     -37.933   2.921 -46.561  1.00  0.00     0.210 HD
ENDBRANCH  15  16
ENDBRANCH   4  15
TORSDOF 7
ENDMDL
MODEL 4
REMARK VINA RESULT:    -5.064      1.489      3.271
REMARK INTER + INTRA:          -6.799
REMARK INTER:                  -6.193
REMARK INTRA:                  -0.606
REMARK UNBOUND:                -0.255
REMARK SMILES CO[C@]1(CO)O[C@H](CO)[C@H](O)[C@@H]1O
REMARK SMILES IDX 3 1 12 2 10 3 7 4 6 5 2 6 1 7 4 8 5 9 13 11 11 13 8 15 9 16
REMARK H PARENT 5 10 13 12 11 14 9 17
REMARK Flexibility Score: inf
ROOT
ATOM      1  C   UNL     1     -22.852   7.027 -40.315  1.00  0.00     0.221 C 
ATOM      2  C   UNL     1     -24.324   6.887 -40.762  1.00  0.00     0.207 C 
ATOM      3  C   UNL     1     -24.389   5.473 -41.274  1.00  0.00     0.180 C 
ATOM      4  C   UNL     1     -23.378   4.787 -40.358  1.00  0.00     0.179 C 
ATOM      5  O   UNL     1     -22.416   5.732 -39.938  1.00  0.00    -0.337 OA
ENDROOT
BRANCH   1   6
ATOM      6  O   UNL     1     -22.017   7.415 -41.412  1.00  0.00    -0.349 OA
ATOM      7  C   UNL     1     -20.634   7.481 -41.126  1.00  0.00     0.198 C 
ENDBRANCH   1   6
BRANCH   1   8
ATOM      8  C   UNL     1     -22.715   7.910 -39.038  1.00  0.00     0.224 C 
BRANCH   8   9
ATOM      9  O   UNL     1     -23.216   9.209 -39.228  1.00  0.00    -0.391 OA
ATOM     10  H   UNL     1     -22.608   9.667 -39.864  1.00  0.00     0.210 HD
ENDBRANCH   8   9
ENDBRANCH   1   8
BRANCH   2  11
ATOM     11  O   UNL     1     -24.689   7.816 -41.749  1.00  0.00    -0.385 OA
ATOM     12  H   UNL     1     -25.067   7.294 -42.503  1.00  0.00     0.211 HD
ENDBRANCH   2  11
BRANCH   3  13
ATOM     13  O   UNL     1     -23.991   5.430 -42.623  1.00  0.00    -0.387 OA
ATOM     14  H   UNL     1     -23.852   6.369 -42.911  1.00  0.00     0.211 HD
ENDBRANCH   3  13
BRANCH   4  15
ATOM     15  C   UNL     1     -22.692   3.553 -40.969  1.00  0.00     0.191 C 
BRANCH  15  16
ATOM     16  O   UNL     1     -21.490   3.899 -41.607  1.00  0.00    -0.394 OA
ATOM     17  H   UNL     1     -21.351   3.238 -42.335  1.00  0.00     0.210 HD
ENDBRANCH  15  16
ENDBRANCH   4  15
TORSDOF 7
ENDMDL
MODEL 5
REMARK VINA RESULT:    -4.983      1.443      3.653
REMARK INTER + INTRA:          -6.694
REMARK INTER:                  -6.128
REMARK INTRA:                  -0.566
REMARK UNBOUND:                -0.255
REMARK SMILES CO[C@]1(CO)O[C@H](CO)[C@H](O)[C@@H]1O
REMARK SMILES IDX 3 1 12 2 10 3 7 4 6 5 2 6 1 7 4 8 5 9 13 11 11 13 8 15 9 16
REMARK H PARENT 5 10 13 12 11 14 9 17
REMARK Flexibility Score: inf
ROOT
ATOM      1  C   UNL     1     -22.590   7.042 -38.852  1.00  0.00     0.221 C 
ATOM      2  C   UNL     1     -21.453   6.880 -39.886  1.00  0.00     0.207 C 
ATOM      3  C   UNL     1     -22.185   6.907 -41.200  1.00  0.00     0.180 C 
ATOM      4  C   UNL     1     -23.336   7.856 -40.871  1.00  0.00     0.179 C 
ATOM      5  O   UNL     1     -23.616   7.783 -39.489  1.00  0.00    -0.337 OA
ENDROOT
BRANCH   1   6
ATOM      6  O   UNL     1     -23.171   5.776 -38.524  1.00  0.00    -0.349 OA
ATOM      7  C   UNL     1     -24.467   5.831 -37.963  1.00  0.00     0.198 C 
ENDBRANCH   1   6
BRANCH   1   8
ATOM      8  C   UNL     1     -22.143   7.900 -37.629  1.00  0.00     0.224 C 
BRANCH   8   9
ATOM      9  O   UNL     1     -20.747   8.037 -37.551  1.00  0.00    -0.391 OA
ATOM     10  H   UNL     1     -20.562   8.854 -37.021  1.00  0.00     0.210 HD
ENDBRANCH   8   9
ENDBRANCH   1   8
BRANCH   2  11
ATOM     11  O   UNL     1     -20.726   5.691 -39.718  1.00  0.00    -0.385 OA
ATOM     12  H   UNL     1     -19.940   5.753 -40.321  1.00  0.00     0.211 HD
ENDBRANCH   2  11
BRANCH   3  13
ATOM     13  O   UNL     1     -22.645   5.616 -41.523  1.00  0.00    -0.387 OA
ATOM     14  H   UNL     1     -23.362   5.396 -40.874  1.00  0.00     0.211 HD
ENDBRANCH   3  13
BRANCH   4  15
ATOM     15  C   UNL     1     -24.614   7.625 -41.695  1.00  0.00     0.191 C 
BRANCH  15  16
ATOM     16  O   UNL     1     -24.322   7.467 -43.059  1.00  0.00    -0.394 OA
ATOM     17  H   UNL     1     -24.227   8.378 -43.440  1.00  0.00     0.210 HD
ENDBRANCH  15  16
ENDBRANCH   4  15
TORSDOF 7
ENDMDL
MODEL 6
REMARK VINA RESULT:    -4.947     15.036     16.623
REMARK INTER + INTRA:          -6.648
REMARK INTER:                  -6.111
REMARK INTRA:                  -0.537
REMARK UNBOUND:                -0.255
REMARK SMILES CO[C@]1(CO)O[C@H](CO)[C@H](O)[C@@H]1O
REMARK SMILES IDX 3 1 12 2 10 3 7 4 6 5 2 6 1 7 4 8 5 9 13 11 11 13 8 15 9 16
REMARK H PARENT 5 10 13 12 11 14 9 17
REMARK Flexibility Score: inf
ROOT
ATOM      1  C   UNL     1     -38.622   5.222 -46.718  1.00  0.00     0.221 C 
ATOM      2  C   UNL     1     -37.103   5.221 -46.439  1.00  0.00     0.207 C 
ATOM      3  C   UNL     1     -36.973   6.163 -45.273  1.00  0.00     0.180 C 
ATOM      4  C   UNL     1     -38.293   5.910 -44.547  1.00  0.00     0.179 C 
ATOM      5  O   UNL     1     -39.263   5.489 -45.482  1.00  0.00    -0.337 OA
ENDROOT
BRANCH   1   6
ATOM      6  O   UNL     1     -38.985   6.302 -47.586  1.00  0.00    -0.349 OA
ATOM      7  C   UNL     1     -39.690   5.931 -48.753  1.00  0.00     0.198 C 
ENDBRANCH   1   6
BRANCH   1   8
ATOM      8  C   UNL     1     -39.131   3.818 -47.165  1.00  0.00     0.224 C 
BRANCH   8   9
ATOM      9  O   UNL     1     -38.083   2.966 -47.554  1.00  0.00    -0.391 OA
ATOM     10  H   UNL     1     -37.273   3.253 -47.057  1.00  0.00     0.210 HD
ENDBRANCH   8   9
ENDBRANCH   1   8
BRANCH   2  11
ATOM     11  O   UNL     1     -36.342   5.645 -47.540  1.00  0.00    -0.385 OA
ATOM     12  H   UNL     1     -36.711   5.178 -48.334  1.00  0.00     0.211 HD
ENDBRANCH   2  11
BRANCH   3  13
ATOM     13  O   UNL     1     -36.873   7.489 -45.733  1.00  0.00    -0.387 OA
ATOM     14  H   UNL     1     -35.907   7.718 -45.742  1.00  0.00     0.211 HD
ENDBRANCH   3  13
BRANCH   4  15
ATOM     15  C   UNL     1     -38.813   7.102 -43.727  1.00  0.00     0.191 C 
BRANCH  15  16
ATOM     16  O   UNL     1     -37.835   7.580 -42.841  1.00  0.00    -0.394 OA
ATOM     17  H   UNL     1     -37.663   6.855 -42.185  1.00  0.00     0.210 HD
ENDBRANCH  15  16
ENDBRANCH   4  15
TORSDOF 7
ENDMDL
MODEL 7
REMARK VINA RESULT:    -4.926      1.659      3.426
REMARK INTER + INTRA:          -6.621
REMARK INTER:                  -6.051
REMARK INTRA:                  -0.570
REMARK UNBOUND:                -0.255
REMARK SMILES CO[C@]1(CO)O[C@H](CO)[C@H](O)[C@@H]1O
REMARK SMILES IDX 3 1 12 2 10 3 7 4 6 5 2 6 1 7 4 8 5 9 13 11 11 13 8 15 9 16
REMARK H PARENT 5 10 13 12 11 14 9 17
REMARK Flexibility Score: inf
ROOT
ATOM      1  C   UNL     1     -22.858   6.910 -39.665  1.00  0.00     0.221 C 
ATOM      2  C   UNL     1     -22.988   7.101 -41.193  1.00  0.00     0.207 C 
ATOM      3  C   UNL     1     -23.786   5.898 -41.617  1.00  0.00     0.180 C 
ATOM      4  C   UNL     1     -24.669   5.688 -40.389  1.00  0.00     0.179 C 
ATOM      5  O   UNL     1     -24.001   6.183 -39.247  1.00  0.00    -0.337 OA
ENDROOT
BRANCH   1   6
ATOM      6  O   UNL     1     -21.734   6.084 -39.344  1.00  0.00    -0.349 OA
ATOM      7  C   UNL     1     -21.118   6.355 -38.101  1.00  0.00     0.198 C 
ENDBRANCH   1   6
BRANCH   1   8
ATOM      8  C   UNL     1     -22.918   8.269 -38.904  1.00  0.00     0.224 C 
BRANCH   8   9
ATOM      9  O   UNL     1     -22.971   9.370 -39.775  1.00  0.00    -0.391 OA
ATOM     10  H   UNL     1     -22.085   9.438 -40.216  1.00  0.00     0.210 HD
ENDBRANCH   8   9
ENDBRANCH   1   8
BRANCH   2  11
ATOM     11  O   UNL     1     -21.746   7.160 -41.845  1.00  0.00    -0.385 OA
ATOM     12  H   UNL     1     -21.934   7.405 -42.789  1.00  0.00     0.211 HD
ENDBRANCH   2  11
BRANCH   3  13
ATOM     13  O   UNL     1     -22.929   4.805 -41.841  1.00  0.00    -0.387 OA
ATOM     14  H   UNL     1     -22.003   5.163 -41.854  1.00  0.00     0.211 HD
ENDBRANCH   3  13
BRANCH   4  15
ATOM     15  C   UNL     1     -25.120   4.235 -40.163  1.00  0.00     0.191 C 
BRANCH  15  16
ATOM     16  O   UNL     1     -24.101   3.468 -39.577  1.00  0.00    -0.394 OA
ATOM     17  H   UNL     1     -24.029   3.760 -38.631  1.00  0.00     0.210 HD
ENDBRANCH  15  16
ENDBRANCH   4  15
TORSDOF 7
ENDMDL
MODEL 8
REMARK VINA RESULT:    -4.812      1.438      3.417
REMARK INTER + INTRA:          -6.473
REMARK INTER:                  -5.815
REMARK INTRA:                  -0.658
REMARK UNBOUND:                -0.255
REMARK SMILES CO[C@]1(CO)O[C@H](CO)[C@H](O)[C@@H]1O
REMARK SMILES IDX 3 1 12 2 10 3 7 4 6 5 2 6 1 7 4 8 5 9 13 11 11 13 8 15 9 16
REMARK H PARENT 5 10 13 12 11 14 9 17
REMARK Flexibility Score: inf
ROOT
ATOM      1  C   UNL     1     -23.706   6.795 -41.070  1.00  0.00     0.221 C 
ATOM      2  C   UNL     1     -24.338   5.405 -41.301  1.00  0.00     0.207 C 
ATOM      3  C   UNL     1     -24.314   4.791 -39.927  1.00  0.00     0.180 C 
ATOM      4  C   UNL     1     -24.507   6.029 -39.053  1.00  0.00     0.179 C 
ATOM      5  O   UNL     1     -24.000   7.159 -39.731  1.00  0.00    -0.337 OA
ENDROOT
BRANCH   1   6
ATOM      6  O   UNL     1     -22.279   6.732 -41.152  1.00  0.00    -0.349 OA
ATOM      7  C   UNL     1     -21.591   7.845 -40.617  1.00  0.00     0.198 C 
ENDBRANCH   1   6
BRANCH   1   8
ATOM      8  C   UNL     1     -24.370   7.889 -41.961  1.00  0.00     0.224 C 
BRANCH   8   9
ATOM      9  O   UNL     1     -24.394   7.531 -43.320  1.00  0.00    -0.391 OA
ATOM     10  H   UNL     1     -23.523   7.102 -43.525  1.00  0.00     0.210 HD
ENDBRANCH   8   9
ENDBRANCH   1   8
BRANCH   2  11
ATOM     11  O   UNL     1     -23.628   4.628 -42.231  1.00  0.00    -0.385 OA
ATOM     12  H   UNL     1     -23.541   3.722 -41.835  1.00  0.00     0.211 HD
ENDBRANCH   2  11
BRANCH   3  13
ATOM     13  O   UNL     1     -23.071   4.173 -39.695  1.00  0.00    -0.387 OA
ATOM     14  H   UNL     1     -23.207   3.198 -39.825  1.00  0.00     0.211 HD
ENDBRANCH   3  13
BRANCH   4  15
ATOM     15  C   UNL     1     -23.896   5.923 -37.646  1.00  0.00     0.191 C 
BRANCH  15  16
ATOM     16  O   UNL     1     -22.514   6.169 -37.668  1.00  0.00    -0.394 OA
ATOM     17  H   UNL     1     -22.068   5.291 -37.786  1.00  0.00     0.210 HD
ENDBRANCH  15  16
ENDBRANCH   4  15
TORSDOF 7
ENDMDL
MODEL 9
REMARK VINA RESULT:    -4.809     14.682     16.472
REMARK INTER + INTRA:          -6.469
REMARK INTER:                  -5.945
REMARK INTRA:                  -0.523
REMARK UNBOUND:                -0.255
REMARK SMILES CO[C@]1(CO)O[C@H](CO)[C@H](O)[C@@H]1O
REMARK SMILES IDX 3 1 12 2 10 3 7 4 6 5 2 6 1 7 4 8 5 9 13 11 11 13 8 15 9 16
REMARK H PARENT 5 10 13 12 11 14 9 17
REMARK Flexibility Score: inf
ROOT
ATOM      1  C   UNL     1     -37.455   5.992 -45.616  1.00  0.00     0.221 C 
ATOM      2  C   UNL     1     -36.632   6.717 -46.704  1.00  0.00     0.207 C 
ATOM      3  C   UNL     1     -37.442   6.485 -47.951  1.00  0.00     0.180 C 
ATOM      4  C   UNL     1     -38.858   6.466 -47.378  1.00  0.00     0.179 C 
ATOM      5  O   UNL     1     -38.809   6.032 -46.035  1.00  0.00    -0.337 OA
ENDROOT
BRANCH   1   6
ATOM      6  O   UNL     1     -37.109   4.605 -45.549  1.00  0.00    -0.349 OA
ATOM      7  C   UNL     1     -37.970   3.802 -44.766  1.00  0.00     0.198 C 
ENDBRANCH   1   6
BRANCH   1   8
ATOM      8  C   UNL     1     -37.410   6.750 -44.254  1.00  0.00     0.224 C 
BRANCH   8   9
ATOM      9  O   UNL     1     -38.575   7.500 -44.018  1.00  0.00    -0.391 OA
ATOM     10  H   UNL     1     -38.321   8.458 -44.066  1.00  0.00     0.210 HD
ENDBRANCH   8   9
ENDBRANCH   1   8
BRANCH   2  11
ATOM     11  O   UNL     1     -35.326   6.217 -46.829  1.00  0.00    -0.385 OA
ATOM     12  H   UNL     1     -35.394   5.230 -46.749  1.00  0.00     0.211 HD
ENDBRANCH   2  11
BRANCH   3  13
ATOM     13  O   UNL     1     -37.093   5.250 -48.529  1.00  0.00    -0.387 OA
ATOM     14  H   UNL     1     -36.574   5.454 -49.350  1.00  0.00     0.211 HD
ENDBRANCH   3  13
BRANCH   4  15
ATOM     15  C   UNL     1     -39.864   5.625 -48.181  1.00  0.00     0.191 C 
BRANCH  15  16
ATOM     16  O   UNL     1     -39.750   4.260 -47.875  1.00  0.00    -0.394 OA
ATOM     17  H   UNL     1     -40.672   3.918 -47.736  1.00  0.00     0.210 HD
ENDBRANCH  15  16
ENDBRANCH   4  15
TORSDOF 7
ENDMDL
