MODEL 1
REMARK VINA RESULT:    -6.593      0.000      0.000
REMARK INTER + INTRA:          -9.269
REMARK INTER:                  -8.906
REMARK INTRA:                  -0.363
REMARK UNBOUND:                -0.363
REMARK SMILES COc1ccc(-c2cc(=O)c3c(OC)c(OC)c(OC)cc3o2)cc1OC
REMARK SMILES IDX 7 1 8 2 9 3 10 4 11 5 12 6 15 7 18 8 21 9 22 10 23 11 6 12
REMARK SMILES IDX 3 13 25 14 4 15 24 16 5 17 2 18 1 19 26 20 27 21 13 22 14 23
REMARK SMILES IDX 19 24 20 25 16 26 17 27
REMARK H PARENT
REMARK Flexibility Score: inf
ROOT
ATOM      1  C   UNL     1     128.094 131.174 131.152  1.00  0.00     0.138 A 
ATOM      2  C   UNL     1     127.224 131.354 132.237  1.00  0.00     0.100 A 
ATOM      3  C   UNL     1     126.107 132.176 132.091  1.00  0.00     0.197 A 
ATOM      4  O   UNL     1     125.336 132.325 133.077  1.00  0.00    -0.289 OA
ATOM      5  C   UNL     1     125.862 132.817 130.854  1.00  0.00     0.111 A 
ATOM      6  C   UNL     1     124.750 133.669 130.628  1.00  0.00     0.179 A 
ATOM      7  C   UNL     1     124.574 134.273 129.349  1.00  0.00     0.204 A 
ATOM      8  C   UNL     1     125.512 134.010 128.314  1.00  0.00     0.168 A 
ATOM      9  C   UNL     1     126.601 133.162 128.566  1.00  0.00     0.098 A 
ATOM     10  C   UNL     1     126.780 132.574 129.812  1.00  0.00     0.146 A 
ATOM     11  O   UNL     1     127.831 131.781 129.999  1.00  0.00    -0.456 OA
ENDROOT
BRANCH   1  12
ATOM     12  C   UNL     1     129.297 130.310 131.246  1.00  0.00     0.021 A 
ATOM     13  C   UNL     1     131.573 128.643 131.368  1.00  0.00     0.160 A 
ATOM     14  C   UNL     1     131.515 129.804 132.153  1.00  0.00     0.161 A 
ATOM     15  C   UNL     1     130.499 128.324 130.519  1.00  0.00     0.051 A 
ATOM     16  C   UNL     1     130.379 130.635 132.086  1.00  0.00     0.062 A 
ATOM     17  C   UNL     1     129.378 129.152 130.457  1.00  0.00     0.016 A 
BRANCH  13  18
ATOM     18  O   UNL     1     132.717 127.834 131.459  1.00  0.00    -0.493 OA
ATOM     19  C   UNL     1     133.782 127.835 130.514  1.00  0.00     0.278 C 
ENDBRANCH  13  18
BRANCH  14  20
ATOM     20  O   UNL     1     132.608 130.101 132.983  1.00  0.00    -0.493 OA
ATOM     21  C   UNL     1     133.389 131.288 132.898  1.00  0.00     0.278 C 
ENDBRANCH  14  20
ENDBRANCH   1  12
BRANCH   6  22
ATOM     22  O   UNL     1     123.858 133.879 131.701  1.00  0.00    -0.492 OA
ATOM     23  C   UNL     1     122.493 133.485 131.789  1.00  0.00     0.278 C 
ENDBRANCH   6  22
BRANCH   8  24
ATOM     24  O   UNL     1     125.346 134.596 127.049  1.00  0.00    -0.493 OA
ATOM     25  C   UNL     1     126.236 135.539 126.457  1.00  0.00     0.278 C 
ENDBRANCH   8  24
BRANCH   7  26
ATOM     26  O   UNL     1     123.465 135.120 129.158  1.00  0.00    -0.490 OA
ATOM     27  C   UNL     1     123.472 136.476 128.728  1.00  0.00     0.278 C 
ENDBRANCH   7  26
TORSDOF 6
ENDMDL
MODEL 2
REMARK VINA RESULT:    -6.572      2.166      8.565
REMARK INTER + INTRA:          -9.241
REMARK INTER:                  -8.673
REMARK INTRA:                  -0.568
REMARK UNBOUND:                -0.363
REMARK SMILES COc1ccc(-c2cc(=O)c3c(OC)c(OC)c(OC)cc3o2)cc1OC
REMARK SMILES IDX 7 1 8 2 9 3 10 4 11 5 12 6 15 7 18 8 21 9 22 10 23 11 6 12
REMARK SMILES IDX 3 13 25 14 4 15 24 16 5 17 2 18 1 19 26 20 27 21 13 22 14 23
REMARK SMILES IDX 19 24 20 25 16 26 17 27
REMARK H PARENT
REMARK Flexibility Score: inf
ROOT
ATOM      1  C   UNL     1     129.189 132.889 129.350  1.00  0.00     0.138 A 
ATOM      2  C   UNL     1     129.421 133.018 130.726  1.00  0.00     0.100 A 
ATOM      3  C   UNL     1     130.397 132.228 131.334  1.00  0.00     0.197 A 
ATOM      4  O   UNL     1     130.593 132.359 132.573  1.00  0.00    -0.289 OA
ATOM      5  C   UNL     1     131.143 131.310 130.558  1.00  0.00     0.111 A 
ATOM      6  C   UNL     1     132.150 130.472 131.102  1.00  0.00     0.179 A 
ATOM      7  C   UNL     1     132.858 129.576 130.249  1.00  0.00     0.204 A 
ATOM      8  C   UNL     1     132.550 129.537 128.862  1.00  0.00     0.168 A 
ATOM      9  C   UNL     1     131.550 130.379 128.352  1.00  0.00     0.098 A 
ATOM     10  C   UNL     1     130.854 131.251 129.180  1.00  0.00     0.146 A 
ATOM     11  O   UNL     1     129.914 132.025 128.645  1.00  0.00    -0.456 OA
ENDROOT
BRANCH   1  12
ATOM     12  C   UNL     1     128.166 133.703 128.648  1.00  0.00     0.021 A 
ATOM     13  C   UNL     1     126.249 135.241 127.257  1.00  0.00     0.160 A 
ATOM     14  C   UNL     1     125.912 134.647 128.483  1.00  0.00     0.161 A 
ATOM     15  C   UNL     1     127.538 135.056 126.726  1.00  0.00     0.051 A 
ATOM     16  C   UNL     1     126.871 133.877 129.171  1.00  0.00     0.062 A 
ATOM     17  C   UNL     1     128.481 134.291 127.413  1.00  0.00     0.016 A 
BRANCH  13  18
ATOM     18  O   UNL     1     125.273 136.005 126.596  1.00  0.00    -0.493 OA
ATOM     19  C   UNL     1     124.507 135.547 125.486  1.00  0.00     0.278 C 
ENDBRANCH  13  18
BRANCH  14  20
ATOM     20  O   UNL     1     124.614 134.842 128.981  1.00  0.00    -0.493 OA
ATOM     21  C   UNL     1     124.089 134.203 130.140  1.00  0.00     0.278 C 
ENDBRANCH  14  20
ENDBRANCH   1  12
BRANCH   6  22
ATOM     22  O   UNL     1     132.404 130.570 132.487  1.00  0.00    -0.492 OA
ATOM     23  C   UNL     1     133.565 131.093 133.125  1.00  0.00     0.278 C 
ENDBRANCH   6  22
BRANCH   8  24
ATOM     24  O   UNL     1     133.243 128.661 128.012  1.00  0.00    -0.493 OA
ATOM     25  C   UNL     1     134.412 128.992 127.267  1.00  0.00     0.278 C 
ENDBRANCH   8  24
BRANCH   7  26
ATOM     26  O   UNL     1     133.846 128.751 130.821  1.00  0.00    -0.490 OA
ATOM     27  C   UNL     1     133.702 127.410 131.275  1.00  0.00     0.278 C 
ENDBRANCH   7  26
TORSDOF 6
ENDMDL
MODEL 3
REMARK VINA RESULT:    -6.570      1.922      2.229
REMARK INTER + INTRA:          -9.238
REMARK INTER:                  -8.614
REMARK INTRA:                  -0.624
REMARK UNBOUND:                -0.363
REMARK SMILES COc1ccc(-c2cc(=O)c3c(OC)c(OC)c(OC)cc3o2)cc1OC
REMARK SMILES IDX 7 1 8 2 9 3 10 4 11 5 12 6 15 7 18 8 21 9 22 10 23 11 6 12
REMARK SMILES IDX 3 13 25 14 4 15 24 16 5 17 2 18 1 19 26 20 27 21 13 22 14 23
REMARK SMILES IDX 19 24 20 25 16 26 17 27
REMARK H PARENT
REMARK Flexibility Score: inf
ROOT
ATOM      1  C   UNL     1     128.010 131.067 129.749  1.00  0.00     0.138 A 
ATOM      2  C   UNL     1     127.076 131.068 130.795  1.00  0.00     0.100 A 
ATOM      3  C   UNL     1     126.117 132.079 130.857  1.00  0.00     0.197 A 
ATOM      4  O   UNL     1     125.285 132.062 131.805  1.00  0.00    -0.289 OA
ATOM      5  C   UNL     1     126.093 133.088 129.867  1.00  0.00     0.111 A 
ATOM      6  C   UNL     1     125.152 134.148 129.862  1.00  0.00     0.179 A 
ATOM      7  C   UNL     1     125.194 135.124 128.823  1.00  0.00     0.204 A 
ATOM      8  C   UNL     1     126.177 135.018 127.801  1.00  0.00     0.168 A 
ATOM      9  C   UNL     1     127.094 133.957 127.831  1.00  0.00     0.098 A 
ATOM     10  C   UNL     1     127.060 133.007 128.844  1.00  0.00     0.146 A 
ATOM     11  O   UNL     1     127.955 132.023 128.827  1.00  0.00    -0.456 OA
ENDROOT
BRANCH   1  12
ATOM     12  C   UNL     1     129.052 130.017 129.629  1.00  0.00     0.021 A 
ATOM     13  C   UNL     1     131.001 127.982 129.436  1.00  0.00     0.160 A 
ATOM     14  C   UNL     1     130.945 128.991 128.463  1.00  0.00     0.161 A 
ATOM     15  C   UNL     1     130.076 127.989 130.496  1.00  0.00     0.051 A 
ATOM     16  C   UNL     1     129.968 130.002 128.561  1.00  0.00     0.062 A 
ATOM     17  C   UNL     1     129.112 128.992 130.586  1.00  0.00     0.016 A 
BRANCH  13  18
ATOM     18  O   UNL     1     131.987 126.990 129.313  1.00  0.00    -0.493 OA
ATOM     19  C   UNL     1     133.190 126.951 130.072  1.00  0.00     0.278 C 
ENDBRANCH  13  18
BRANCH  14  20
ATOM     20  O   UNL     1     131.874 128.951 127.411  1.00  0.00    -0.493 OA
ATOM     21  C   UNL     1     133.027 129.780 127.319  1.00  0.00     0.278 C 
ENDBRANCH  14  20
ENDBRANCH   1  12
BRANCH   6  22
ATOM     22  O   UNL     1     124.202 134.185 130.905  1.00  0.00    -0.492 OA
ATOM     23  C   UNL     1     122.810 133.896 130.827  1.00  0.00     0.278 C 
ENDBRANCH   6  22
BRANCH   8  24
ATOM     24  O   UNL     1     126.226 135.971 126.771  1.00  0.00    -0.493 OA
ATOM     25  C   UNL     1     125.649 135.814 125.478  1.00  0.00     0.278 C 
ENDBRANCH   8  24
BRANCH   7  26
ATOM     26  O   UNL     1     124.251 136.169 128.850  1.00  0.00    -0.490 OA
ATOM     27  C   UNL     1     123.082 136.306 128.050  1.00  0.00     0.278 C 
ENDBRANCH   7  26
TORSDOF 6
ENDMDL
MODEL 4
REMARK VINA RESULT:    -6.557      2.026      3.034
REMARK INTER + INTRA:          -9.221
REMARK INTER:                  -8.655
REMARK INTRA:                  -0.566
REMARK UNBOUND:                -0.363
REMARK SMILES COc1ccc(-c2cc(=O)c3c(OC)c(OC)c(OC)cc3o2)cc1OC
REMARK SMILES IDX 7 1 8 2 9 3 10 4 11 5 12 6 15 7 18 8 21 9 22 10 23 11 6 12
REMARK SMILES IDX 3 13 25 14 4 15 24 16 5 17 2 18 1 19 26 20 27 21 13 22 14 23
REMARK SMILES IDX 19 24 20 25 16 26 17 27
REMARK H PARENT
REMARK Flexibility Score: inf
ROOT
ATOM      1  C   UNL     1     130.117 129.161 130.408  1.00  0.00     0.138 A 
ATOM      2  C   UNL     1     129.597 129.601 131.633  1.00  0.00     0.100 A 
ATOM      3  C   UNL     1     128.542 130.513 131.643  1.00  0.00     0.197 A 
ATOM      4  O   UNL     1     128.087 130.895 132.756  1.00  0.00    -0.289 OA
ATOM      5  C   UNL     1     128.007 130.983 130.422  1.00  0.00     0.111 A 
ATOM      6  C   UNL     1     126.937 131.911 130.349  1.00  0.00     0.179 A 
ATOM      7  C   UNL     1     126.453 132.332 129.075  1.00  0.00     0.204 A 
ATOM      8  C   UNL     1     127.046 131.810 127.894  1.00  0.00     0.168 A 
ATOM      9  C   UNL     1     128.102 130.892 127.996  1.00  0.00     0.098 A 
ATOM     10  C   UNL     1     128.580 130.483 129.234  1.00  0.00     0.146 A 
ATOM     11  O   UNL     1     129.585 129.613 129.275  1.00  0.00    -0.456 OA
ENDROOT
BRANCH   1  12
ATOM     12  C   UNL     1     131.237 128.191 130.333  1.00  0.00     0.021 A 
ATOM     13  C   UNL     1     133.350 126.328 130.133  1.00  0.00     0.160 A 
ATOM     14  C   UNL     1     133.448 127.401 131.032  1.00  0.00     0.161 A 
ATOM     15  C   UNL     1     132.202 126.196 129.331  1.00  0.00     0.051 A 
ATOM     16  C   UNL     1     132.392 128.331 131.124  1.00  0.00     0.062 A 
ATOM     17  C   UNL     1     131.162 127.120 129.429  1.00  0.00     0.016 A 
BRANCH  13  18
ATOM     18  O   UNL     1     134.417 125.417 130.065  1.00  0.00    -0.493 OA
ATOM     19  C   UNL     1     135.250 125.236 128.924  1.00  0.00     0.278 C 
ENDBRANCH  13  18
BRANCH  14  20
ATOM     20  O   UNL     1     134.610 127.512 131.810  1.00  0.00    -0.493 OA
ATOM     21  C   UNL     1     134.884 128.585 132.706  1.00  0.00     0.278 C 
ENDBRANCH  14  20
ENDBRANCH   1  12
BRANCH   6  22
ATOM     22  O   UNL     1     126.395 132.381 131.565  1.00  0.00    -0.492 OA
ATOM     23  C   UNL     1     125.128 132.066 132.133  1.00  0.00     0.278 C 
ENDBRANCH   6  22
BRANCH   8  24
ATOM     24  O   UNL     1     126.576 132.214 126.633  1.00  0.00    -0.493 OA
ATOM     25  C   UNL     1     125.543 131.567 125.895  1.00  0.00     0.278 C 
ENDBRANCH   8  24
BRANCH   7  26
ATOM     26  O   UNL     1     125.396 133.260 129.037  1.00  0.00    -0.490 OA
ATOM     27  C   UNL     1     125.487 134.678 128.955  1.00  0.00     0.278 C 
ENDBRANCH   7  26
TORSDOF 6
ENDMDL
MODEL 5
REMARK VINA RESULT:    -6.472      7.162     13.417
REMARK INTER + INTRA:          -9.105
REMARK INTER:                  -8.496
REMARK INTRA:                  -0.609
REMARK UNBOUND:                -0.363
REMARK SMILES COc1ccc(-c2cc(=O)c3c(OC)c(OC)c(OC)cc3o2)cc1OC
REMARK SMILES IDX 7 1 8 2 9 3 10 4 11 5 12 6 15 7 18 8 21 9 22 10 23 11 6 12
REMARK SMILES IDX 3 13 25 14 4 15 24 16 5 17 2 18 1 19 26 20 27 21 13 22 14 23
REMARK SMILES IDX 19 24 20 25 16 26 17 27
REMARK H PARENT
REMARK Flexibility Score: inf
ROOT
ATOM      1  C   UNL     1     134.750 124.901 127.250  1.00  0.00     0.138 A 
ATOM      2  C   UNL     1     134.036 125.323 126.120  1.00  0.00     0.100 A 
ATOM      3  C   UNL     1     134.317 124.753 124.878  1.00  0.00     0.197 A 
ATOM      4  O   UNL     1     133.662 125.145 123.874  1.00  0.00    -0.289 OA
ATOM      5  C   UNL     1     135.315 123.757 124.771  1.00  0.00     0.111 A 
ATOM      6  C   UNL     1     135.659 123.132 123.546  1.00  0.00     0.179 A 
ATOM      7  C   UNL     1     136.676 122.132 123.525  1.00  0.00     0.204 A 
ATOM      8  C   UNL     1     137.328 121.771 124.735  1.00  0.00     0.168 A 
ATOM      9  C   UNL     1     136.965 122.405 125.933  1.00  0.00     0.098 A 
ATOM     10  C   UNL     1     135.979 123.383 125.957  1.00  0.00     0.146 A 
ATOM     11  O   UNL     1     135.676 123.955 127.119  1.00  0.00    -0.456 OA
ENDROOT
BRANCH   1  12
ATOM     12  C   UNL     1     134.495 125.470 128.597  1.00  0.00     0.021 A 
ATOM     13  C   UNL     1     134.070 126.545 131.173  1.00  0.00     0.160 A 
ATOM     14  C   UNL     1     133.163 126.827 130.140  1.00  0.00     0.161 A 
ATOM     15  C   UNL     1     135.191 125.736 130.912  1.00  0.00     0.051 A 
ATOM     16  C   UNL     1     133.382 126.291 128.855  1.00  0.00     0.062 A 
ATOM     17  C   UNL     1     135.401 125.210 129.637  1.00  0.00     0.016 A 
BRANCH  13  18
ATOM     18  O   UNL     1     133.824 127.091 132.444  1.00  0.00    -0.493 OA
ATOM     19  C   UNL     1     134.390 128.307 132.921  1.00  0.00     0.278 C 
ENDBRANCH  13  18
BRANCH  14  20
ATOM     20  O   UNL     1     132.061 127.646 130.430  1.00  0.00    -0.493 OA
ATOM     21  C   UNL     1     130.799 127.564 129.775  1.00  0.00     0.278 C 
ENDBRANCH  14  20
ENDBRANCH   1  12
BRANCH   6  22
ATOM     22  O   UNL     1     134.965 123.538 122.386  1.00  0.00    -0.492 OA
ATOM     23  C   UNL     1     135.487 124.228 121.255  1.00  0.00     0.278 C 
ENDBRANCH   6  22
BRANCH   8  24
ATOM     24  O   UNL     1     138.328 120.785 124.728  1.00  0.00    -0.493 OA
ATOM     25  C   UNL     1     138.114 119.395 124.954  1.00  0.00     0.278 C 
ENDBRANCH   8  24
BRANCH   7  26
ATOM     26  O   UNL     1     137.001 121.536 122.292  1.00  0.00    -0.490 OA
ATOM     27  C   UNL     1     136.410 120.383 121.702  1.00  0.00     0.278 C 
ENDBRANCH   7  26
TORSDOF 6
ENDMDL
MODEL 6
REMARK VINA RESULT:    -6.443      1.944      4.028
REMARK INTER + INTRA:          -9.066
REMARK INTER:                  -8.548
REMARK INTRA:                  -0.518
REMARK UNBOUND:                -0.363
REMARK SMILES COc1ccc(-c2cc(=O)c3c(OC)c(OC)c(OC)cc3o2)cc1OC
REMARK SMILES IDX 7 1 8 2 9 3 10 4 11 5 12 6 15 7 18 8 21 9 22 10 23 11 6 12
REMARK SMILES IDX 3 13 25 14 4 15 24 16 5 17 2 18 1 19 26 20 27 21 13 22 14 23
REMARK SMILES IDX 19 24 20 25 16 26 17 27
REMARK H PARENT
REMARK Flexibility Score: inf
ROOT
ATOM      1  C   UNL     1     130.102 129.400 129.566  1.00  0.00     0.138 A 
ATOM      2  C   UNL     1     129.902 129.963 128.298  1.00  0.00     0.100 A 
ATOM      3  C   UNL     1     128.882 130.897 128.116  1.00  0.00     0.197 A 
ATOM      4  O   UNL     1     128.718 131.394 126.969  1.00  0.00    -0.289 OA
ATOM      5  C   UNL     1     128.065 131.269 129.209  1.00  0.00     0.111 A 
ATOM      6  C   UNL     1     127.009 132.210 129.105  1.00  0.00     0.179 A 
ATOM      7  C   UNL     1     126.235 132.532 130.258  1.00  0.00     0.204 A 
ATOM      8  C   UNL     1     126.535 131.910 131.500  1.00  0.00     0.168 A 
ATOM      9  C   UNL     1     127.587 130.985 131.574  1.00  0.00     0.098 A 
ATOM     10  C   UNL     1     128.341 130.664 130.453  1.00  0.00     0.146 A 
ATOM     11  O   UNL     1     129.325 129.778 130.577  1.00  0.00    -0.456 OA
ENDROOT
BRANCH   1  12
ATOM     12  C   UNL     1     131.171 128.402 129.821  1.00  0.00     0.021 A 
ATOM     13  C   UNL     1     133.189 126.474 130.253  1.00  0.00     0.160 A 
ATOM     14  C   UNL     1     133.295 127.741 130.846  1.00  0.00     0.161 A 
ATOM     15  C   UNL     1     132.081 126.179 129.439  1.00  0.00     0.051 A 
ATOM     16  C   UNL     1     132.288 128.701 130.624  1.00  0.00     0.062 A 
ATOM     17  C   UNL     1     131.088 127.135 129.223  1.00  0.00     0.016 A 
BRANCH  13  18
ATOM     18  O   UNL     1     134.207 125.538 130.495  1.00  0.00    -0.493 OA
ATOM     19  C   UNL     1     135.215 125.182 129.554  1.00  0.00     0.278 C 
ENDBRANCH  13  18
BRANCH  14  20
ATOM     20  O   UNL     1     134.418 128.009 131.644  1.00  0.00    -0.493 OA
ATOM     21  C   UNL     1     134.366 128.587 132.945  1.00  0.00     0.278 C 
ENDBRANCH  14  20
ENDBRANCH   1  12
BRANCH   6  22
ATOM     22  O   UNL     1     126.774 132.791 127.840  1.00  0.00    -0.492 OA
ATOM     23  C   UNL     1     125.670 132.564 126.969  1.00  0.00     0.278 C 
ENDBRANCH   6  22
BRANCH   8  24
ATOM     24  O   UNL     1     125.782 132.223 132.643  1.00  0.00    -0.493 OA
ATOM     25  C   UNL     1     124.462 131.757 132.911  1.00  0.00     0.278 C 
ENDBRANCH   8  24
BRANCH   7  26
ATOM     26  O   UNL     1     125.188 133.464 130.119  1.00  0.00    -0.490 OA
ATOM     27  C   UNL     1     125.217 134.854 130.424  1.00  0.00     0.278 C 
ENDBRANCH   7  26
TORSDOF 6
ENDMDL
MODEL 7
REMARK VINA RESULT:    -6.387      2.373      5.046
REMARK INTER + INTRA:          -8.991
REMARK INTER:                  -8.401
REMARK INTRA:                  -0.590
REMARK UNBOUND:                -0.363
REMARK SMILES COc1ccc(-c2cc(=O)c3c(OC)c(OC)c(OC)cc3o2)cc1OC
REMARK SMILES IDX 7 1 8 2 9 3 10 4 11 5 12 6 15 7 18 8 21 9 22 10 23 11 6 12
REMARK SMILES IDX 3 13 25 14 4 15 24 16 5 17 2 18 1 19 26 20 27 21 13 22 14 23
REMARK SMILES IDX 19 24 20 25 16 26 17 27
REMARK H PARENT
REMARK Flexibility Score: inf
ROOT
ATOM      1  C   UNL     1     131.019 128.970 129.666  1.00  0.00     0.138 A 
ATOM      2  C   UNL     1     131.110 129.583 128.409  1.00  0.00     0.100 A 
ATOM      3  C   UNL     1     130.110 130.467 128.003  1.00  0.00     0.197 A 
ATOM      4  O   UNL     1     130.210 131.010 126.869  1.00  0.00    -0.289 OA
ATOM      5  C   UNL     1     129.019 130.736 128.861  1.00  0.00     0.111 A 
ATOM      6  C   UNL     1     127.963 131.620 128.521  1.00  0.00     0.179 A 
ATOM      7  C   UNL     1     126.901 131.840 129.446  1.00  0.00     0.204 A 
ATOM      8  C   UNL     1     126.917 131.174 130.702  1.00  0.00     0.168 A 
ATOM      9  C   UNL     1     127.975 130.307 131.013  1.00  0.00     0.098 A 
ATOM     10  C   UNL     1     129.009 130.086 130.112  1.00  0.00     0.146 A 
ATOM     11  O   UNL     1     129.987 129.252 130.455  1.00  0.00    -0.456 OA
ENDROOT
BRANCH   1  12
ATOM     12  C   UNL     1     132.053 128.023 130.153  1.00  0.00     0.021 A 
ATOM     13  C   UNL     1     134.009 126.240 131.139  1.00  0.00     0.160 A 
ATOM     14  C   UNL     1     133.386 125.983 129.909  1.00  0.00     0.161 A 
ATOM     15  C   UNL     1     133.645 127.381 131.877  1.00  0.00     0.051 A 
ATOM     16  C   UNL     1     132.407 126.873 129.423  1.00  0.00     0.062 A 
ATOM     17  C   UNL     1     132.675 128.257 131.390  1.00  0.00     0.016 A 
BRANCH  13  18
ATOM     18  O   UNL     1     134.982 125.336 131.596  1.00  0.00    -0.493 OA
ATOM     19  C   UNL     1     136.387 125.556 131.515  1.00  0.00     0.278 C 
ENDBRANCH  13  18
BRANCH  14  20
ATOM     20  O   UNL     1     133.763 124.831 129.202  1.00  0.00    -0.493 OA
ATOM     21  C   UNL     1     134.589 124.828 128.041  1.00  0.00     0.278 C 
ENDBRANCH  14  20
ENDBRANCH   1  12
BRANCH   6  22
ATOM     22  O   UNL     1     128.018 132.249 127.258  1.00  0.00    -0.492 OA
ATOM     23  C   UNL     1     128.324 133.611 126.976  1.00  0.00     0.278 C 
ENDBRANCH   6  22
BRANCH   8  24
ATOM     24  O   UNL     1     125.878 131.386 131.623  1.00  0.00    -0.493 OA
ATOM     25  C   UNL     1     125.965 132.204 132.787  1.00  0.00     0.278 C 
ENDBRANCH   8  24
BRANCH   7  26
ATOM     26  O   UNL     1     125.863 132.716 129.075  1.00  0.00    -0.490 OA
ATOM     27  C   UNL     1     125.690 134.073 129.468  1.00  0.00     0.278 C 
ENDBRANCH   7  26
TORSDOF 6
ENDMDL
MODEL 8
REMARK VINA RESULT:    -6.342      3.778      9.465
REMARK INTER + INTRA:          -8.931
REMARK INTER:                  -8.284
REMARK INTRA:                  -0.647
REMARK UNBOUND:                -0.363
REMARK SMILES COc1ccc(-c2cc(=O)c3c(OC)c(OC)c(OC)cc3o2)cc1OC
REMARK SMILES IDX 7 1 8 2 9 3 10 4 11 5 12 6 15 7 18 8 21 9 22 10 23 11 6 12
REMARK SMILES IDX 3 13 25 14 4 15 24 16 5 17 2 18 1 19 26 20 27 21 13 22 14 23
REMARK SMILES IDX 19 24 20 25 16 26 17 27
REMARK H PARENT
REMARK Flexibility Score: inf
ROOT
ATOM      1  C   UNL     1     125.636 134.875 125.102  1.00  0.00     0.138 A 
ATOM      2  C   UNL     1     125.054 135.717 126.060  1.00  0.00     0.100 A 
ATOM      3  C   UNL     1     125.304 135.490 127.414  1.00  0.00     0.197 A 
ATOM      4  O   UNL     1     124.773 136.258 128.261  1.00  0.00    -0.289 OA
ATOM      5  C   UNL     1     126.141 134.419 127.805  1.00  0.00     0.111 A 
ATOM      6  C   UNL     1     126.442 134.124 129.159  1.00  0.00     0.179 A 
ATOM      7  C   UNL     1     127.299 133.027 129.468  1.00  0.00     0.204 A 
ATOM      8  C   UNL     1     127.846 132.247 128.414  1.00  0.00     0.168 A 
ATOM      9  C   UNL     1     127.533 132.564 127.084  1.00  0.00     0.098 A 
ATOM     10  C   UNL     1     126.695 133.628 126.777  1.00  0.00     0.146 A 
ATOM     11  O   UNL     1     126.427 133.884 125.500  1.00  0.00    -0.456 OA
ENDROOT
BRANCH   1  12
ATOM     12  C   UNL     1     125.408 135.068 123.648  1.00  0.00     0.021 A 
ATOM     13  C   UNL     1     125.018 135.388 120.869  1.00  0.00     0.160 A 
ATOM     14  C   UNL     1     124.012 135.779 121.766  1.00  0.00     0.161 A 
ATOM     15  C   UNL     1     126.210 134.830 121.364  1.00  0.00     0.051 A 
ATOM     16  C   UNL     1     124.210 135.613 123.151  1.00  0.00     0.062 A 
ATOM     17  C   UNL     1     126.398 134.668 122.736  1.00  0.00     0.016 A 
BRANCH  13  18
ATOM     18  O   UNL     1     124.792 135.568 119.495  1.00  0.00    -0.493 OA
ATOM     19  C   UNL     1     125.343 136.629 118.720  1.00  0.00     0.278 C 
ENDBRANCH  13  18
BRANCH  14  20
ATOM     20  O   UNL     1     122.829 136.323 121.241  1.00  0.00    -0.493 OA
ATOM     21  C   UNL     1     122.551 137.716 121.149  1.00  0.00     0.278 C 
ENDBRANCH  14  20
ENDBRANCH   1  12
BRANCH   6  22
ATOM     22  O   UNL     1     125.865 134.946 130.152  1.00  0.00    -0.492 OA
ATOM     23  C   UNL     1     124.940 134.568 131.166  1.00  0.00     0.278 C 
ENDBRANCH   6  22
BRANCH   8  24
ATOM     24  O   UNL     1     128.695 131.167 128.706  1.00  0.00    -0.493 OA
ATOM     25  C   UNL     1     130.119 131.219 128.717  1.00  0.00     0.278 C 
ENDBRANCH   8  24
BRANCH   7  26
ATOM     26  O   UNL     1     127.571 132.754 130.822  1.00  0.00    -0.490 OA
ATOM     27  C   UNL     1     128.642 133.260 131.612  1.00  0.00     0.278 C 
ENDBRANCH   7  26
TORSDOF 6
ENDMDL
MODEL 9
REMARK VINA RESULT:    -6.319      5.293      9.793
REMARK INTER + INTRA:          -8.899
REMARK INTER:                  -8.317
REMARK INTRA:                  -0.583
REMARK UNBOUND:                -0.363
REMARK SMILES COc1ccc(-c2cc(=O)c3c(OC)c(OC)c(OC)cc3o2)cc1OC
REMARK SMILES IDX 7 1 8 2 9 3 10 4 11 5 12 6 15 7 18 8 21 9 22 10 23 11 6 12
REMARK SMILES IDX 3 13 25 14 4 15 24 16 5 17 2 18 1 19 26 20 27 21 13 22 14 23
REMARK SMILES IDX 19 24 20 25 16 26 17 27
REMARK H PARENT
REMARK Flexibility Score: inf
ROOT
ATOM      1  C   UNL     1     134.401 125.653 127.764  1.00  0.00     0.138 A 
ATOM      2  C   UNL     1     134.599 125.249 129.091  1.00  0.00     0.100 A 
ATOM      3  C   UNL     1     134.146 126.062 130.130  1.00  0.00     0.197 A 
ATOM      4  O   UNL     1     134.332 125.681 131.318  1.00  0.00    -0.289 OA
ATOM      5  C   UNL     1     133.493 127.281 129.836  1.00  0.00     0.111 A 
ATOM      6  C   UNL     1     133.005 128.162 130.835  1.00  0.00     0.179 A 
ATOM      7  C   UNL     1     132.354 129.371 130.452  1.00  0.00     0.204 A 
ATOM      8  C   UNL     1     132.195 129.675 129.073  1.00  0.00     0.168 A 
ATOM      9  C   UNL     1     132.685 128.784 128.107  1.00  0.00     0.098 A 
ATOM     10  C   UNL     1     133.325 127.607 128.474  1.00  0.00     0.146 A 
ATOM     11  O   UNL     1     133.773 126.799 127.518  1.00  0.00    -0.456 OA
ENDROOT
BRANCH   1  12
ATOM     12  C   UNL     1     134.859 124.829 126.617  1.00  0.00     0.021 A 
ATOM     13  C   UNL     1     135.695 123.298 124.396  1.00  0.00     0.160 A 
ATOM     14  C   UNL     1     136.490 123.346 125.551  1.00  0.00     0.161 A 
ATOM     15  C   UNL     1     134.491 124.023 124.352  1.00  0.00     0.051 A 
ATOM     16  C   UNL     1     136.071 124.115 126.655  1.00  0.00     0.062 A 
ATOM     17  C   UNL     1     134.083 124.783 125.448  1.00  0.00     0.016 A 
BRANCH  13  18
ATOM     18  O   UNL     1     136.138 122.521 123.313  1.00  0.00    -0.493 OA
ATOM     19  C   UNL     1     135.618 121.239 122.975  1.00  0.00     0.278 C 
ENDBRANCH  13  18
BRANCH  14  20
ATOM     20  O   UNL     1     137.692 122.620 125.561  1.00  0.00    -0.493 OA
ATOM     21  C   UNL     1     137.851 121.328 126.137  1.00  0.00     0.278 C 
ENDBRANCH  14  20
ENDBRANCH   1  12
BRANCH   6  22
ATOM     22  O   UNL     1     133.195 127.790 132.184  1.00  0.00    -0.492 OA
ATOM     23  C   UNL     1     134.108 128.351 133.122  1.00  0.00     0.278 C 
ENDBRANCH   6  22
BRANCH   8  24
ATOM     24  O   UNL     1     131.551 130.861 128.684  1.00  0.00    -0.493 OA
ATOM     25  C   UNL     1     130.161 130.986 128.395  1.00  0.00     0.278 C 
ENDBRANCH   8  24
BRANCH   7  26
ATOM     26  O   UNL     1     131.889 130.228 131.468  1.00  0.00    -0.490 OA
ATOM     27  C   UNL     1     132.512 131.410 131.959  1.00  0.00     0.278 C 
ENDBRANCH   7  26
TORSDOF 6
ENDMDL
