MODEL 1
REMARK VINA RESULT:    -1.178      0.000      0.000
REMARK INTER + INTRA:          -6.820
REMARK INTER:                  -2.556
REMARK INTRA:                  -4.265
REMARK UNBOUND:                -4.265
REMARK SMILES CCCCCCCCCCCCCCCCCCCCCC(=O)[O-]
REMARK SMILES IDX 12 1 11 2 10 3 9 4 8 5 7 6 6 7 5 8 4 9 3 10 2 11 1 12 13 13
REMARK SMILES IDX 14 14 15 15 16 16 17 17 18 18 19 19 20 20 21 21 22 22 23 23
REMARK SMILES IDX 24 24
REMARK H PARENT
REMARK Flexibility Score: inf
ROOT
ATOM      1  C   UNL     1     142.628  41.128 -12.476  1.00  0.00     0.000 C 
ENDROOT
BRANCH   1   2
ATOM      2  C   UNL     1     141.108  40.919 -12.570  1.00  0.00     0.000 C 
BRANCH   2   3
ATOM      3  C   UNL     1     140.723  39.614 -13.292  1.00  0.00     0.000 C 
BRANCH   3   4
ATOM      4  C   UNL     1     141.898  38.811 -13.882  1.00  0.00    -0.000 C 
BRANCH   4   5
ATOM      5  C   UNL     1     142.144  37.482 -13.149  1.00  0.00    -0.000 C 
BRANCH   5   6
ATOM      6  C   UNL     1     141.399  37.393 -11.804  1.00  0.00    -0.000 C 
BRANCH   6   7
ATOM      7  C   UNL     1     142.236  36.875 -10.616  1.00  0.00    -0.000 C 
BRANCH   7   8
ATOM      8  C   UNL     1     142.160  37.725  -9.334  1.00  0.00    -0.000 C 
BRANCH   8   9
ATOM      9  C   UNL     1     143.330  37.460  -8.371  1.00  0.00    -0.000 C 
BRANCH   9  10
ATOM     10  C   UNL     1     143.862  38.744  -7.709  1.00  0.00    -0.000 C 
BRANCH  10  11
ATOM     11  C   UNL     1     144.418  38.561  -6.285  1.00  0.00    -0.003 C 
ATOM     12  C   UNL     1     145.361  37.366  -6.160  1.00  0.00     0.004 C 
ENDBRANCH  10  11
ENDBRANCH   9  10
ENDBRANCH   8   9
ENDBRANCH   7   8
ENDBRANCH   6   7
ENDBRANCH   5   6
ENDBRANCH   4   5
ENDBRANCH   3   4
ENDBRANCH   2   3
ENDBRANCH   1   2
BRANCH   1  13
ATOM     13  C   UNL     1     143.205  40.731 -11.105  1.00  0.00     0.000 C 
BRANCH  13  14
ATOM     14  C   UNL     1     144.505  39.907 -11.152  1.00  0.00     0.000 C 
BRANCH  14  15
ATOM     15  C   UNL     1     145.179  39.925 -12.533  1.00  0.00     0.000 C 
BRANCH  15  16
ATOM     16  C   UNL     1     145.820  38.566 -12.847  1.00  0.00     0.000 C 
BRANCH  16  17
ATOM     17  C   UNL     1     145.560  37.514 -11.754  1.00  0.00     0.000 C 
BRANCH  17  18
ATOM     18  C   UNL     1     146.804  37.086 -10.949  1.00  0.00     0.000 C 
BRANCH  18  19
ATOM     19  C   UNL     1     146.869  37.630  -9.511  1.00  0.00     0.000 C 
BRANCH  19  20
ATOM     20  C   UNL     1     148.062  38.571  -9.283  1.00  0.00     0.006 C 
BRANCH  20  21
ATOM     21  C   UNL     1     147.596  39.926  -8.743  1.00  0.00     0.053 C 
BRANCH  21  22
ATOM     22  C   UNL     1     147.735  40.984  -9.790  1.00  0.00     0.041 C 
ATOM     23  O   UNL     1     148.081  40.676 -10.961  1.00  0.00    -0.550 OA
ATOM     24  O   UNL     1     147.434  42.306  -9.486  1.00  0.00    -0.550 OA
ENDBRANCH  21  22
ENDBRANCH  20  21
ENDBRANCH  19  20
ENDBRANCH  18  19
ENDBRANCH  17  18
ENDBRANCH  16  17
ENDBRANCH  15  16
ENDBRANCH  14  15
ENDBRANCH  13  14
ENDBRANCH   1  13
TORSDOF 20
ENDMDL
MODEL 2
REMARK VINA RESULT:    -1.080      1.881      4.071
REMARK INTER + INTRA:          -6.608
REMARK INTER:                  -2.172
REMARK INTRA:                  -4.436
REMARK UNBOUND:                -4.265
REMARK SMILES CCCCCCCCCCCCCCCCCCCCCC(=O)[O-]
REMARK SMILES IDX 12 1 11 2 10 3 9 4 8 5 7 6 6 7 5 8 4 9 3 10 2 11 1 12 13 13
REMARK SMILES IDX 14 14 15 15 16 16 17 17 18 18 19 19 20 20 21 21 22 22 23 23
REMARK SMILES IDX 24 24
REMARK H PARENT
REMARK Flexibility Score: inf
ROOT
ATOM      1  C   UNL     1     144.091  40.277 -10.053  1.00  0.00     0.000 C 
ENDROOT
BRANCH   1   2
ATOM      2  C   UNL     1     144.732  39.434 -11.168  1.00  0.00     0.000 C 
BRANCH   2   3
ATOM      3  C   UNL     1     145.075  38.002 -10.718  1.00  0.00     0.000 C 
BRANCH   3   4
ATOM      4  C   UNL     1     144.365  36.876 -11.493  1.00  0.00    -0.000 C 
BRANCH   4   5
ATOM      5  C   UNL     1     143.454  37.401 -12.614  1.00  0.00    -0.000 C 
BRANCH   5   6
ATOM      6  C   UNL     1     141.959  37.158 -12.334  1.00  0.00    -0.000 C 
BRANCH   6   7
ATOM      7  C   UNL     1     141.219  38.318 -11.637  1.00  0.00    -0.000 C 
BRANCH   7   8
ATOM      8  C   UNL     1     141.225  39.658 -12.397  1.00  0.00    -0.000 C 
BRANCH   8   9
ATOM      9  C   UNL     1     140.439  40.762 -11.670  1.00  0.00    -0.000 C 
BRANCH   9  10
ATOM     10  C   UNL     1     140.195  40.444 -10.184  1.00  0.00    -0.000 C 
BRANCH  10  11
ATOM     11  C   UNL     1     140.536  41.584  -9.208  1.00  0.00    -0.003 C 
ATOM     12  C   UNL     1     140.038  41.325  -7.787  1.00  0.00     0.004 C 
ENDBRANCH  10  11
ENDBRANCH   9  10
ENDBRANCH   8   9
ENDBRANCH   7   8
ENDBRANCH   6   7
ENDBRANCH   5   6
ENDBRANCH   4   5
ENDBRANCH   3   4
ENDBRANCH   2   3
ENDBRANCH   1   2
BRANCH   1  13
ATOM     13  C   UNL     1     143.539  39.425  -8.896  1.00  0.00     0.000 C 
BRANCH  13  14
ATOM     14  C   UNL     1     143.564  40.099  -7.512  1.00  0.00     0.000 C 
BRANCH  14  15
ATOM     15  C   UNL     1     144.493  39.392  -6.514  1.00  0.00     0.000 C 
BRANCH  15  16
ATOM     16  C   UNL     1     144.829  37.972  -6.990  1.00  0.00     0.000 C 
BRANCH  16  17
ATOM     17  C   UNL     1     146.337  37.758  -7.215  1.00  0.00     0.000 C 
BRANCH  17  18
ATOM     18  C   UNL     1     147.174  39.051  -7.310  1.00  0.00     0.000 C 
BRANCH  18  19
ATOM     19  C   UNL     1     147.724  39.370  -8.711  1.00  0.00     0.000 C 
BRANCH  19  20
ATOM     20  C   UNL     1     147.651  40.864  -9.055  1.00  0.00     0.006 C 
BRANCH  20  21
ATOM     21  C   UNL     1     147.154  41.679  -7.857  1.00  0.00     0.053 C 
BRANCH  21  22
ATOM     22  C   UNL     1     146.192  42.734  -8.303  1.00  0.00     0.041 C 
ATOM     23  O   UNL     1     146.195  43.130  -9.498  1.00  0.00    -0.550 OA
ATOM     24  O   UNL     1     145.259  43.246  -7.410  1.00  0.00    -0.550 OA
ENDBRANCH  21  22
ENDBRANCH  20  21
ENDBRANCH  19  20
ENDBRANCH  18  19
ENDBRANCH  17  18
ENDBRANCH  16  17
ENDBRANCH  15  16
ENDBRANCH  14  15
ENDBRANCH  13  14
ENDBRANCH   1  13
TORSDOF 20
ENDMDL
MODEL 3
REMARK VINA RESULT:    -1.009      2.054      4.143
REMARK INTER + INTRA:          -6.454
REMARK INTER:                  -1.768
REMARK INTRA:                  -4.686
REMARK UNBOUND:                -4.265
REMARK SMILES CCCCCCCCCCCCCCCCCCCCCC(=O)[O-]
REMARK SMILES IDX 12 1 11 2 10 3 9 4 8 5 7 6 6 7 5 8 4 9 3 10 2 11 1 12 13 13
REMARK SMILES IDX 14 14 15 15 16 16 17 17 18 18 19 19 20 20 21 21 22 22 23 23
REMARK SMILES IDX 24 24
REMARK H PARENT
REMARK Flexibility Score: inf
ROOT
ATOM      1  C   UNL     1     141.448  40.231  -8.175  1.00  0.00     0.000 C 
ENDROOT
BRANCH   1   2
ATOM      2  C   UNL     1     140.908  39.711  -9.518  1.00  0.00     0.000 C 
BRANCH   2   3
ATOM      3  C   UNL     1     140.987  38.178  -9.646  1.00  0.00     0.000 C 
BRANCH   3   4
ATOM      4  C   UNL     1     141.429  37.650 -11.023  1.00  0.00    -0.000 C 
BRANCH   4   5
ATOM      5  C   UNL     1     142.940  37.380 -11.106  1.00  0.00    -0.000 C 
BRANCH   5   6
ATOM      6  C   UNL     1     143.715  38.521 -11.792  1.00  0.00    -0.000 C 
BRANCH   6   7
ATOM      7  C   UNL     1     144.859  39.137 -10.961  1.00  0.00    -0.000 C 
BRANCH   7   8
ATOM      8  C   UNL     1     144.964  40.673 -11.019  1.00  0.00    -0.000 C 
BRANCH   8   9
ATOM      9  C   UNL     1     143.620  41.353 -11.330  1.00  0.00    -0.000 C 
BRANCH   9  10
ATOM     10  C   UNL     1     143.347  42.576 -10.436  1.00  0.00    -0.000 C 
BRANCH  10  11
ATOM     11  C   UNL     1     144.513  42.986  -9.518  1.00  0.00    -0.003 C 
ATOM     12  C   UNL     1     144.056  43.392  -8.117  1.00  0.00     0.004 C 
ENDBRANCH  10  11
ENDBRANCH   9  10
ENDBRANCH   8   9
ENDBRANCH   7   8
ENDBRANCH   6   7
ENDBRANCH   5   6
ENDBRANCH   4   5
ENDBRANCH   3   4
ENDBRANCH   2   3
ENDBRANCH   1   2
BRANCH   1  13
ATOM     13  C   UNL     1     142.916  39.838  -7.925  1.00  0.00     0.000 C 
BRANCH  13  14
ATOM     14  C   UNL     1     143.278  39.551  -6.456  1.00  0.00     0.000 C 
BRANCH  14  15
ATOM     15  C   UNL     1     144.037  38.228  -6.270  1.00  0.00     0.000 C 
BRANCH  15  16
ATOM     16  C   UNL     1     144.032  37.407  -7.567  1.00  0.00     0.000 C 
BRANCH  16  17
ATOM     17  C   UNL     1     145.449  37.050  -8.053  1.00  0.00     0.000 C 
BRANCH  17  18
ATOM     18  C   UNL     1     146.579  37.925  -7.473  1.00  0.00     0.000 C 
BRANCH  18  19
ATOM     19  C   UNL     1     147.577  38.472  -8.509  1.00  0.00     0.000 C 
BRANCH  19  20
ATOM     20  C   UNL     1     147.694  40.003  -8.475  1.00  0.00     0.006 C 
BRANCH  20  21
ATOM     21  C   UNL     1     146.598  40.617  -7.599  1.00  0.00     0.053 C 
BRANCH  21  22
ATOM     22  C   UNL     1     147.195  41.524  -6.571  1.00  0.00     0.041 C 
ATOM     23  O   UNL     1     147.528  41.073  -5.444  1.00  0.00    -0.550 OA
ATOM     24  O   UNL     1     147.430  42.860  -6.875  1.00  0.00    -0.550 OA
ENDBRANCH  21  22
ENDBRANCH  20  21
ENDBRANCH  19  20
ENDBRANCH  18  19
ENDBRANCH  17  18
ENDBRANCH  16  17
ENDBRANCH  15  16
ENDBRANCH  14  15
ENDBRANCH  13  14
ENDBRANCH   1  13
TORSDOF 20
ENDMDL
MODEL 4
REMARK VINA RESULT:    -1.009      1.665      4.036
REMARK INTER + INTRA:          -6.454
REMARK INTER:                  -2.456
REMARK INTRA:                  -3.998
REMARK UNBOUND:                -4.265
REMARK SMILES CCCCCCCCCCCCCCCCCCCCCC(=O)[O-]
REMARK SMILES IDX 12 1 11 2 10 3 9 4 8 5 7 6 6 7 5 8 4 9 3 10 2 11 1 12 13 13
REMARK SMILES IDX 14 14 15 15 16 16 17 17 18 18 19 19 20 20 21 21 22 22 23 23
REMARK SMILES IDX 24 24
REMARK H PARENT
REMARK Flexibility Score: inf
ROOT
ATOM      1  C   UNL     1     142.084  36.875 -12.021  1.00  0.00     0.000 C 
ENDROOT
BRANCH   1   2
ATOM      2  C   UNL     1     141.780  37.923 -13.104  1.00  0.00     0.000 C 
BRANCH   2   3
ATOM      3  C   UNL     1     143.048  38.572 -13.688  1.00  0.00     0.000 C 
BRANCH   3   4
ATOM      4  C   UNL     1     144.378  38.102 -13.070  1.00  0.00    -0.000 C 
BRANCH   4   5
ATOM      5  C   UNL     1     145.518  39.117 -13.253  1.00  0.00    -0.000 C 
BRANCH   5   6
ATOM      6  C   UNL     1     146.623  38.974 -12.191  1.00  0.00    -0.000 C 
BRANCH   6   7
ATOM      7  C   UNL     1     146.562  37.688 -11.340  1.00  0.00    -0.000 C 
BRANCH   7   8
ATOM      8  C   UNL     1     147.760  37.461 -10.399  1.00  0.00    -0.000 C 
BRANCH   8   9
ATOM      9  C   UNL     1     148.041  38.667  -9.487  1.00  0.00    -0.000 C 
BRANCH   9  10
ATOM     10  C   UNL     1     147.315  38.575  -8.133  1.00  0.00    -0.000 C 
BRANCH  10  11
ATOM     11  C   UNL     1     147.275  39.884  -7.324  1.00  0.00    -0.003 C 
ATOM     12  C   UNL     1     146.036  40.002  -6.438  1.00  0.00     0.004 C 
ENDBRANCH  10  11
ENDBRANCH   9  10
ENDBRANCH   8   9
ENDBRANCH   7   8
ENDBRANCH   6   7
ENDBRANCH   5   6
ENDBRANCH   4   5
ENDBRANCH   3   4
ENDBRANCH   2   3
ENDBRANCH   1   2
BRANCH   1  13
ATOM     13  C   UNL     1     141.091  36.921 -10.845  1.00  0.00     0.000 C 
BRANCH  13  14
ATOM     14  C   UNL     1     141.600  37.642  -9.583  1.00  0.00     0.000 C 
BRANCH  14  15
ATOM     15  C   UNL     1     143.123  37.551  -9.410  1.00  0.00     0.000 C 
BRANCH  15  16
ATOM     16  C   UNL     1     143.742  38.947  -9.255  1.00  0.00     0.000 C 
BRANCH  16  17
ATOM     17  C   UNL     1     142.905  40.051  -9.927  1.00  0.00     0.000 C 
BRANCH  17  18
ATOM     18  C   UNL     1     143.721  41.200 -10.553  1.00  0.00     0.000 C 
BRANCH  18  19
ATOM     19  C   UNL     1     145.199  41.257 -10.129  1.00  0.00     0.000 C 
BRANCH  19  20
ATOM     20  C   UNL     1     145.524  42.478  -9.257  1.00  0.00     0.006 C 
BRANCH  20  21
ATOM     21  C   UNL     1     146.932  43.003  -9.551  1.00  0.00     0.053 C 
BRANCH  21  22
ATOM     22  C   UNL     1     147.014  43.532 -10.948  1.00  0.00     0.041 C 
ATOM     23  O   UNL     1     146.355  44.553 -11.279  1.00  0.00    -0.550 OA
ATOM     24  O   UNL     1     147.856  42.926 -11.873  1.00  0.00    -0.550 OA
ENDBRANCH  21  22
ENDBRANCH  20  21
ENDBRANCH  19  20
ENDBRANCH  18  19
ENDBRANCH  17  18
ENDBRANCH  16  17
ENDBRANCH  15  16
ENDBRANCH  14  15
ENDBRANCH  13  14
ENDBRANCH   1  13
TORSDOF 20
ENDMDL
MODEL 5
REMARK VINA RESULT:    -0.997      2.797      5.557
REMARK INTER + INTRA:          -6.428
REMARK INTER:                  -2.438
REMARK INTRA:                  -3.989
REMARK UNBOUND:                -4.265
REMARK SMILES CCCCCCCCCCCCCCCCCCCCCC(=O)[O-]
REMARK SMILES IDX 12 1 11 2 10 3 9 4 8 5 7 6 6 7 5 8 4 9 3 10 2 11 1 12 13 13
REMARK SMILES IDX 14 14 15 15 16 16 17 17 18 18 19 19 20 20 21 21 22 22 23 23
REMARK SMILES IDX 24 24
REMARK H PARENT
REMARK Flexibility Score: inf
ROOT
ATOM      1  C   UNL     1     143.484  41.837  -8.694  1.00  0.00     0.000 C 
ENDROOT
BRANCH   1   2
ATOM      2  C   UNL     1     144.612  42.639  -8.023  1.00  0.00     0.000 C 
BRANCH   2   3
ATOM      3  C   UNL     1     145.700  41.744  -7.401  1.00  0.00     0.000 C 
BRANCH   3   4
ATOM      4  C   UNL     1     146.960  41.538  -8.262  1.00  0.00    -0.000 C 
BRANCH   4   5
ATOM      5  C   UNL     1     147.802  40.331  -7.816  1.00  0.00    -0.000 C 
BRANCH   5   6
ATOM      6  C   UNL     1     147.658  39.121  -8.757  1.00  0.00    -0.000 C 
BRANCH   6   7
ATOM      7  C   UNL     1     146.711  38.006  -8.264  1.00  0.00    -0.000 C 
BRANCH   7   8
ATOM      8  C   UNL     1     146.726  37.751  -6.745  1.00  0.00    -0.000 C 
BRANCH   8   9
ATOM      9  C   UNL     1     145.419  38.178  -6.054  1.00  0.00    -0.000 C 
BRANCH   9  10
ATOM     10  C   UNL     1     144.232  38.278  -7.029  1.00  0.00    -0.000 C 
BRANCH  10  11
ATOM     11  C   UNL     1     142.967  38.936  -6.450  1.00  0.00    -0.003 C 
ATOM     12  C   UNL     1     143.270  39.940  -5.338  1.00  0.00     0.004 C 
ENDBRANCH  10  11
ENDBRANCH   9  10
ENDBRANCH   8   9
ENDBRANCH   7   8
ENDBRANCH   6   7
ENDBRANCH   5   6
ENDBRANCH   4   5
ENDBRANCH   3   4
ENDBRANCH   2   3
ENDBRANCH   1   2
BRANCH   1  13
ATOM     13  C   UNL     1     143.846  41.363 -10.113  1.00  0.00     0.000 C 
BRANCH  13  14
ATOM     14  C   UNL     1     144.058  39.846 -10.266  1.00  0.00     0.000 C 
BRANCH  14  15
ATOM     15  C   UNL     1     145.091  39.487 -11.344  1.00  0.00     0.000 C 
BRANCH  15  16
ATOM     16  C   UNL     1     145.010  37.998 -11.708  1.00  0.00     0.000 C 
BRANCH  16  17
ATOM     17  C   UNL     1     143.821  37.283 -11.040  1.00  0.00     0.000 C 
BRANCH  17  18
ATOM     18  C   UNL     1     142.682  36.875 -11.996  1.00  0.00     0.000 C 
BRANCH  18  19
ATOM     19  C   UNL     1     142.885  37.288 -13.465  1.00  0.00     0.000 C 
BRANCH  19  20
ATOM     20  C   UNL     1     141.789  38.235 -13.975  1.00  0.00     0.006 C 
BRANCH  20  21
ATOM     21  C   UNL     1     142.003  39.656 -13.447  1.00  0.00     0.053 C 
BRANCH  21  22
ATOM     22  C   UNL     1     140.807  40.114 -12.675  1.00  0.00     0.041 C 
ATOM     23  O   UNL     1     140.688  39.821 -11.456  1.00  0.00    -0.550 OA
ATOM     24  O   UNL     1     139.845  40.908 -13.289  1.00  0.00    -0.550 OA
ENDBRANCH  21  22
ENDBRANCH  20  21
ENDBRANCH  19  20
ENDBRANCH  18  19
ENDBRANCH  17  18
ENDBRANCH  16  17
ENDBRANCH  15  16
ENDBRANCH  14  15
ENDBRANCH  13  14
ENDBRANCH   1  13
TORSDOF 20
ENDMDL
MODEL 6
REMARK VINA RESULT:    -0.978      2.483      3.783
REMARK INTER + INTRA:          -6.386
REMARK INTER:                  -2.331
REMARK INTRA:                  -4.055
REMARK UNBOUND:                -4.265
REMARK SMILES CCCCCCCCCCCCCCCCCCCCCC(=O)[O-]
REMARK SMILES IDX 12 1 11 2 10 3 9 4 8 5 7 6 6 7 5 8 4 9 3 10 2 11 1 12 13 13
REMARK SMILES IDX 14 14 15 15 16 16 17 17 18 18 19 19 20 20 21 21 22 22 23 23
REMARK SMILES IDX 24 24
REMARK H PARENT
REMARK Flexibility Score: inf
ROOT
ATOM      1  C   UNL     1     144.847  38.225 -10.643  1.00  0.00     0.000 C 
ENDROOT
BRANCH   1   2
ATOM      2  C   UNL     1     143.488  37.608 -10.276  1.00  0.00     0.000 C 
BRANCH   2   3
ATOM      3  C   UNL     1     142.821  36.875 -11.455  1.00  0.00     0.000 C 
BRANCH   3   4
ATOM      4  C   UNL     1     141.406  37.360 -11.821  1.00  0.00    -0.000 C 
BRANCH   4   5
ATOM      5  C   UNL     1     141.396  38.345 -13.002  1.00  0.00    -0.000 C 
BRANCH   5   6
ATOM      6  C   UNL     1     141.048  39.784 -12.578  1.00  0.00    -0.000 C 
BRANCH   6   7
ATOM      7  C   UNL     1     140.754  39.980 -11.076  1.00  0.00    -0.000 C 
BRANCH   7   8
ATOM      8  C   UNL     1     141.488  41.157 -10.407  1.00  0.00    -0.000 C 
BRANCH   8   9
ATOM      9  C   UNL     1     142.204  40.755  -9.106  1.00  0.00    -0.000 C 
BRANCH   9  10
ATOM     10  C   UNL     1     143.419  41.645  -8.792  1.00  0.00    -0.000 C 
BRANCH  10  11
ATOM     11  C   UNL     1     143.663  41.911  -7.295  1.00  0.00    -0.003 C 
ATOM     12  C   UNL     1     145.007  42.582  -7.018  1.00  0.00     0.004 C 
ENDBRANCH  10  11
ENDBRANCH   9  10
ENDBRANCH   8   9
ENDBRANCH   7   8
ENDBRANCH   6   7
ENDBRANCH   5   6
ENDBRANCH   4   5
ENDBRANCH   3   4
ENDBRANCH   2   3
ENDBRANCH   1   2
BRANCH   1  13
ATOM     13  C   UNL     1     144.849  38.893 -12.030  1.00  0.00     0.000 C 
BRANCH  13  14
ATOM     14  C   UNL     1     144.712  40.427 -12.020  1.00  0.00     0.000 C 
BRANCH  14  15
ATOM     15  C   UNL     1     146.065  41.153 -12.083  1.00  0.00     0.000 C 
BRANCH  15  16
ATOM     16  C   UNL     1     146.463  41.692 -10.702  1.00  0.00     0.000 C 
BRANCH  16  17
ATOM     17  C   UNL     1     147.652  40.934 -10.084  1.00  0.00     0.000 C 
BRANCH  17  18
ATOM     18  C   UNL     1     147.377  40.295  -8.708  1.00  0.00     0.000 C 
BRANCH  18  19
ATOM     19  C   UNL     1     147.785  38.817  -8.583  1.00  0.00     0.000 C 
BRANCH  19  20
ATOM     20  C   UNL     1     146.978  38.063  -7.516  1.00  0.00     0.006 C 
BRANCH  20  21
ATOM     21  C   UNL     1     145.743  38.864  -7.095  1.00  0.00     0.053 C 
BRANCH  21  22
ATOM     22  C   UNL     1     145.453  38.657  -5.642  1.00  0.00     0.041 C 
ATOM     23  O   UNL     1     145.629  37.527  -5.115  1.00  0.00    -0.550 OA
ATOM     24  O   UNL     1     145.035  39.726  -4.858  1.00  0.00    -0.550 OA
ENDBRANCH  21  22
ENDBRANCH  20  21
ENDBRANCH  19  20
ENDBRANCH  18  19
ENDBRANCH  17  18
ENDBRANCH  16  17
ENDBRANCH  15  16
ENDBRANCH  14  15
ENDBRANCH  13  14
ENDBRANCH   1  13
TORSDOF 20
ENDMDL
MODEL 7
REMARK VINA RESULT:    -0.976      4.368      8.106
REMARK INTER + INTRA:          -6.383
REMARK INTER:                  -1.886
REMARK INTRA:                  -4.497
REMARK UNBOUND:                -4.265
REMARK SMILES CCCCCCCCCCCCCCCCCCCCCC(=O)[O-]
REMARK SMILES IDX 12 1 11 2 10 3 9 4 8 5 7 6 6 7 5 8 4 9 3 10 2 11 1 12 13 13
REMARK SMILES IDX 14 14 15 15 16 16 17 17 18 18 19 19 20 20 21 21 22 22 23 23
REMARK SMILES IDX 24 24
REMARK H PARENT
REMARK Flexibility Score: inf
ROOT
ATOM      1  C   UNL     1     147.909  41.388  -3.916  1.00  0.00     0.000 C 
ENDROOT
BRANCH   1   2
ATOM      2  C   UNL     1     147.317  40.950  -5.266  1.00  0.00     0.000 C 
BRANCH   2   3
ATOM      3  C   UNL     1     146.756  42.126  -6.088  1.00  0.00     0.000 C 
BRANCH   3   4
ATOM      4  C   UNL     1     146.931  42.012  -7.614  1.00  0.00    -0.000 C 
BRANCH   4   5
ATOM      5  C   UNL     1     148.124  41.129  -8.016  1.00  0.00    -0.000 C 
BRANCH   5   6
ATOM      6  C   UNL     1     147.713  39.931  -8.892  1.00  0.00    -0.000 C 
BRANCH   6   7
ATOM      7  C   UNL     1     147.768  38.554  -8.198  1.00  0.00    -0.000 C 
BRANCH   7   8
ATOM      8  C   UNL     1     146.415  37.833  -8.053  1.00  0.00    -0.000 C 
BRANCH   8   9
ATOM      9  C   UNL     1     145.816  37.962  -6.642  1.00  0.00    -0.000 C 
BRANCH   9  10
ATOM     10  C   UNL     1     144.606  38.912  -6.590  1.00  0.00    -0.000 C 
BRANCH  10  11
ATOM     11  C   UNL     1     144.092  39.388  -7.961  1.00  0.00    -0.003 C 
ATOM     12  C   UNL     1     143.492  40.793  -7.919  1.00  0.00     0.004 C 
ENDBRANCH  10  11
ENDBRANCH   9  10
ENDBRANCH   8   9
ENDBRANCH   7   8
ENDBRANCH   6   7
ENDBRANCH   5   6
ENDBRANCH   4   5
ENDBRANCH   3   4
ENDBRANCH   2   3
ENDBRANCH   1   2
BRANCH   1  13
ATOM     13  C   UNL     1     147.791  40.304  -2.829  1.00  0.00     0.000 C 
BRANCH  13  14
ATOM     14  C   UNL     1     147.105  38.999  -3.273  1.00  0.00     0.000 C 
BRANCH  14  15
ATOM     15  C   UNL     1     145.970  38.565  -2.333  1.00  0.00     0.000 C 
BRANCH  15  16
ATOM     16  C   UNL     1     144.613  39.072  -2.841  1.00  0.00     0.000 C 
BRANCH  16  17
ATOM     17  C   UNL     1     144.134  40.337  -2.107  1.00  0.00     0.000 C 
BRANCH  17  18
ATOM     18  C   UNL     1     144.285  41.651  -2.901  1.00  0.00     0.000 C 
BRANCH  18  19
ATOM     19  C   UNL     1     143.623  41.652  -4.290  1.00  0.00     0.000 C 
BRANCH  19  20
ATOM     20  C   UNL     1     142.154  42.099  -4.250  1.00  0.00     0.006 C 
BRANCH  20  21
ATOM     21  C   UNL     1     141.267  41.136  -5.044  1.00  0.00     0.053 C 
BRANCH  21  22
ATOM     22  C   UNL     1     141.210  39.801  -4.372  1.00  0.00     0.041 C 
ATOM     23  O   UNL     1     141.592  38.767  -4.981  1.00  0.00    -0.550 OA
ATOM     24  O   UNL     1     140.781  39.704  -3.053  1.00  0.00    -0.550 OA
ENDBRANCH  21  22
ENDBRANCH  20  21
ENDBRANCH  19  20
ENDBRANCH  18  19
ENDBRANCH  17  18
ENDBRANCH  16  17
ENDBRANCH  15  16
ENDBRANCH  14  15
ENDBRANCH  13  14
ENDBRANCH   1  13
TORSDOF 20
ENDMDL
MODEL 8
REMARK VINA RESULT:    -0.952      2.731      5.685
REMARK INTER + INTRA:          -6.329
REMARK INTER:                  -2.222
REMARK INTRA:                  -4.107
REMARK UNBOUND:                -4.265
REMARK SMILES CCCCCCCCCCCCCCCCCCCCCC(=O)[O-]
REMARK SMILES IDX 12 1 11 2 10 3 9 4 8 5 7 6 6 7 5 8 4 9 3 10 2 11 1 12 13 13
REMARK SMILES IDX 14 14 15 15 16 16 17 17 18 18 19 19 20 20 21 21 22 22 23 23
REMARK SMILES IDX 24 24
REMARK H PARENT
REMARK Flexibility Score: inf
ROOT
ATOM      1  C   UNL     1     145.781  40.018 -10.212  1.00  0.00     0.000 C 
ENDROOT
BRANCH   1   2
ATOM      2  C   UNL     1     147.062  40.717  -9.729  1.00  0.00     0.000 C 
BRANCH   2   3
ATOM      3  C   UNL     1     147.753  39.976  -8.570  1.00  0.00     0.000 C 
BRANCH   3   4
ATOM      4  C   UNL     1     147.465  38.465  -8.483  1.00  0.00    -0.000 C 
BRANCH   4   5
ATOM      5  C   UNL     1     146.968  38.028  -7.095  1.00  0.00    -0.000 C 
BRANCH   5   6
ATOM      6  C   UNL     1     145.515  37.517  -7.114  1.00  0.00    -0.000 C 
BRANCH   6   7
ATOM      7  C   UNL     1     144.434  38.603  -7.286  1.00  0.00    -0.000 C 
BRANCH   7   8
ATOM      8  C   UNL     1     144.335  39.625  -6.138  1.00  0.00    -0.000 C 
BRANCH   8   9
ATOM      9  C   UNL     1     144.642  41.064  -6.590  1.00  0.00    -0.000 C 
BRANCH   9  10
ATOM     10  C   UNL     1     145.882  41.656  -5.898  1.00  0.00    -0.000 C 
BRANCH  10  11
ATOM     11  C   UNL     1     146.479  42.899  -6.582  1.00  0.00    -0.003 C 
ATOM     12  C   UNL     1     145.587  43.459  -7.689  1.00  0.00     0.004 C 
ENDBRANCH  10  11
ENDBRANCH   9  10
ENDBRANCH   8   9
ENDBRANCH   7   8
ENDBRANCH   6   7
ENDBRANCH   5   6
ENDBRANCH   4   5
ENDBRANCH   3   4
ENDBRANCH   2   3
ENDBRANCH   1   2
BRANCH   1  13
ATOM     13  C   UNL     1     145.844  39.602 -11.693  1.00  0.00     0.000 C 
BRANCH  13  14
ATOM     14  C   UNL     1     145.407  38.156 -11.989  1.00  0.00     0.000 C 
BRANCH  14  15
ATOM     15  C   UNL     1     144.911  37.409 -10.742  1.00  0.00     0.000 C 
BRANCH  15  16
ATOM     16  C   UNL     1     143.487  36.875 -10.953  1.00  0.00     0.000 C 
BRANCH  16  17
ATOM     17  C   UNL     1     143.037  36.936 -12.424  1.00  0.00     0.000 C 
BRANCH  17  18
ATOM     18  C   UNL     1     141.719  37.697 -12.673  1.00  0.00     0.000 C 
BRANCH  18  19
ATOM     19  C   UNL     1     141.846  39.231 -12.698  1.00  0.00     0.000 C 
BRANCH  19  20
ATOM     20  C   UNL     1     141.002  39.918 -11.615  1.00  0.00     0.006 C 
BRANCH  20  21
ATOM     21  C   UNL     1     141.856  40.263 -10.391  1.00  0.00     0.053 C 
BRANCH  21  22
ATOM     22  C   UNL     1     141.268  39.660  -9.155  1.00  0.00     0.041 C 
ATOM     23  O   UNL     1     140.802  38.491  -9.180  1.00  0.00    -0.550 OA
ATOM     24  O   UNL     1     141.280  40.373  -7.962  1.00  0.00    -0.550 OA
ENDBRANCH  21  22
ENDBRANCH  20  21
ENDBRANCH  19  20
ENDBRANCH  18  19
ENDBRANCH  17  18
ENDBRANCH  16  17
ENDBRANCH  15  16
ENDBRANCH  14  15
ENDBRANCH  13  14
ENDBRANCH   1  13
TORSDOF 20
ENDMDL
MODEL 9
REMARK VINA RESULT:    -0.949     19.163     21.827
REMARK INTER + INTRA:          -6.323
REMARK INTER:                  -2.156
REMARK INTRA:                  -4.166
REMARK UNBOUND:                -4.265
REMARK SMILES CCCCCCCCCCCCCCCCCCCCCC(=O)[O-]
REMARK SMILES IDX 12 1 11 2 10 3 9 4 8 5 7 6 6 7 5 8 4 9 3 10 2 11 1 12 13 13
REMARK SMILES IDX 14 14 15 15 16 16 17 17 18 18 19 19 20 20 21 21 22 22 23 23
REMARK SMILES IDX 24 24
REMARK H PARENT
REMARK Flexibility Score: inf
ROOT
ATOM      1  C   UNL     1     130.036  53.058  -7.600  1.00  0.00     0.000 C 
ENDROOT
BRANCH   1   2
ATOM      2  C   UNL     1     130.617  52.659  -8.966  1.00  0.00     0.000 C 
BRANCH   2   3
ATOM      3  C   UNL     1     132.054  53.168  -9.182  1.00  0.00     0.000 C 
BRANCH   3   4
ATOM      4  C   UNL     1     132.732  53.785  -7.944  1.00  0.00    -0.000 C 
BRANCH   4   5
ATOM      5  C   UNL     1     133.340  55.170  -8.220  1.00  0.00    -0.000 C 
BRANCH   5   6
ATOM      6  C   UNL     1     132.363  56.322  -7.922  1.00  0.00    -0.000 C 
BRANCH   6   7
ATOM      7  C   UNL     1     131.722  56.984  -9.159  1.00  0.00    -0.000 C 
BRANCH   7   8
ATOM      8  C   UNL     1     132.631  57.092 -10.397  1.00  0.00    -0.000 C 
BRANCH   8   9
ATOM      9  C   UNL     1     131.868  56.900 -11.719  1.00  0.00    -0.000 C 
BRANCH   9  10
ATOM     10  C   UNL     1     131.734  55.421 -12.122  1.00  0.00    -0.000 C 
BRANCH  10  11
ATOM     11  C   UNL     1     130.319  54.832 -11.980  1.00  0.00    -0.003 C 
ATOM     12  C   UNL     1     129.227  55.764 -12.505  1.00  0.00     0.004 C 
ENDBRANCH  10  11
ENDBRANCH   9  10
ENDBRANCH   8   9
ENDBRANCH   7   8
ENDBRANCH   6   7
ENDBRANCH   5   6
ENDBRANCH   4   5
ENDBRANCH   3   4
ENDBRANCH   2   3
ENDBRANCH   1   2
BRANCH   1  13
ATOM     13  C   UNL     1     128.604  53.617  -7.695  1.00  0.00     0.000 C 
BRANCH  13  14
ATOM     14  C   UNL     1     128.413  54.765  -8.704  1.00  0.00     0.000 C 
BRANCH  14  15
ATOM     15  C   UNL     1     128.316  56.144  -8.035  1.00  0.00     0.000 C 
BRANCH  15  16
ATOM     16  C   UNL     1     128.417  56.022  -6.508  1.00  0.00     0.000 C 
BRANCH  16  17
ATOM     17  C   UNL     1     129.286  57.124  -5.876  1.00  0.00     0.000 C 
BRANCH  17  18
ATOM     18  C   UNL     1     130.293  56.635  -4.814  1.00  0.00     0.000 C 
BRANCH  18  19
ATOM     19  C   UNL     1     130.157  55.154  -4.420  1.00  0.00     0.000 C 
BRANCH  19  20
ATOM     20  C   UNL     1     131.475  54.378  -4.553  1.00  0.00     0.006 C 
BRANCH  20  21
ATOM     21  C   UNL     1     132.679  55.310  -4.394  1.00  0.00     0.053 C 
BRANCH  21  22
ATOM     22  C   UNL     1     133.901  54.531  -4.026  1.00  0.00     0.041 C 
ATOM     23  O   UNL     1     134.440  53.763  -4.866  1.00  0.00    -0.550 OA
ATOM     24  O   UNL     1     134.474  54.690  -2.770  1.00  0.00    -0.550 OA
ENDBRANCH  21  22
ENDBRANCH  20  21
ENDBRANCH  19  20
ENDBRANCH  18  19
ENDBRANCH  17  18
ENDBRANCH  16  17
ENDBRANCH  15  16
ENDBRANCH  14  15
ENDBRANCH  13  14
ENDBRANCH   1  13
TORSDOF 20
ENDMDL
