MODEL 1
REMARK VINA RESULT:    -2.452      0.000      0.000
REMARK INTER + INTRA:          -3.738
REMARK INTER:                  -3.169
REMARK INTRA:                  -0.569
REMARK UNBOUND:                -0.569
REMARK SMILES CCCCCCC(C)=O
REMARK SMILES IDX 4 1 3 2 2 3 1 4 5 5 6 6 7 7 9 8 8 9
REMARK H PARENT
REMARK Flexibility Score: inf
ROOT
ATOM      1  C   UNL     1     142.033 133.026 137.805  1.00  0.00     0.000 C 
ENDROOT
BRANCH   1   2
ATOM      2  C   UNL     1     142.115 134.246 136.875  1.00  0.00    -0.000 C 
BRANCH   2   3
ATOM      3  C   UNL     1     142.083 135.577 137.641  1.00  0.00    -0.003 C 
ATOM      4  C   UNL     1     141.662 135.409 139.101  1.00  0.00     0.004 C 
ENDBRANCH   2   3
ENDBRANCH   1   2
BRANCH   1   5
ATOM      5  C   UNL     1     143.364 132.260 137.826  1.00  0.00     0.008 C 
BRANCH   5   6
ATOM      6  C   UNL     1     144.258 132.688 138.998  1.00  0.00     0.075 C 
BRANCH   6   7
ATOM      7  C   UNL     1     145.386 133.579 138.546  1.00  0.00     0.129 C 
ATOM      8  O   UNL     1     146.168 133.178 137.696  1.00  0.00    -0.300 OA
ATOM      9  C   UNL     1     145.578 134.950 139.125  1.00  0.00     0.087 C 
ENDBRANCH   6   7
ENDBRANCH   5   6
ENDBRANCH   1   5
TORSDOF 5
ENDMDL
MODEL 2
REMARK VINA RESULT:    -2.440      9.276     10.765
REMARK INTER + INTRA:          -3.722
REMARK INTER:                  -3.161
REMARK INTRA:                  -0.562
REMARK UNBOUND:                -0.569
REMARK SMILES CCCCCCC(C)=O
REMARK SMILES IDX 4 1 3 2 2 3 1 4 5 5 6 6 7 7 9 8 8 9
REMARK H PARENT
REMARK Flexibility Score: inf
ROOT
ATOM      1  C   UNL     1     148.518 141.869 137.847  1.00  0.00     0.000 C 
ENDROOT
BRANCH   1   2
ATOM      2  C   UNL     1     147.326 141.909 136.879  1.00  0.00    -0.000 C 
BRANCH   2   3
ATOM      3  C   UNL     1     145.975 141.786 137.600  1.00  0.00    -0.003 C 
ATOM      4  C   UNL     1     146.125 141.469 139.088  1.00  0.00     0.004 C 
ENDBRANCH   2   3
ENDBRANCH   1   2
BRANCH   1   5
ATOM      5  C   UNL     1     149.259 143.215 137.862  1.00  0.00     0.008 C 
BRANCH   5   6
ATOM      6  C   UNL     1     148.780 144.124 139.002  1.00  0.00     0.075 C 
BRANCH   6   7
ATOM      7  C   UNL     1     147.876 145.222 138.502  1.00  0.00     0.129 C 
ATOM      8  O   UNL     1     148.280 145.989 137.639  1.00  0.00    -0.300 OA
ATOM      9  C   UNL     1     146.491 145.402 139.047  1.00  0.00     0.087 C 
ENDBRANCH   6   7
ENDBRANCH   5   6
ENDBRANCH   1   5
TORSDOF 5
ENDMDL
MODEL 3
REMARK VINA RESULT:    -2.407     13.632     15.555
REMARK INTER + INTRA:          -3.679
REMARK INTER:                  -3.125
REMARK INTRA:                  -0.554
REMARK UNBOUND:                -0.569
REMARK SMILES CCCCCCC(C)=O
REMARK SMILES IDX 4 1 3 2 2 3 1 4 5 5 6 6 7 7 9 8 8 9
REMARK H PARENT
REMARK Flexibility Score: inf
ROOT
ATOM      1  C   UNL     1     139.533 148.554 137.834  1.00  0.00     0.000 C 
ENDROOT
BRANCH   1   2
ATOM      2  C   UNL     1     139.517 147.270 136.992  1.00  0.00    -0.000 C 
BRANCH   2   3
ATOM      3  C   UNL     1     139.801 146.012 137.827  1.00  0.00    -0.003 C 
ATOM      4  C   UNL     1     139.778 146.283 139.332  1.00  0.00     0.004 C 
ENDBRANCH   2   3
ENDBRANCH   1   2
BRANCH   1   5
ATOM      5  C   UNL     1     138.237 149.355 137.638  1.00  0.00     0.008 C 
BRANCH   5   6
ATOM      6  C   UNL     1     137.227 149.104 138.766  1.00  0.00     0.075 C 
BRANCH   6   7
ATOM      7  C   UNL     1     136.144 148.144 138.346  1.00  0.00     0.129 C 
ATOM      8  O   UNL     1     135.322 148.492 137.510  1.00  0.00    -0.300 OA
ATOM      9  C   UNL     1     136.045 146.769 138.939  1.00  0.00     0.087 C 
ENDBRANCH   6   7
ENDBRANCH   5   6
ENDBRANCH   1   5
TORSDOF 5
ENDMDL
MODEL 4
REMARK VINA RESULT:    -2.403     12.404     13.877
REMARK INTER + INTRA:          -3.674
REMARK INTER:                  -3.217
REMARK INTRA:                  -0.458
REMARK UNBOUND:                -0.569
REMARK SMILES CCCCCCC(C)=O
REMARK SMILES IDX 4 1 3 2 2 3 1 4 5 5 6 6 7 7 9 8 8 9
REMARK H PARENT
REMARK Flexibility Score: inf
ROOT
ATOM      1  C   UNL     1     139.276 145.243 139.292  1.00  0.00     0.000 C 
ENDROOT
BRANCH   1   2
ATOM      2  C   UNL     1     138.355 144.357 138.441  1.00  0.00    -0.000 C 
BRANCH   2   3
ATOM      3  C   UNL     1     136.960 144.186 139.063  1.00  0.00    -0.003 C 
ATOM      4  C   UNL     1     136.270 145.520 139.345  1.00  0.00     0.004 C 
ENDBRANCH   2   3
ENDBRANCH   1   2
BRANCH   1   5
ATOM      5  C   UNL     1     140.208 146.080 138.403  1.00  0.00     0.008 C 
BRANCH   5   6
ATOM      6  C   UNL     1     139.442 146.809 137.291  1.00  0.00     0.075 C 
BRANCH   6   7
ATOM      7  C   UNL     1     139.155 148.244 137.654  1.00  0.00     0.129 C 
ATOM      8  O   UNL     1     140.035 149.083 137.535  1.00  0.00    -0.300 OA
ATOM      9  C   UNL     1     137.810 148.664 138.168  1.00  0.00     0.087 C 
ENDBRANCH   6   7
ENDBRANCH   5   6
ENDBRANCH   1   5
TORSDOF 5
ENDMDL
MODEL 5
REMARK VINA RESULT:    -2.402      1.366      1.887
REMARK INTER + INTRA:          -3.672
REMARK INTER:                  -3.153
REMARK INTRA:                  -0.519
REMARK UNBOUND:                -0.569
REMARK SMILES CCCCCCC(C)=O
REMARK SMILES IDX 4 1 3 2 2 3 1 4 5 5 6 6 7 7 9 8 8 9
REMARK H PARENT
REMARK Flexibility Score: inf
ROOT
ATOM      1  C   UNL     1     141.886 134.158 137.020  1.00  0.00     0.000 C 
ENDROOT
BRANCH   1   2
ATOM      2  C   UNL     1     141.524 135.254 138.033  1.00  0.00    -0.000 C 
BRANCH   2   3
ATOM      3  C   UNL     1     142.421 136.495 137.907  1.00  0.00    -0.003 C 
ATOM      4  C   UNL     1     143.594 136.479 138.886  1.00  0.00     0.004 C 
ENDBRANCH   2   3
ENDBRANCH   1   2
BRANCH   1   5
ATOM      5  C   UNL     1     141.827 132.768 137.671  1.00  0.00     0.008 C 
BRANCH   5   6
ATOM      6  C   UNL     1     143.201 132.086 137.703  1.00  0.00     0.075 C 
BRANCH   6   7
ATOM      7  C   UNL     1     144.158 132.795 138.628  1.00  0.00     0.129 C 
ATOM      8  O   UNL     1     143.846 132.970 139.797  1.00  0.00    -0.300 OA
ATOM      9  C   UNL     1     145.484 133.299 138.143  1.00  0.00     0.087 C 
ENDBRANCH   6   7
ENDBRANCH   5   6
ENDBRANCH   1   5
TORSDOF 5
ENDMDL
MODEL 6
REMARK VINA RESULT:    -2.390      9.244     10.788
REMARK INTER + INTRA:          -3.657
REMARK INTER:                  -3.107
REMARK INTRA:                  -0.550
REMARK UNBOUND:                -0.569
REMARK SMILES CCCCCCC(C)=O
REMARK SMILES IDX 4 1 3 2 2 3 1 4 5 5 6 6 7 7 9 8 8 9
REMARK H PARENT
REMARK Flexibility Score: inf
ROOT
ATOM      1  C   UNL     1     133.216 139.600 137.916  1.00  0.00     0.000 C 
ENDROOT
BRANCH   1   2
ATOM      2  C   UNL     1     134.342 139.505 136.875  1.00  0.00    -0.000 C 
BRANCH   2   3
ATOM      3  C   UNL     1     135.739 139.500 137.514  1.00  0.00    -0.003 C 
ATOM      4  C   UNL     1     135.768 140.189 138.879  1.00  0.00     0.004 C 
ENDBRANCH   2   3
ENDBRANCH   1   2
BRANCH   1   5
ATOM      5  C   UNL     1     132.431 138.283 137.999  1.00  0.00     0.008 C 
BRANCH   5   6
ATOM      6  C   UNL     1     132.922 137.389 139.145  1.00  0.00     0.075 C 
BRANCH   6   7
ATOM      7  C   UNL     1     133.814 136.280 138.650  1.00  0.00     0.129 C 
ATOM      8  O   UNL     1     133.377 135.468 137.847  1.00  0.00    -0.300 OA
ATOM      9  C   UNL     1     135.230 136.144 139.127  1.00  0.00     0.087 C 
ENDBRANCH   6   7
ENDBRANCH   5   6
ENDBRANCH   1   5
TORSDOF 5
ENDMDL
MODEL 7
REMARK VINA RESULT:    -2.357      9.269     11.272
REMARK INTER + INTRA:          -3.615
REMARK INTER:                  -3.101
REMARK INTRA:                  -0.514
REMARK UNBOUND:                -0.569
REMARK SMILES CCCCCCC(C)=O
REMARK SMILES IDX 4 1 3 2 2 3 1 4 5 5 6 6 7 7 9 8 8 9
REMARK H PARENT
REMARK Flexibility Score: inf
ROOT
ATOM      1  C   UNL     1     134.208 139.701 137.077  1.00  0.00     0.000 C 
ENDROOT
BRANCH   1   2
ATOM      2  C   UNL     1     135.307 140.077 138.083  1.00  0.00    -0.000 C 
BRANCH   2   3
ATOM      3  C   UNL     1     136.541 139.167 137.977  1.00  0.00    -0.003 C 
ATOM      4  C   UNL     1     136.436 137.922 138.858  1.00  0.00     0.004 C 
ENDBRANCH   2   3
ENDBRANCH   1   2
BRANCH   1   5
ATOM      5  C   UNL     1     132.818 139.795 137.722  1.00  0.00     0.008 C 
BRANCH   5   6
ATOM      6  C   UNL     1     132.090 138.444 137.724  1.00  0.00     0.075 C 
BRANCH   6   7
ATOM      7  C   UNL     1     132.780 137.435 138.607  1.00  0.00     0.129 C 
ATOM      8  O   UNL     1     132.958 137.692 139.789  1.00  0.00    -0.300 OA
ATOM      9  C   UNL     1     133.264 136.124 138.063  1.00  0.00     0.087 C 
ENDBRANCH   6   7
ENDBRANCH   5   6
ENDBRANCH   1   5
TORSDOF 5
ENDMDL
MODEL 8
REMARK VINA RESULT:    -2.357     12.839     14.676
REMARK INTER + INTRA:          -3.615
REMARK INTER:                  -3.141
REMARK INTRA:                  -0.473
REMARK UNBOUND:                -0.569
REMARK SMILES CCCCCCC(C)=O
REMARK SMILES IDX 4 1 3 2 2 3 1 4 5 5 6 6 7 7 9 8 8 9
REMARK H PARENT
REMARK Flexibility Score: inf
ROOT
ATOM      1  C   UNL     1     139.502 146.095 137.115  1.00  0.00     0.000 C 
ENDROOT
BRANCH   1   2
ATOM      2  C   UNL     1     139.289 145.443 138.490  1.00  0.00    -0.000 C 
BRANCH   2   3
ATOM      3  C   UNL     1     138.312 144.258 138.438  1.00  0.00    -0.003 C 
ATOM      4  C   UNL     1     136.973 144.565 139.109  1.00  0.00     0.004 C 
ENDBRANCH   2   3
ENDBRANCH   1   2
BRANCH   1   5
ATOM      5  C   UNL     1     139.637 147.619 137.245  1.00  0.00     0.008 C 
BRANCH   5   6
ATOM      6  C   UNL     1     138.928 148.157 138.495  1.00  0.00     0.075 C 
BRANCH   6   7
ATOM      7  C   UNL     1     137.637 148.856 138.150  1.00  0.00     0.129 C 
ATOM      8  O   UNL     1     137.657 150.039 137.844  1.00  0.00    -0.300 OA
ATOM      9  C   UNL     1     136.324 148.132 138.185  1.00  0.00     0.087 C 
ENDBRANCH   6   7
ENDBRANCH   5   6
ENDBRANCH   1   5
TORSDOF 5
ENDMDL
MODEL 9
REMARK VINA RESULT:    -2.343      9.260     10.491
REMARK INTER + INTRA:          -3.597
REMARK INTER:                  -3.043
REMARK INTRA:                  -0.554
REMARK UNBOUND:                -0.569
REMARK SMILES CCCCCCC(C)=O
REMARK SMILES IDX 4 1 3 2 2 3 1 4 5 5 6 6 7 7 9 8 8 9
REMARK H PARENT
REMARK Flexibility Score: inf
ROOT
ATOM      1  C   UNL     1     136.234 138.622 138.359  1.00  0.00     0.000 C 
ENDROOT
BRANCH   1   2
ATOM      2  C   UNL     1     135.250 139.792 138.209  1.00  0.00    -0.000 C 
BRANCH   2   3
ATOM      3  C   UNL     1     134.269 139.594 137.043  1.00  0.00    -0.003 C 
ATOM      4  C   UNL     1     132.812 139.813 137.452  1.00  0.00     0.004 C 
ENDBRANCH   2   3
ENDBRANCH   1   2
BRANCH   1   5
ATOM      5  C   UNL     1     135.866 137.746 139.565  1.00  0.00     0.008 C 
BRANCH   5   6
ATOM      6  C   UNL     1     135.339 136.369 139.140  1.00  0.00     0.075 C 
BRANCH   6   7
ATOM      7  C   UNL     1     133.844 136.375 138.947  1.00  0.00     0.129 C 
ATOM      8  O   UNL     1     133.145 137.055 139.684  1.00  0.00    -0.300 OA
ATOM      9  C   UNL     1     133.192 135.555 137.873  1.00  0.00     0.087 C 
ENDBRANCH   6   7
ENDBRANCH   5   6
ENDBRANCH   1   5
TORSDOF 5
ENDMDL
