MODEL 1
REMARK VINA RESULT:    -4.198      0.000      0.000
REMARK INTER + INTRA:          -5.126
REMARK INTER:                  -5.057
REMARK INTRA:                  -0.070
REMARK UNBOUND:                -0.070
REMARK SMILES CC[C@@H](C)[C@H]([NH3+])C(=O)[O-]
REMARK SMILES IDX 3 1 4 2 5 3 6 4 7 8 8 9 9 10 2 11 1 12
REMARK H PARENT 6 5 6 6 6 7
REMARK Flexibility Score: inf
ROOT
ATOM      1  C   UNL     1     -39.511  20.593 -29.787  1.00  0.00     0.050 C 
ATOM      2  C   UNL     1     -40.054  21.306 -31.039  1.00  0.00     0.014 C 
ENDROOT
BRANCH   1   3
ATOM      3  C   UNL     1     -39.988  21.259 -28.455  1.00  0.00     0.230 C 
BRANCH   3   4
ATOM      4  N   UNL     1     -39.775  20.406 -27.276  1.00  0.00    -0.350 N 
ATOM      5  H   UNL     1     -40.206  20.857 -26.436  1.00  0.00     0.345 HD
ATOM      6  H   UNL     1     -38.754  20.299 -27.082  1.00  0.00     0.345 HD
ATOM      7  H   UNL     1     -40.207  19.463 -27.405  1.00  0.00     0.345 HD
ENDBRANCH   3   4
BRANCH   3   8
ATOM      8  C   UNL     1     -41.432  21.689 -28.551  1.00  0.00     0.099 C 
ATOM      9  O   UNL     1     -42.351  20.859 -28.324  1.00  0.00    -0.544 OA
ATOM     10  O   UNL     1     -41.762  23.008 -28.845  1.00  0.00    -0.544 OA
ENDBRANCH   3   8
ENDBRANCH   1   3
BRANCH   1  11
ATOM     11  C   UNL     1     -39.831  19.081 -29.878  1.00  0.00     0.006 C 
ATOM     12  C   UNL     1     -40.868  18.741 -30.949  1.00  0.00     0.004 C 
ENDBRANCH   1  11
TORSDOF 4
ENDMDL
MODEL 2
REMARK VINA RESULT:    -4.131      2.436      3.598
REMARK INTER + INTRA:          -5.046
REMARK INTER:                  -4.966
REMARK INTRA:                  -0.079
REMARK UNBOUND:                -0.070
REMARK SMILES CC[C@@H](C)[C@H]([NH3+])C(=O)[O-]
REMARK SMILES IDX 3 1 4 2 5 3 6 4 7 8 8 9 9 10 2 11 1 12
REMARK H PARENT 6 5 6 6 6 7
REMARK Flexibility Score: inf
ROOT
ATOM      1  C   UNL     1     -39.953  21.468 -28.953  1.00  0.00     0.050 C 
ATOM      2  C   UNL     1     -39.729  20.553 -27.735  1.00  0.00     0.014 C 
ENDROOT
BRANCH   1   3
ATOM      3  C   UNL     1     -39.544  20.792 -30.303  1.00  0.00     0.230 C 
BRANCH   3   4
ATOM      4  N   UNL     1     -40.092  21.482 -31.480  1.00  0.00    -0.350 N 
ATOM      5  H   UNL     1     -39.451  21.343 -32.296  1.00  0.00     0.345 HD
ATOM      6  H   UNL     1     -40.156  22.509 -31.305  1.00  0.00     0.345 HD
ATOM      7  H   UNL     1     -41.036  21.112 -31.735  1.00  0.00     0.345 HD
ENDBRANCH   3   4
BRANCH   3   8
ATOM      8  C   UNL     1     -39.923  19.331 -30.313  1.00  0.00     0.099 C 
ATOM      9  O   UNL     1     -41.094  18.987 -30.624  1.00  0.00    -0.544 OA
ATOM     10  O   UNL     1     -38.979  18.350 -30.025  1.00  0.00    -0.544 OA
ENDBRANCH   3   8
ENDBRANCH   1   3
BRANCH   1  11
ATOM     11  C   UNL     1     -41.409  21.997 -28.935  1.00  0.00     0.006 C 
ATOM     12  C   UNL     1     -42.347  21.169 -28.056  1.00  0.00     0.004 C 
ENDBRANCH   1  11
TORSDOF 4
ENDMDL
MODEL 3
REMARK VINA RESULT:    -4.123      0.826      1.797
REMARK INTER + INTRA:          -5.036
REMARK INTER:                  -4.903
REMARK INTRA:                  -0.133
REMARK UNBOUND:                -0.070
REMARK SMILES CC[C@@H](C)[C@H]([NH3+])C(=O)[O-]
REMARK SMILES IDX 3 1 4 2 5 3 6 4 7 8 8 9 9 10 2 11 1 12
REMARK H PARENT 6 5 6 6 6 7
REMARK Flexibility Score: inf
ROOT
ATOM      1  C   UNL     1     -40.334  20.171 -29.792  1.00  0.00     0.050 C 
ATOM      2  C   UNL     1     -39.269  19.070 -29.636  1.00  0.00     0.014 C 
ENDROOT
BRANCH   1   3
ATOM      3  C   UNL     1     -40.440  21.095 -28.534  1.00  0.00     0.230 C 
BRANCH   3   4
ATOM      4  N   UNL     1     -40.065  20.413 -27.286  1.00  0.00    -0.350 N 
ATOM      5  H   UNL     1     -40.503  20.907 -26.474  1.00  0.00     0.345 HD
ATOM      6  H   UNL     1     -39.030  20.446 -27.149  1.00  0.00     0.345 HD
ATOM      7  H   UNL     1     -40.386  19.419 -27.282  1.00  0.00     0.345 HD
ENDBRANCH   3   4
BRANCH   3   8
ATOM      8  C   UNL     1     -41.819  21.699 -28.421  1.00  0.00     0.099 C 
ATOM      9  O   UNL     1     -42.720  21.093 -27.784  1.00  0.00    -0.544 OA
ATOM     10  O   UNL     1     -42.097  22.943 -28.976  1.00  0.00    -0.544 OA
ENDBRANCH   3   8
ENDBRANCH   1   3
BRANCH   1  11
ATOM     11  C   UNL     1     -40.087  20.941 -31.112  1.00  0.00     0.006 C 
ATOM     12  C   UNL     1     -39.128  22.123 -30.959  1.00  0.00     0.004 C 
ENDBRANCH   1  11
TORSDOF 4
ENDMDL
MODEL 4
REMARK VINA RESULT:    -4.102      2.616      3.027
REMARK INTER + INTRA:          -5.011
REMARK INTER:                  -4.867
REMARK INTRA:                  -0.144
REMARK UNBOUND:                -0.070
REMARK SMILES CC[C@@H](C)[C@H]([NH3+])C(=O)[O-]
REMARK SMILES IDX 3 1 4 2 5 3 6 4 7 8 8 9 9 10 2 11 1 12
REMARK H PARENT 6 5 6 6 6 7
REMARK Flexibility Score: inf
ROOT
ATOM      1  C   UNL     1     -39.899  22.888 -29.015  1.00  0.00     0.050 C 
ATOM      2  C   UNL     1     -39.704  24.334 -28.522  1.00  0.00     0.014 C 
ENDROOT
BRANCH   1   3
ATOM      3  C   UNL     1     -41.404  22.471 -29.095  1.00  0.00     0.230 C 
BRANCH   3   4
ATOM      4  N   UNL     1     -42.325  23.597 -28.874  1.00  0.00    -0.350 N 
ATOM      5  H   UNL     1     -43.008  23.650 -29.666  1.00  0.00     0.345 HD
ATOM      6  H   UNL     1     -41.800  24.499 -28.855  1.00  0.00     0.345 HD
ATOM      7  H   UNL     1     -42.859  23.484 -27.983  1.00  0.00     0.345 HD
ENDBRANCH   3   4
BRANCH   3   8
ATOM      8  C   UNL     1     -41.704  21.339 -28.142  1.00  0.00     0.099 C 
ATOM      9  O   UNL     1     -40.759  20.697 -27.612  1.00  0.00    -0.544 OA
ATOM     10  O   UNL     1     -43.015  21.023 -27.804  1.00  0.00    -0.544 OA
ENDBRANCH   3   8
ENDBRANCH   1   3
BRANCH   1  11
ATOM     11  C   UNL     1     -39.125  22.690 -30.342  1.00  0.00     0.006 C 
ATOM     12  C   UNL     1     -40.026  22.333 -31.525  1.00  0.00     0.004 C 
ENDBRANCH   1  11
TORSDOF 4
ENDMDL
MODEL 5
REMARK VINA RESULT:    -4.035      2.597      3.303
REMARK INTER + INTRA:          -4.930
REMARK INTER:                  -4.805
REMARK INTRA:                  -0.125
REMARK UNBOUND:                -0.070
REMARK SMILES CC[C@@H](C)[C@H]([NH3+])C(=O)[O-]
REMARK SMILES IDX 3 1 4 2 5 3 6 4 7 8 8 9 9 10 2 11 1 12
REMARK H PARENT 6 5 6 6 6 7
REMARK Flexibility Score: inf
ROOT
ATOM      1  C   UNL     1     -41.320  21.358 -28.600  1.00  0.00     0.050 C 
ATOM      2  C   UNL     1     -42.644  21.123 -27.848  1.00  0.00     0.014 C 
ENDROOT
BRANCH   1   3
ATOM      3  C   UNL     1     -41.085  22.862 -28.960  1.00  0.00     0.230 C 
BRANCH   3   4
ATOM      4  N   UNL     1     -42.337  23.619 -29.111  1.00  0.00    -0.350 N 
ATOM      5  H   UNL     1     -42.587  24.066 -28.198  1.00  0.00     0.345 HD
ATOM      6  H   UNL     1     -43.121  22.981 -29.370  1.00  0.00     0.345 HD
ATOM      7  H   UNL     1     -42.244  24.370 -29.832  1.00  0.00     0.345 HD
ENDBRANCH   3   4
BRANCH   3   8
ATOM      8  C   UNL     1     -40.227  22.994 -30.195  1.00  0.00     0.099 C 
ATOM      9  O   UNL     1     -39.215  23.743 -30.179  1.00  0.00    -0.544 OA
ATOM     10  O   UNL     1     -40.514  22.262 -31.342  1.00  0.00    -0.544 OA
ENDBRANCH   3   8
ENDBRANCH   1   3
BRANCH   1  11
ATOM     11  C   UNL     1     -40.157  20.718 -27.802  1.00  0.00     0.006 C 
ATOM     12  C   UNL     1     -39.320  19.739 -28.626  1.00  0.00     0.004 C 
ENDBRANCH   1  11
TORSDOF 4
ENDMDL
MODEL 6
REMARK VINA RESULT:    -4.003      2.551      3.420
REMARK INTER + INTRA:          -4.891
REMARK INTER:                  -4.783
REMARK INTRA:                  -0.109
REMARK UNBOUND:                -0.070
REMARK SMILES CC[C@@H](C)[C@H]([NH3+])C(=O)[O-]
REMARK SMILES IDX 3 1 4 2 5 3 6 4 7 8 8 9 9 10 2 11 1 12
REMARK H PARENT 6 5 6 6 6 7
REMARK Flexibility Score: inf
ROOT
ATOM      1  C   UNL     1     -38.340  20.153 -29.523  1.00  0.00     0.050 C 
ATOM      2  C   UNL     1     -36.867  19.716 -29.629  1.00  0.00     0.014 C 
ENDROOT
BRANCH   1   3
ATOM      3  C   UNL     1     -39.341  18.969 -29.732  1.00  0.00     0.230 C 
BRANCH   3   4
ATOM      4  N   UNL     1     -38.671  17.696 -30.034  1.00  0.00    -0.350 N 
ATOM      5  H   UNL     1     -39.358  16.911 -29.949  1.00  0.00     0.345 HD
ATOM      6  H   UNL     1     -37.905  17.515 -29.347  1.00  0.00     0.345 HD
ATOM      7  H   UNL     1     -38.279  17.690 -31.003  1.00  0.00     0.345 HD
ENDBRANCH   3   4
BRANCH   3   8
ATOM      8  C   UNL     1     -40.359  19.304 -30.796  1.00  0.00     0.099 C 
ATOM      9  O   UNL     1     -41.190  18.434 -31.166  1.00  0.00    -0.544 OA
ATOM     10  O   UNL     1     -40.421  20.581 -31.343  1.00  0.00    -0.544 OA
ENDBRANCH   3   8
ENDBRANCH   1   3
BRANCH   1  11
ATOM     11  C   UNL     1     -38.552  20.922 -28.195  1.00  0.00     0.006 C 
ATOM     12  C   UNL     1     -39.817  20.503 -27.443  1.00  0.00     0.004 C 
ENDBRANCH   1  11
TORSDOF 4
ENDMDL
MODEL 7
REMARK VINA RESULT:    -4.000      2.616      3.783
REMARK INTER + INTRA:          -4.888
REMARK INTER:                  -4.792
REMARK INTRA:                  -0.096
REMARK UNBOUND:                -0.070
REMARK SMILES CC[C@@H](C)[C@H]([NH3+])C(=O)[O-]
REMARK SMILES IDX 3 1 4 2 5 3 6 4 7 8 8 9 9 10 2 11 1 12
REMARK H PARENT 6 5 6 6 6 7
REMARK Flexibility Score: inf
ROOT
ATOM      1  C   UNL     1     -40.081  21.307 -28.964  1.00  0.00     0.050 C 
ATOM      2  C   UNL     1     -41.533  20.960 -28.584  1.00  0.00     0.014 C 
ENDROOT
BRANCH   1   3
ATOM      3  C   UNL     1     -39.639  20.666 -30.320  1.00  0.00     0.230 C 
BRANCH   3   4
ATOM      4  N   UNL     1     -40.189  21.364 -31.492  1.00  0.00    -0.350 N 
ATOM      5  H   UNL     1     -40.890  22.075 -31.178  1.00  0.00     0.345 HD
ATOM      6  H   UNL     1     -40.688  20.692 -32.116  1.00  0.00     0.345 HD
ATOM      7  H   UNL     1     -39.440  21.853 -32.032  1.00  0.00     0.345 HD
ENDBRANCH   3   4
BRANCH   3   8
ATOM      8  C   UNL     1     -39.982  19.196 -30.362  1.00  0.00     0.099 C 
ATOM      9  O   UNL     1     -39.369  18.387 -29.618  1.00  0.00    -0.544 OA
ATOM     10  O   UNL     1     -41.003  18.728 -31.182  1.00  0.00    -0.544 OA
ENDBRANCH   3   8
ENDBRANCH   1   3
BRANCH   1  11
ATOM     11  C   UNL     1     -39.889  22.842 -28.906  1.00  0.00     0.006 C 
ATOM     12  C   UNL     1     -41.204  23.619 -28.826  1.00  0.00     0.004 C 
ENDBRANCH   1  11
TORSDOF 4
ENDMDL
MODEL 8
REMARK VINA RESULT:    -3.973      2.499      3.391
REMARK INTER + INTRA:          -4.856
REMARK INTER:                  -4.730
REMARK INTRA:                  -0.126
REMARK UNBOUND:                -0.070
REMARK SMILES CC[C@@H](C)[C@H]([NH3+])C(=O)[O-]
REMARK SMILES IDX 3 1 4 2 5 3 6 4 7 8 8 9 9 10 2 11 1 12
REMARK H PARENT 6 5 6 6 6 7
REMARK Flexibility Score: inf
ROOT
ATOM      1  C   UNL     1     -40.248  19.708 -30.297  1.00  0.00     0.050 C 
ATOM      2  C   UNL     1     -41.089  18.715 -31.121  1.00  0.00     0.014 C 
ENDROOT
BRANCH   1   3
ATOM      3  C   UNL     1     -38.931  19.073 -29.741  1.00  0.00     0.230 C 
BRANCH   3   4
ATOM      4  N   UNL     1     -38.998  17.607 -29.639  1.00  0.00    -0.350 N 
ATOM      5  H   UNL     1     -38.074  17.238 -29.314  1.00  0.00     0.345 HD
ATOM      6  H   UNL     1     -39.190  17.184 -30.574  1.00  0.00     0.345 HD
ATOM      7  H   UNL     1     -39.733  17.305 -28.960  1.00  0.00     0.345 HD
ENDBRANCH   3   4
BRANCH   3   8
ATOM      8  C   UNL     1     -38.552  19.686 -28.415  1.00  0.00     0.099 C 
ATOM      9  O   UNL     1     -37.350  19.979 -28.179  1.00  0.00    -0.544 OA
ATOM     10  O   UNL     1     -39.524  19.975 -27.463  1.00  0.00    -0.544 OA
ENDBRANCH   3   8
ENDBRANCH   1   3
BRANCH   1  11
ATOM     11  C   UNL     1     -40.019  20.997 -31.124  1.00  0.00     0.006 C 
ATOM     12  C   UNL     1     -40.394  22.277 -30.376  1.00  0.00     0.004 C 
ENDBRANCH   1  11
TORSDOF 4
ENDMDL
MODEL 9
REMARK VINA RESULT:    -3.941      2.828      3.320
REMARK INTER + INTRA:          -4.817
REMARK INTER:                  -4.699
REMARK INTRA:                  -0.118
REMARK UNBOUND:                -0.070
REMARK SMILES CC[C@@H](C)[C@H]([NH3+])C(=O)[O-]
REMARK SMILES IDX 3 1 4 2 5 3 6 4 7 8 8 9 9 10 2 11 1 12
REMARK H PARENT 6 5 6 6 6 7
REMARK Flexibility Score: inf
ROOT
ATOM      1  C   UNL     1     -40.039  20.702 -29.257  1.00  0.00     0.050 C 
ATOM      2  C   UNL     1     -41.371  21.048 -28.565  1.00  0.00     0.014 C 
ENDROOT
BRANCH   1   3
ATOM      3  C   UNL     1     -39.183  19.674 -28.447  1.00  0.00     0.230 C 
BRANCH   3   4
ATOM      4  N   UNL     1     -39.359  19.798 -26.992  1.00  0.00    -0.350 N 
ATOM      5  H   UNL     1     -38.444  19.630 -26.514  1.00  0.00     0.345 HD
ATOM      6  H   UNL     1     -40.030  19.078 -26.643  1.00  0.00     0.345 HD
ATOM      7  H   UNL     1     -39.700  20.750 -26.729  1.00  0.00     0.345 HD
ENDBRANCH   3   4
BRANCH   3   8
ATOM      8  C   UNL     1     -37.724  19.771 -28.820  1.00  0.00     0.099 C 
ATOM      9  O   UNL     1     -36.955  20.519 -28.161  1.00  0.00    -0.544 OA
ATOM     10  O   UNL     1     -37.204  19.008 -29.861  1.00  0.00    -0.544 OA
ENDBRANCH   3   8
ENDBRANCH   1   3
BRANCH   1  11
ATOM     11  C   UNL     1     -40.318  20.269 -30.718  1.00  0.00     0.006 C 
ATOM     12  C   UNL     1     -40.799  18.822 -30.843  1.00  0.00     0.004 C 
ENDBRANCH   1  11
TORSDOF 4
ENDMDL
