MODEL 1
REMARK VINA RESULT:    -5.031      0.000      0.000
REMARK INTER + INTRA:          -5.628
REMARK INTER:                  -5.472
REMARK INTRA:                  -0.156
REMARK UNBOUND:                -0.156
REMARK SMILES CC1=CC[C@](O)(C(C)C)CC1
REMARK SMILES IDX 1 1 2 2 3 3 4 4 5 5 10 6 11 7 7 8 8 9 9 10 6 11
REMARK H PARENT 6 12
REMARK Flexibility Score: inf
ROOT
ATOM      1  C   UNL     1     122.492 120.435 111.565  1.00  0.00     0.039 C 
ATOM      2  C   UNL     1     123.647 120.648 112.504  1.00  0.00    -0.077 C 
ATOM      3  C   UNL     1     123.942 119.692 113.409  1.00  0.00    -0.025 C 
ATOM      4  C   UNL     1     125.049 119.836 114.426  1.00  0.00     0.062 C 
ATOM      5  C   UNL     1     126.152 120.820 113.966  1.00  0.00     0.071 C 
ATOM      6  C   UNL     1     125.452 122.128 113.514  1.00  0.00     0.040 C 
ATOM      7  C   UNL     1     124.521 121.874 112.321  1.00  0.00     0.033 C 
ENDROOT
BRANCH   5   8
ATOM      8  C   UNL     1     127.216 121.100 115.092  1.00  0.00     0.015 C 
ATOM      9  C   UNL     1     127.565 122.586 115.300  1.00  0.00     0.010 C 
ATOM     10  C   UNL     1     126.816 120.475 116.441  1.00  0.00     0.010 C 
ENDBRANCH   5   8
BRANCH   5  11
ATOM     11  O   UNL     1     126.808 120.240 112.859  1.00  0.00    -0.389 OA
ATOM     12  H   UNL     1     126.888 119.264 113.026  1.00  0.00     0.211 HD
ENDBRANCH   5  11
TORSDOF 2
ENDMDL
MODEL 2
REMARK VINA RESULT:    -5.030     15.869     16.843
REMARK INTER + INTRA:          -5.627
REMARK INTER:                  -5.474
REMARK INTRA:                  -0.152
REMARK UNBOUND:                -0.156
REMARK SMILES CC1=CC[C@](O)(C(C)C)CC1
REMARK SMILES IDX 1 1 2 2 3 3 4 4 5 5 10 6 11 7 7 8 8 9 9 10 6 11
REMARK H PARENT 6 12
REMARK Flexibility Score: inf
ROOT
ATOM      1  C   UNL     1     113.866 118.005 127.665  1.00  0.00     0.039 C 
ATOM      2  C   UNL     1     113.586 118.625 126.324  1.00  0.00    -0.077 C 
ATOM      3  C   UNL     1     112.379 118.433 125.751  1.00  0.00    -0.025 C 
ATOM      4  C   UNL     1     112.023 118.972 124.386  1.00  0.00     0.062 C 
ATOM      5  C   UNL     1     112.864 120.213 124.000  1.00  0.00     0.071 C 
ATOM      6  C   UNL     1     114.355 119.858 124.237  1.00  0.00     0.040 C 
ATOM      7  C   UNL     1     114.623 119.549 125.716  1.00  0.00     0.033 C 
ENDROOT
BRANCH   5   8
ATOM      8  C   UNL     1     112.613 120.671 122.515  1.00  0.00     0.015 C 
ATOM      9  C   UNL     1     113.771 120.378 121.542  1.00  0.00     0.010 C 
ATOM     10  C   UNL     1     111.304 120.099 121.941  1.00  0.00     0.010 C 
ENDBRANCH   5   8
BRANCH   5  11
ATOM     11  O   UNL     1     112.496 121.265 124.867  1.00  0.00    -0.389 OA
ATOM     12  H   UNL     1     112.864 121.064 125.768  1.00  0.00     0.211 HD
ENDBRANCH   5  11
TORSDOF 2
ENDMDL
MODEL 3
REMARK VINA RESULT:    -4.904     15.171     16.208
REMARK INTER + INTRA:          -5.490
REMARK INTER:                  -5.335
REMARK INTRA:                  -0.155
REMARK UNBOUND:                -0.156
REMARK SMILES CC1=CC[C@](O)(C(C)C)CC1
REMARK SMILES IDX 1 1 2 2 3 3 4 4 5 5 10 6 11 7 7 8 8 9 9 10 6 11
REMARK H PARENT 6 12
REMARK Flexibility Score: inf
ROOT
ATOM      1  C   UNL     1     112.849 118.786 126.329  1.00  0.00     0.039 C 
ATOM      2  C   UNL     1     112.737 119.448 124.984  1.00  0.00    -0.077 C 
ATOM      3  C   UNL     1     113.656 120.370 124.628  1.00  0.00    -0.025 C 
ATOM      4  C   UNL     1     113.599 121.126 123.321  1.00  0.00     0.062 C 
ATOM      5  C   UNL     1     112.824 120.357 122.225  1.00  0.00     0.071 C 
ATOM      6  C   UNL     1     111.464 119.921 122.833  1.00  0.00     0.040 C 
ATOM      7  C   UNL     1     111.668 118.970 124.020  1.00  0.00     0.033 C 
ENDROOT
BRANCH   5   8
ATOM      8  C   UNL     1     112.619 121.213 120.920  1.00  0.00     0.015 C 
ATOM      9  C   UNL     1     111.155 121.351 120.458  1.00  0.00     0.010 C 
ATOM     10  C   UNL     1     113.254 122.611 121.034  1.00  0.00     0.010 C 
ENDBRANCH   5   8
BRANCH   5  11
ATOM     11  O   UNL     1     113.574 119.206 121.898  1.00  0.00    -0.389 OA
ATOM     12  H   UNL     1     114.160 119.431 121.128  1.00  0.00     0.211 HD
ENDBRANCH   5  11
TORSDOF 2
ENDMDL
MODEL 4
REMARK VINA RESULT:    -4.820     15.740     16.750
REMARK INTER + INTRA:          -5.399
REMARK INTER:                  -5.296
REMARK INTRA:                  -0.103
REMARK UNBOUND:                -0.156
REMARK SMILES CC1=CC[C@](O)(C(C)C)CC1
REMARK SMILES IDX 1 1 2 2 3 3 4 4 5 5 10 6 11 7 7 8 8 9 9 10 6 11
REMARK H PARENT 6 12
REMARK Flexibility Score: inf
ROOT
ATOM      1  C   UNL     1     113.550 118.561 127.438  1.00  0.00     0.039 C 
ATOM      2  C   UNL     1     113.331 118.960 126.004  1.00  0.00    -0.077 C 
ATOM      3  C   UNL     1     112.126 118.738 125.439  1.00  0.00    -0.025 C 
ATOM      4  C   UNL     1     111.825 119.057 123.993  1.00  0.00     0.062 C 
ATOM      5  C   UNL     1     112.742 120.168 123.428  1.00  0.00     0.071 C 
ATOM      6  C   UNL     1     114.206 119.781 123.762  1.00  0.00     0.040 C 
ATOM      7  C   UNL     1     114.429 119.712 125.279  1.00  0.00     0.033 C 
ENDROOT
BRANCH   5   8
ATOM      8  C   UNL     1     112.544 120.382 121.881  1.00  0.00     0.015 C 
ATOM      9  C   UNL     1     111.103 120.174 121.377  1.00  0.00     0.010 C 
ATOM     10  C   UNL     1     113.057 121.756 121.411  1.00  0.00     0.010 C 
ENDBRANCH   5   8
BRANCH   5  11
ATOM     11  O   UNL     1     112.419 121.370 124.096  1.00  0.00    -0.389 OA
ATOM     12  H   UNL     1     113.229 121.944 124.105  1.00  0.00     0.211 HD
ENDBRANCH   5  11
TORSDOF 2
ENDMDL
MODEL 5
REMARK VINA RESULT:    -4.803      1.132      4.429
REMARK INTER + INTRA:          -5.380
REMARK INTER:                  -5.224
REMARK INTRA:                  -0.155
REMARK UNBOUND:                -0.156
REMARK SMILES CC1=CC[C@](O)(C(C)C)CC1
REMARK SMILES IDX 1 1 2 2 3 3 4 4 5 5 10 6 11 7 7 8 8 9 9 10 6 11
REMARK H PARENT 6 12
REMARK Flexibility Score: inf
ROOT
ATOM      1  C   UNL     1     127.384 122.363 115.182  1.00  0.00     0.039 C 
ATOM      2  C   UNL     1     126.191 121.712 114.538  1.00  0.00    -0.077 C 
ATOM      3  C   UNL     1     125.798 122.126 113.316  1.00  0.00    -0.025 C 
ATOM      4  C   UNL     1     124.584 121.569 112.611  1.00  0.00     0.062 C 
ATOM      5  C   UNL     1     124.226 120.140 113.086  1.00  0.00     0.071 C 
ATOM      6  C   UNL     1     124.177 120.162 114.636  1.00  0.00     0.040 C 
ATOM      7  C   UNL     1     125.546 120.525 115.228  1.00  0.00     0.033 C 
ENDROOT
BRANCH   5   8
ATOM      8  C   UNL     1     122.868 119.627 112.477  1.00  0.00     0.015 C 
ATOM      9  C   UNL     1     121.818 119.184 113.515  1.00  0.00     0.010 C 
ATOM     10  C   UNL     1     122.235 120.650 111.515  1.00  0.00     0.010 C 
ENDBRANCH   5   8
BRANCH   5  11
ATOM     11  O   UNL     1     125.263 119.279 112.667  1.00  0.00    -0.389 OA
ATOM     12  H   UNL     1     126.125 119.762 112.772  1.00  0.00     0.211 HD
ENDBRANCH   5  11
TORSDOF 2
ENDMDL
MODEL 6
REMARK VINA RESULT:    -4.695      2.403      4.875
REMARK INTER + INTRA:          -5.263
REMARK INTER:                  -5.136
REMARK INTRA:                  -0.127
REMARK UNBOUND:                -0.156
REMARK SMILES CC1=CC[C@](O)(C(C)C)CC1
REMARK SMILES IDX 1 1 2 2 3 3 4 4 5 5 10 6 11 7 7 8 8 9 9 10 6 11
REMARK H PARENT 6 12
REMARK Flexibility Score: inf
ROOT
ATOM      1  C   UNL     1     125.650 122.043 112.599  1.00  0.00     0.039 C 
ATOM      2  C   UNL     1     124.487 121.109 112.785  1.00  0.00    -0.077 C 
ATOM      3  C   UNL     1     123.474 121.134 111.893  1.00  0.00    -0.025 C 
ATOM      4  C   UNL     1     122.242 120.271 112.023  1.00  0.00     0.062 C 
ATOM      5  C   UNL     1     122.501 118.988 112.849  1.00  0.00     0.071 C 
ATOM      6  C   UNL     1     123.191 119.414 114.171  1.00  0.00     0.040 C 
ATOM      7  C   UNL     1     124.547 120.080 113.898  1.00  0.00     0.033 C 
ENDROOT
BRANCH   5   8
ATOM      8  C   UNL     1     121.182 118.175 113.127  1.00  0.00     0.015 C 
ATOM      9  C   UNL     1     121.287 116.660 112.869  1.00  0.00     0.010 C 
ATOM     10  C   UNL     1     120.636 118.416 114.546  1.00  0.00     0.010 C 
ENDBRANCH   5   8
BRANCH   5  11
ATOM     11  O   UNL     1     123.385 118.175 112.107  1.00  0.00    -0.389 OA
ATOM     12  H   UNL     1     124.051 118.766 111.667  1.00  0.00     0.211 HD
ENDBRANCH   5  11
TORSDOF 2
ENDMDL
MODEL 7
REMARK VINA RESULT:    -4.691     14.866     15.609
REMARK INTER + INTRA:          -5.258
REMARK INTER:                  -5.157
REMARK INTRA:                  -0.102
REMARK UNBOUND:                -0.156
REMARK SMILES CC1=CC[C@](O)(C(C)C)CC1
REMARK SMILES IDX 1 1 2 2 3 3 4 4 5 5 10 6 11 7 7 8 8 9 9 10 6 11
REMARK H PARENT 6 12
REMARK Flexibility Score: inf
ROOT
ATOM      1  C   UNL     1     111.248 121.404 119.018  1.00  0.00     0.039 C 
ATOM      2  C   UNL     1     111.698 121.093 120.419  1.00  0.00    -0.077 C 
ATOM      3  C   UNL     1     110.941 120.281 121.187  1.00  0.00    -0.025 C 
ATOM      4  C   UNL     1     111.284 119.950 122.620  1.00  0.00     0.062 C 
ATOM      5  C   UNL     1     112.797 120.090 122.915  1.00  0.00     0.071 C 
ATOM      6  C   UNL     1     113.247 121.482 122.399  1.00  0.00     0.040 C 
ATOM      7  C   UNL     1     113.051 121.599 120.881  1.00  0.00     0.033 C 
ENDROOT
BRANCH   5   8
ATOM      8  C   UNL     1     113.130 119.911 124.443  1.00  0.00     0.015 C 
ATOM      9  C   UNL     1     112.374 118.764 125.142  1.00  0.00     0.010 C 
ATOM     10  C   UNL     1     114.641 119.758 124.698  1.00  0.00     0.010 C 
ENDBRANCH   5   8
BRANCH   5  11
ATOM     11  O   UNL     1     113.470 119.086 122.185  1.00  0.00    -0.389 OA
ATOM     12  H   UNL     1     113.832 119.499 121.357  1.00  0.00     0.211 HD
ENDBRANCH   5  11
TORSDOF 2
ENDMDL
MODEL 8
REMARK VINA RESULT:    -4.387      2.032      2.916
REMARK INTER + INTRA:          -4.928
REMARK INTER:                  -4.780
REMARK INTRA:                  -0.148
REMARK UNBOUND:                -0.156
REMARK SMILES CC1=CC[C@](O)(C(C)C)CC1
REMARK SMILES IDX 1 1 2 2 3 3 4 4 5 5 10 6 11 7 7 8 8 9 9 10 6 11
REMARK H PARENT 6 12
REMARK Flexibility Score: inf
ROOT
ATOM      1  C   UNL     1     120.991 117.536 113.356  1.00  0.00     0.039 C 
ATOM      2  C   UNL     1     122.230 118.359 113.134  1.00  0.00    -0.077 C 
ATOM      3  C   UNL     1     123.378 117.994 113.743  1.00  0.00    -0.025 C 
ATOM      4  C   UNL     1     124.659 118.785 113.623  1.00  0.00     0.062 C 
ATOM      5  C   UNL     1     124.716 119.628 112.326  1.00  0.00     0.071 C 
ATOM      6  C   UNL     1     123.394 120.434 112.235  1.00  0.00     0.040 C 
ATOM      7  C   UNL     1     122.181 119.499 112.135  1.00  0.00     0.033 C 
ENDROOT
BRANCH   5   8
ATOM      8  C   UNL     1     125.971 120.578 112.281  1.00  0.00     0.015 C 
ATOM      9  C   UNL     1     125.692 122.039 112.686  1.00  0.00     0.010 C 
ATOM     10  C   UNL     1     127.147 120.032 113.111  1.00  0.00     0.010 C 
ENDBRANCH   5   8
BRANCH   5  11
ATOM     11  O   UNL     1     124.788 118.733 111.237  1.00  0.00    -0.389 OA
ATOM     12  H   UNL     1     123.861 118.467 110.996  1.00  0.00     0.211 HD
ENDBRANCH   5  11
TORSDOF 2
ENDMDL
MODEL 9
REMARK VINA RESULT:    -4.197     13.628     14.501
REMARK INTER + INTRA:          -4.721
REMARK INTER:                  -4.602
REMARK INTRA:                  -0.119
REMARK UNBOUND:                -0.156
REMARK SMILES CC1=CC[C@](O)(C(C)C)CC1
REMARK SMILES IDX 1 1 2 2 3 3 4 4 5 5 10 6 11 7 7 8 8 9 9 10 6 11
REMARK H PARENT 6 12
REMARK Flexibility Score: inf
ROOT
ATOM      1  C   UNL     1     116.361 123.990 120.030  1.00  0.00     0.039 C 
ATOM      2  C   UNL     1     115.368 122.998 120.571  1.00  0.00    -0.077 C 
ATOM      3  C   UNL     1     115.820 121.909 121.228  1.00  0.00    -0.025 C 
ATOM      4  C   UNL     1     114.904 120.833 121.763  1.00  0.00     0.062 C 
ATOM      5  C   UNL     1     113.474 121.356 122.041  1.00  0.00     0.071 C 
ATOM      6  C   UNL     1     112.995 122.105 120.770  1.00  0.00     0.040 C 
ATOM      7  C   UNL     1     113.889 123.316 120.470  1.00  0.00     0.033 C 
ENDROOT
BRANCH   5   8
ATOM      8  C   UNL     1     112.479 120.202 122.435  1.00  0.00     0.015 C 
ATOM      9  C   UNL     1     112.025 120.213 123.908  1.00  0.00     0.010 C 
ATOM     10  C   UNL     1     111.242 120.159 121.519  1.00  0.00     0.010 C 
ENDBRANCH   5   8
BRANCH   5  11
ATOM     11  O   UNL     1     113.555 122.270 123.113  1.00  0.00    -0.389 OA
ATOM     12  H   UNL     1     113.028 123.077 122.869  1.00  0.00     0.211 HD
ENDBRANCH   5  11
TORSDOF 2
ENDMDL
