MODEL 1
REMARK VINA RESULT:    -5.344      0.000      0.000
REMARK INTER + INTRA:          -6.935
REMARK INTER:                  -6.437
REMARK INTRA:                  -0.498
REMARK UNBOUND:                -0.498
REMARK SMILES CCCCc1oc(O)c2ccccc12
REMARK SMILES IDX 4 1 5 2 7 3 6 4 9 5 14 6 10 7 13 8 11 9 12 10 8 11 3 13 2 14
REMARK SMILES IDX 1 15
REMARK H PARENT 8 12
REMARK Flexibility Score: inf
ROOT
ATOM      1  C   UNL     1       9.265 -13.247  -4.924  1.00  0.00     0.076 C 
ENDROOT
BRANCH   1   2
ATOM      2  C   UNL     1       8.097 -13.887  -5.610  1.00  0.00     0.116 A 
ATOM      3  C   UNL     1       6.882 -14.688  -7.186  1.00  0.00     0.290 A 
ATOM      4  O   UNL     1       8.023 -14.084  -6.915  1.00  0.00    -0.430 OA
ATOM      5  C   UNL     1       6.181 -14.902  -6.017  1.00  0.00     0.066 A 
ATOM      6  C   UNL     1       6.957 -14.393  -5.011  1.00  0.00     0.027 A 
ATOM      7  C   UNL     1       4.947 -15.501  -5.766  1.00  0.00     0.016 A 
ATOM      8  C   UNL     1       6.558 -14.447  -3.676  1.00  0.00     0.012 A 
ATOM      9  C   UNL     1       4.515 -15.568  -4.428  1.00  0.00     0.001 A 
ATOM     10  C   UNL     1       5.316 -15.046  -3.389  1.00  0.00     0.001 A 
BRANCH   3  11
ATOM     11  O   UNL     1       6.480 -15.045  -8.470  1.00  0.00    -0.480 OA
ATOM     12  H   UNL     1       7.097 -14.928  -9.264  1.00  0.00     0.297 HD
ENDBRANCH   3  11
ENDBRANCH   1   2
BRANCH   1  13
ATOM     13  C   UNL     1      10.438 -14.228  -4.836  1.00  0.00     0.008 C 
BRANCH  13  14
ATOM     14  C   UNL     1      10.248 -15.208  -3.672  1.00  0.00    -0.003 C 
ATOM     15  C   UNL     1       9.916 -14.469  -2.379  1.00  0.00     0.004 C 
ENDBRANCH  13  14
ENDBRANCH   1  13
TORSDOF 4
ENDMDL
MODEL 2
REMARK VINA RESULT:    -5.230      2.216      4.931
REMARK INTER + INTRA:          -6.797
REMARK INTER:                  -6.314
REMARK INTRA:                  -0.483
REMARK UNBOUND:                -0.498
REMARK SMILES CCCCc1oc(O)c2ccccc12
REMARK SMILES IDX 4 1 5 2 7 3 6 4 9 5 14 6 10 7 13 8 11 9 12 10 8 11 3 13 2 14
REMARK SMILES IDX 1 15
REMARK H PARENT 8 12
REMARK Flexibility Score: inf
ROOT
ATOM      1  C   UNL     1       6.003 -12.901  -4.490  1.00  0.00     0.076 C 
ENDROOT
BRANCH   1   2
ATOM      2  C   UNL     1       7.398 -13.340  -4.164  1.00  0.00     0.116 A 
ATOM      3  C   UNL     1       9.129 -13.840  -3.001  1.00  0.00     0.290 A 
ATOM      4  O   UNL     1       7.891 -13.391  -2.939  1.00  0.00    -0.430 OA
ATOM      5  C   UNL     1       9.464 -14.101  -4.313  1.00  0.00     0.066 A 
ATOM      6  C   UNL     1       8.358 -13.783  -5.056  1.00  0.00     0.027 A 
ATOM      7  C   UNL     1      10.631 -14.589  -4.899  1.00  0.00     0.016 A 
ATOM      8  C   UNL     1       8.337 -13.935  -6.443  1.00  0.00     0.012 A 
ATOM      9  C   UNL     1      10.641 -14.751  -6.297  1.00  0.00     0.001 A 
ATOM     10  C   UNL     1       9.500 -14.426  -7.065  1.00  0.00     0.001 A 
BRANCH   3  11
ATOM     11  O   UNL     1       9.945 -14.017  -1.887  1.00  0.00    -0.480 OA
ATOM     12  H   UNL     1       9.695 -14.666  -1.151  1.00  0.00     0.297 HD
ENDBRANCH   3  11
ENDBRANCH   1   2
BRANCH   1  13
ATOM     13  C   UNL     1       4.987 -13.684  -3.653  1.00  0.00     0.008 C 
BRANCH  13  14
ATOM     14  C   UNL     1       5.094 -15.188  -3.926  1.00  0.00    -0.003 C 
ATOM     15  C   UNL     1       4.635 -15.525  -5.342  1.00  0.00     0.004 C 
ENDBRANCH  13  14
ENDBRANCH   1  13
TORSDOF 4
ENDMDL
MODEL 3
REMARK VINA RESULT:    -5.110      2.046      4.688
REMARK INTER + INTRA:          -6.654
REMARK INTER:                  -6.137
REMARK INTRA:                  -0.516
REMARK UNBOUND:                -0.498
REMARK SMILES CCCCc1oc(O)c2ccccc12
REMARK SMILES IDX 4 1 5 2 7 3 6 4 9 5 14 6 10 7 13 8 11 9 12 10 8 11 3 13 2 14
REMARK SMILES IDX 1 15
REMARK H PARENT 8 12
REMARK Flexibility Score: inf
ROOT
ATOM      1  C   UNL     1       6.061 -14.304  -3.964  1.00  0.00     0.076 C 
ENDROOT
BRANCH   1   2
ATOM      2  C   UNL     1       7.386 -14.724  -4.524  1.00  0.00     0.116 A 
ATOM      3  C   UNL     1       9.366 -15.545  -4.604  1.00  0.00     0.290 A 
ATOM      4  O   UNL     1       8.350 -15.276  -3.808  1.00  0.00    -0.430 OA
ATOM      5  C   UNL     1       9.059 -15.163  -5.894  1.00  0.00     0.066 A 
ATOM      6  C   UNL     1       7.795 -14.640  -5.843  1.00  0.00     0.027 A 
ATOM      7  C   UNL     1       9.779 -15.238  -7.085  1.00  0.00     0.016 A 
ATOM      8  C   UNL     1       7.153 -14.157  -6.983  1.00  0.00     0.012 A 
ATOM      9  C   UNL     1       9.159 -14.756  -8.253  1.00  0.00     0.001 A 
ATOM     10  C   UNL     1       7.853 -14.219  -8.203  1.00  0.00     0.001 A 
BRANCH   3  11
ATOM     11  O   UNL     1      10.553 -16.133  -4.175  1.00  0.00    -0.480 OA
ATOM     12  H   UNL     1      10.862 -16.049  -3.214  1.00  0.00     0.297 HD
ENDBRANCH   3  11
ENDBRANCH   1   2
BRANCH   1  13
ATOM     13  C   UNL     1       5.083 -15.483  -3.963  1.00  0.00     0.008 C 
BRANCH  13  14
ATOM     14  C   UNL     1       4.211 -15.473  -5.224  1.00  0.00    -0.003 C 
ATOM     15  C   UNL     1       3.716 -14.065  -5.541  1.00  0.00     0.004 C 
ENDBRANCH  13  14
ENDBRANCH   1  13
TORSDOF 4
ENDMDL
MODEL 4
REMARK VINA RESULT:    -4.992      2.530      4.004
REMARK INTER + INTRA:          -6.511
REMARK INTER:                  -5.987
REMARK INTRA:                  -0.524
REMARK UNBOUND:                -0.498
REMARK SMILES CCCCc1oc(O)c2ccccc12
REMARK SMILES IDX 4 1 5 2 7 3 6 4 9 5 14 6 10 7 13 8 11 9 12 10 8 11 3 13 2 14
REMARK SMILES IDX 1 15
REMARK H PARENT 8 12
REMARK Flexibility Score: inf
ROOT
ATOM      1  C   UNL     1      10.907 -14.752  -6.561  1.00  0.00     0.076 C 
ENDROOT
BRANCH   1   2
ATOM      2  C   UNL     1      10.080 -14.633  -5.318  1.00  0.00     0.116 A 
ATOM      3  C   UNL     1       9.570 -14.236  -3.273  1.00  0.00     0.290 A 
ATOM      4  O   UNL     1      10.560 -14.262  -4.144  1.00  0.00    -0.430 OA
ATOM      5  C   UNL     1       8.393 -14.598  -3.896  1.00  0.00     0.066 A 
ATOM      6  C   UNL     1       8.719 -14.850  -5.202  1.00  0.00     0.027 A 
ATOM      7  C   UNL     1       7.086 -14.717  -3.425  1.00  0.00     0.016 A 
ATOM      8  C   UNL     1       7.758 -15.236  -6.137  1.00  0.00     0.012 A 
ATOM      9  C   UNL     1       6.095 -15.107  -4.344  1.00  0.00     0.001 A 
ATOM     10  C   UNL     1       6.429 -15.364  -5.693  1.00  0.00     0.001 A 
BRANCH   3  11
ATOM     11  O   UNL     1       9.724 -13.887  -1.934  1.00  0.00    -0.480 OA
ATOM     12  H   UNL     1      10.454 -13.250  -1.639  1.00  0.00     0.297 HD
ENDBRANCH   3  11
ENDBRANCH   1   2
BRANCH   1  13
ATOM     13  C   UNL     1      10.915 -13.426  -7.328  1.00  0.00     0.008 C 
BRANCH  13  14
ATOM     14  C   UNL     1      10.111 -13.539  -8.628  1.00  0.00    -0.003 C 
ATOM     15  C   UNL     1      10.014 -14.989  -9.092  1.00  0.00     0.004 C 
ENDBRANCH  13  14
ENDBRANCH   1  13
TORSDOF 4
ENDMDL
MODEL 5
REMARK VINA RESULT:    -4.890     10.536     12.184
REMARK INTER + INTRA:          -6.388
REMARK INTER:                  -6.147
REMARK INTRA:                  -0.241
REMARK UNBOUND:                -0.498
REMARK SMILES CCCCc1oc(O)c2ccccc12
REMARK SMILES IDX 4 1 5 2 7 3 6 4 9 5 14 6 10 7 13 8 11 9 12 10 8 11 3 13 2 14
REMARK SMILES IDX 1 15
REMARK H PARENT 8 12
REMARK Flexibility Score: inf
ROOT
ATOM      1  C   UNL     1       2.397 -22.990   1.916  1.00  0.00     0.076 C 
ENDROOT
BRANCH   1   2
ATOM      2  C   UNL     1       2.270 -23.887   0.722  1.00  0.00     0.116 A 
ATOM      3  C   UNL     1       2.006 -25.677  -0.429  1.00  0.00     0.290 A 
ATOM      4  O   UNL     1       2.109 -25.196   0.795  1.00  0.00    -0.430 OA
ATOM      5  C   UNL     1       2.097 -24.647  -1.342  1.00  0.00     0.066 A 
ATOM      6  C   UNL     1       2.263 -23.504  -0.607  1.00  0.00     0.027 A 
ATOM      7  C   UNL     1       2.040 -24.628  -2.735  1.00  0.00     0.016 A 
ATOM      8  C   UNL     1       2.382 -22.253  -1.212  1.00  0.00     0.012 A 
ATOM      9  C   UNL     1       2.160 -23.380  -3.375  1.00  0.00     0.001 A 
ATOM     10  C   UNL     1       2.329 -22.199  -2.618  1.00  0.00     0.001 A 
BRANCH   3  11
ATOM     11  O   UNL     1       1.829 -27.027  -0.719  1.00  0.00    -0.480 OA
ATOM     12  H   UNL     1       1.200 -27.603  -0.172  1.00  0.00     0.297 HD
ENDBRANCH   3  11
ENDBRANCH   1   2
BRANCH   1  13
ATOM     13  C   UNL     1       1.079 -22.256   2.177  1.00  0.00     0.008 C 
BRANCH  13  14
ATOM     14  C   UNL     1       1.202 -21.321   3.386  1.00  0.00    -0.003 C 
ATOM     15  C   UNL     1       0.875 -19.880   3.004  1.00  0.00     0.004 C 
ENDBRANCH  13  14
ENDBRANCH   1  13
TORSDOF 4
ENDMDL
MODEL 6
REMARK VINA RESULT:    -4.755      1.987      3.936
REMARK INTER + INTRA:          -6.226
REMARK INTER:                  -5.705
REMARK INTRA:                  -0.521
REMARK UNBOUND:                -0.498
REMARK SMILES CCCCc1oc(O)c2ccccc12
REMARK SMILES IDX 4 1 5 2 7 3 6 4 9 5 14 6 10 7 13 8 11 9 12 10 8 11 3 13 2 14
REMARK SMILES IDX 1 15
REMARK H PARENT 8 12
REMARK Flexibility Score: inf
ROOT
ATOM      1  C   UNL     1       7.982 -15.511  -4.545  1.00  0.00     0.076 C 
ENDROOT
BRANCH   1   2
ATOM      2  C   UNL     1       8.038 -15.188  -6.007  1.00  0.00     0.116 A 
ATOM      3  C   UNL     1       7.371 -14.825  -8.013  1.00  0.00     0.290 A 
ATOM      4  O   UNL     1       6.981 -15.168  -6.801  1.00  0.00    -0.430 OA
ATOM      5  C   UNL     1       8.733 -14.605  -8.019  1.00  0.00     0.066 A 
ATOM      6  C   UNL     1       9.159 -14.835  -6.738  1.00  0.00     0.027 A 
ATOM      7  C   UNL     1       9.611 -14.222  -9.031  1.00  0.00     0.016 A 
ATOM      8  C   UNL     1      10.497 -14.695  -6.373  1.00  0.00     0.012 A 
ATOM      9  C   UNL     1      10.970 -14.074  -8.694  1.00  0.00     0.001 A 
ATOM     10  C   UNL     1      11.410 -14.309  -7.372  1.00  0.00     0.001 A 
BRANCH   3  11
ATOM     11  O   UNL     1       6.508 -14.707  -9.099  1.00  0.00    -0.480 OA
ATOM     12  H   UNL     1       5.526 -14.937  -9.017  1.00  0.00     0.297 HD
ENDBRANCH   3  11
ENDBRANCH   1   2
BRANCH   1  13
ATOM     13  C   UNL     1       7.685 -14.249  -3.729  1.00  0.00     0.008 C 
BRANCH  13  14
ATOM     14  C   UNL     1       8.970 -13.666  -3.133  1.00  0.00    -0.003 C 
ATOM     15  C   UNL     1       9.869 -14.766  -2.575  1.00  0.00     0.004 C 
ENDBRANCH  13  14
ENDBRANCH   1  13
TORSDOF 4
ENDMDL
MODEL 7
REMARK VINA RESULT:    -4.739      1.418      4.337
REMARK INTER + INTRA:          -6.206
REMARK INTER:                  -5.864
REMARK INTRA:                  -0.341
REMARK UNBOUND:                -0.498
REMARK SMILES CCCCc1oc(O)c2ccccc12
REMARK SMILES IDX 4 1 5 2 7 3 6 4 9 5 14 6 10 7 13 8 11 9 12 10 8 11 3 13 2 14
REMARK SMILES IDX 1 15
REMARK H PARENT 8 12
REMARK Flexibility Score: inf
ROOT
ATOM      1  C   UNL     1       5.469 -15.494  -5.596  1.00  0.00     0.076 C 
ENDROOT
BRANCH   1   2
ATOM      2  C   UNL     1       6.932 -15.309  -5.859  1.00  0.00     0.116 A 
ATOM      3  C   UNL     1       8.795 -15.267  -6.921  1.00  0.00     0.290 A 
ATOM      4  O   UNL     1       7.512 -15.556  -7.020  1.00  0.00    -0.430 OA
ATOM      5  C   UNL     1       9.070 -14.806  -5.650  1.00  0.00     0.066 A 
ATOM      6  C   UNL     1       7.880 -14.831  -4.972  1.00  0.00     0.027 A 
ATOM      7  C   UNL     1      10.251 -14.370  -5.051  1.00  0.00     0.016 A 
ATOM      8  C   UNL     1       7.783 -14.417  -3.644  1.00  0.00     0.012 A 
ATOM      9  C   UNL     1      10.186 -13.948  -3.710  1.00  0.00     0.001 A 
ATOM     10  C   UNL     1       8.958 -13.970  -3.011  1.00  0.00     0.001 A 
BRANCH   3  11
ATOM     11  O   UNL     1       9.705 -15.412  -7.964  1.00  0.00    -0.480 OA
ATOM     12  H   UNL     1      10.676 -15.639  -7.786  1.00  0.00     0.297 HD
ENDBRANCH   3  11
ENDBRANCH   1   2
BRANCH   1  13
ATOM     13  C   UNL     1       4.696 -14.219  -5.947  1.00  0.00     0.008 C 
BRANCH  13  14
ATOM     14  C   UNL     1       3.337 -14.189  -5.239  1.00  0.00    -0.003 C 
ATOM     15  C   UNL     1       3.331 -15.102  -4.017  1.00  0.00     0.004 C 
ENDBRANCH  13  14
ENDBRANCH   1  13
TORSDOF 4
ENDMDL
MODEL 8
REMARK VINA RESULT:    -4.703      1.986      4.450
REMARK INTER + INTRA:          -6.163
REMARK INTER:                  -5.612
REMARK INTRA:                  -0.552
REMARK UNBOUND:                -0.498
REMARK SMILES CCCCc1oc(O)c2ccccc12
REMARK SMILES IDX 4 1 5 2 7 3 6 4 9 5 14 6 10 7 13 8 11 9 12 10 8 11 3 13 2 14
REMARK SMILES IDX 1 15
REMARK H PARENT 8 12
REMARK Flexibility Score: inf
ROOT
ATOM      1  C   UNL     1       6.681 -15.485  -7.086  1.00  0.00     0.076 C 
ENDROOT
BRANCH   1   2
ATOM      2  C   UNL     1       6.926 -14.998  -5.691  1.00  0.00     0.116 A 
ATOM      3  C   UNL     1       6.529 -14.192  -3.743  1.00  0.00     0.290 A 
ATOM      4  O   UNL     1       5.987 -14.501  -4.905  1.00  0.00    -0.430 OA
ATOM      5  C   UNL     1       7.873 -14.502  -3.761  1.00  0.00     0.066 A 
ATOM      6  C   UNL     1       8.127 -15.018  -5.004  1.00  0.00     0.027 A 
ATOM      7  C   UNL     1       8.872 -14.377  -2.796  1.00  0.00     0.016 A 
ATOM      8  C   UNL     1       9.400 -15.452  -5.373  1.00  0.00     0.012 A 
ATOM      9  C   UNL     1      10.168 -14.805  -3.140  1.00  0.00     0.001 A 
ATOM     10  C   UNL     1      10.430 -15.341  -4.421  1.00  0.00     0.001 A 
BRANCH   3  11
ATOM     11  O   UNL     1       5.820 -13.642  -2.679  1.00  0.00    -0.480 OA
ATOM     12  H   UNL     1       5.834 -12.646  -2.498  1.00  0.00     0.297 HD
ENDBRANCH   3  11
ENDBRANCH   1   2
BRANCH   1  13
ATOM     13  C   UNL     1       6.849 -14.341  -8.091  1.00  0.00     0.008 C 
BRANCH  13  14
ATOM     14  C   UNL     1       8.218 -14.411  -8.777  1.00  0.00    -0.003 C 
ATOM     15  C   UNL     1       9.084 -13.211  -8.405  1.00  0.00     0.004 C 
ENDBRANCH  13  14
ENDBRANCH   1  13
TORSDOF 4
ENDMDL
