MODEL 1
REMARK VINA RESULT:    -5.870      0.000      0.000
REMARK INTER + INTRA:          -9.088
REMARK INTER:                  -7.930
REMARK INTRA:                  -1.159
REMARK UNBOUND:                -1.159
REMARK SMILES C=CC(C)=CCC=C(C)CCC=C(C)C
REMARK SMILES IDX 8 1 7 2 9 3 10 4 11 5 12 6 14 7 13 8 15 9 6 10 5 11 3 12
REMARK SMILES IDX 4 13 2 14 1 15
REMARK H PARENT
REMARK Flexibility Score: inf
ROOT
ATOM      1  C   UNL     1     104.763 102.973 125.851  1.00  0.00    -0.077 C 
ATOM      2  C   UNL     1     104.595 103.429 127.114  1.00  0.00    -0.024 C 
ATOM      3  C   UNL     1     104.397 103.814 124.650  1.00  0.00     0.039 C 
ENDROOT
BRANCH   1   4
ATOM      4  C   UNL     1     105.336 101.587 125.636  1.00  0.00     0.034 C 
BRANCH   4   5
ATOM      5  C   UNL     1     106.848 101.546 125.903  1.00  0.00     0.032 C 
BRANCH   5   6
ATOM      6  C   UNL     1     107.176 100.768 127.155  1.00  0.00    -0.028 C 
ATOM      7  C   UNL     1     107.801 102.807 128.467  1.00  0.00     0.039 C 
ATOM      8  C   UNL     1     107.575 101.322 128.321  1.00  0.00    -0.080 C 
ATOM      9  C   UNL     1     107.816 100.414 129.500  1.00  0.00     0.039 C 
ENDBRANCH   5   6
ENDBRANCH   4   5
ENDBRANCH   1   4
BRANCH   2  10
ATOM     10  C   UNL     1     104.079 104.804 127.453  1.00  0.00     0.055 C 
BRANCH  10  11
ATOM     11  C   UNL     1     102.888 104.725 128.374  1.00  0.00    -0.020 C 
ATOM     12  C   UNL     1     101.609 104.782 127.952  1.00  0.00    -0.055 C 
ATOM     13  C   UNL     1     100.504 104.721 128.979  1.00  0.00     0.044 C 
BRANCH  12  14
ATOM     14  C   UNL     1     101.273 104.929 126.507  1.00  0.00    -0.005 C 
ATOM     15  C   UNL     1     100.958 106.094 125.942  1.00  0.00     0.009 C 
ENDBRANCH  12  14
ENDBRANCH  10  11
ENDBRANCH   2  10
TORSDOF 6
ENDMDL
MODEL 2
REMARK VINA RESULT:    -5.855      5.618      6.622
REMARK INTER + INTRA:          -9.067
REMARK INTER:                  -7.597
REMARK INTRA:                  -1.469
REMARK UNBOUND:                -1.159
REMARK SMILES C=CC(C)=CCC=C(C)CCC=C(C)C
REMARK SMILES IDX 8 1 7 2 9 3 10 4 11 5 12 6 14 7 13 8 15 9 6 10 5 11 3 12
REMARK SMILES IDX 4 13 2 14 1 15
REMARK H PARENT
REMARK Flexibility Score: inf
ROOT
ATOM      1  C   UNL     1     108.327 107.750 127.507  1.00  0.00    -0.077 C 
ATOM      2  C   UNL     1     108.433 108.940 128.141  1.00  0.00    -0.024 C 
ATOM      3  C   UNL     1     107.402 106.665 128.010  1.00  0.00     0.039 C 
ENDROOT
BRANCH   1   4
ATOM      4  C   UNL     1     109.151 107.500 126.261  1.00  0.00     0.034 C 
BRANCH   4   5
ATOM      5  C   UNL     1     110.658 107.542 126.555  1.00  0.00     0.032 C 
BRANCH   5   6
ATOM      6  C   UNL     1     111.104 106.355 127.375  1.00  0.00    -0.028 C 
ATOM      7  C   UNL     1     111.857 107.754 129.310  1.00  0.00     0.039 C 
ATOM      8  C   UNL     1     111.615 106.432 128.623  1.00  0.00    -0.080 C 
ATOM      9  C   UNL     1     111.967 105.150 129.333  1.00  0.00     0.039 C 
ENDBRANCH   5   6
ENDBRANCH   4   5
ENDBRANCH   1   4
BRANCH   2  10
ATOM     10  C   UNL     1     107.632 109.323 129.359  1.00  0.00     0.055 C 
BRANCH  10  11
ATOM     11  C   UNL     1     106.896 110.620 129.140  1.00  0.00    -0.020 C 
ATOM     12  C   UNL     1     105.600 110.693 128.775  1.00  0.00    -0.055 C 
ATOM     13  C   UNL     1     104.984 112.055 128.559  1.00  0.00     0.044 C 
BRANCH  12  14
ATOM     14  C   UNL     1     104.782 109.466 128.559  1.00  0.00    -0.005 C 
ATOM     15  C   UNL     1     104.477 108.990 127.352  1.00  0.00     0.009 C 
ENDBRANCH  12  14
ENDBRANCH  10  11
ENDBRANCH   2  10
TORSDOF 6
ENDMDL
MODEL 3
REMARK VINA RESULT:    -5.809      4.719      6.912
REMARK INTER + INTRA:          -9.005
REMARK INTER:                  -7.619
REMARK INTRA:                  -1.386
REMARK UNBOUND:                -1.159
REMARK SMILES C=CC(C)=CCC=C(C)CCC=C(C)C
REMARK SMILES IDX 8 1 7 2 9 3 10 4 11 5 12 6 14 7 13 8 15 9 6 10 5 11 3 12
REMARK SMILES IDX 4 13 2 14 1 15
REMARK H PARENT
REMARK Flexibility Score: inf
ROOT
ATOM      1  C   UNL     1     104.739 108.514 127.125  1.00  0.00    -0.077 C 
ATOM      2  C   UNL     1     103.706 108.548 127.997  1.00  0.00    -0.024 C 
ATOM      3  C   UNL     1     105.849 107.496 127.251  1.00  0.00     0.039 C 
ENDROOT
BRANCH   1   4
ATOM      4  C   UNL     1     104.783 109.519 125.992  1.00  0.00     0.034 C 
BRANCH   4   5
ATOM      5  C   UNL     1     104.809 110.965 126.511  1.00  0.00     0.032 C 
BRANCH   5   6
ATOM      6  C   UNL     1     106.046 111.244 127.331  1.00  0.00    -0.028 C 
ATOM      7  C   UNL     1     104.756 111.844 129.392  1.00  0.00     0.039 C 
ATOM      8  C   UNL     1     106.040 111.609 128.632  1.00  0.00    -0.080 C 
ATOM      9  C   UNL     1     107.362 111.802 129.329  1.00  0.00     0.039 C 
ENDBRANCH   5   6
ENDBRANCH   4   5
ENDBRANCH   1   4
BRANCH   2  10
ATOM     10  C   UNL     1     103.528 107.574 129.134  1.00  0.00     0.055 C 
BRANCH  10  11
ATOM     11  C   UNL     1     102.181 106.900 129.067  1.00  0.00    -0.020 C 
ATOM     12  C   UNL     1     102.008 105.602 128.749  1.00  0.00    -0.055 C 
ATOM     13  C   UNL     1     100.602 105.053 128.688  1.00  0.00     0.044 C 
BRANCH  12  14
ATOM     14  C   UNL     1     103.166 104.717 128.434  1.00  0.00    -0.005 C 
ATOM     15  C   UNL     1     103.521 104.386 127.193  1.00  0.00     0.009 C 
ENDBRANCH  12  14
ENDBRANCH  10  11
ENDBRANCH   2  10
TORSDOF 6
ENDMDL
MODEL 4
REMARK VINA RESULT:    -5.799      4.113      6.449
REMARK INTER + INTRA:          -8.992
REMARK INTER:                  -7.841
REMARK INTRA:                  -1.151
REMARK UNBOUND:                -1.159
REMARK SMILES C=CC(C)=CCC=C(C)CCC=C(C)C
REMARK SMILES IDX 8 1 7 2 9 3 10 4 11 5 12 6 14 7 13 8 15 9 6 10 5 11 3 12
REMARK SMILES IDX 4 13 2 14 1 15
REMARK H PARENT
REMARK Flexibility Score: inf
ROOT
ATOM      1  C   UNL     1     103.104 107.607 125.819  1.00  0.00    -0.077 C 
ATOM      2  C   UNL     1     103.486 107.864 127.091  1.00  0.00    -0.024 C 
ATOM      3  C   UNL     1     104.043 107.814 124.652  1.00  0.00     0.039 C 
ENDROOT
BRANCH   1   4
ATOM      4  C   UNL     1     101.702 107.097 125.558  1.00  0.00     0.034 C 
BRANCH   4   5
ATOM      5  C   UNL     1     101.581 105.590 125.834  1.00  0.00     0.032 C 
BRANCH   5   6
ATOM      6  C   UNL     1     100.815 105.312 127.105  1.00  0.00    -0.028 C 
ATOM      7  C   UNL     1     102.852 104.615 128.385  1.00  0.00     0.039 C 
ATOM      8  C   UNL     1     101.374 104.904 128.265  1.00  0.00    -0.080 C 
ATOM      9  C   UNL     1     100.481 104.718 129.465  1.00  0.00     0.039 C 
ENDBRANCH   5   6
ENDBRANCH   4   5
ENDBRANCH   1   4
BRANCH   2  10
ATOM     10  C   UNL     1     104.866 108.330 127.480  1.00  0.00     0.055 C 
BRANCH  10  11
ATOM     11  C   UNL     1     104.798 109.500 128.427  1.00  0.00    -0.020 C 
ATOM     12  C   UNL     1     104.810 110.788 128.030  1.00  0.00    -0.055 C 
ATOM     13  C   UNL     1     104.764 111.871 129.081  1.00  0.00     0.044 C 
BRANCH  12  14
ATOM     14  C   UNL     1     104.892 111.156 126.587  1.00  0.00    -0.005 C 
ATOM     15  C   UNL     1     106.015 111.560 125.996  1.00  0.00     0.009 C 
ENDBRANCH  12  14
ENDBRANCH  10  11
ENDBRANCH   2  10
TORSDOF 6
ENDMDL
MODEL 5
REMARK VINA RESULT:    -5.776      1.652      6.286
REMARK INTER + INTRA:          -8.961
REMARK INTER:                  -7.554
REMARK INTRA:                  -1.407
REMARK UNBOUND:                -1.159
REMARK SMILES C=CC(C)=CCC=C(C)CCC=C(C)C
REMARK SMILES IDX 8 1 7 2 9 3 10 4 11 5 12 6 14 7 13 8 15 9 6 10 5 11 3 12
REMARK SMILES IDX 4 13 2 14 1 15
REMARK H PARENT
REMARK Flexibility Score: inf
ROOT
ATOM      1  C   UNL     1     103.994 104.813 127.307  1.00  0.00    -0.077 C 
ATOM      2  C   UNL     1     104.013 103.671 128.031  1.00  0.00    -0.024 C 
ATOM      3  C   UNL     1     104.879 105.987 127.656  1.00  0.00     0.039 C 
ENDROOT
BRANCH   1   4
ATOM      4  C   UNL     1     103.065 104.916 126.114  1.00  0.00     0.034 C 
BRANCH   4   5
ATOM      5  C   UNL     1     101.588 104.847 126.532  1.00  0.00     0.032 C 
BRANCH   5   6
ATOM      6  C   UNL     1     101.183 106.042 127.363  1.00  0.00    -0.028 C 
ATOM      7  C   UNL     1     100.681 104.675 129.400  1.00  0.00     0.039 C 
ATOM      8  C   UNL     1     100.804 105.985 128.658  1.00  0.00    -0.080 C 
ATOM      9  C   UNL     1     100.478 107.274 129.367  1.00  0.00     0.039 C 
ENDBRANCH   5   6
ENDBRANCH   4   5
ENDBRANCH   1   4
BRANCH   2  10
ATOM     10  C   UNL     1     104.925 103.432 129.207  1.00  0.00     0.055 C 
BRANCH  10  11
ATOM     11  C   UNL     1     105.588 102.081 129.115  1.00  0.00    -0.020 C 
ATOM     12  C   UNL     1     106.861 101.897 128.711  1.00  0.00    -0.055 C 
ATOM     13  C   UNL     1     107.401 100.489 128.635  1.00  0.00     0.044 C 
BRANCH  12  14
ATOM     14  C   UNL     1     107.726 103.047 128.319  1.00  0.00    -0.005 C 
ATOM     15  C   UNL     1     107.949 103.400 127.054  1.00  0.00     0.009 C 
ENDBRANCH  12  14
ENDBRANCH  10  11
ENDBRANCH   2  10
TORSDOF 6
ENDMDL
MODEL 6
REMARK VINA RESULT:    -5.758      1.381      3.335
REMARK INTER + INTRA:          -8.937
REMARK INTER:                  -7.712
REMARK INTRA:                  -1.224
REMARK UNBOUND:                -1.159
REMARK SMILES C=CC(C)=CCC=C(C)CCC=C(C)C
REMARK SMILES IDX 8 1 7 2 9 3 10 4 11 5 12 6 14 7 13 8 15 9 6 10 5 11 3 12
REMARK SMILES IDX 4 13 2 14 1 15
REMARK H PARENT
REMARK Flexibility Score: inf
ROOT
ATOM      1  C   UNL     1     106.115 101.808 128.874  1.00  0.00    -0.077 C 
ATOM      2  C   UNL     1     105.816 103.122 128.760  1.00  0.00    -0.024 C 
ATOM      3  C   UNL     1     105.089 100.800 129.341  1.00  0.00     0.039 C 
ENDROOT
BRANCH   1   4
ATOM      4  C   UNL     1     107.509 101.334 128.521  1.00  0.00     0.034 C 
BRANCH   4   5
ATOM      5  C   UNL     1     107.561 100.698 127.123  1.00  0.00     0.032 C 
BRANCH   5   6
ATOM      6  C   UNL     1     107.663 101.742 126.036  1.00  0.00    -0.028 C 
ATOM      7  C   UNL     1     105.297 101.434 125.278  1.00  0.00     0.039 C 
ATOM      8  C   UNL     1     106.649 102.104 125.221  1.00  0.00    -0.080 C 
ATOM      9  C   UNL     1     106.893 103.200 124.216  1.00  0.00     0.039 C 
ENDBRANCH   5   6
ENDBRANCH   4   5
ENDBRANCH   1   4
BRANCH   2  10
ATOM     10  C   UNL     1     104.454 103.706 129.035  1.00  0.00     0.055 C 
BRANCH  10  11
ATOM     11  C   UNL     1     103.744 104.058 127.753  1.00  0.00    -0.020 C 
ATOM     12  C   UNL     1     102.563 104.707 127.704  1.00  0.00    -0.055 C 
ATOM     13  C   UNL     1     101.940 104.976 126.355  1.00  0.00     0.044 C 
BRANCH  12  14
ATOM     14  C   UNL     1     101.859 105.134 128.946  1.00  0.00    -0.005 C 
ATOM     15  C   UNL     1     100.608 104.778 129.241  1.00  0.00     0.009 C 
ENDBRANCH  12  14
ENDBRANCH  10  11
ENDBRANCH   2  10
TORSDOF 6
ENDMDL
MODEL 7
REMARK VINA RESULT:    -5.740      6.679      9.344
REMARK INTER + INTRA:          -8.912
REMARK INTER:                  -7.710
REMARK INTRA:                  -1.202
REMARK UNBOUND:                -1.159
REMARK SMILES C=CC(C)=CCC=C(C)CCC=C(C)C
REMARK SMILES IDX 8 1 7 2 9 3 10 4 11 5 12 6 14 7 13 8 15 9 6 10 5 11 3 12
REMARK SMILES IDX 4 13 2 14 1 15
REMARK H PARENT
REMARK Flexibility Score: inf
ROOT
ATOM      1  C   UNL     1     106.375 110.368 128.796  1.00  0.00    -0.077 C 
ATOM      2  C   UNL     1     106.827 109.106 128.613  1.00  0.00    -0.024 C 
ATOM      3  C   UNL     1     107.260 111.451 129.369  1.00  0.00     0.039 C 
ENDROOT
BRANCH   1   4
ATOM      4  C   UNL     1     104.948 110.704 128.414  1.00  0.00     0.034 C 
BRANCH   4   5
ATOM      5  C   UNL     1     104.878 111.478 127.089  1.00  0.00     0.032 C 
BRANCH   5   6
ATOM      6  C   UNL     1     104.954 110.556 125.896  1.00  0.00    -0.028 C 
ATOM      7  C   UNL     1     107.293 111.229 125.306  1.00  0.00     0.039 C 
ATOM      8  C   UNL     1     106.040 110.411 125.105  1.00  0.00    -0.080 C 
ATOM      9  C   UNL     1     105.977 109.410 123.980  1.00  0.00     0.039 C 
ENDBRANCH   5   6
ENDBRANCH   4   5
ENDBRANCH   1   4
BRANCH   2  10
ATOM     10  C   UNL     1     108.237 108.664 128.910  1.00  0.00     0.055 C 
BRANCH  10  11
ATOM     11  C   UNL     1     108.994 108.369 127.640  1.00  0.00    -0.020 C 
ATOM     12  C   UNL     1     110.173 107.717 127.604  1.00  0.00    -0.055 C 
ATOM     13  C   UNL     1     110.845 107.509 126.268  1.00  0.00     0.044 C 
BRANCH  12  14
ATOM     14  C   UNL     1     110.829 107.227 128.850  1.00  0.00    -0.005 C 
ATOM     15  C   UNL     1     111.955 107.745 129.339  1.00  0.00     0.009 C 
ENDBRANCH  12  14
ENDBRANCH  10  11
ENDBRANCH   2  10
TORSDOF 6
ENDMDL
MODEL 8
REMARK VINA RESULT:    -5.726      4.085      6.426
REMARK INTER + INTRA:          -8.893
REMARK INTER:                  -7.812
REMARK INTRA:                  -1.082
REMARK UNBOUND:                -1.159
REMARK SMILES C=CC(C)=CCC=C(C)CCC=C(C)C
REMARK SMILES IDX 8 1 7 2 9 3 10 4 11 5 12 6 14 7 13 8 15 9 6 10 5 11 3 12
REMARK SMILES IDX 4 13 2 14 1 15
REMARK H PARENT
REMARK Flexibility Score: inf
ROOT
ATOM      1  C   UNL     1     109.612 104.698 125.364  1.00  0.00    -0.077 C 
ATOM      2  C   UNL     1     108.941 104.679 126.538  1.00  0.00    -0.024 C 
ATOM      3  C   UNL     1     109.068 104.015 124.130  1.00  0.00     0.039 C 
ENDROOT
BRANCH   1   4
ATOM      4  C   UNL     1     110.939 105.425 125.282  1.00  0.00     0.034 C 
BRANCH   4   5
ATOM      5  C   UNL     1     110.831 106.871 125.789  1.00  0.00     0.032 C 
BRANCH   5   6
ATOM      6  C   UNL     1     111.624 107.081 127.057  1.00  0.00    -0.028 C 
ATOM      7  C   UNL     1     109.631 107.798 128.392  1.00  0.00     0.039 C 
ATOM      8  C   UNL     1     111.096 107.467 128.239  1.00  0.00    -0.080 C 
ATOM      9  C   UNL     1     112.013 107.585 129.429  1.00  0.00     0.039 C 
ENDBRANCH   5   6
ENDBRANCH   4   5
ENDBRANCH   1   4
BRANCH   2  10
ATOM     10  C   UNL     1     107.594 104.031 126.731  1.00  0.00     0.055 C 
BRANCH  10  11
ATOM     11  C   UNL     1     107.667 102.920 127.747  1.00  0.00    -0.020 C 
ATOM     12  C   UNL     1     107.477 101.619 127.451  1.00  0.00    -0.055 C 
ATOM     13  C   UNL     1     107.548 100.603 128.566  1.00  0.00     0.044 C 
BRANCH  12  14
ATOM     14  C   UNL     1     107.176 101.175 126.060  1.00  0.00    -0.005 C 
ATOM     15  C   UNL     1     105.943 100.928 125.618  1.00  0.00     0.009 C 
ENDBRANCH  12  14
ENDBRANCH  10  11
ENDBRANCH   2  10
TORSDOF 6
ENDMDL
MODEL 9
REMARK VINA RESULT:    -5.721      4.558      7.369
REMARK INTER + INTRA:          -8.886
REMARK INTER:                  -7.698
REMARK INTRA:                  -1.188
REMARK UNBOUND:                -1.159
REMARK SMILES C=CC(C)=CCC=C(C)CCC=C(C)C
REMARK SMILES IDX 8 1 7 2 9 3 10 4 11 5 12 6 14 7 13 8 15 9 6 10 5 11 3 12
REMARK SMILES IDX 4 13 2 14 1 15
REMARK H PARENT
REMARK Flexibility Score: inf
ROOT
ATOM      1  C   UNL     1     110.698 106.159 128.878  1.00  0.00    -0.077 C 
ATOM      2  C   UNL     1     109.389 105.848 128.741  1.00  0.00    -0.024 C 
ATOM      3  C   UNL     1     111.705 105.148 129.379  1.00  0.00     0.039 C 
ENDROOT
BRANCH   1   4
ATOM      4  C   UNL     1     111.168 107.553 128.518  1.00  0.00     0.034 C 
BRANCH   4   5
ATOM      5  C   UNL     1     111.789 107.602 127.113  1.00  0.00     0.032 C 
BRANCH   5   6
ATOM      6  C   UNL     1     110.733 107.660 126.035  1.00  0.00    -0.028 C 
ATOM      7  C   UNL     1     111.135 105.309 125.272  1.00  0.00     0.039 C 
ATOM      8  C   UNL     1     110.408 106.631 125.222  1.00  0.00    -0.080 C 
ATOM      9  C   UNL     1     109.294 106.830 124.226  1.00  0.00     0.039 C 
ENDBRANCH   5   6
ENDBRANCH   4   5
ENDBRANCH   1   4
BRANCH   2  10
ATOM     10  C   UNL     1     108.812 104.484 129.023  1.00  0.00     0.055 C 
BRANCH  10  11
ATOM     11  C   UNL     1     108.380 103.803 127.749  1.00  0.00    -0.020 C 
ATOM     12  C   UNL     1     107.911 102.541 127.696  1.00  0.00    -0.055 C 
ATOM     13  C   UNL     1     107.538 101.962 126.352  1.00  0.00     0.044 C 
BRANCH  12  14
ATOM     14  C   UNL     1     107.781 101.708 128.925  1.00  0.00    -0.005 C 
ATOM     15  C   UNL     1     107.296 100.466 128.923  1.00  0.00     0.009 C 
ENDBRANCH  12  14
ENDBRANCH  10  11
ENDBRANCH   2  10
TORSDOF 6
ENDMDL
