MODEL 1
REMARK VINA RESULT:    -3.336      0.000      0.000
REMARK INTER + INTRA:          -8.288
REMARK INTER:                  -6.067
REMARK INTRA:                  -2.221
REMARK UNBOUND:                -2.221
REMARK SMILES CCCCCCCCCCCCCCCC(=O)[O-]
REMARK SMILES IDX 9 1 10 2 11 3 12 4 13 5 14 6 15 7 16 8 17 9 18 10 8 11 7 12
REMARK SMILES IDX 6 13 5 14 4 15 3 16 2 17 1 18
REMARK H PARENT
REMARK Flexibility Score: inf
ROOT
ATOM      1  C   UNL     1      61.215  35.667  60.812  1.00  0.00     0.000 C 
ENDROOT
BRANCH   1   2
ATOM      2  C   UNL     1      60.968  35.126  59.393  1.00  0.00     0.000 C 
BRANCH   2   3
ATOM      3  C   UNL     1      60.839  33.594  59.357  1.00  0.00     0.000 C 
BRANCH   3   4
ATOM      4  C   UNL     1      61.200  32.940  60.701  1.00  0.00     0.000 C 
BRANCH   4   5
ATOM      5  C   UNL     1      61.031  31.412  60.678  1.00  0.00     0.000 C 
BRANCH   5   6
ATOM      6  C   UNL     1      61.249  30.770  62.060  1.00  0.00     0.006 C 
BRANCH   6   7
ATOM      7  C   UNL     1      61.979  29.423  61.964  1.00  0.00     0.053 C 
BRANCH   7   8
ATOM      8  C   UNL     1      63.347  29.575  61.372  1.00  0.00     0.041 C 
ATOM      9  O   UNL     1      64.141  30.440  61.828  1.00  0.00    -0.550 OA
ATOM     10  O   UNL     1      63.732  28.786  60.296  1.00  0.00    -0.550 OA
ENDBRANCH   7   8
ENDBRANCH   6   7
ENDBRANCH   5   6
ENDBRANCH   4   5
ENDBRANCH   3   4
ENDBRANCH   2   3
ENDBRANCH   1   2
BRANCH   1  11
ATOM     11  C   UNL     1      61.945  37.019  60.807  1.00  0.00     0.000 C 
BRANCH  11  12
ATOM     12  C   UNL     1      63.167  37.030  61.742  1.00  0.00    -0.000 C 
BRANCH  12  13
ATOM     13  C   UNL     1      64.362  36.257  61.162  1.00  0.00    -0.000 C 
BRANCH  13  14
ATOM     14  C   UNL     1      64.520  34.861  61.783  1.00  0.00    -0.000 C 
BRANCH  14  15
ATOM     15  C   UNL     1      64.499  33.772  60.698  1.00  0.00    -0.000 C 
BRANCH  15  16
ATOM     16  C   UNL     1      64.693  34.341  59.284  1.00  0.00    -0.000 C 
BRANCH  16  17
ATOM     17  C   UNL     1      64.153  33.406  58.192  1.00  0.00    -0.003 C 
ATOM     18  C   UNL     1      64.262  31.945  58.617  1.00  0.00     0.004 C 
ENDBRANCH  16  17
ENDBRANCH  15  16
ENDBRANCH  14  15
ENDBRANCH  13  14
ENDBRANCH  12  13
ENDBRANCH  11  12
ENDBRANCH   1  11
TORSDOF 14
ENDMDL
MODEL 2
REMARK VINA RESULT:    -3.227     11.990     13.791
REMARK INTER + INTRA:          -8.090
REMARK INTER:                  -6.536
REMARK INTRA:                  -1.554
REMARK UNBOUND:                -2.221
REMARK SMILES CCCCCCCCCCCCCCCC(=O)[O-]
REMARK SMILES IDX 9 1 10 2 11 3 12 4 13 5 14 6 15 7 16 8 17 9 18 10 8 11 7 12
REMARK SMILES IDX 6 13 5 14 4 15 3 16 2 17 1 18
REMARK H PARENT
REMARK Flexibility Score: inf
ROOT
ATOM      1  C   UNL     1      59.924  25.750  50.446  1.00  0.00     0.000 C 
ENDROOT
BRANCH   1   2
ATOM      2  C   UNL     1      60.540  24.399  50.043  1.00  0.00     0.000 C 
BRANCH   2   3
ATOM      3  C   UNL     1      62.009  24.264  50.476  1.00  0.00     0.000 C 
BRANCH   3   4
ATOM      4  C   UNL     1      62.617  25.604  50.927  1.00  0.00     0.000 C 
BRANCH   4   5
ATOM      5  C   UNL     1      63.721  26.100  49.979  1.00  0.00     0.000 C 
BRANCH   5   6
ATOM      6  C   UNL     1      63.614  27.606  49.679  1.00  0.00     0.006 C 
BRANCH   6   7
ATOM      7  C   UNL     1      63.728  27.907  48.178  1.00  0.00     0.053 C 
BRANCH   7   8
ATOM      8  C   UNL     1      64.301  29.268  47.928  1.00  0.00     0.041 C 
ATOM      9  O   UNL     1      65.197  29.427  47.056  1.00  0.00    -0.550 OA
ATOM     10  O   UNL     1      63.872  30.354  48.680  1.00  0.00    -0.550 OA
ENDBRANCH   7   8
ENDBRANCH   6   7
ENDBRANCH   5   6
ENDBRANCH   4   5
ENDBRANCH   3   4
ENDBRANCH   2   3
ENDBRANCH   1   2
BRANCH   1  11
ATOM     11  C   UNL     1      59.520  26.599  49.231  1.00  0.00     0.000 C 
BRANCH  11  12
ATOM     12  C   UNL     1      59.955  28.069  49.369  1.00  0.00    -0.000 C 
BRANCH  12  13
ATOM     13  C   UNL     1      58.768  29.044  49.307  1.00  0.00    -0.000 C 
BRANCH  13  14
ATOM     14  C   UNL     1      58.191  29.362  50.694  1.00  0.00    -0.000 C 
BRANCH  14  15
ATOM     15  C   UNL     1      57.107  28.344  51.083  1.00  0.00    -0.000 C 
BRANCH  15  16
ATOM     16  C   UNL     1      55.753  28.637  50.418  1.00  0.00    -0.000 C 
BRANCH  16  17
ATOM     17  C   UNL     1      54.961  27.360  50.101  1.00  0.00    -0.003 C 
ATOM     18  C   UNL     1      55.882  26.146  50.029  1.00  0.00     0.004 C 
ENDBRANCH  16  17
ENDBRANCH  15  16
ENDBRANCH  14  15
ENDBRANCH  13  14
ENDBRANCH  12  13
ENDBRANCH  11  12
ENDBRANCH   1  11
TORSDOF 14
ENDMDL
MODEL 3
REMARK VINA RESULT:    -3.208      1.522      3.184
REMARK INTER + INTRA:          -8.056
REMARK INTER:                  -5.693
REMARK INTRA:                  -2.363
REMARK UNBOUND:                -2.221
REMARK SMILES CCCCCCCCCCCCCCCC(=O)[O-]
REMARK SMILES IDX 9 1 10 2 11 3 12 4 13 5 14 6 15 7 16 8 17 9 18 10 8 11 7 12
REMARK SMILES IDX 6 13 5 14 4 15 3 16 2 17 1 18
REMARK H PARENT
REMARK Flexibility Score: inf
ROOT
ATOM      1  C   UNL     1      63.635  32.584  58.835  1.00  0.00     0.000 C 
ENDROOT
BRANCH   1   2
ATOM      2  C   UNL     1      62.509  31.557  58.629  1.00  0.00     0.000 C 
BRANCH   2   3
ATOM      3  C   UNL     1      61.189  31.982  59.292  1.00  0.00     0.000 C 
BRANCH   3   4
ATOM      4  C   UNL     1      60.627  30.904  60.234  1.00  0.00     0.000 C 
BRANCH   4   5
ATOM      5  C   UNL     1      61.127  31.063  61.679  1.00  0.00     0.000 C 
BRANCH   5   6
ATOM      6  C   UNL     1      62.179  30.008  62.064  1.00  0.00     0.006 C 
BRANCH   6   7
ATOM      7  C   UNL     1      62.250  28.862  61.046  1.00  0.00     0.053 C 
BRANCH   7   8
ATOM      8  C   UNL     1      62.530  27.547  61.709  1.00  0.00     0.041 C 
ATOM      9  O   UNL     1      61.719  27.076  62.549  1.00  0.00    -0.550 OA
ATOM     10  O   UNL     1      63.704  26.861  61.425  1.00  0.00    -0.550 OA
ENDBRANCH   7   8
ENDBRANCH   6   7
ENDBRANCH   5   6
ENDBRANCH   4   5
ENDBRANCH   3   4
ENDBRANCH   2   3
ENDBRANCH   1   2
BRANCH   1  11
ATOM     11  C   UNL     1      64.491  32.279  60.075  1.00  0.00     0.000 C 
BRANCH  11  12
ATOM     12  C   UNL     1      64.115  33.158  61.280  1.00  0.00    -0.000 C 
BRANCH  12  13
ATOM     13  C   UNL     1      64.530  34.627  61.092  1.00  0.00    -0.000 C 
BRANCH  13  14
ATOM     14  C   UNL     1      63.375  35.605  61.354  1.00  0.00    -0.000 C 
BRANCH  14  15
ATOM     15  C   UNL     1      62.017  34.930  61.107  1.00  0.00    -0.000 C 
BRANCH  15  16
ATOM     16  C   UNL     1      61.096  35.763  60.202  1.00  0.00    -0.000 C 
BRANCH  16  17
ATOM     17  C   UNL     1      61.795  36.231  58.917  1.00  0.00    -0.003 C 
ATOM     18  C   UNL     1      61.379  35.377  57.723  1.00  0.00     0.004 C 
ENDBRANCH  16  17
ENDBRANCH  15  16
ENDBRANCH  14  15
ENDBRANCH  13  14
ENDBRANCH  12  13
ENDBRANCH  11  12
ENDBRANCH   1  11
TORSDOF 14
ENDMDL
MODEL 4
REMARK VINA RESULT:    -3.196     11.365     13.635
REMARK INTER + INTRA:          -8.033
REMARK INTER:                  -5.561
REMARK INTRA:                  -2.472
REMARK UNBOUND:                -2.221
REMARK SMILES CCCCCCCCCCCCCCCC(=O)[O-]
REMARK SMILES IDX 9 1 10 2 11 3 12 4 13 5 14 6 15 7 16 8 17 9 18 10 8 11 7 12
REMARK SMILES IDX 6 13 5 14 4 15 3 16 2 17 1 18
REMARK H PARENT
REMARK Flexibility Score: inf
ROOT
ATOM      1  C   UNL     1      57.491  27.187  52.414  1.00  0.00     0.000 C 
ENDROOT
BRANCH   1   2
ATOM      2  C   UNL     1      57.673  28.709  52.544  1.00  0.00     0.000 C 
BRANCH   2   3
ATOM      3  C   UNL     1      57.450  29.449  51.215  1.00  0.00     0.000 C 
BRANCH   3   4
ATOM      4  C   UNL     1      57.790  28.581  49.992  1.00  0.00     0.000 C 
BRANCH   4   5
ATOM      5  C   UNL     1      59.118  28.986  49.331  1.00  0.00     0.000 C 
BRANCH   5   6
ATOM      6  C   UNL     1      60.106  27.812  49.215  1.00  0.00     0.006 C 
BRANCH   6   7
ATOM      7  C   UNL     1      59.402  26.451  49.292  1.00  0.00     0.053 C 
BRANCH   7   8
ATOM      8  C   UNL     1      60.039  25.552  50.308  1.00  0.00     0.041 C 
ATOM      9  O   UNL     1      60.657  26.044  51.289  1.00  0.00    -0.550 OA
ATOM     10  O   UNL     1      59.982  24.173  50.151  1.00  0.00    -0.550 OA
ENDBRANCH   7   8
ENDBRANCH   6   7
ENDBRANCH   5   6
ENDBRANCH   4   5
ENDBRANCH   3   4
ENDBRANCH   2   3
ENDBRANCH   1   2
BRANCH   1  11
ATOM     11  C   UNL     1      56.180  26.695  53.047  1.00  0.00     0.000 C 
BRANCH  11  12
ATOM     12  C   UNL     1      55.421  25.711  52.139  1.00  0.00    -0.000 C 
BRANCH  12  13
ATOM     13  C   UNL     1      55.921  25.743  50.686  1.00  0.00    -0.000 C 
BRANCH  13  14
ATOM     14  C   UNL     1      54.795  26.024  49.680  1.00  0.00    -0.000 C 
BRANCH  14  15
ATOM     15  C   UNL     1      53.766  27.002  50.268  1.00  0.00    -0.000 C 
BRANCH  15  16
ATOM     16  C   UNL     1      54.160  28.473  50.060  1.00  0.00    -0.000 C 
BRANCH  16  17
ATOM     17  C   UNL     1      53.349  29.432  50.944  1.00  0.00    -0.003 C 
ATOM     18  C   UNL     1      53.797  29.349  52.400  1.00  0.00     0.004 C 
ENDBRANCH  16  17
ENDBRANCH  15  16
ENDBRANCH  14  15
ENDBRANCH  13  14
ENDBRANCH  12  13
ENDBRANCH  11  12
ENDBRANCH   1  11
TORSDOF 14
ENDMDL
MODEL 5
REMARK VINA RESULT:    -3.195     11.385     13.496
REMARK INTER + INTRA:          -8.031
REMARK INTER:                  -5.743
REMARK INTRA:                  -2.287
REMARK UNBOUND:                -2.221
REMARK SMILES CCCCCCCCCCCCCCCC(=O)[O-]
REMARK SMILES IDX 9 1 10 2 11 3 12 4 13 5 14 6 15 7 16 8 17 9 18 10 8 11 7 12
REMARK SMILES IDX 6 13 5 14 4 15 3 16 2 17 1 18
REMARK H PARENT
REMARK Flexibility Score: inf
ROOT
ATOM      1  C   UNL     1      57.918  28.550  52.616  1.00  0.00     0.000 C 
ENDROOT
BRANCH   1   2
ATOM      2  C   UNL     1      58.716  29.368  51.586  1.00  0.00     0.000 C 
BRANCH   2   3
ATOM      3  C   UNL     1      58.132  29.267  50.168  1.00  0.00     0.000 C 
BRANCH   3   4
ATOM      4  C   UNL     1      59.190  28.878  49.121  1.00  0.00     0.000 C 
BRANCH   4   5
ATOM      5  C   UNL     1      60.482  28.343  49.758  1.00  0.00     0.000 C 
BRANCH   5   6
ATOM      6  C   UNL     1      60.700  26.843  49.491  1.00  0.00     0.006 C 
BRANCH   6   7
ATOM      7  C   UNL     1      61.383  26.138  50.670  1.00  0.00     0.053 C 
BRANCH   7   8
ATOM      8  C   UNL     1      61.640  24.691  50.379  1.00  0.00     0.041 C 
ATOM      9  O   UNL     1      62.729  24.160  50.722  1.00  0.00    -0.550 OA
ATOM     10  O   UNL     1      60.691  23.939  49.697  1.00  0.00    -0.550 OA
ENDBRANCH   7   8
ENDBRANCH   6   7
ENDBRANCH   5   6
ENDBRANCH   4   5
ENDBRANCH   3   4
ENDBRANCH   2   3
ENDBRANCH   1   2
BRANCH   1  11
ATOM     11  C   UNL     1      58.489  27.137  52.816  1.00  0.00     0.000 C 
BRANCH  11  12
ATOM     12  C   UNL     1      57.453  26.037  52.529  1.00  0.00    -0.000 C 
BRANCH  12  13
ATOM     13  C   UNL     1      57.773  25.244  51.251  1.00  0.00    -0.000 C 
BRANCH  13  14
ATOM     14  C   UNL     1      57.186  25.894  49.989  1.00  0.00    -0.000 C 
BRANCH  14  15
ATOM     15  C   UNL     1      55.651  25.932  50.056  1.00  0.00    -0.000 C 
BRANCH  15  16
ATOM     16  C   UNL     1      55.094  27.363  50.081  1.00  0.00    -0.000 C 
BRANCH  16  17
ATOM     17  C   UNL     1      53.562  27.404  49.975  1.00  0.00    -0.003 C 
ATOM     18  C   UNL     1      53.008  26.059  49.515  1.00  0.00     0.004 C 
ENDBRANCH  16  17
ENDBRANCH  15  16
ENDBRANCH  14  15
ENDBRANCH  13  14
ENDBRANCH  12  13
ENDBRANCH  11  12
ENDBRANCH   1  11
TORSDOF 14
ENDMDL
MODEL 6
REMARK VINA RESULT:    -3.189      2.680      4.176
REMARK INTER + INTRA:          -8.020
REMARK INTER:                  -5.982
REMARK INTRA:                  -2.038
REMARK UNBOUND:                -2.221
REMARK SMILES CCCCCCCCCCCCCCCC(=O)[O-]
REMARK SMILES IDX 9 1 10 2 11 3 12 4 13 5 14 6 15 7 16 8 17 9 18 10 8 11 7 12
REMARK SMILES IDX 6 13 5 14 4 15 3 16 2 17 1 18
REMARK H PARENT
REMARK Flexibility Score: inf
ROOT
ATOM      1  C   UNL     1      60.487  31.272  60.583  1.00  0.00     0.000 C 
ENDROOT
BRANCH   1   2
ATOM      2  C   UNL     1      61.022  31.049  62.008  1.00  0.00     0.000 C 
BRANCH   2   3
ATOM      3  C   UNL     1      62.214  30.080  62.049  1.00  0.00     0.000 C 
BRANCH   3   4
ATOM      4  C   UNL     1      61.990  28.831  61.181  1.00  0.00     0.000 C 
BRANCH   4   5
ATOM      5  C   UNL     1      63.236  27.935  61.103  1.00  0.00     0.000 C 
BRANCH   5   6
ATOM      6  C   UNL     1      63.016  26.553  61.744  1.00  0.00     0.006 C 
BRANCH   6   7
ATOM      7  C   UNL     1      61.716  26.492  62.558  1.00  0.00     0.053 C 
BRANCH   7   8
ATOM      8  C   UNL     1      61.615  25.224  63.349  1.00  0.00     0.041 C 
ATOM      9  O   UNL     1      62.421  24.279  63.136  1.00  0.00    -0.550 OA
ATOM     10  O   UNL     1      60.610  25.071  64.295  1.00  0.00    -0.550 OA
ENDBRANCH   7   8
ENDBRANCH   6   7
ENDBRANCH   5   6
ENDBRANCH   4   5
ENDBRANCH   3   4
ENDBRANCH   2   3
ENDBRANCH   1   2
BRANCH   1  11
ATOM     11  C   UNL     1      61.158  32.464  59.882  1.00  0.00     0.000 C 
BRANCH  11  12
ATOM     12  C   UNL     1      61.524  33.592  60.862  1.00  0.00    -0.000 C 
BRANCH  12  13
ATOM     13  C   UNL     1      62.947  34.129  60.639  1.00  0.00    -0.000 C 
BRANCH  13  14
ATOM     14  C   UNL     1      64.030  33.135  61.083  1.00  0.00    -0.000 C 
BRANCH  14  15
ATOM     15  C   UNL     1      64.736  32.514  59.868  1.00  0.00    -0.000 C 
BRANCH  15  16
ATOM     16  C   UNL     1      65.137  31.050  60.100  1.00  0.00    -0.000 C 
BRANCH  16  17
ATOM     17  C   UNL     1      64.949  30.179  58.849  1.00  0.00    -0.003 C 
ATOM     18  C   UNL     1      63.660  30.541  58.117  1.00  0.00     0.004 C 
ENDBRANCH  16  17
ENDBRANCH  15  16
ENDBRANCH  14  15
ENDBRANCH  13  14
ENDBRANCH  12  13
ENDBRANCH  11  12
ENDBRANCH   1  11
TORSDOF 14
ENDMDL
MODEL 7
REMARK VINA RESULT:    -3.170      1.652      4.608
REMARK INTER + INTRA:          -7.986
REMARK INTER:                  -6.008
REMARK INTRA:                  -1.978
REMARK UNBOUND:                -2.221
REMARK SMILES CCCCCCCCCCCCCCCC(=O)[O-]
REMARK SMILES IDX 9 1 10 2 11 3 12 4 13 5 14 6 15 7 16 8 17 9 18 10 8 11 7 12
REMARK SMILES IDX 6 13 5 14 4 15 3 16 2 17 1 18
REMARK H PARENT
REMARK Flexibility Score: inf
ROOT
ATOM      1  C   UNL     1      61.087  35.381  58.065  1.00  0.00     0.000 C 
ENDROOT
BRANCH   1   2
ATOM      2  C   UNL     1      60.387  35.707  59.396  1.00  0.00     0.000 C 
BRANCH   2   3
ATOM      3  C   UNL     1      61.296  36.473  60.371  1.00  0.00     0.000 C 
BRANCH   3   4
ATOM      4  C   UNL     1      62.187  35.537  61.206  1.00  0.00     0.000 C 
BRANCH   4   5
ATOM      5  C   UNL     1      63.562  36.151  61.514  1.00  0.00     0.000 C 
BRANCH   5   6
ATOM      6  C   UNL     1      64.679  35.095  61.600  1.00  0.00     0.006 C 
BRANCH   6   7
ATOM      7  C   UNL     1      64.205  33.712  61.136  1.00  0.00     0.053 C 
BRANCH   7   8
ATOM      8  C   UNL     1      64.725  33.377  59.770  1.00  0.00     0.041 C 
ATOM      9  O   UNL     1      65.088  32.201  59.503  1.00  0.00    -0.550 OA
ATOM     10  O   UNL     1      64.840  34.369  58.806  1.00  0.00    -0.550 OA
ENDBRANCH   7   8
ENDBRANCH   6   7
ENDBRANCH   5   6
ENDBRANCH   4   5
ENDBRANCH   3   4
ENDBRANCH   2   3
ENDBRANCH   1   2
BRANCH   1  11
ATOM     11  C   UNL     1      61.494  33.903  57.960  1.00  0.00     0.000 C 
BRANCH  11  12
ATOM     12  C   UNL     1      60.505  32.968  58.678  1.00  0.00    -0.000 C 
BRANCH  12  13
ATOM     13  C   UNL     1      61.205  32.000  59.646  1.00  0.00    -0.000 C 
BRANCH  13  14
ATOM     14  C   UNL     1      60.854  32.277  61.116  1.00  0.00    -0.000 C 
BRANCH  14  15
ATOM     15  C   UNL     1      60.899  30.983  61.943  1.00  0.00    -0.000 C 
BRANCH  15  16
ATOM     16  C   UNL     1      61.288  29.756  61.104  1.00  0.00    -0.000 C 
BRANCH  16  17
ATOM     17  C   UNL     1      62.471  28.981  61.703  1.00  0.00    -0.003 C 
ATOM     18  C   UNL     1      63.741  29.827  61.698  1.00  0.00     0.004 C 
ENDBRANCH  16  17
ENDBRANCH  15  16
ENDBRANCH  14  15
ENDBRANCH  13  14
ENDBRANCH  12  13
ENDBRANCH  11  12
ENDBRANCH   1  11
TORSDOF 14
ENDMDL
MODEL 8
REMARK VINA RESULT:    -3.125      1.999      3.116
REMARK INTER + INTRA:          -7.903
REMARK INTER:                  -6.151
REMARK INTRA:                  -1.752
REMARK UNBOUND:                -2.221
REMARK SMILES CCCCCCCCCCCCCCCC(=O)[O-]
REMARK SMILES IDX 9 1 10 2 11 3 12 4 13 5 14 6 15 7 16 8 17 9 18 10 8 11 7 12
REMARK SMILES IDX 6 13 5 14 4 15 3 16 2 17 1 18
REMARK H PARENT
REMARK Flexibility Score: inf
ROOT
ATOM      1  C   UNL     1      61.090  32.988  59.545  1.00  0.00     0.000 C 
ENDROOT
BRANCH   1   2
ATOM      2  C   UNL     1      60.769  31.553  59.999  1.00  0.00     0.000 C 
BRANCH   2   3
ATOM      3  C   UNL     1      60.681  31.422  61.528  1.00  0.00     0.000 C 
BRANCH   3   4
ATOM      4  C   UNL     1      61.642  30.358  62.085  1.00  0.00     0.000 C 
BRANCH   4   5
ATOM      5  C   UNL     1      61.780  29.142  61.155  1.00  0.00     0.000 C 
BRANCH   5   6
ATOM      6  C   UNL     1      62.974  28.244  61.524  1.00  0.00     0.006 C 
BRANCH   6   7
ATOM      7  C   UNL     1      62.882  26.859  60.869  1.00  0.00     0.053 C 
BRANCH   7   8
ATOM      8  C   UNL     1      62.205  25.866  61.764  1.00  0.00     0.041 C 
ATOM      9  O   UNL     1      61.872  24.737  61.317  1.00  0.00    -0.550 OA
ATOM     10  O   UNL     1      61.911  26.201  63.079  1.00  0.00    -0.550 OA
ENDBRANCH   7   8
ENDBRANCH   6   7
ENDBRANCH   5   6
ENDBRANCH   4   5
ENDBRANCH   3   4
ENDBRANCH   2   3
ENDBRANCH   1   2
BRANCH   1  11
ATOM     11  C   UNL     1      61.080  33.991  60.709  1.00  0.00     0.000 C 
BRANCH  11  12
ATOM     12  C   UNL     1      61.452  35.415  60.262  1.00  0.00    -0.000 C 
BRANCH  12  13
ATOM     13  C   UNL     1      62.300  36.159  61.306  1.00  0.00    -0.000 C 
BRANCH  13  14
ATOM     14  C   UNL     1      63.809  36.007  61.060  1.00  0.00    -0.000 C 
BRANCH  14  15
ATOM     15  C   UNL     1      64.327  34.678  61.633  1.00  0.00    -0.000 C 
BRANCH  15  16
ATOM     16  C   UNL     1      64.663  33.652  60.540  1.00  0.00    -0.000 C 
BRANCH  16  17
ATOM     17  C   UNL     1      64.421  32.205  60.993  1.00  0.00    -0.003 C 
ATOM     18  C   UNL     1      64.575  31.231  59.828  1.00  0.00     0.004 C 
ENDBRANCH  16  17
ENDBRANCH  15  16
ENDBRANCH  14  15
ENDBRANCH  13  14
ENDBRANCH  12  13
ENDBRANCH  11  12
ENDBRANCH   1  11
TORSDOF 14
ENDMDL
MODEL 9
REMARK VINA RESULT:    -3.099      1.945      3.829
REMARK INTER + INTRA:          -7.856
REMARK INTER:                  -5.549
REMARK INTRA:                  -2.307
REMARK UNBOUND:                -2.221
REMARK SMILES CCCCCCCCCCCCCCCC(=O)[O-]
REMARK SMILES IDX 9 1 10 2 11 3 12 4 13 5 14 6 15 7 16 8 17 9 18 10 8 11 7 12
REMARK SMILES IDX 6 13 5 14 4 15 3 16 2 17 1 18
REMARK H PARENT
REMARK Flexibility Score: inf
ROOT
ATOM      1  C   UNL     1      62.321  30.374  57.897  1.00  0.00     0.000 C 
ENDROOT
BRANCH   1   2
ATOM      2  C   UNL     1      61.344  31.369  58.548  1.00  0.00     0.000 C 
BRANCH   2   3
ATOM      3  C   UNL     1      60.051  30.696  59.038  1.00  0.00     0.000 C 
BRANCH   3   4
ATOM      4  C   UNL     1      60.260  29.891  60.332  1.00  0.00     0.000 C 
BRANCH   4   5
ATOM      5  C   UNL     1      61.042  30.676  61.397  1.00  0.00     0.000 C 
BRANCH   5   6
ATOM      6  C   UNL     1      62.101  29.817  62.111  1.00  0.00     0.006 C 
BRANCH   6   7
ATOM      7  C   UNL     1      62.765  28.810  61.163  1.00  0.00     0.053 C 
BRANCH   7   8
ATOM      8  C   UNL     1      62.693  27.412  61.700  1.00  0.00     0.041 C 
ATOM      9  O   UNL     1      61.715  27.057  62.410  1.00  0.00    -0.550 OA
ATOM     10  O   UNL     1      63.722  26.515  61.445  1.00  0.00    -0.550 OA
ENDBRANCH   7   8
ENDBRANCH   6   7
ENDBRANCH   5   6
ENDBRANCH   4   5
ENDBRANCH   3   4
ENDBRANCH   2   3
ENDBRANCH   1   2
BRANCH   1  11
ATOM     11  C   UNL     1      63.767  30.894  57.881  1.00  0.00     0.000 C 
BRANCH  11  12
ATOM     12  C   UNL     1      63.955  32.136  58.769  1.00  0.00    -0.000 C 
BRANCH  12  13
ATOM     13  C   UNL     1      64.646  31.810  60.103  1.00  0.00    -0.000 C 
BRANCH  13  14
ATOM     14  C   UNL     1      64.203  32.740  61.242  1.00  0.00    -0.000 C 
BRANCH  14  15
ATOM     15  C   UNL     1      63.101  33.701  60.768  1.00  0.00    -0.000 C 
BRANCH  15  16
ATOM     16  C   UNL     1      63.297  35.132  61.291  1.00  0.00    -0.000 C 
BRANCH  16  17
ATOM     17  C   UNL     1      64.726  35.387  61.795  1.00  0.00    -0.003 C 
ATOM     18  C   UNL     1      65.556  36.119  60.744  1.00  0.00     0.004 C 
ENDBRANCH  16  17
ENDBRANCH  15  16
ENDBRANCH  14  15
ENDBRANCH  13  14
ENDBRANCH  12  13
ENDBRANCH  11  12
ENDBRANCH   1  11
TORSDOF 14
ENDMDL
