MODEL 1
REMARK VINA RESULT:    -4.245      0.000      0.000
REMARK INTER + INTRA:          -4.835
REMARK INTER:                  -4.742
REMARK INTRA:                  -0.093
REMARK UNBOUND:                -0.093
REMARK SMILES CCc1ccc(O)cc1O
REMARK SMILES IDX 3 1 9 2 8 3 6 4 5 5 4 6 2 7 1 8 10 9 7 11
REMARK H PARENT 10 10 7 12
REMARK Flexibility Score: inf
ROOT
ATOM      1  C   UNL     1      32.091  -6.551 -22.906  1.00  0.00    -0.006 A 
ATOM      2  C   UNL     1      32.734  -7.600 -23.610  1.00  0.00     0.122 A 
ATOM      3  C   UNL     1      32.123  -8.169 -24.734  1.00  0.00     0.092 A 
ATOM      4  C   UNL     1      30.881  -7.715 -25.177  1.00  0.00     0.119 A 
ATOM      5  C   UNL     1      30.237  -6.682 -24.491  1.00  0.00     0.047 A 
ATOM      6  C   UNL     1      30.832  -6.104 -23.367  1.00  0.00     0.011 A 
ENDROOT
BRANCH   1   7
ATOM      7  C   UNL     1      32.766  -5.943 -21.685  1.00  0.00     0.036 C 
ATOM      8  C   UNL     1      33.627  -4.704 -21.943  1.00  0.00     0.009 C 
ENDBRANCH   1   7
BRANCH   2   9
ATOM      9  O   UNL     1      33.979  -8.103 -23.222  1.00  0.00    -0.508 OA
ATOM     10  H   UNL     1      34.631  -7.591 -22.642  1.00  0.00     0.293 HD
ENDBRANCH   2   9
BRANCH   4  11
ATOM     11  O   UNL     1      30.294  -8.297 -26.297  1.00  0.00    -0.508 OA
ATOM     12  H   UNL     1      30.676  -9.135 -26.721  1.00  0.00     0.293 HD
ENDBRANCH   4  11
TORSDOF 3
ENDMDL
MODEL 2
REMARK VINA RESULT:    -4.034      0.962      3.584
REMARK INTER + INTRA:          -4.599
REMARK INTER:                  -4.529
REMARK INTRA:                  -0.070
REMARK UNBOUND:                -0.093
REMARK SMILES CCc1ccc(O)cc1O
REMARK SMILES IDX 3 1 9 2 8 3 6 4 5 5 4 6 2 7 1 8 10 9 7 11
REMARK H PARENT 10 10 7 12
REMARK Flexibility Score: inf
ROOT
ATOM      1  C   UNL     1      30.248  -6.785 -24.377  1.00  0.00    -0.006 A 
ATOM      2  C   UNL     1      30.923  -7.783 -25.125  1.00  0.00     0.122 A 
ATOM      3  C   UNL     1      32.204  -8.201 -24.743  1.00  0.00     0.092 A 
ATOM      4  C   UNL     1      32.832  -7.645 -23.628  1.00  0.00     0.119 A 
ATOM      5  C   UNL     1      32.177  -6.660 -22.884  1.00  0.00     0.047 A 
ATOM      6  C   UNL     1      30.899  -6.232 -23.251  1.00  0.00     0.011 A 
ENDROOT
BRANCH   1   7
ATOM      7  C   UNL     1      28.857  -6.341 -24.804  1.00  0.00     0.036 C 
ATOM      8  C   UNL     1      28.584  -4.837 -24.740  1.00  0.00     0.009 C 
ENDBRANCH   1   7
BRANCH   2   9
ATOM      9  O   UNL     1      30.353  -8.383 -26.251  1.00  0.00    -0.508 OA
ATOM     10  H   UNL     1      29.613  -7.958 -26.794  1.00  0.00     0.293 HD
ENDBRANCH   2   9
BRANCH   4  11
ATOM     11  O   UNL     1      34.107  -8.076 -23.269  1.00  0.00    -0.508 OA
ATOM     12  H   UNL     1      34.825  -7.424 -22.979  1.00  0.00     0.293 HD
ENDBRANCH   4  11
TORSDOF 3
ENDMDL
MODEL 3
REMARK VINA RESULT:    -4.002      1.522      2.159
REMARK INTER + INTRA:          -4.563
REMARK INTER:                  -4.472
REMARK INTRA:                  -0.090
REMARK UNBOUND:                -0.093
REMARK SMILES CCc1ccc(O)cc1O
REMARK SMILES IDX 3 1 9 2 8 3 6 4 5 5 4 6 2 7 1 8 10 9 7 11
REMARK H PARENT 10 10 7 12
REMARK Flexibility Score: inf
ROOT
ATOM      1  C   UNL     1      32.253  -6.561 -22.936  1.00  0.00    -0.006 A 
ATOM      2  C   UNL     1      31.000  -6.071 -23.384  1.00  0.00     0.122 A 
ATOM      3  C   UNL     1      30.369  -6.662 -24.486  1.00  0.00     0.092 A 
ATOM      4  C   UNL     1      30.959  -7.733 -25.157  1.00  0.00     0.119 A 
ATOM      5  C   UNL     1      32.194  -8.224 -24.724  1.00  0.00     0.047 A 
ATOM      6  C   UNL     1      32.837  -7.647 -23.627  1.00  0.00     0.011 A 
ENDROOT
BRANCH   1   7
ATOM      7  C   UNL     1      32.927  -5.910 -21.738  1.00  0.00     0.036 C 
ATOM      8  C   UNL     1      33.808  -4.696 -22.043  1.00  0.00     0.009 C 
ENDBRANCH   1   7
BRANCH   2   9
ATOM      9  O   UNL     1      30.352  -5.002 -22.760  1.00  0.00    -0.508 OA
ATOM     10  H   UNL     1      30.828  -4.164 -22.454  1.00  0.00     0.293 HD
ENDBRANCH   2   9
BRANCH   4  11
ATOM     11  O   UNL     1      30.311  -8.303 -26.250  1.00  0.00    -0.508 OA
ATOM     12  H   UNL     1      30.620  -9.181 -26.650  1.00  0.00     0.293 HD
ENDBRANCH   4  11
TORSDOF 3
ENDMDL
MODEL 4
REMARK VINA RESULT:    -3.964     17.941     19.558
REMARK INTER + INTRA:          -4.521
REMARK INTER:                  -4.452
REMARK INTRA:                  -0.069
REMARK UNBOUND:                -0.093
REMARK SMILES CCc1ccc(O)cc1O
REMARK SMILES IDX 3 1 9 2 8 3 6 4 5 5 4 6 2 7 1 8 10 9 7 11
REMARK H PARENT 10 10 7 12
REMARK Flexibility Score: inf
ROOT
ATOM      1  C   UNL     1      20.487   6.152 -33.203  1.00  0.00    -0.006 A 
ATOM      2  C   UNL     1      20.759   5.094 -32.299  1.00  0.00     0.122 A 
ATOM      3  C   UNL     1      21.615   5.302 -31.211  1.00  0.00     0.092 A 
ATOM      4  C   UNL     1      22.212   6.545 -31.000  1.00  0.00     0.119 A 
ATOM      5  C   UNL     1      21.952   7.596 -31.885  1.00  0.00     0.047 A 
ATOM      6  C   UNL     1      21.100   7.405 -32.975  1.00  0.00     0.011 A 
ENDROOT
BRANCH   1   7
ATOM      7  C   UNL     1      19.555   5.911 -34.381  1.00  0.00     0.036 C 
ATOM      8  C   UNL     1      19.635   6.931 -35.519  1.00  0.00     0.009 C 
ENDBRANCH   1   7
BRANCH   2   9
ATOM      9  O   UNL     1      20.195   3.824 -32.450  1.00  0.00    -0.508 OA
ATOM     10  H   UNL     1      20.331   3.247 -33.269  1.00  0.00     0.293 HD
ENDBRANCH   2   9
BRANCH   4  11
ATOM     11  O   UNL     1      23.060   6.727 -29.911  1.00  0.00    -0.508 OA
ATOM     12  H   UNL     1      23.366   7.650 -29.626  1.00  0.00     0.293 HD
ENDBRANCH   4  11
TORSDOF 3
ENDMDL
MODEL 5
REMARK VINA RESULT:    -3.887      2.033      3.278
REMARK INTER + INTRA:          -4.435
REMARK INTER:                  -4.366
REMARK INTRA:                  -0.069
REMARK UNBOUND:                -0.093
REMARK SMILES CCc1ccc(O)cc1O
REMARK SMILES IDX 3 1 9 2 8 3 6 4 5 5 4 6 2 7 1 8 10 9 7 11
REMARK H PARENT 10 10 7 12
REMARK Flexibility Score: inf
ROOT
ATOM      1  C   UNL     1      31.368  -7.206 -24.327  1.00  0.00    -0.006 A 
ATOM      2  C   UNL     1      30.320  -7.299 -25.278  1.00  0.00     0.122 A 
ATOM      3  C   UNL     1      29.264  -6.379 -25.251  1.00  0.00     0.092 A 
ATOM      4  C   UNL     1      29.227  -5.364 -24.294  1.00  0.00     0.119 A 
ATOM      5  C   UNL     1      30.254  -5.263 -23.353  1.00  0.00     0.047 A 
ATOM      6  C   UNL     1      31.314  -6.171 -23.365  1.00  0.00     0.011 A 
ENDROOT
BRANCH   1   7
ATOM      7  C   UNL     1      32.509  -8.212 -24.368  1.00  0.00     0.036 C 
ATOM      8  C   UNL     1      33.885  -7.682 -23.962  1.00  0.00     0.009 C 
ENDBRANCH   1   7
BRANCH   2   9
ATOM      9  O   UNL     1      30.294  -8.289 -26.263  1.00  0.00    -0.508 OA
ATOM     10  H   UNL     1      29.490  -8.875 -26.443  1.00  0.00     0.293 HD
ENDBRANCH   2   9
BRANCH   4  11
ATOM     11  O   UNL     1      28.165  -4.462 -24.288  1.00  0.00    -0.508 OA
ATOM     12  H   UNL     1      28.257  -3.538 -23.882  1.00  0.00     0.293 HD
ENDBRANCH   4  11
TORSDOF 3
ENDMDL
MODEL 6
REMARK VINA RESULT:    -3.740      1.884      2.627
REMARK INTER + INTRA:          -4.270
REMARK INTER:                  -4.179
REMARK INTRA:                  -0.091
REMARK UNBOUND:                -0.093
REMARK SMILES CCc1ccc(O)cc1O
REMARK SMILES IDX 3 1 9 2 8 3 6 4 5 5 4 6 2 7 1 8 10 9 7 11
REMARK H PARENT 10 10 7 12
REMARK Flexibility Score: inf
ROOT
ATOM      1  C   UNL     1      31.531  -6.307 -24.706  1.00  0.00    -0.006 A 
ATOM      2  C   UNL     1      30.895  -7.485 -25.171  1.00  0.00     0.122 A 
ATOM      3  C   UNL     1      29.498  -7.575 -25.174  1.00  0.00     0.092 A 
ATOM      4  C   UNL     1      28.714  -6.513 -24.722  1.00  0.00     0.119 A 
ATOM      5  C   UNL     1      29.330  -5.346 -24.261  1.00  0.00     0.047 A 
ATOM      6  C   UNL     1      30.722  -5.240 -24.251  1.00  0.00     0.011 A 
ENDROOT
BRANCH   1   7
ATOM      7  C   UNL     1      33.050  -6.224 -24.708  1.00  0.00     0.036 C 
ATOM      8  C   UNL     1      33.753  -6.768 -23.462  1.00  0.00     0.009 C 
ENDBRANCH   1   7
BRANCH   2   9
ATOM      9  O   UNL     1      31.618  -8.586 -25.638  1.00  0.00    -0.508 OA
ATOM     10  H   UNL     1      31.426  -9.539 -25.356  1.00  0.00     0.293 HD
ENDBRANCH   2   9
BRANCH   4  11
ATOM     11  O   UNL     1      27.326  -6.626 -24.734  1.00  0.00    -0.508 OA
ATOM     12  H   UNL     1      26.739  -6.008 -24.186  1.00  0.00     0.293 HD
ENDBRANCH   4  11
TORSDOF 3
ENDMDL
MODEL 7
REMARK VINA RESULT:    -3.671      2.604      3.261
REMARK INTER + INTRA:          -4.194
REMARK INTER:                  -4.113
REMARK INTRA:                  -0.081
REMARK UNBOUND:                -0.093
REMARK SMILES CCc1ccc(O)cc1O
REMARK SMILES IDX 3 1 9 2 8 3 6 4 5 5 4 6 2 7 1 8 10 9 7 11
REMARK H PARENT 10 10 7 12
REMARK Flexibility Score: inf
ROOT
ATOM      1  C   UNL     1      31.268  -6.840 -24.788  1.00  0.00    -0.006 A 
ATOM      2  C   UNL     1      30.653  -5.612 -24.436  1.00  0.00     0.122 A 
ATOM      3  C   UNL     1      29.257  -5.502 -24.433  1.00  0.00     0.092 A 
ATOM      4  C   UNL     1      28.455  -6.591 -24.775  1.00  0.00     0.119 A 
ATOM      5  C   UNL     1      29.050  -7.806 -25.124  1.00  0.00     0.047 A 
ATOM      6  C   UNL     1      30.441  -7.933 -25.132  1.00  0.00     0.011 A 
ENDROOT
BRANCH   1   7
ATOM      7  C   UNL     1      32.786  -6.945 -24.787  1.00  0.00     0.036 C 
ATOM      8  C   UNL     1      33.393  -7.879 -23.738  1.00  0.00     0.009 C 
ENDBRANCH   1   7
BRANCH   2   9
ATOM      9  O   UNL     1      31.395  -4.482 -24.082  1.00  0.00    -0.508 OA
ATOM     10  H   UNL     1      31.302  -4.011 -23.192  1.00  0.00     0.293 HD
ENDBRANCH   2   9
BRANCH   4  11
ATOM     11  O   UNL     1      27.069  -6.456 -24.765  1.00  0.00    -0.508 OA
ATOM     12  H   UNL     1      26.573  -6.021 -25.535  1.00  0.00     0.293 HD
ENDBRANCH   4  11
TORSDOF 3
ENDMDL
MODEL 8
REMARK VINA RESULT:    -3.590      1.783      3.915
REMARK INTER + INTRA:          -4.103
REMARK INTER:                  -4.015
REMARK INTRA:                  -0.088
REMARK UNBOUND:                -0.093
REMARK SMILES CCc1ccc(O)cc1O
REMARK SMILES IDX 3 1 9 2 8 3 6 4 5 5 4 6 2 7 1 8 10 9 7 11
REMARK H PARENT 10 10 7 12
REMARK Flexibility Score: inf
ROOT
ATOM      1  C   UNL     1      30.256  -6.881 -24.512  1.00  0.00    -0.006 A 
ATOM      2  C   UNL     1      30.934  -6.121 -23.525  1.00  0.00     0.122 A 
ATOM      3  C   UNL     1      32.219  -6.495 -23.112  1.00  0.00     0.092 A 
ATOM      4  C   UNL     1      32.847  -7.614 -23.660  1.00  0.00     0.119 A 
ATOM      5  C   UNL     1      32.188  -8.370 -24.633  1.00  0.00     0.047 A 
ATOM      6  C   UNL     1      30.906  -8.012 -25.056  1.00  0.00     0.011 A 
ENDROOT
BRANCH   1   7
ATOM      7  C   UNL     1      28.860  -6.463 -24.951  1.00  0.00     0.036 C 
ATOM      8  C   UNL     1      28.766  -5.758 -26.305  1.00  0.00     0.009 C 
ENDBRANCH   1   7
BRANCH   2   9
ATOM      9  O   UNL     1      30.365  -4.990 -22.935  1.00  0.00    -0.508 OA
ATOM     10  H   UNL     1      30.679  -4.603 -22.055  1.00  0.00     0.293 HD
ENDBRANCH   2   9
BRANCH   4  11
ATOM     11  O   UNL     1      34.125  -7.965 -23.232  1.00  0.00    -0.508 OA
ATOM     12  H   UNL     1      34.471  -7.695 -22.319  1.00  0.00     0.293 HD
ENDBRANCH   4  11
TORSDOF 3
ENDMDL
MODEL 9
REMARK VINA RESULT:    -3.586      1.902      2.216
REMARK INTER + INTRA:          -4.098
REMARK INTER:                  -4.029
REMARK INTRA:                  -0.069
REMARK UNBOUND:                -0.093
REMARK SMILES CCc1ccc(O)cc1O
REMARK SMILES IDX 3 1 9 2 8 3 6 4 5 5 4 6 2 7 1 8 10 9 7 11
REMARK H PARENT 10 10 7 12
REMARK Flexibility Score: inf
ROOT
ATOM      1  C   UNL     1      33.063  -5.503 -22.569  1.00  0.00    -0.006 A 
ATOM      2  C   UNL     1      33.322  -5.148 -23.917  1.00  0.00     0.122 A 
ATOM      3  C   UNL     1      32.767  -5.898 -24.960  1.00  0.00     0.092 A 
ATOM      4  C   UNL     1      31.956  -7.001 -24.692  1.00  0.00     0.119 A 
ATOM      5  C   UNL     1      31.694  -7.361 -23.367  1.00  0.00     0.047 A 
ATOM      6  C   UNL     1      32.240  -6.623 -22.315  1.00  0.00     0.011 A 
ENDROOT
BRANCH   1   7
ATOM      7  C   UNL     1      33.673  -4.678 -21.445  1.00  0.00     0.036 C 
ATOM      8  C   UNL     1      33.150  -4.971 -20.038  1.00  0.00     0.009 C 
ENDBRANCH   1   7
BRANCH   2   9
ATOM      9  O   UNL     1      34.125  -4.056 -24.257  1.00  0.00    -0.508 OA
ATOM     10  H   UNL     1      34.734  -4.042 -25.065  1.00  0.00     0.293 HD
ENDBRANCH   2   9
BRANCH   4  11
ATOM     11  O   UNL     1      31.416  -7.733 -25.747  1.00  0.00    -0.508 OA
ATOM     12  H   UNL     1      31.623  -8.717 -25.870  1.00  0.00     0.293 HD
ENDBRANCH   4  11
TORSDOF 3
ENDMDL
