MODEL 1
REMARK VINA RESULT:    -6.901      0.000      0.000
REMARK INTER + INTRA:          -9.476
REMARK INTER:                  -9.322
REMARK INTRA:                  -0.154
REMARK UNBOUND:                -0.154
REMARK SMILES O=c1c(-c2ccc(O)cc2)coc2c([C@H]3O[C@H](CO)[C@H](O)[C@@H](O)[C@@H]3O)c(O)ccc12
REMARK SMILES IDX 3 1 11 2 12 3 13 4 30 5 2 6 1 7 29 8 28 9 26 10 14 11 4 12
REMARK SMILES IDX 5 13 6 14 7 15 10 16 9 17 8 18 15 20 24 21 16 22 22 23 17 24
REMARK SMILES IDX 20 25 25 26 23 28 18 30 19 31 21 33 27 35
REMARK H PARENT 8 19 25 27 23 29 19 32 21 34 27 36
REMARK Flexibility Score: inf
ROOT
ATOM      1  C   UNL     1       6.572  11.073  46.801  1.00  0.00     0.065 A 
ATOM      2  C   UNL     1       7.270   9.888  47.059  1.00  0.00     0.208 A 
ATOM      3  O   UNL     1       8.463   9.667  46.518  1.00  0.00    -0.463 OA
ATOM      4  C   UNL     1       9.075  10.530  45.712  1.00  0.00     0.147 A 
ATOM      5  C   UNL     1       8.460  11.778  45.446  1.00  0.00     0.066 A 
ATOM      6  C   UNL     1       7.187  12.039  45.987  1.00  0.00     0.200 A 
ATOM      7  O   UNL     1       6.616  13.143  45.771  1.00  0.00    -0.288 OA
ATOM      8  C   UNL     1       9.141  12.739  44.689  1.00  0.00     0.020 A 
ATOM      9  C   UNL     1      10.453  12.509  44.292  1.00  0.00     0.047 A 
ATOM     10  C   UNL     1      11.084  11.298  44.581  1.00  0.00     0.125 A 
ATOM     11  C   UNL     1      10.345  10.219  45.146  1.00  0.00     0.069 A 
ENDROOT
BRANCH   1  12
ATOM     12  C   UNL     1       5.228  11.286  47.395  1.00  0.00    -0.011 A 
ATOM     13  C   UNL     1       4.079  10.790  46.752  1.00  0.00     0.013 A 
ATOM     14  C   UNL     1       2.813  10.998  47.307  1.00  0.00     0.047 A 
ATOM     15  C   UNL     1       2.676  11.707  48.504  1.00  0.00     0.115 A 
ATOM     16  C   UNL     1       5.082  12.002  48.597  1.00  0.00     0.013 A 
ATOM     17  C   UNL     1       3.814  12.209  49.147  1.00  0.00     0.047 A 
BRANCH  15  18
ATOM     18  O   UNL     1       1.408  11.907  49.044  1.00  0.00    -0.508 OA
ATOM     19  H   UNL     1       0.608  12.112  48.456  1.00  0.00     0.293 HD
ENDBRANCH  15  18
ENDBRANCH   1  12
BRANCH  11  20
ATOM     20  C   UNL     1      10.975   8.811  45.238  1.00  0.00     0.188 C 
ATOM     21  C   UNL     1      10.353   7.878  46.342  1.00  0.00     0.179 C 
ATOM     22  O   UNL     1      12.400   8.799  45.284  1.00  0.00    -0.362 OA
ATOM     23  C   UNL     1      10.995   8.058  47.731  1.00  0.00     0.177 C 
ATOM     24  C   UNL     1      12.929   9.121  46.566  1.00  0.00     0.176 C 
ATOM     25  C   UNL     1      12.523   8.089  47.630  1.00  0.00     0.177 C 
BRANCH  21  26
ATOM     26  O   UNL     1      10.408   6.527  45.952  1.00  0.00    -0.387 OA
ATOM     27  H   UNL     1      10.560   5.972  46.759  1.00  0.00     0.211 HD
ENDBRANCH  21  26
BRANCH  23  28
ATOM     28  O   UNL     1      10.547   9.256  48.316  1.00  0.00    -0.387 OA
ATOM     29  H   UNL     1       9.768   9.565  47.784  1.00  0.00     0.211 HD
ENDBRANCH  23  28
BRANCH  24  30
ATOM     30  C   UNL     1      14.456   9.249  46.463  1.00  0.00     0.191 C 
BRANCH  30  31
ATOM     31  O   UNL     1      14.808  10.282  45.585  1.00  0.00    -0.394 OA
ATOM     32  H   UNL     1      14.705   9.913  44.668  1.00  0.00     0.210 HD
ENDBRANCH  30  31
ENDBRANCH  24  30
BRANCH  25  33
ATOM     33  O   UNL     1      13.025   6.818  47.304  1.00  0.00    -0.388 OA
ATOM     34  H   UNL     1      12.259   6.187  47.343  1.00  0.00     0.211 HD
ENDBRANCH  25  33
ENDBRANCH  11  20
BRANCH  10  35
ATOM     35  O   UNL     1      12.460  11.229  44.348  1.00  0.00    -0.507 OA
ATOM     36  H   UNL     1      12.868  10.666  43.613  1.00  0.00     0.293 HD
ENDBRANCH  10  35
TORSDOF 9
ENDMDL
MODEL 2
REMARK VINA RESULT:    -6.613      2.118      3.829
REMARK INTER + INTRA:          -9.086
REMARK INTER:                  -8.987
REMARK INTRA:                  -0.099
REMARK UNBOUND:                -0.154
REMARK SMILES O=c1c(-c2ccc(O)cc2)coc2c([C@H]3O[C@H](CO)[C@H](O)[C@@H](O)[C@@H]3O)c(O)ccc12
REMARK SMILES IDX 3 1 11 2 12 3 13 4 30 5 2 6 1 7 29 8 28 9 26 10 14 11 4 12
REMARK SMILES IDX 5 13 6 14 7 15 10 16 9 17 8 18 15 20 24 21 16 22 22 23 17 24
REMARK SMILES IDX 20 25 25 26 23 28 18 30 19 31 21 33 27 35
REMARK H PARENT 8 19 25 27 23 29 19 32 21 34 27 36
REMARK Flexibility Score: inf
ROOT
ATOM      1  C   UNL     1       4.807  10.995  47.409  1.00  0.00     0.065 A 
ATOM      2  C   UNL     1       5.741  10.685  46.415  1.00  0.00     0.208 A 
ATOM      3  O   UNL     1       7.000  10.399  46.727  1.00  0.00    -0.463 OA
ATOM      4  C   UNL     1       7.462  10.381  47.975  1.00  0.00     0.147 A 
ATOM      5  C   UNL     1       6.565  10.628  49.044  1.00  0.00     0.066 A 
ATOM      6  C   UNL     1       5.228  10.952  48.749  1.00  0.00     0.200 A 
ATOM      7  O   UNL     1       4.405  11.173  49.680  1.00  0.00    -0.288 OA
ATOM      8  C   UNL     1       7.012  10.504  50.365  1.00  0.00     0.020 A 
ATOM      9  C   UNL     1       8.296  10.041  50.624  1.00  0.00     0.047 A 
ATOM     10  C   UNL     1       9.177   9.757  49.579  1.00  0.00     0.125 A 
ATOM     11  C   UNL     1       8.831  10.090  48.238  1.00  0.00     0.069 A 
ENDROOT
BRANCH   1  12
ATOM     12  C   UNL     1       3.412  11.337  47.034  1.00  0.00    -0.011 A 
ATOM     13  C   UNL     1       2.420  10.340  46.996  1.00  0.00     0.013 A 
ATOM     14  C   UNL     1       1.108  10.660  46.633  1.00  0.00     0.047 A 
ATOM     15  C   UNL     1       0.771  11.975  46.298  1.00  0.00     0.115 A 
ATOM     16  C   UNL     1       3.066  12.657  46.691  1.00  0.00     0.013 A 
ATOM     17  C   UNL     1       1.754  12.972  46.327  1.00  0.00     0.047 A 
BRANCH  15  18
ATOM     18  O   UNL     1      -0.540  12.278  45.938  1.00  0.00    -0.508 OA
ATOM     19  H   UNL     1      -1.060  13.014  46.403  1.00  0.00     0.293 HD
ENDBRANCH  15  18
ENDBRANCH   1  12
BRANCH  11  20
ATOM     20  C   UNL     1       9.894  10.005  47.119  1.00  0.00     0.188 C 
ATOM     21  C   UNL     1       9.313   9.881  45.662  1.00  0.00     0.179 C 
ATOM     22  O   UNL     1      10.929   9.052  47.353  1.00  0.00    -0.362 OA
ATOM     23  C   UNL     1       9.016   8.428  45.241  1.00  0.00     0.177 C 
ATOM     24  C   UNL     1      10.537   7.710  47.085  1.00  0.00     0.176 C 
ATOM     25  C   UNL     1      10.180   7.502  45.604  1.00  0.00     0.177 C 
BRANCH  21  26
ATOM     26  O   UNL     1      10.165  10.494  44.724  1.00  0.00    -0.387 OA
ATOM     27  H   UNL     1      10.786   9.809  44.367  1.00  0.00     0.211 HD
ENDBRANCH  21  26
BRANCH  23  28
ATOM     28  O   UNL     1       7.848   7.972  45.878  1.00  0.00    -0.387 OA
ATOM     29  H   UNL     1       8.135   7.441  46.666  1.00  0.00     0.211 HD
ENDBRANCH  23  28
BRANCH  24  30
ATOM     30  C   UNL     1      11.657   6.759  47.531  1.00  0.00     0.191 C 
BRANCH  30  31
ATOM     31  O   UNL     1      11.498   5.497  46.943  1.00  0.00    -0.394 OA
ATOM     32  H   UNL     1      10.811   5.607  46.235  1.00  0.00     0.210 HD
ENDBRANCH  30  31
ENDBRANCH  24  30
BRANCH  25  33
ATOM     33  O   UNL     1      11.293   7.759  44.786  1.00  0.00    -0.388 OA
ATOM     34  H   UNL     1      11.133   7.290  43.926  1.00  0.00     0.211 HD
ENDBRANCH  25  33
ENDBRANCH  11  20
BRANCH  10  35
ATOM     35  O   UNL     1      10.359   9.091  49.910  1.00  0.00    -0.507 OA
ATOM     36  H   UNL     1      10.461   8.528  50.744  1.00  0.00     0.293 HD
ENDBRANCH  10  35
TORSDOF 9
ENDMDL
MODEL 3
REMARK VINA RESULT:    -6.591      2.111      3.827
REMARK INTER + INTRA:          -9.057
REMARK INTER:                  -9.649
REMARK INTRA:                   0.592
REMARK UNBOUND:                -0.154
REMARK SMILES O=c1c(-c2ccc(O)cc2)coc2c([C@H]3O[C@H](CO)[C@H](O)[C@@H](O)[C@@H]3O)c(O)ccc12
REMARK SMILES IDX 3 1 11 2 12 3 13 4 30 5 2 6 1 7 29 8 28 9 26 10 14 11 4 12
REMARK SMILES IDX 5 13 6 14 7 15 10 16 9 17 8 18 15 20 24 21 16 22 22 23 17 24
REMARK SMILES IDX 20 25 25 26 23 28 18 30 19 31 21 33 27 35
REMARK H PARENT 8 19 25 27 23 29 19 32 21 34 27 36
REMARK Flexibility Score: inf
ROOT
ATOM      1  C   UNL     1       7.201  10.089  47.799  1.00  0.00     0.065 A 
ATOM      2  C   UNL     1       7.909   9.618  48.911  1.00  0.00     0.208 A 
ATOM      3  O   UNL     1       9.092   9.031  48.768  1.00  0.00    -0.463 OA
ATOM      4  C   UNL     1       9.686   8.851  47.591  1.00  0.00     0.147 A 
ATOM      5  C   UNL     1       9.061   9.351  46.422  1.00  0.00     0.066 A 
ATOM      6  C   UNL     1       7.798   9.962  46.533  1.00  0.00     0.200 A 
ATOM      7  O   UNL     1       7.219  10.420  45.510  1.00  0.00    -0.288 OA
ATOM      8  C   UNL     1       9.725   9.267  45.191  1.00  0.00     0.020 A 
ATOM      9  C   UNL     1      11.030   8.792  45.137  1.00  0.00     0.047 A 
ATOM     10  C   UNL     1      11.671   8.332  46.288  1.00  0.00     0.125 A 
ATOM     11  C   UNL     1      10.946   8.192  47.506  1.00  0.00     0.069 A 
ENDROOT
BRANCH   1  12
ATOM     12  C   UNL     1       5.868  10.717  47.981  1.00  0.00    -0.011 A 
ATOM     13  C   UNL     1       5.521  11.303  49.212  1.00  0.00     0.013 A 
ATOM     14  C   UNL     1       4.262  11.886  49.387  1.00  0.00     0.047 A 
ATOM     15  C   UNL     1       3.334  11.887  48.341  1.00  0.00     0.115 A 
ATOM     16  C   UNL     1       4.928  10.717  46.935  1.00  0.00     0.013 A 
ATOM     17  C   UNL     1       3.670  11.299  47.115  1.00  0.00     0.047 A 
BRANCH  15  18
ATOM     18  O   UNL     1       2.085  12.471  48.531  1.00  0.00    -0.508 OA
ATOM     19  H   UNL     1       1.887  13.413  48.216  1.00  0.00     0.293 HD
ENDBRANCH  15  18
ENDBRANCH   1  12
BRANCH  11  20
ATOM     20  C   UNL     1      11.583   7.458  48.708  1.00  0.00     0.188 C 
ATOM     21  C   UNL     1      12.667   6.382  48.329  1.00  0.00     0.179 C 
ATOM     22  O   UNL     1      10.647   6.947  49.657  1.00  0.00    -0.362 OA
ATOM     23  C   UNL     1      12.073   4.992  48.027  1.00  0.00     0.177 C 
ATOM     24  C   UNL     1      10.025   5.736  49.243  1.00  0.00     0.176 C 
ATOM     25  C   UNL     1      11.042   4.593  49.085  1.00  0.00     0.177 C 
BRANCH  21  26
ATOM     26  O   UNL     1      13.651   6.283  49.330  1.00  0.00    -0.387 OA
ATOM     27  H   UNL     1      14.498   5.981  48.910  1.00  0.00     0.211 HD
ENDBRANCH  21  26
BRANCH  23  28
ATOM     28  O   UNL     1      11.457   4.998  46.762  1.00  0.00    -0.387 OA
ATOM     29  H   UNL     1      10.860   4.207  46.726  1.00  0.00     0.211 HD
ENDBRANCH  23  28
BRANCH  24  30
ATOM     30  C   UNL     1       8.920   5.369  50.246  1.00  0.00     0.191 C 
BRANCH  30  31
ATOM     31  O   UNL     1       8.827   6.335  51.256  1.00  0.00    -0.394 OA
ATOM     32  H   UNL     1       8.400   5.885  52.031  1.00  0.00     0.210 HD
ENDBRANCH  30  31
ENDBRANCH  24  30
BRANCH  25  33
ATOM     33  O   UNL     1      11.670   4.317  50.312  1.00  0.00    -0.388 OA
ATOM     34  H   UNL     1      11.454   5.069  50.922  1.00  0.00     0.211 HD
ENDBRANCH  25  33
ENDBRANCH  11  20
BRANCH  10  35
ATOM     35  O   UNL     1      13.042   8.082  46.193  1.00  0.00    -0.507 OA
ATOM     36  H   UNL     1      13.464   7.613  45.403  1.00  0.00     0.293 HD
ENDBRANCH  10  35
TORSDOF 9
ENDMDL
MODEL 4
REMARK VINA RESULT:    -6.456      1.868      2.209
REMARK INTER + INTRA:          -8.874
REMARK INTER:                  -8.973
REMARK INTRA:                   0.099
REMARK UNBOUND:                -0.154
REMARK SMILES O=c1c(-c2ccc(O)cc2)coc2c([C@H]3O[C@H](CO)[C@H](O)[C@@H](O)[C@@H]3O)c(O)ccc12
REMARK SMILES IDX 3 1 11 2 12 3 13 4 30 5 2 6 1 7 29 8 28 9 26 10 14 11 4 12
REMARK SMILES IDX 5 13 6 14 7 15 10 16 9 17 8 18 15 20 24 21 16 22 22 23 17 24
REMARK SMILES IDX 20 25 25 26 23 28 18 30 19 31 21 33 27 35
REMARK H PARENT 8 19 25 27 23 29 19 32 21 34 27 36
REMARK Flexibility Score: inf
ROOT
ATOM      1  C   UNL     1       6.180  10.957  47.661  1.00  0.00     0.065 A 
ATOM      2  C   UNL     1       6.625   9.702  47.231  1.00  0.00     0.208 A 
ATOM      3  O   UNL     1       7.913   9.477  47.002  1.00  0.00    -0.463 OA
ATOM      4  C   UNL     1       8.861  10.398  47.160  1.00  0.00     0.147 A 
ATOM      5  C   UNL     1       8.499  11.678  47.648  1.00  0.00     0.066 A 
ATOM      6  C   UNL     1       7.140  11.958  47.884  1.00  0.00     0.200 A 
ATOM      7  O   UNL     1       6.788  13.088  48.322  1.00  0.00    -0.288 OA
ATOM      8  C   UNL     1       9.497  12.622  47.923  1.00  0.00     0.020 A 
ATOM      9  C   UNL     1      10.836  12.267  47.819  1.00  0.00     0.047 A 
ATOM     10  C   UNL     1      11.205  10.995  47.377  1.00  0.00     0.125 A 
ATOM     11  C   UNL     1      10.222  10.097  46.873  1.00  0.00     0.069 A 
ENDROOT
BRANCH   1  12
ATOM     12  C   UNL     1       4.731  11.193  47.885  1.00  0.00    -0.011 A 
ATOM     13  C   UNL     1       4.240  11.420  49.183  1.00  0.00     0.013 A 
ATOM     14  C   UNL     1       2.875  11.632  49.396  1.00  0.00     0.047 A 
ATOM     15  C   UNL     1       1.983  11.615  48.319  1.00  0.00     0.115 A 
ATOM     16  C   UNL     1       3.827  11.171  46.808  1.00  0.00     0.013 A 
ATOM     17  C   UNL     1       2.463  11.383  47.025  1.00  0.00     0.047 A 
BRANCH  15  18
ATOM     18  O   UNL     1       0.626  11.827  48.547  1.00  0.00    -0.508 OA
ATOM     19  H   UNL     1       0.068  12.403  47.927  1.00  0.00     0.293 HD
ENDBRANCH  15  18
ENDBRANCH   1  12
BRANCH  11  20
ATOM     20  C   UNL     1      10.654   8.795  46.160  1.00  0.00     0.188 C 
ATOM     21  C   UNL     1       9.544   7.681  46.086  1.00  0.00     0.179 C 
ATOM     22  O   UNL     1      11.902   8.262  46.598  1.00  0.00    -0.362 OA
ATOM     23  C   UNL     1       9.504   6.772  47.330  1.00  0.00     0.177 C 
ATOM     24  C   UNL     1      11.817   7.560  47.833  1.00  0.00     0.176 C 
ATOM     25  C   UNL     1      10.912   6.322  47.728  1.00  0.00     0.177 C 
BRANCH  21  26
ATOM     26  O   UNL     1       9.685   6.905  44.921  1.00  0.00    -0.387 OA
ATOM     27  H   UNL     1       8.826   6.441  44.745  1.00  0.00     0.211 HD
ENDBRANCH  21  26
BRANCH  23  28
ATOM     28  O   UNL     1       8.917   7.459  48.408  1.00  0.00    -0.387 OA
ATOM     29  H   UNL     1       8.179   8.008  48.035  1.00  0.00     0.211 HD
ENDBRANCH  23  28
BRANCH  24  30
ATOM     30  C   UNL     1      13.232   7.182  48.297  1.00  0.00     0.191 C 
BRANCH  30  31
ATOM     31  O   UNL     1      13.973   6.645  47.236  1.00  0.00    -0.394 OA
ATOM     32  H   UNL     1      14.758   7.242  47.117  1.00  0.00     0.210 HD
ENDBRANCH  30  31
ENDBRANCH  24  30
BRANCH  25  33
ATOM     33  O   UNL     1      11.426   5.411  46.790  1.00  0.00    -0.388 OA
ATOM     34  H   UNL     1      12.395   5.606  46.701  1.00  0.00     0.211 HD
ENDBRANCH  25  33
ENDBRANCH  11  20
BRANCH  10  35
ATOM     35  O   UNL     1      12.551  10.644  47.510  1.00  0.00    -0.507 OA
ATOM     36  H   UNL     1      13.046  10.085  46.828  1.00  0.00     0.293 HD
ENDBRANCH  10  35
TORSDOF 9
ENDMDL
MODEL 5
REMARK VINA RESULT:    -6.423      5.148      8.332
REMARK INTER + INTRA:          -8.830
REMARK INTER:                  -9.564
REMARK INTRA:                   0.734
REMARK UNBOUND:                -0.154
REMARK SMILES O=c1c(-c2ccc(O)cc2)coc2c([C@H]3O[C@H](CO)[C@H](O)[C@@H](O)[C@@H]3O)c(O)ccc12
REMARK SMILES IDX 3 1 11 2 12 3 13 4 30 5 2 6 1 7 29 8 28 9 26 10 14 11 4 12
REMARK SMILES IDX 5 13 6 14 7 15 10 16 9 17 8 18 15 20 24 21 16 22 22 23 17 24
REMARK SMILES IDX 20 25 25 26 23 28 18 30 19 31 21 33 27 35
REMARK H PARENT 8 19 25 27 23 29 19 32 21 34 27 36
REMARK Flexibility Score: inf
ROOT
ATOM      1  C   UNL     1      10.265   4.377  51.933  1.00  0.00     0.065 A 
ATOM      2  C   UNL     1       9.337   5.168  51.244  1.00  0.00     0.208 A 
ATOM      3  O   UNL     1       9.727   5.995  50.282  1.00  0.00    -0.463 OA
ATOM      4  C   UNL     1      10.994   6.134  49.900  1.00  0.00     0.147 A 
ATOM      5  C   UNL     1      11.987   5.327  50.508  1.00  0.00     0.066 A 
ATOM      6  C   UNL     1      11.613   4.453  51.545  1.00  0.00     0.200 A 
ATOM      7  O   UNL     1      12.475   3.719  52.103  1.00  0.00    -0.288 OA
ATOM      8  C   UNL     1      13.307   5.383  50.041  1.00  0.00     0.020 A 
ATOM      9  C   UNL     1      13.615   6.147  48.921  1.00  0.00     0.047 A 
ATOM     10  C   UNL     1      12.637   6.916  48.290  1.00  0.00     0.125 A 
ATOM     11  C   UNL     1      11.346   7.058  48.875  1.00  0.00     0.069 A 
ENDROOT
BRANCH   1  12
ATOM     12  C   UNL     1       9.809   3.480  53.024  1.00  0.00    -0.011 A 
ATOM     13  C   UNL     1      10.668   2.492  53.538  1.00  0.00     0.013 A 
ATOM     14  C   UNL     1      10.236   1.640  54.559  1.00  0.00     0.047 A 
ATOM     15  C   UNL     1       8.941   1.759  55.075  1.00  0.00     0.115 A 
ATOM     16  C   UNL     1       8.507   3.590  53.544  1.00  0.00     0.013 A 
ATOM     17  C   UNL     1       8.078   2.735  54.564  1.00  0.00     0.047 A 
BRANCH  15  18
ATOM     18  O   UNL     1       8.525   0.903  56.091  1.00  0.00    -0.508 OA
ATOM     19  H   UNL     1       9.169   0.263  56.541  1.00  0.00     0.293 HD
ENDBRANCH  15  18
ENDBRANCH   1  12
BRANCH  11  20
ATOM     20  C   UNL     1      10.349   8.098  48.314  1.00  0.00     0.188 C 
ATOM     21  C   UNL     1       8.831   7.726  48.496  1.00  0.00     0.179 C 
ATOM     22  O   UNL     1      10.627   8.529  46.983  1.00  0.00    -0.362 OA
ATOM     23  C   UNL     1       8.274   6.846  47.361  1.00  0.00     0.177 C 
ATOM     24  C   UNL     1      10.218   7.596  45.988  1.00  0.00     0.176 C 
ATOM     25  C   UNL     1       8.695   7.384  45.991  1.00  0.00     0.177 C 
BRANCH  21  26
ATOM     26  O   UNL     1       8.043   8.882  48.648  1.00  0.00    -0.387 OA
ATOM     27  H   UNL     1       7.861   9.015  49.613  1.00  0.00     0.211 HD
ENDBRANCH  21  26
BRANCH  23  28
ATOM     28  O   UNL     1       8.741   5.527  47.502  1.00  0.00    -0.387 OA
ATOM     29  H   UNL     1       8.539   5.055  46.653  1.00  0.00     0.211 HD
ENDBRANCH  23  28
BRANCH  24  30
ATOM     30  C   UNL     1      10.715   8.073  44.615  1.00  0.00     0.191 C 
BRANCH  30  31
ATOM     31  O   UNL     1      10.688   9.472  44.538  1.00  0.00    -0.394 OA
ATOM     32  H   UNL     1       9.986   9.698  43.873  1.00  0.00     0.210 HD
ENDBRANCH  30  31
ENDBRANCH  24  30
BRANCH  25  33
ATOM     33  O   UNL     1       8.028   8.587  45.703  1.00  0.00    -0.388 OA
ATOM     34  H   UNL     1       7.321   8.373  45.040  1.00  0.00     0.211 HD
ENDBRANCH  25  33
ENDBRANCH  11  20
BRANCH  10  35
ATOM     35  O   UNL     1      12.970   7.474  47.053  1.00  0.00    -0.507 OA
ATOM     36  H   UNL     1      12.310   7.561  46.291  1.00  0.00     0.293 HD
ENDBRANCH  10  35
TORSDOF 9
ENDMDL
MODEL 6
REMARK VINA RESULT:    -6.370      4.825      7.666
REMARK INTER + INTRA:          -8.759
REMARK INTER:                  -8.678
REMARK INTRA:                  -0.081
REMARK UNBOUND:                -0.154
REMARK SMILES O=c1c(-c2ccc(O)cc2)coc2c([C@H]3O[C@H](CO)[C@H](O)[C@@H](O)[C@@H]3O)c(O)ccc12
REMARK SMILES IDX 3 1 11 2 12 3 13 4 30 5 2 6 1 7 29 8 28 9 26 10 14 11 4 12
REMARK SMILES IDX 5 13 6 14 7 15 10 16 9 17 8 18 15 20 24 21 16 22 22 23 17 24
REMARK SMILES IDX 20 25 25 26 23 28 18 30 19 31 21 33 27 35
REMARK H PARENT 8 19 25 27 23 29 19 32 21 34 27 36
REMARK Flexibility Score: inf
ROOT
ATOM      1  C   UNL     1       9.526   5.374  51.718  1.00  0.00     0.065 A 
ATOM      2  C   UNL     1       9.470   5.253  50.325  1.00  0.00     0.208 A 
ATOM      3  O   UNL     1       9.311   6.322  49.553  1.00  0.00    -0.463 OA
ATOM      4  C   UNL     1       9.199   7.560  50.027  1.00  0.00     0.147 A 
ATOM      5  C   UNL     1       9.303   7.775  51.423  1.00  0.00     0.066 A 
ATOM      6  C   UNL     1       9.453   6.663  52.273  1.00  0.00     0.200 A 
ATOM      7  O   UNL     1       9.552   6.823  53.521  1.00  0.00    -0.288 OA
ATOM      8  C   UNL     1       9.297   9.082  51.926  1.00  0.00     0.020 A 
ATOM      9  C   UNL     1       9.295  10.162  51.052  1.00  0.00     0.047 A 
ATOM     10  C   UNL     1       9.231   9.964  49.672  1.00  0.00     0.125 A 
ATOM     11  C   UNL     1       9.006   8.661  49.143  1.00  0.00     0.069 A 
ENDROOT
BRANCH   1  12
ATOM     12  C   UNL     1       9.677   4.161  52.562  1.00  0.00    -0.011 A 
ATOM     13  C   UNL     1       8.572   3.637  53.258  1.00  0.00     0.013 A 
ATOM     14  C   UNL     1       8.716   2.501  54.060  1.00  0.00     0.047 A 
ATOM     15  C   UNL     1       9.962   1.879  54.183  1.00  0.00     0.115 A 
ATOM     16  C   UNL     1      10.928   3.533  52.694  1.00  0.00     0.013 A 
ATOM     17  C   UNL     1      11.068   2.398  53.498  1.00  0.00     0.047 A 
BRANCH  15  18
ATOM     18  O   UNL     1      10.089   0.748  54.986  1.00  0.00    -0.508 OA
ATOM     19  H   UNL     1       9.277   0.252  55.334  1.00  0.00     0.293 HD
ENDBRANCH  15  18
ENDBRANCH   1  12
BRANCH  11  20
ATOM     20  C   UNL     1       8.691   8.476  47.641  1.00  0.00     0.188 C 
ATOM     21  C   UNL     1       9.030   7.052  47.063  1.00  0.00     0.179 C 
ATOM     22  O   UNL     1       9.186   9.515  46.798  1.00  0.00    -0.362 OA
ATOM     23  C   UNL     1      10.490   6.913  46.589  1.00  0.00     0.177 C 
ATOM     24  C   UNL     1      10.579   9.406  46.522  1.00  0.00     0.176 C 
ATOM     25  C   UNL     1      10.911   8.121  45.747  1.00  0.00     0.177 C 
BRANCH  21  26
ATOM     26  O   UNL     1       8.146   6.705  46.024  1.00  0.00    -0.387 OA
ATOM     27  H   UNL     1       7.281   7.166  46.180  1.00  0.00     0.211 HD
ENDBRANCH  21  26
BRANCH  23  28
ATOM     28  O   UNL     1      11.347   6.803  47.699  1.00  0.00    -0.387 OA
ATOM     29  H   UNL     1      11.036   7.461  48.373  1.00  0.00     0.211 HD
ENDBRANCH  23  28
BRANCH  24  30
ATOM     30  C   UNL     1      11.040  10.657  45.758  1.00  0.00     0.191 C 
BRANCH  30  31
ATOM     31  O   UNL     1      10.258  10.854  44.613  1.00  0.00    -0.394 OA
ATOM     32  H   UNL     1       9.374  10.444  44.808  1.00  0.00     0.210 HD
ENDBRANCH  30  31
ENDBRANCH  24  30
BRANCH  25  33
ATOM     33  O   UNL     1      10.259   8.110  44.502  1.00  0.00    -0.388 OA
ATOM     34  H   UNL     1       9.387   8.566  44.631  1.00  0.00     0.211 HD
ENDBRANCH  25  33
ENDBRANCH  11  20
BRANCH  10  35
ATOM     35  O   UNL     1       9.456  11.078  48.861  1.00  0.00    -0.507 OA
ATOM     36  H   UNL     1       9.552  12.017  49.225  1.00  0.00     0.293 HD
ENDBRANCH  10  35
TORSDOF 9
ENDMDL
MODEL 7
REMARK VINA RESULT:    -6.357      5.335      8.171
REMARK INTER + INTRA:          -8.742
REMARK INTER:                  -8.657
REMARK INTRA:                  -0.085
REMARK UNBOUND:                -0.154
REMARK SMILES O=c1c(-c2ccc(O)cc2)coc2c([C@H]3O[C@H](CO)[C@H](O)[C@@H](O)[C@@H]3O)c(O)ccc12
REMARK SMILES IDX 3 1 11 2 12 3 13 4 30 5 2 6 1 7 29 8 28 9 26 10 14 11 4 12
REMARK SMILES IDX 5 13 6 14 7 15 10 16 9 17 8 18 15 20 24 21 16 22 22 23 17 24
REMARK SMILES IDX 20 25 25 26 23 28 18 30 19 31 21 33 27 35
REMARK H PARENT 8 19 25 27 23 29 19 32 21 34 27 36
REMARK Flexibility Score: inf
ROOT
ATOM      1  C   UNL     1       9.895   7.280  49.083  1.00  0.00     0.065 A 
ATOM      2  C   UNL     1      10.478   6.010  48.998  1.00  0.00     0.208 A 
ATOM      3  O   UNL     1      10.554   5.221  50.063  1.00  0.00    -0.463 OA
ATOM      4  C   UNL     1      10.093   5.561  51.264  1.00  0.00     0.147 A 
ATOM      5  C   UNL     1       9.438   6.808  51.421  1.00  0.00     0.066 A 
ATOM      6  C   UNL     1       9.355   7.677  50.317  1.00  0.00     0.200 A 
ATOM      7  O   UNL     1       8.774   8.792  50.426  1.00  0.00    -0.288 OA
ATOM      8  C   UNL     1       8.852   7.132  52.651  1.00  0.00     0.020 A 
ATOM      9  C   UNL     1       8.822   6.194  53.676  1.00  0.00     0.047 A 
ATOM     10  C   UNL     1       9.431   4.947  53.520  1.00  0.00     0.125 A 
ATOM     11  C   UNL     1      10.229   4.676  52.372  1.00  0.00     0.069 A 
ENDROOT
BRANCH   1  12
ATOM     12  C   UNL     1       9.846   8.154  47.884  1.00  0.00    -0.011 A 
ATOM     13  C   UNL     1      10.877   9.078  47.635  1.00  0.00     0.013 A 
ATOM     14  C   UNL     1      10.827   9.909  46.512  1.00  0.00     0.047 A 
ATOM     15  C   UNL     1       9.746   9.832  45.628  1.00  0.00     0.115 A 
ATOM     16  C   UNL     1       8.760   8.087  46.993  1.00  0.00     0.013 A 
ATOM     17  C   UNL     1       8.712   8.921  45.872  1.00  0.00     0.047 A 
BRANCH  15  18
ATOM     18  O   UNL     1       9.709  10.667  44.513  1.00  0.00    -0.508 OA
ATOM     19  H   UNL     1       8.832  10.948  44.091  1.00  0.00     0.293 HD
ENDBRANCH  15  18
ENDBRANCH   1  12
BRANCH  11  20
ATOM     20  C   UNL     1      11.097   3.399  52.314  1.00  0.00     0.188 C 
ATOM     21  C   UNL     1      11.405   2.743  53.711  1.00  0.00     0.179 C 
ATOM     22  O   UNL     1      12.275   3.516  51.518  1.00  0.00    -0.362 OA
ATOM     23  C   UNL     1      12.646   3.336  54.407  1.00  0.00     0.177 C 
ATOM     24  C   UNL     1      13.334   4.208  52.172  1.00  0.00     0.176 C 
ATOM     25  C   UNL     1      13.817   3.464  53.428  1.00  0.00     0.177 C 
BRANCH  21  26
ATOM     26  O   UNL     1      11.533   1.346  53.596  1.00  0.00    -0.387 OA
ATOM     27  H   UNL     1      12.477   1.133  53.380  1.00  0.00     0.211 HD
ENDBRANCH  21  26
BRANCH  23  28
ATOM     28  O   UNL     1      12.342   4.605  54.931  1.00  0.00    -0.387 OA
ATOM     29  H   UNL     1      12.581   5.272  54.236  1.00  0.00     0.211 HD
ENDBRANCH  23  28
BRANCH  24  30
ATOM     30  C   UNL     1      14.482   4.430  51.176  1.00  0.00     0.191 C 
BRANCH  30  31
ATOM     31  O   UNL     1      14.134   3.953  49.906  1.00  0.00    -0.394 OA
ATOM     32  H   UNL     1      13.325   4.461  49.632  1.00  0.00     0.210 HD
ENDBRANCH  30  31
ENDBRANCH  24  30
BRANCH  25  33
ATOM     33  O   UNL     1      14.322   2.198  53.090  1.00  0.00    -0.388 OA
ATOM     34  H   UNL     1      15.241   2.146  53.460  1.00  0.00     0.211 HD
ENDBRANCH  25  33
ENDBRANCH  11  20
BRANCH  10  35
ATOM     35  O   UNL     1       9.169   3.987  54.500  1.00  0.00    -0.507 OA
ATOM     36  H   UNL     1       9.878   3.368  54.870  1.00  0.00     0.293 HD
ENDBRANCH  10  35
TORSDOF 9
ENDMDL
MODEL 8
REMARK VINA RESULT:    -6.320      2.932      4.761
REMARK INTER + INTRA:          -8.691
REMARK INTER:                  -8.613
REMARK INTRA:                  -0.078
REMARK UNBOUND:                -0.154
REMARK SMILES O=c1c(-c2ccc(O)cc2)coc2c([C@H]3O[C@H](CO)[C@H](O)[C@@H](O)[C@@H]3O)c(O)ccc12
REMARK SMILES IDX 3 1 11 2 12 3 13 4 30 5 2 6 1 7 29 8 28 9 26 10 14 11 4 12
REMARK SMILES IDX 5 13 6 14 7 15 10 16 9 17 8 18 15 20 24 21 16 22 22 23 17 24
REMARK SMILES IDX 20 25 25 26 23 28 18 30 19 31 21 33 27 35
REMARK H PARENT 8 19 25 27 23 29 19 32 21 34 27 36
REMARK Flexibility Score: inf
ROOT
ATOM      1  C   UNL     1       7.164  10.423  48.523  1.00  0.00     0.065 A 
ATOM      2  C   UNL     1       7.961  10.238  49.658  1.00  0.00     0.208 A 
ATOM      3  O   UNL     1       8.959   9.362  49.656  1.00  0.00    -0.463 OA
ATOM      4  C   UNL     1       9.277   8.612  48.604  1.00  0.00     0.147 A 
ATOM      5  C   UNL     1       8.555   8.780  47.397  1.00  0.00     0.066 A 
ATOM      6  C   UNL     1       7.478   9.686  47.368  1.00  0.00     0.200 A 
ATOM      7  O   UNL     1       6.819   9.860  46.306  1.00  0.00    -0.288 OA
ATOM      8  C   UNL     1       8.948   8.078  46.251  1.00  0.00     0.020 A 
ATOM      9  C   UNL     1      10.102   7.304  46.272  1.00  0.00     0.047 A 
ATOM     10  C   UNL     1      10.844   7.161  47.446  1.00  0.00     0.125 A 
ATOM     11  C   UNL     1      10.346   7.673  48.678  1.00  0.00     0.069 A 
ENDROOT
BRANCH   1  12
ATOM     12  C   UNL     1       6.037  11.388  48.557  1.00  0.00    -0.011 A 
ATOM     13  C   UNL     1       4.871  11.094  49.288  1.00  0.00     0.013 A 
ATOM     14  C   UNL     1       3.805  11.999  49.314  1.00  0.00     0.047 A 
ATOM     15  C   UNL     1       3.887  13.203  48.607  1.00  0.00     0.115 A 
ATOM     16  C   UNL     1       6.108  12.599  47.845  1.00  0.00     0.013 A 
ATOM     17  C   UNL     1       5.040  13.500  47.872  1.00  0.00     0.047 A 
BRANCH  15  18
ATOM     18  O   UNL     1       2.816  14.094  48.642  1.00  0.00    -0.508 OA
ATOM     19  H   UNL     1       2.030  14.002  48.009  1.00  0.00     0.293 HD
ENDBRANCH  15  18
ENDBRANCH   1  12
BRANCH  11  20
ATOM     20  C   UNL     1      11.039   7.305  50.009  1.00  0.00     0.188 C 
ATOM     21  C   UNL     1      11.778   5.916  50.009  1.00  0.00     0.179 C 
ATOM     22  O   UNL     1      10.223   7.465  51.168  1.00  0.00    -0.362 OA
ATOM     23  C   UNL     1      10.860   4.732  50.370  1.00  0.00     0.177 C 
ATOM     24  C   UNL     1       9.293   6.404  51.357  1.00  0.00     0.176 C 
ATOM     25  C   UNL     1       9.998   5.058  51.592  1.00  0.00     0.177 C 
BRANCH  21  26
ATOM     26  O   UNL     1      12.898   5.940  50.861  1.00  0.00    -0.387 OA
ATOM     27  H   UNL     1      13.698   6.174  50.324  1.00  0.00     0.211 HD
ENDBRANCH  21  26
BRANCH  23  28
ATOM     28  O   UNL     1      10.023   4.425  49.282  1.00  0.00    -0.387 OA
ATOM     29  H   UNL     1      10.596   4.397  48.473  1.00  0.00     0.211 HD
ENDBRANCH  23  28
BRANCH  24  30
ATOM     30  C   UNL     1       8.356   6.757  52.522  1.00  0.00     0.191 C 
BRANCH  30  31
ATOM     31  O   UNL     1       7.714   7.980  52.289  1.00  0.00    -0.394 OA
ATOM     32  H   UNL     1       8.055   8.607  52.979  1.00  0.00     0.210 HD
ENDBRANCH  30  31
ENDBRANCH  24  30
BRANCH  25  33
ATOM     33  O   UNL     1      10.783   5.106  52.756  1.00  0.00    -0.388 OA
ATOM     34  H   UNL     1      10.272   4.643  53.469  1.00  0.00     0.211 HD
ENDBRANCH  25  33
ENDBRANCH  11  20
BRANCH  10  35
ATOM     35  O   UNL     1      12.098   6.556  47.333  1.00  0.00    -0.507 OA
ATOM     36  H   UNL     1      12.715   6.705  46.545  1.00  0.00     0.293 HD
ENDBRANCH  10  35
TORSDOF 9
ENDMDL
MODEL 9
REMARK VINA RESULT:    -5.309      1.894      3.101
REMARK INTER + INTRA:          -7.325
REMARK INTER:                  -7.427
REMARK INTRA:                   0.102
REMARK UNBOUND:                -0.154
REMARK SMILES O=c1c(-c2ccc(O)cc2)coc2c([C@H]3O[C@H](CO)[C@H](O)[C@@H](O)[C@@H]3O)c(O)ccc12
REMARK SMILES IDX 3 1 11 2 12 3 13 4 30 5 2 6 1 7 29 8 28 9 26 10 14 11 4 12
REMARK SMILES IDX 5 13 6 14 7 15 10 16 9 17 8 18 15 20 24 21 16 22 22 23 17 24
REMARK SMILES IDX 20 25 25 26 23 28 18 30 19 31 21 33 27 35
REMARK H PARENT 8 19 25 27 23 29 19 32 21 34 27 36
REMARK Flexibility Score: inf
ROOT
ATOM      1  C   UNL     1       5.738  11.690  47.923  1.00  0.00     0.065 A 
ATOM      2  C   UNL     1       6.523  10.546  48.105  1.00  0.00     0.208 A 
ATOM      3  O   UNL     1       7.843  10.596  47.973  1.00  0.00    -0.463 OA
ATOM      4  C   UNL     1       8.510  11.707  47.669  1.00  0.00     0.147 A 
ATOM      5  C   UNL     1       7.794  12.921  47.524  1.00  0.00     0.066 A 
ATOM      6  C   UNL     1       6.391  12.901  47.639  1.00  0.00     0.200 A 
ATOM      7  O   UNL     1       5.727  13.967  47.519  1.00  0.00    -0.288 OA
ATOM      8  C   UNL     1       8.492  14.116  47.313  1.00  0.00     0.020 A 
ATOM      9  C   UNL     1       9.881  14.125  47.350  1.00  0.00     0.047 A 
ATOM     10  C   UNL     1      10.598  12.941  47.531  1.00  0.00     0.125 A 
ATOM     11  C   UNL     1       9.926  11.685  47.518  1.00  0.00     0.069 A 
ENDROOT
BRANCH   1  12
ATOM     12  C   UNL     1       4.261  11.603  48.049  1.00  0.00    -0.011 A 
ATOM     13  C   UNL     1       3.483  11.119  46.982  1.00  0.00     0.013 A 
ATOM     14  C   UNL     1       2.092  11.046  47.096  1.00  0.00     0.047 A 
ATOM     15  C   UNL     1       1.459  11.460  48.273  1.00  0.00     0.115 A 
ATOM     16  C   UNL     1       3.617  12.023  49.227  1.00  0.00     0.013 A 
ATOM     17  C   UNL     1       2.226  11.950  49.337  1.00  0.00     0.047 A 
BRANCH  15  18
ATOM     18  O   UNL     1       0.072  11.382  48.372  1.00  0.00    -0.508 OA
ATOM     19  H   UNL     1      -0.384  11.153  49.247  1.00  0.00     0.293 HD
ENDBRANCH  15  18
ENDBRANCH   1  12
BRANCH  11  20
ATOM     20  C   UNL     1      10.738  10.371  47.471  1.00  0.00     0.188 C 
ATOM     21  C   UNL     1      11.898  10.346  46.408  1.00  0.00     0.179 C 
ATOM     22  O   UNL     1       9.947   9.185  47.410  1.00  0.00    -0.362 OA
ATOM     23  C   UNL     1      11.438   9.901  45.007  1.00  0.00     0.177 C 
ATOM     24  C   UNL     1       9.429   8.915  46.112  1.00  0.00     0.176 C 
ATOM     25  C   UNL     1      10.549   8.657  45.090  1.00  0.00     0.177 C 
BRANCH  21  26
ATOM     26  O   UNL     1      12.968   9.544  46.847  1.00  0.00    -0.387 OA
ATOM     27  H   UNL     1      12.748   8.596  46.661  1.00  0.00     0.211 HD
ENDBRANCH  21  26
BRANCH  23  28
ATOM     28  O   UNL     1      10.722  10.939  44.384  1.00  0.00    -0.387 OA
ATOM     29  H   UNL     1       9.863  11.032  44.871  1.00  0.00     0.211 HD
ENDBRANCH  23  28
BRANCH  24  30
ATOM     30  C   UNL     1       8.460   7.726  46.193  1.00  0.00     0.191 C 
BRANCH  30  31
ATOM     31  O   UNL     1       8.465   7.000  44.995  1.00  0.00    -0.394 OA
ATOM     32  H   UNL     1       7.888   6.207  45.149  1.00  0.00     0.210 HD
ENDBRANCH  30  31
ENDBRANCH  24  30
BRANCH  25  33
ATOM     33  O   UNL     1      11.304   7.530  45.457  1.00  0.00    -0.388 OA
ATOM     34  H   UNL     1      11.499   7.030  44.623  1.00  0.00     0.211 HD
ENDBRANCH  25  33
ENDBRANCH  11  20
BRANCH  10  35
ATOM     35  O   UNL     1      11.968  13.061  47.778  1.00  0.00    -0.507 OA
ATOM     36  H   UNL     1      12.671  12.940  47.061  1.00  0.00     0.293 HD
ENDBRANCH  10  35
TORSDOF 9
ENDMDL
