MODEL 1
REMARK VINA RESULT:     8.603      0.000      0.000
REMARK INTER + INTRA:           8.603
REMARK INTER:                   8.603
REMARK INTRA:                   0.000
REMARK UNBOUND:                 0.000
REMARK SMILES CC1=CC[C@]2(C)CCCC(C)(C)[C@@]23C[C@@H]13
REMARK SMILES IDX 1 1 2 2 3 3 4 4 5 5 7 6 8 7 9 8 10 9 13 10 15 11 14 12 11 13
REMARK SMILES IDX 12 14 6 15
REMARK H PARENT
REMARK Flexibility Score: inf
ROOT
ATOM      1  C   UNL     1     -13.198  -2.735  21.096  1.00  0.00     0.039 C 
ATOM      2  C   UNL     1     -14.183  -2.431  20.002  1.00  0.00    -0.074 C 
ATOM      3  C   UNL     1     -15.116  -1.494  20.191  1.00  0.00    -0.027 C 
ATOM      4  C   UNL     1     -16.178  -1.268  19.166  1.00  0.00     0.034 C 
ATOM      5  C   UNL     1     -15.657  -1.207  17.693  1.00  0.00    -0.022 C 
ATOM      6  C   UNL     1     -16.949  -1.310  16.814  1.00  0.00     0.008 C 
ATOM      7  C   UNL     1     -16.697  -1.748  15.385  1.00  0.00     0.001 C 
ATOM      8  C   UNL     1     -16.097  -3.146  15.400  1.00  0.00     0.007 C 
ATOM      9  C   UNL     1     -14.664  -3.159  15.986  1.00  0.00    -0.029 C 
ATOM     10  C   UNL     1     -14.609  -2.382  17.382  1.00  0.00    -0.012 C 
ATOM     11  C   UNL     1     -14.008  -3.068  18.646  1.00  0.00     0.022 C 
ATOM     12  C   UNL     1     -13.137  -2.156  17.813  1.00  0.00     0.017 C 
ATOM     13  C   UNL     1     -13.711  -2.503  14.942  1.00  0.00     0.012 C 
ATOM     14  C   UNL     1     -14.258  -4.647  16.119  1.00  0.00     0.012 C 
ATOM     15  C   UNL     1     -15.020   0.186  17.442  1.00  0.00     0.012 C 
ENDROOT
TORSDOF 0
ENDMDL
