MODEL 1
REMARK VINA RESULT:    -3.361      0.000      0.000
REMARK INTER + INTRA:          -4.644
REMARK INTER:                  -4.736
REMARK INTRA:                   0.092
REMARK UNBOUND:                 0.092
REMARK SMILES CC1=CCC(=C(C)C)C(=O)CC(C)=CCC1
REMARK SMILES IDX 12 1 14 2 13 3 15 4 16 5 2 6 1 7 3 8 11 10 9 11 10 12 5 13
REMARK SMILES IDX 6 14 7 15 8 16 4 17
REMARK H PARENT
REMARK Flexibility Score: 60.00
ROOT
ATOM      1  C   UNL     1      -5.268   9.406 -10.892  1.00  0.00    -0.070 C 
ATOM      2  C   UNL     1      -5.292   8.277 -11.648  1.00  0.00    -0.027 C 
ATOM      3  C   UNL     1      -6.600   9.919 -10.397  1.00  0.00     0.039 C 
ENDROOT
BRANCH   2   4
ATOM      4  C   UNL     1      -4.108   7.496 -12.166  1.00  0.00     0.032 C 
BRANCH   4   5
ATOM      5  C   UNL     1      -3.433   8.099 -13.409  1.00  0.00     0.034 C 
BRANCH   5   6
ATOM      6  C   UNL     1      -1.937   8.337 -13.293  1.00  0.00    -0.077 C 
ATOM      7  C   UNL     1      -1.020   7.146 -13.175  1.00  0.00     0.039 C 
ATOM      8  C   UNL     1      -1.383   9.570 -13.199  1.00  0.00    -0.023 CG0
ATOM      9  G   UNL     1      -2.101  10.872 -13.438  1.00  0.00     0.000 G0
ENDBRANCH   5   6
ENDBRANCH   4   5
ENDBRANCH   2   4
BRANCH   1  10
ATOM     10  C   UNL     1      -4.037  10.261 -10.609  1.00  0.00     0.111 C 
BRANCH  10  11
ATOM     11  C   UNL     1      -3.781  11.379 -11.581  1.00  0.00     0.163 C 
ATOM     12  O   UNL     1      -4.745  12.074 -12.000  1.00  0.00    -0.294 OA
BRANCH  11  13
ATOM     13  C   UNL     1      -2.423  11.595 -12.140  1.00  0.00    -0.002 C 
ATOM     14  C   UNL     1      -1.553  12.430 -11.506  1.00  0.00    -0.069 C 
ATOM     15  C   UNL     1      -0.177  12.712 -12.061  1.00  0.00     0.039 C 
ATOM     16  C   UNL     1      -1.952  13.128 -10.225  1.00  0.00     0.039 C 
BRANCH  13  17
ATOM     17  C   UNL     1      -2.090  10.902 -13.454  1.00  0.00     0.066 CG0
ATOM     18  G   UNL     1      -1.388   9.598 -13.186  1.00  0.00     0.000 G0
ENDBRANCH  13  17
ENDBRANCH  11  13
ENDBRANCH  10  11
ENDBRANCH   1  10
TORSDOF 0
ENDMDL
MODEL 2
REMARK VINA RESULT:    -3.253     10.107     11.982
REMARK INTER + INTRA:          -4.493
REMARK INTER:                  -5.029
REMARK INTRA:                   0.536
REMARK UNBOUND:                 0.092
REMARK SMILES CC1=CCC(=C(C)C)C(=O)CC(C)=CCC1
REMARK SMILES IDX 12 1 14 2 13 3 15 4 16 5 2 6 1 7 3 8 11 10 9 11 10 12 5 13
REMARK SMILES IDX 6 14 7 15 8 16 4 17
REMARK H PARENT
REMARK Flexibility Score: 60.00
ROOT
ATOM      1  C   UNL     1     -13.527  11.374 -18.786  1.00  0.00    -0.070 C 
ATOM      2  C   UNL     1     -13.758  10.244 -18.069  1.00  0.00    -0.027 C 
ATOM      3  C   UNL     1     -12.645  11.235 -20.004  1.00  0.00     0.039 C 
ENDROOT
BRANCH   2   4
ATOM      4  C   UNL     1     -14.687  10.081 -16.888  1.00  0.00     0.032 C 
BRANCH   4   5
ATOM      5  C   UNL     1     -14.002   9.626 -15.589  1.00  0.00     0.034 C 
BRANCH   5   6
ATOM      6  C   UNL     1     -12.840  10.487 -15.123  1.00  0.00    -0.077 C 
ATOM      7  C   UNL     1     -11.499   9.835 -14.897  1.00  0.00     0.039 C 
ATOM      8  C   UNL     1     -12.963  11.799 -14.810  1.00  0.00    -0.023 CG0
ATOM      9  G   UNL     1     -14.165  12.658 -15.101  1.00  0.00     0.000 G0
ENDBRANCH   5   6
ENDBRANCH   4   5
ENDBRANCH   2   4
BRANCH   1  10
ATOM     10  C   UNL     1     -13.977  12.779 -18.400  1.00  0.00     0.111 C 
BRANCH  10  11
ATOM     11  C   UNL     1     -13.174  13.446 -17.318  1.00  0.00     0.163 C 
ATOM     12  O   UNL     1     -11.935  13.619 -17.476  1.00  0.00    -0.294 OA
BRANCH  11  13
ATOM     13  C   UNL     1     -13.805  13.796 -16.020  1.00  0.00    -0.002 C 
ATOM     14  C   UNL     1     -13.987  15.104 -15.685  1.00  0.00    -0.069 C 
ATOM     15  C   UNL     1     -14.585  15.507 -14.358  1.00  0.00     0.039 C 
ATOM     16  C   UNL     1     -13.569  16.207 -16.633  1.00  0.00     0.039 C 
BRANCH  13  17
ATOM     17  C   UNL     1     -14.166  12.649 -15.087  1.00  0.00     0.066 CG0
ATOM     18  G   UNL     1     -12.952  11.797 -14.825  1.00  0.00     0.000 G0
ENDBRANCH  13  17
ENDBRANCH  11  13
ENDBRANCH  10  11
ENDBRANCH   1  10
TORSDOF 0
ENDMDL
MODEL 3
REMARK VINA RESULT:    -3.246      7.964     10.060
REMARK INTER + INTRA:          -4.482
REMARK INTER:                  -4.730
REMARK INTRA:                   0.247
REMARK UNBOUND:                 0.092
REMARK SMILES CC1=CCC(=C(C)C)C(=O)CC(C)=CCC1
REMARK SMILES IDX 12 1 14 2 13 3 15 4 16 5 2 6 1 7 3 8 11 10 9 11 10 12 5 13
REMARK SMILES IDX 6 14 7 15 8 16 4 17
REMARK H PARENT
REMARK Flexibility Score: 60.00
ROOT
ATOM      1  C   UNL     1     -14.071  11.078 -15.877  1.00  0.00    -0.070 C 
ATOM      2  C   UNL     1     -14.388  10.028 -16.679  1.00  0.00    -0.027 C 
ATOM      3  C   UNL     1     -14.171  12.455 -16.492  1.00  0.00     0.039 C 
ENDROOT
BRANCH   2   4
ATOM      4  C   UNL     1     -14.485   8.573 -16.288  1.00  0.00     0.032 C 
BRANCH   4   5
ATOM      5  C   UNL     1     -13.145   7.819 -16.277  1.00  0.00     0.034 C 
BRANCH   5   6
ATOM      6  C   UNL     1     -12.763   7.177 -14.955  1.00  0.00    -0.077 C 
ATOM      7  C   UNL     1     -13.524   5.960 -14.493  1.00  0.00     0.039 C 
ATOM      8  C   UNL     1     -11.830   7.691 -14.118  1.00  0.00    -0.023 CG0
ATOM      9  G   UNL     1     -10.871   8.802 -14.455  1.00  0.00     0.000 G0
ENDBRANCH   5   6
ENDBRANCH   4   5
ENDBRANCH   2   4
BRANCH   1  10
ATOM     10  C   UNL     1     -13.510  10.979 -14.463  1.00  0.00     0.111 C 
BRANCH  10  11
ATOM     11  C   UNL     1     -12.017  11.108 -14.343  1.00  0.00     0.163 C 
ATOM     12  O   UNL     1     -11.424  12.058 -14.921  1.00  0.00    -0.294 OA
BRANCH  11  13
ATOM     13  C   UNL     1     -11.224  10.061 -13.650  1.00  0.00    -0.002 C 
ATOM     14  C   UNL     1     -10.792  10.270 -12.375  1.00  0.00    -0.069 C 
ATOM     15  C   UNL     1      -9.948   9.251 -11.647  1.00  0.00     0.039 C 
ATOM     16  C   UNL     1     -11.128  11.554 -11.649  1.00  0.00     0.039 C 
BRANCH  13  17
ATOM     17  C   UNL     1     -10.878   8.808 -14.441  1.00  0.00     0.066 CG0
ATOM     18  G   UNL     1     -11.856   7.708 -14.119  1.00  0.00     0.000 G0
ENDBRANCH  13  17
ENDBRANCH  11  13
ENDBRANCH  10  11
ENDBRANCH   1  10
TORSDOF 0
ENDMDL
MODEL 4
REMARK VINA RESULT:    -3.170      2.301      5.293
REMARK INTER + INTRA:          -4.375
REMARK INTER:                  -4.574
REMARK INTRA:                   0.199
REMARK UNBOUND:                 0.092
REMARK SMILES CC1=CCC(=C(C)C)C(=O)CC(C)=CCC1
REMARK SMILES IDX 12 1 14 2 13 3 15 4 16 5 2 6 1 7 3 8 11 10 9 11 10 12 5 13
REMARK SMILES IDX 6 14 7 15 8 16 4 17
REMARK H PARENT
REMARK Flexibility Score: 60.00
ROOT
ATOM      1  C   UNL     1      -1.802  13.805 -11.385  1.00  0.00    -0.070 C 
ATOM      2  C   UNL     1      -2.689  14.811 -11.604  1.00  0.00    -0.027 C 
ATOM      3  C   UNL     1      -0.343  14.127 -11.609  1.00  0.00     0.039 C 
ENDROOT
BRANCH   2   4
ATOM      4  C   UNL     1      -4.177  14.793 -11.346  1.00  0.00     0.032 C 
BRANCH   4   5
ATOM      5  C   UNL     1      -4.989  13.923 -12.320  1.00  0.00     0.034 C 
BRANCH   5   6
ATOM      6  C   UNL     1      -5.834  12.835 -11.681  1.00  0.00    -0.077 C 
ATOM      7  C   UNL     1      -6.911  13.234 -10.704  1.00  0.00     0.039 C 
ATOM      8  C   UNL     1      -5.616  11.512 -11.872  1.00  0.00    -0.023 CG0
ATOM      9  G   UNL     1      -4.697  10.918 -12.907  1.00  0.00     0.000 G0
ENDBRANCH   5   6
ENDBRANCH   4   5
ENDBRANCH   2   4
BRANCH   1  10
ATOM     10  C   UNL     1      -2.161  12.360 -11.057  1.00  0.00     0.111 C 
BRANCH  10  11
ATOM     11  C   UNL     1      -2.289  11.436 -12.236  1.00  0.00     0.163 C 
ATOM     12  O   UNL     1      -1.509  11.565 -13.219  1.00  0.00    -0.294 OA
BRANCH  11  13
ATOM     13  C   UNL     1      -3.398  10.451 -12.305  1.00  0.00    -0.002 C 
ATOM     14  C   UNL     1      -3.202   9.176 -11.866  1.00  0.00    -0.069 C 
ATOM     15  C   UNL     1      -4.288   8.131 -11.955  1.00  0.00     0.039 C 
ATOM     16  C   UNL     1      -1.866   8.757 -11.291  1.00  0.00     0.039 C 
BRANCH  13  17
ATOM     17  C   UNL     1      -4.705  10.914 -12.932  1.00  0.00     0.066 CG0
ATOM     18  G   UNL     1      -5.609  11.490 -11.874  1.00  0.00     0.000 G0
ENDBRANCH  13  17
ENDBRANCH  11  13
ENDBRANCH  10  11
ENDBRANCH   1  10
TORSDOF 0
ENDMDL
MODEL 5
REMARK VINA RESULT:    -3.165     10.822     12.694
REMARK INTER + INTRA:          -4.368
REMARK INTER:                  -4.482
REMARK INTRA:                   0.114
REMARK UNBOUND:                 0.092
REMARK SMILES CC1=CCC(=C(C)C)C(=O)CC(C)=CCC1
REMARK SMILES IDX 12 1 14 2 13 3 15 4 16 5 2 6 1 7 3 8 11 10 9 11 10 12 5 13
REMARK SMILES IDX 6 14 7 15 8 16 4 17
REMARK H PARENT
REMARK Flexibility Score: 60.00
ROOT
ATOM      1  C   UNL     1      -3.855  16.565 -24.606  1.00  0.00    -0.070 C 
ATOM      2  C   UNL     1      -3.855  17.238 -23.426  1.00  0.00    -0.027 C 
ATOM      3  C   UNL     1      -4.611  17.201 -25.749  1.00  0.00     0.039 C 
ENDROOT
BRANCH   2   4
ATOM      4  C   UNL     1      -3.090  16.889 -22.171  1.00  0.00     0.032 C 
BRANCH   4   5
ATOM      5  C   UNL     1      -3.747  15.808 -21.297  1.00  0.00     0.034 C 
BRANCH   5   6
ATOM      6  C   UNL     1      -2.866  14.622 -20.945  1.00  0.00    -0.077 C 
ATOM      7  C   UNL     1      -1.701  14.837 -20.010  1.00  0.00     0.039 C 
ATOM      8  C   UNL     1      -3.013  13.393 -21.495  1.00  0.00    -0.023 CG0
ATOM      9  G   UNL     1      -4.185  12.943 -22.327  1.00  0.00     0.000 G0
ENDBRANCH   5   6
ENDBRANCH   4   5
ENDBRANCH   2   4
BRANCH   1  10
ATOM     10  C   UNL     1      -3.268  15.177 -24.838  1.00  0.00     0.111 C 
BRANCH  10  11
ATOM     11  C   UNL     1      -4.216  14.027 -24.646  1.00  0.00     0.163 C 
ATOM     12  O   UNL     1      -5.383  14.095 -25.119  1.00  0.00    -0.294 OA
BRANCH  11  13
ATOM     13  C   UNL     1      -3.832  12.865 -23.806  1.00  0.00    -0.002 C 
ATOM     14  C   UNL     1      -3.224  11.787 -24.376  1.00  0.00    -0.069 C 
ATOM     15  C   UNL     1      -2.853  10.567 -23.567  1.00  0.00     0.039 C 
ATOM     16  C   UNL     1      -2.920  11.769 -25.858  1.00  0.00     0.039 C 
BRANCH  13  17
ATOM     17  C   UNL     1      -4.200  12.918 -22.330  1.00  0.00     0.066 CG0
ATOM     18  G   UNL     1      -3.021  13.391 -21.521  1.00  0.00     0.000 G0
ENDBRANCH  13  17
ENDBRANCH  11  13
ENDBRANCH  10  11
ENDBRANCH   1  10
TORSDOF 0
ENDMDL
MODEL 6
REMARK VINA RESULT:    -3.070      2.132      4.332
REMARK INTER + INTRA:          -4.235
REMARK INTER:                  -4.619
REMARK INTRA:                   0.384
REMARK UNBOUND:                 0.092
REMARK SMILES CC1=CCC(=C(C)C)C(=O)CC(C)=CCC1
REMARK SMILES IDX 12 1 14 2 13 3 15 4 16 5 2 6 1 7 3 8 11 10 9 11 10 12 5 13
REMARK SMILES IDX 6 14 7 15 8 16 4 17
REMARK H PARENT
REMARK Flexibility Score: 60.00
ROOT
ATOM      1  C   UNL     1      -3.711  10.225 -11.556  1.00  0.00    -0.070 C 
ATOM      2  C   UNL     1      -3.652  11.080 -10.502  1.00  0.00    -0.027 C 
ATOM      3  C   UNL     1      -4.386   8.896 -11.313  1.00  0.00     0.039 C 
ENDROOT
BRANCH   2   4
ATOM      4  C   UNL     1      -3.143  12.502 -10.502  1.00  0.00     0.032 C 
BRANCH   4   5
ATOM      5  C   UNL     1      -1.650  12.651 -10.841  1.00  0.00     0.034 C 
BRANCH   5   6
ATOM      6  C   UNL     1      -1.335  13.492 -12.065  1.00  0.00    -0.077 C 
ATOM      7  C   UNL     1      -1.922  14.878 -12.164  1.00  0.00     0.039 C 
ATOM      8  C   UNL     1      -0.624  13.033 -13.123  1.00  0.00    -0.023 CG0
ATOM      9  G   UNL     1       0.160  11.747 -13.157  1.00  0.00     0.000 G0
ENDBRANCH   5   6
ENDBRANCH   4   5
ENDBRANCH   2   4
BRANCH   1  10
ATOM     10  C   UNL     1      -3.050  10.440 -12.913  1.00  0.00     0.111 C 
BRANCH  10  11
ATOM     11  C   UNL     1      -1.643   9.926 -13.043  1.00  0.00     0.163 C 
ATOM     12  O   UNL     1      -1.280   8.923 -12.370  1.00  0.00    -0.294 OA
BRANCH  11  13
ATOM     13  C   UNL     1      -0.646  10.658 -13.864  1.00  0.00    -0.002 C 
ATOM     14  C   UNL     1      -0.448  10.305 -15.165  1.00  0.00    -0.069 C 
ATOM     15  C   UNL     1       0.585  10.994 -16.025  1.00  0.00     0.039 C 
ATOM     16  C   UNL     1      -1.248   9.183 -15.788  1.00  0.00     0.039 C 
BRANCH  13  17
ATOM     17  C   UNL     1       0.162  11.749 -13.174  1.00  0.00     0.066 CG0
ATOM     18  G   UNL     1      -0.638  13.024 -13.118  1.00  0.00     0.000 G0
ENDBRANCH  13  17
ENDBRANCH  11  13
ENDBRANCH  10  11
ENDBRANCH   1  10
TORSDOF 0
ENDMDL
MODEL 7
REMARK VINA RESULT:    -3.061      3.097      4.779
REMARK INTER + INTRA:          -4.222
REMARK INTER:                  -4.391
REMARK INTRA:                   0.170
REMARK UNBOUND:                 0.092
REMARK SMILES CC1=CCC(=C(C)C)C(=O)CC(C)=CCC1
REMARK SMILES IDX 12 1 14 2 13 3 15 4 16 5 2 6 1 7 3 8 11 10 9 11 10 12 5 13
REMARK SMILES IDX 6 14 7 15 8 16 4 17
REMARK H PARENT
REMARK Flexibility Score: 60.00
ROOT
ATOM      1  C   UNL     1      -8.218   8.691 -10.691  1.00  0.00    -0.070 C 
ATOM      2  C   UNL     1      -7.205   8.017 -11.296  1.00  0.00    -0.027 C 
ATOM      3  C   UNL     1      -9.588   8.056 -10.754  1.00  0.00     0.039 C 
ENDROOT
BRANCH   2   4
ATOM      4  C   UNL     1      -5.736   8.365 -11.283  1.00  0.00     0.032 C 
BRANCH   4   5
ATOM      5  C   UNL     1      -5.343   9.535 -12.201  1.00  0.00     0.034 C 
BRANCH   5   6
ATOM      6  C   UNL     1      -4.643  10.698 -11.520  1.00  0.00    -0.077 C 
ATOM      7  C   UNL     1      -3.292  10.464 -10.892  1.00  0.00     0.039 C 
ATOM      8  C   UNL     1      -5.206  11.920 -11.366  1.00  0.00    -0.023 CG0
ATOM      9  G   UNL     1      -6.468  12.393 -12.037  1.00  0.00     0.000 G0
ENDBRANCH   5   6
ENDBRANCH   4   5
ENDBRANCH   2   4
BRANCH   1  10
ATOM     10  C   UNL     1      -8.115  10.080 -10.069  1.00  0.00     0.111 C 
BRANCH  10  11
ATOM     11  C   UNL     1      -8.495  11.226 -10.964  1.00  0.00     0.163 C 
ATOM     12  O   UNL     1      -9.496  11.120 -11.724  1.00  0.00    -0.294 OA
BRANCH  11  13
ATOM     13  C   UNL     1      -7.635  12.433 -11.048  1.00  0.00    -0.002 C 
ATOM     14  C   UNL     1      -7.927  13.528 -10.293  1.00  0.00    -0.069 C 
ATOM     15  C   UNL     1      -7.105  14.792 -10.377  1.00  0.00     0.039 C 
ATOM     16  C   UNL     1      -9.113  13.521  -9.353  1.00  0.00     0.039 C 
BRANCH  13  17
ATOM     17  C   UNL     1      -6.481  12.402 -12.041  1.00  0.00     0.066 CG0
ATOM     18  G   UNL     1      -5.225  11.930 -11.357  1.00  0.00     0.000 G0
ENDBRANCH  13  17
ENDBRANCH  11  13
ENDBRANCH  10  11
ENDBRANCH   1  10
TORSDOF 0
ENDMDL
MODEL 8
REMARK VINA RESULT:    -2.997     12.487     13.744
REMARK INTER + INTRA:          -4.131
REMARK INTER:                  -4.664
REMARK INTRA:                   0.533
REMARK UNBOUND:                 0.092
REMARK SMILES CC1=CCC(=C(C)C)C(=O)CC(C)=CCC1
REMARK SMILES IDX 12 1 14 2 13 3 15 4 16 5 2 6 1 7 3 8 11 10 9 11 10 12 5 13
REMARK SMILES IDX 6 14 7 15 8 16 4 17
REMARK H PARENT
REMARK Flexibility Score: 60.00
ROOT
ATOM      1  C   UNL     1     -10.434  16.557 -22.470  1.00  0.00    -0.070 C 
ATOM      2  C   UNL     1      -9.289  17.159 -22.053  1.00  0.00    -0.027 C 
ATOM      3  C   UNL     1     -11.702  16.934 -21.741  1.00  0.00     0.039 C 
ENDROOT
BRANCH   2   4
ATOM      4  C   UNL     1      -7.918  17.053 -22.676  1.00  0.00     0.032 C 
BRANCH   4   5
ATOM      5  C   UNL     1      -7.038  15.926 -22.108  1.00  0.00     0.034 C 
BRANCH   5   6
ATOM      6  C   UNL     1      -6.690  14.812 -23.080  1.00  0.00    -0.077 C 
ATOM      7  C   UNL     1      -5.530  15.008 -24.022  1.00  0.00     0.039 C 
ATOM      8  C   UNL     1      -7.423  13.680 -23.210  1.00  0.00    -0.023 CG0
ATOM      9  G   UNL     1      -8.518  13.236 -22.277  1.00  0.00     0.000 G0
ENDBRANCH   5   6
ENDBRANCH   4   5
ENDBRANCH   2   4
BRANCH   1  10
ATOM     10  C   UNL     1     -10.526  15.454 -23.518  1.00  0.00     0.111 C 
BRANCH  10  11
ATOM     11  C   UNL     1     -10.843  14.081 -22.994  1.00  0.00     0.163 C 
ATOM     12  O   UNL     1     -11.946  13.872 -22.420  1.00  0.00    -0.294 OA
BRANCH  11  13
ATOM     13  C   UNL     1      -9.824  13.002 -23.041  1.00  0.00    -0.002 C 
ATOM     14  C   UNL     1     -10.093  11.844 -23.704  1.00  0.00    -0.069 C 
ATOM     15  C   UNL     1      -9.103  10.704 -23.742  1.00  0.00     0.039 C 
ATOM     16  C   UNL     1     -11.416  11.650 -24.411  1.00  0.00     0.039 C 
BRANCH  13  17
ATOM     17  C   UNL     1      -8.528  13.232 -22.276  1.00  0.00     0.066 CG0
ATOM     18  G   UNL     1      -7.443  13.674 -23.222  1.00  0.00     0.000 G0
ENDBRANCH  13  17
ENDBRANCH  11  13
ENDBRANCH  10  11
ENDBRANCH   1  10
TORSDOF 0
ENDMDL
MODEL 9
REMARK VINA RESULT:    -2.983      4.142      6.755
REMARK INTER + INTRA:          -4.112
REMARK INTER:                  -4.317
REMARK INTRA:                   0.204
REMARK UNBOUND:                 0.092
REMARK SMILES CC1=CCC(=C(C)C)C(=O)CC(C)=CCC1
REMARK SMILES IDX 12 1 14 2 13 3 15 4 16 5 2 6 1 7 3 8 11 10 9 11 10 12 5 13
REMARK SMILES IDX 6 14 7 15 8 16 4 17
REMARK H PARENT
REMARK Flexibility Score: 60.00
ROOT
ATOM      1  C   UNL     1      -5.467   9.243 -11.732  1.00  0.00    -0.070 C 
ATOM      2  C   UNL     1      -5.223   7.950 -11.390  1.00  0.00    -0.027 C 
ATOM      3  C   UNL     1      -4.382  10.244 -11.412  1.00  0.00     0.039 C 
ENDROOT
BRANCH   2   4
ATOM      4  C   UNL     1      -6.079   6.744 -11.697  1.00  0.00     0.032 C 
BRANCH   4   5
ATOM      5  C   UNL     1      -7.244   6.516 -10.721  1.00  0.00     0.034 C 
BRANCH   5   6
ATOM      6  C   UNL     1      -8.610   6.329 -11.359  1.00  0.00    -0.077 C 
ATOM      7  C   UNL     1      -8.875   5.072 -12.148  1.00  0.00     0.039 C 
ATOM      8  C   UNL     1      -9.580   7.274 -11.335  1.00  0.00    -0.023 CG0
ATOM      9  G   UNL     1      -9.565   8.520 -10.489  1.00  0.00     0.000 G0
ENDBRANCH   5   6
ENDBRANCH   4   5
ENDBRANCH   2   4
BRANCH   1  10
ATOM     10  C   UNL     1      -6.780   9.782 -12.290  1.00  0.00     0.111 C 
BRANCH  10  11
ATOM     11  C   UNL     1      -7.798  10.206 -11.269  1.00  0.00     0.163 C 
ATOM     12  O   UNL     1      -7.437  10.894 -10.276  1.00  0.00    -0.294 OA
BRANCH  11  13
ATOM     13  C   UNL     1      -9.199   9.723 -11.357  1.00  0.00    -0.002 C 
ATOM     14  C   UNL     1     -10.096  10.383 -12.142  1.00  0.00    -0.069 C 
ATOM     15  C   UNL     1     -11.541   9.953 -12.229  1.00  0.00     0.039 C 
ATOM     16  C   UNL     1      -9.674  11.596 -12.942  1.00  0.00     0.039 C 
BRANCH  13  17
ATOM     17  C   UNL     1      -9.581   8.526 -10.499  1.00  0.00     0.066 CG0
ATOM     18  G   UNL     1      -9.584   7.273 -11.334  1.00  0.00     0.000 G0
ENDBRANCH  13  17
ENDBRANCH  11  13
ENDBRANCH  10  11
ENDBRANCH   1  10
TORSDOF 0
ENDMDL
