MODEL 1
REMARK VINA RESULT:    -5.117      0.000      0.000
REMARK INTER + INTRA:          -8.011
REMARK INTER:                  -7.809
REMARK INTRA:                  -0.202
REMARK UNBOUND:                -0.202
REMARK SMILES CC1=CCC[C@H](C)C(=O)C[C@H](C(C)C)C(=O)C1
REMARK SMILES IDX 8 1 9 2 6 3 7 4 5 5 4 6 3 7 2 8 1 9 10 11 11 12 15 13 16 14
REMARK SMILES IDX 17 15 12 17 13 18 14 19
REMARK H PARENT
REMARK Flexibility Score: 70.00
ROOT
ATOM      1  C   UNL     1     -13.265 -39.770  37.775  1.00  0.00     0.136 C 
ATOM      2  O   UNL     1     -14.149 -40.514  37.379  1.00  0.00    -0.299 OA
ENDROOT
BRANCH   1   3
ATOM      3  C   UNL     1     -12.285 -39.176  36.779  1.00  0.00     0.053 C 
ATOM      4  C   UNL     1     -12.159 -40.102  35.565  1.00  0.00     0.016 C 
BRANCH   3   5
ATOM      5  C   UNL     1     -12.678 -37.748  36.327  1.00  0.00     0.015 C 
BRANCH   5   6
ATOM      6  C   UNL     1     -12.393 -36.634  37.352  1.00  0.00     0.028 C 
BRANCH   6   7
ATOM      7  C   UNL     1     -10.928 -36.548  37.715  1.00  0.00    -0.028 C 
ATOM      8  C   UNL     1     -10.399 -36.895  38.913  1.00  0.00    -0.070 CG0
ATOM      9  C   UNL     1      -8.905 -36.792  39.083  1.00  0.00     0.039 C 
ATOM     10  G   UNL     1     -11.243 -37.355  40.089  1.00  0.00     0.000 G0
ENDBRANCH   6   7
ENDBRANCH   5   6
ENDBRANCH   3   5
ENDBRANCH   1   3
BRANCH   1  11
ATOM     11  C   UNL     1     -13.106 -39.511  39.262  1.00  0.00     0.087 C 
BRANCH  11  12
ATOM     12  C   UNL     1     -11.743 -39.938  39.887  1.00  0.00     0.066 C 
BRANCH  12  13
ATOM     13  C   UNL     1     -10.970 -38.781  40.504  1.00  0.00     0.140 C 
ATOM     14  O   UNL     1     -10.093 -38.997  41.328  1.00  0.00    -0.299 OA
BRANCH  13  15
ATOM     15  C   UNL     1     -11.247 -37.356  40.099  1.00  0.00     0.106 CG0
ATOM     16  G   UNL     1     -10.397 -36.917  38.920  1.00  0.00     0.000 G0
ENDBRANCH  13  15
ENDBRANCH  12  13
BRANCH  12  17
ATOM     17  C   UNL     1     -11.853 -41.195  40.808  1.00  0.00    -0.006 C 
ATOM     18  C   UNL     1     -13.229 -41.282  41.486  1.00  0.00     0.008 C 
ATOM     19  C   UNL     1     -11.514 -42.527  40.116  1.00  0.00     0.008 C 
ENDBRANCH  12  17
ENDBRANCH  11  12
ENDBRANCH   1  11
TORSDOF 1
ENDMDL
MODEL 2
REMARK VINA RESULT:    -5.091      1.750      3.855
REMARK INTER + INTRA:          -7.971
REMARK INTER:                  -8.139
REMARK INTRA:                   0.168
REMARK UNBOUND:                -0.202
REMARK SMILES CC1=CCC[C@H](C)C(=O)C[C@H](C(C)C)C(=O)C1
REMARK SMILES IDX 8 1 9 2 6 3 7 4 5 5 4 6 3 7 2 8 1 9 10 11 11 12 15 13 16 14
REMARK SMILES IDX 17 15 12 17 13 18 14 19
REMARK H PARENT
REMARK Flexibility Score: 70.00
ROOT
ATOM      1  C   UNL     1     -12.904 -40.428  38.670  1.00  0.00     0.136 C 
ATOM      2  O   UNL     1     -13.130 -41.596  38.393  1.00  0.00    -0.299 OA
ENDROOT
BRANCH   1   3
ATOM      3  C   UNL     1     -12.908 -39.990  40.124  1.00  0.00     0.053 C 
ATOM      4  C   UNL     1     -13.682 -41.009  40.967  1.00  0.00     0.016 C 
BRANCH   3   5
ATOM      5  C   UNL     1     -11.483 -39.791  40.697  1.00  0.00     0.015 C 
BRANCH   5   6
ATOM      6  C   UNL     1     -11.104 -38.334  41.020  1.00  0.00     0.028 C 
BRANCH   6   7
ATOM      7  C   UNL     1      -9.728 -37.971  40.512  1.00  0.00    -0.028 C 
ATOM      8  C   UNL     1      -9.471 -37.097  39.509  1.00  0.00    -0.070 CG0
ATOM      9  C   UNL     1      -8.030 -36.816  39.167  1.00  0.00     0.039 C 
ATOM     10  G   UNL     1     -10.564 -36.413  38.706  1.00  0.00     0.000 G0
ENDBRANCH   6   7
ENDBRANCH   5   6
ENDBRANCH   3   5
ENDBRANCH   1   3
BRANCH   1  11
ATOM     11  C   UNL     1     -12.698 -39.415  37.560  1.00  0.00     0.087 C 
BRANCH  11  12
ATOM     12  C   UNL     1     -12.578 -37.927  38.009  1.00  0.00     0.066 C 
BRANCH  12  13
ATOM     13  C   UNL     1     -11.219 -37.310  37.708  1.00  0.00     0.140 C 
ATOM     14  O   UNL     1     -10.662 -37.538  36.644  1.00  0.00    -0.299 OA
BRANCH  13  15
ATOM     15  C   UNL     1     -10.546 -36.391  38.695  1.00  0.00     0.106 CG0
ATOM     16  G   UNL     1      -9.471 -37.101  39.500  1.00  0.00     0.000 G0
ENDBRANCH  13  15
ENDBRANCH  12  13
BRANCH  12  17
ATOM     17  C   UNL     1     -13.790 -37.048  37.564  1.00  0.00    -0.006 C 
ATOM     18  C   UNL     1     -14.544 -36.468  38.771  1.00  0.00     0.008 C 
ATOM     19  C   UNL     1     -13.439 -35.930  36.568  1.00  0.00     0.008 C 
ENDBRANCH  12  17
ENDBRANCH  11  12
ENDBRANCH   1  11
TORSDOF 1
ENDMDL
MODEL 3
REMARK VINA RESULT:    -5.087      2.078      3.728
REMARK INTER + INTRA:          -7.964
REMARK INTER:                  -7.698
REMARK INTRA:                  -0.267
REMARK UNBOUND:                -0.202
REMARK SMILES CC1=CCC[C@H](C)C(=O)C[C@H](C(C)C)C(=O)C1
REMARK SMILES IDX 8 1 9 2 6 3 7 4 5 5 4 6 3 7 2 8 1 9 10 11 11 12 15 13 16 14
REMARK SMILES IDX 17 15 12 17 13 18 14 19
REMARK H PARENT
REMARK Flexibility Score: 70.00
ROOT
ATOM      1  C   UNL     1     -13.210 -40.931  40.507  1.00  0.00     0.136 C 
ATOM      2  O   UNL     1     -14.229 -41.532  40.809  1.00  0.00    -0.299 OA
ENDROOT
BRANCH   1   3
ATOM      3  C   UNL     1     -12.175 -41.608  39.626  1.00  0.00     0.053 C 
ATOM      4  C   UNL     1     -11.474 -42.719  40.415  1.00  0.00     0.016 C 
BRANCH   3   5
ATOM      5  C   UNL     1     -12.778 -42.177  38.318  1.00  0.00     0.015 C 
BRANCH   5   6
ATOM      6  C   UNL     1     -13.640 -41.189  37.509  1.00  0.00     0.028 C 
BRANCH   6   7
ATOM      7  C   UNL     1     -12.803 -40.183  36.752  1.00  0.00    -0.028 C 
ATOM      8  C   UNL     1     -12.675 -38.874  37.074  1.00  0.00    -0.070 CG0
ATOM      9  C   UNL     1     -11.755 -38.025  36.234  1.00  0.00     0.039 C 
ATOM     10  G   UNL     1     -13.431 -38.225  38.221  1.00  0.00     0.000 G0
ENDBRANCH   6   7
ENDBRANCH   5   6
ENDBRANCH   3   5
ENDBRANCH   1   3
BRANCH   1  11
ATOM     11  C   UNL     1     -12.952 -39.549  41.077  1.00  0.00     0.087 C 
BRANCH  11  12
ATOM     12  C   UNL     1     -11.885 -38.691  40.330  1.00  0.00     0.066 C 
BRANCH  12  13
ATOM     13  C   UNL     1     -12.483 -37.737  39.305  1.00  0.00     0.140 C 
ATOM     14  O   UNL     1     -12.189 -36.550  39.325  1.00  0.00    -0.299 OA
BRANCH  13  15
ATOM     15  C   UNL     1     -13.424 -38.232  38.237  1.00  0.00     0.106 CG0
ATOM     16  G   UNL     1     -12.686 -38.864  37.069  1.00  0.00     0.000 G0
ENDBRANCH  13  15
ENDBRANCH  12  13
BRANCH  12  17
ATOM     17  C   UNL     1     -10.844 -38.029  41.288  1.00  0.00    -0.006 C 
ATOM     18  C   UNL     1     -11.075 -38.445  42.749  1.00  0.00     0.008 C 
ATOM     19  C   UNL     1      -9.375 -38.257  40.893  1.00  0.00     0.008 C 
ENDBRANCH  12  17
ENDBRANCH  11  12
ENDBRANCH   1  11
TORSDOF 1
ENDMDL
MODEL 4
REMARK VINA RESULT:    -5.063      2.213      2.669
REMARK INTER + INTRA:          -7.928
REMARK INTER:                  -8.247
REMARK INTRA:                   0.319
REMARK UNBOUND:                -0.202
REMARK SMILES CC1=CCC[C@H](C)C(=O)C[C@H](C(C)C)C(=O)C1
REMARK SMILES IDX 8 1 9 2 6 3 7 4 5 5 4 6 3 7 2 8 1 9 10 11 11 12 15 13 16 14
REMARK SMILES IDX 17 15 12 17 13 18 14 19
REMARK H PARENT
REMARK Flexibility Score: 70.00
ROOT
ATOM      1  C   UNL     1     -14.179 -36.884  39.873  1.00  0.00     0.136 C 
ATOM      2  O   UNL     1     -15.120 -36.116  40.003  1.00  0.00    -0.299 OA
ENDROOT
BRANCH   1   3
ATOM      3  C   UNL     1     -13.477 -36.987  38.531  1.00  0.00     0.053 C 
ATOM      4  C   UNL     1     -14.325 -36.303  37.452  1.00  0.00     0.016 C 
BRANCH   3   5
ATOM      5  C   UNL     1     -12.049 -36.390  38.550  1.00  0.00     0.015 C 
BRANCH   5   6
ATOM      6  C   UNL     1     -10.913 -37.399  38.293  1.00  0.00     0.028 C 
BRANCH   6   7
ATOM      7  C   UNL     1      -9.698 -37.126  39.149  1.00  0.00    -0.028 C 
ATOM      8  C   UNL     1      -9.310 -37.868  40.214  1.00  0.00    -0.070 CG0
ATOM      9  C   UNL     1      -8.037 -37.479  40.922  1.00  0.00     0.039 C 
ATOM     10  G   UNL     1     -10.108 -39.052  40.733  1.00  0.00     0.000 G0
ENDBRANCH   6   7
ENDBRANCH   5   6
ENDBRANCH   3   5
ENDBRANCH   1   3
BRANCH   1  11
ATOM     11  C   UNL     1     -13.771 -37.780  41.027  1.00  0.00     0.087 C 
BRANCH  11  12
ATOM     12  C   UNL     1     -12.719 -38.882  40.696  1.00  0.00     0.066 C 
BRANCH  12  13
ATOM     13  C   UNL     1     -11.388 -38.683  41.408  1.00  0.00     0.140 C 
ATOM     14  O   UNL     1     -11.357 -38.221  42.539  1.00  0.00    -0.299 OA
BRANCH  13  15
ATOM     15  C   UNL     1     -10.089 -39.071  40.749  1.00  0.00     0.106 CG0
ATOM     16  G   UNL     1      -9.332 -37.867  40.217  1.00  0.00     0.000 G0
ENDBRANCH  13  15
ENDBRANCH  12  13
BRANCH  12  17
ATOM     17  C   UNL     1     -13.290 -40.332  40.804  1.00  0.00    -0.006 C 
ATOM     18  C   UNL     1     -13.417 -40.994  39.423  1.00  0.00     0.008 C 
ATOM     19  C   UNL     1     -12.522 -41.252  41.768  1.00  0.00     0.008 C 
ENDBRANCH  12  17
ENDBRANCH  11  12
ENDBRANCH   1  11
TORSDOF 1
ENDMDL
MODEL 5
REMARK VINA RESULT:    -4.930      2.090      3.682
REMARK INTER + INTRA:          -7.725
REMARK INTER:                  -7.455
REMARK INTRA:                  -0.270
REMARK UNBOUND:                -0.202
REMARK SMILES CC1=CCC[C@H](C)C(=O)C[C@H](C(C)C)C(=O)C1
REMARK SMILES IDX 8 1 9 2 6 3 7 4 5 5 4 6 3 7 2 8 1 9 10 11 11 12 15 13 16 14
REMARK SMILES IDX 17 15 12 17 13 18 14 19
REMARK H PARENT
REMARK Flexibility Score: 70.00
ROOT
ATOM      1  C   UNL     1     -12.557 -37.337  38.413  1.00  0.00     0.136 C 
ATOM      2  O   UNL     1     -13.012 -36.236  38.137  1.00  0.00    -0.299 OA
ENDROOT
BRANCH   1   3
ATOM      3  C   UNL     1     -11.097 -37.636  38.124  1.00  0.00     0.053 C 
ATOM      4  C   UNL     1     -10.691 -36.989  36.795  1.00  0.00     0.016 C 
BRANCH   3   5
ATOM      5  C   UNL     1     -10.151 -37.173  39.259  1.00  0.00     0.015 C 
BRANCH   5   6
ATOM      6  C   UNL     1      -9.773 -38.261  40.281  1.00  0.00     0.028 C 
BRANCH   6   7
ATOM      7  C   UNL     1     -10.622 -38.197  41.530  1.00  0.00    -0.028 C 
ATOM      8  C   UNL     1     -11.428 -39.188  41.978  1.00  0.00    -0.070 CG0
ATOM      9  C   UNL     1     -12.165 -38.970  43.275  1.00  0.00     0.039 C 
ATOM     10  G   UNL     1     -11.639 -40.490  41.223  1.00  0.00     0.000 G0
ENDBRANCH   6   7
ENDBRANCH   5   6
ENDBRANCH   3   5
ENDBRANCH   1   3
BRANCH   1  11
ATOM     11  C   UNL     1     -13.471 -38.413  38.967  1.00  0.00     0.087 C 
BRANCH  11  12
ATOM     12  C   UNL     1     -12.888 -39.859  38.985  1.00  0.00     0.066 C 
BRANCH  12  13
ATOM     13  C   UNL     1     -12.887 -40.496  40.367  1.00  0.00     0.140 C 
ATOM     14  O   UNL     1     -13.897 -41.035  40.797  1.00  0.00    -0.299 OA
BRANCH  13  15
ATOM     15  C   UNL     1     -11.645 -40.499  41.222  1.00  0.00     0.106 CG0
ATOM     16  G   UNL     1     -11.463 -39.193  41.975  1.00  0.00     0.000 G0
ENDBRANCH  13  15
ENDBRANCH  12  13
BRANCH  12  17
ATOM     17  C   UNL     1     -13.472 -40.775  37.861  1.00  0.00    -0.006 C 
ATOM     18  C   UNL     1     -13.132 -40.240  36.461  1.00  0.00     0.008 C 
ATOM     19  C   UNL     1     -13.081 -42.257  37.976  1.00  0.00     0.008 C 
ENDBRANCH  12  17
ENDBRANCH  11  12
ENDBRANCH   1  11
TORSDOF 1
ENDMDL
MODEL 6
REMARK VINA RESULT:    -4.910      1.941      2.639
REMARK INTER + INTRA:          -7.695
REMARK INTER:                  -7.985
REMARK INTRA:                   0.290
REMARK UNBOUND:                -0.202
REMARK SMILES CC1=CCC[C@H](C)C(=O)C[C@H](C(C)C)C(=O)C1
REMARK SMILES IDX 8 1 9 2 6 3 7 4 5 5 4 6 3 7 2 8 1 9 10 11 11 12 15 13 16 14
REMARK SMILES IDX 17 15 12 17 13 18 14 19
REMARK H PARENT
REMARK Flexibility Score: 70.00
ROOT
ATOM      1  C   UNL     1     -12.539 -39.269  36.798  1.00  0.00     0.136 C 
ATOM      2  O   UNL     1     -12.121 -40.156  36.069  1.00  0.00    -0.299 OA
ENDROOT
BRANCH   1   3
ATOM      3  C   UNL     1     -12.130 -37.831  36.536  1.00  0.00     0.053 C 
ATOM      4  C   UNL     1     -11.756 -37.662  35.059  1.00  0.00     0.016 C 
BRANCH   3   5
ATOM      5  C   UNL     1     -13.225 -36.811  36.933  1.00  0.00     0.015 C 
BRANCH   5   6
ATOM      6  C   UNL     1     -12.863 -35.885  38.109  1.00  0.00     0.028 C 
BRANCH   6   7
ATOM      7  C   UNL     1     -13.847 -35.996  39.251  1.00  0.00    -0.028 C 
ATOM      8  C   UNL     1     -13.692 -36.784  40.342  1.00  0.00    -0.070 CG0
ATOM      9  C   UNL     1     -14.753 -36.729  41.411  1.00  0.00     0.039 C 
ATOM     10  G   UNL     1     -12.517 -37.730  40.520  1.00  0.00     0.000 G0
ENDBRANCH   6   7
ENDBRANCH   5   6
ENDBRANCH   3   5
ENDBRANCH   1   3
BRANCH   1  11
ATOM     11  C   UNL     1     -13.397 -39.621  37.999  1.00  0.00     0.087 C 
BRANCH  11  12
ATOM     12  C   UNL     1     -12.627 -40.058  39.282  1.00  0.00     0.066 C 
BRANCH  12  13
ATOM     13  C   UNL     1     -12.913 -39.180  40.491  1.00  0.00     0.140 C 
ATOM     14  O   UNL     1     -13.464 -39.649  41.476  1.00  0.00    -0.299 OA
BRANCH  13  15
ATOM     15  C   UNL     1     -12.506 -37.729  40.512  1.00  0.00     0.106 CG0
ATOM     16  G   UNL     1     -13.693 -36.796  40.335  1.00  0.00     0.000 G0
ENDBRANCH  13  15
ENDBRANCH  12  13
BRANCH  12  17
ATOM     17  C   UNL     1     -12.727 -41.591  39.569  1.00  0.00    -0.006 C 
ATOM     18  C   UNL     1     -12.858 -42.403  38.270  1.00  0.00     0.008 C 
ATOM     19  C   UNL     1     -11.590 -42.155  40.438  1.00  0.00     0.008 C 
ENDBRANCH  12  17
ENDBRANCH  11  12
ENDBRANCH   1  11
TORSDOF 1
ENDMDL
MODEL 7
REMARK VINA RESULT:    -4.845      1.939      4.205
REMARK INTER + INTRA:          -7.596
REMARK INTER:                  -7.780
REMARK INTRA:                   0.184
REMARK UNBOUND:                -0.202
REMARK SMILES CC1=CCC[C@H](C)C(=O)C[C@H](C(C)C)C(=O)C1
REMARK SMILES IDX 8 1 9 2 6 3 7 4 5 5 4 6 3 7 2 8 1 9 10 11 11 12 15 13 16 14
REMARK SMILES IDX 17 15 12 17 13 18 14 19
REMARK H PARENT
REMARK Flexibility Score: 70.00
ROOT
ATOM      1  C   UNL     1     -12.376 -39.284  36.816  1.00  0.00     0.136 C 
ATOM      2  O   UNL     1     -11.974 -39.719  35.748  1.00  0.00    -0.299 OA
ENDROOT
BRANCH   1   3
ATOM      3  C   UNL     1     -13.340 -40.114  37.645  1.00  0.00     0.053 C 
ATOM      4  C   UNL     1     -13.922 -41.241  36.785  1.00  0.00     0.016 C 
BRANCH   3   5
ATOM      5  C   UNL     1     -12.689 -40.696  38.924  1.00  0.00     0.015 C 
BRANCH   5   6
ATOM      6  C   UNL     1     -13.504 -40.512  40.217  1.00  0.00     0.028 C 
BRANCH   6   7
ATOM      7  C   UNL     1     -12.638 -40.126  41.394  1.00  0.00    -0.028 C 
ATOM      8  C   UNL     1     -12.381 -38.857  41.791  1.00  0.00    -0.070 CG0
ATOM      9  C   UNL     1     -11.534 -38.658  43.022  1.00  0.00     0.039 C 
ATOM     10  G   UNL     1     -12.887 -37.636  41.041  1.00  0.00     0.000 G0
ENDBRANCH   6   7
ENDBRANCH   5   6
ENDBRANCH   3   5
ENDBRANCH   1   3
BRANCH   1  11
ATOM     11  C   UNL     1     -11.972 -37.893  37.266  1.00  0.00     0.087 C 
BRANCH  11  12
ATOM     12  C   UNL     1     -12.813 -37.281  38.428  1.00  0.00     0.066 C 
BRANCH  12  13
ATOM     13  C   UNL     1     -12.116 -37.344  39.780  1.00  0.00     0.140 C 
ATOM     14  O   UNL     1     -10.913 -37.146  39.862  1.00  0.00    -0.299 OA
BRANCH  13  15
ATOM     15  C   UNL     1     -12.891 -37.626  41.042  1.00  0.00     0.106 CG0
ATOM     16  G   UNL     1     -12.375 -38.855  41.771  1.00  0.00     0.000 G0
ENDBRANCH  13  15
ENDBRANCH  12  13
BRANCH  12  17
ATOM     17  C   UNL     1     -13.412 -35.879  38.084  1.00  0.00    -0.006 C 
ATOM     18  C   UNL     1     -13.501 -35.658  36.566  1.00  0.00     0.008 C 
ATOM     19  C   UNL     1     -14.769 -35.584  38.747  1.00  0.00     0.008 C 
ENDBRANCH  12  17
ENDBRANCH  11  12
ENDBRANCH   1  11
TORSDOF 1
ENDMDL
MODEL 8
REMARK VINA RESULT:    -4.827      2.403      5.354
REMARK INTER + INTRA:          -7.568
REMARK INTER:                  -7.737
REMARK INTRA:                   0.169
REMARK UNBOUND:                -0.202
REMARK SMILES CC1=CCC[C@H](C)C(=O)C[C@H](C(C)C)C(=O)C1
REMARK SMILES IDX 8 1 9 2 6 3 7 4 5 5 4 6 3 7 2 8 1 9 10 11 11 12 15 13 16 14
REMARK SMILES IDX 17 15 12 17 13 18 14 19
REMARK H PARENT
REMARK Flexibility Score: 70.00
ROOT
ATOM      1  C   UNL     1     -13.637 -37.536  41.158  1.00  0.00     0.136 C 
ATOM      2  O   UNL     1     -14.041 -36.741  41.993  1.00  0.00    -0.299 OA
ENDROOT
BRANCH   1   3
ATOM      3  C   UNL     1     -12.604 -38.576  41.554  1.00  0.00     0.053 C 
ATOM      4  C   UNL     1     -11.983 -38.197  42.903  1.00  0.00     0.016 C 
BRANCH   3   5
ATOM      5  C   UNL     1     -13.184 -40.010  41.614  1.00  0.00     0.015 C 
BRANCH   5   6
ATOM      6  C   UNL     1     -12.537 -41.020  40.648  1.00  0.00     0.028 C 
BRANCH   6   7
ATOM      7  C   UNL     1     -13.272 -41.109  39.331  1.00  0.00    -0.028 C 
ATOM      8  C   UNL     1     -13.011 -40.354  38.238  1.00  0.00    -0.070 CG0
ATOM      9  C   UNL     1     -13.814 -40.615  36.989  1.00  0.00     0.039 C 
ATOM     10  G   UNL     1     -11.970 -39.248  38.225  1.00  0.00     0.000 G0
ENDBRANCH   6   7
ENDBRANCH   5   6
ENDBRANCH   3   5
ENDBRANCH   1   3
BRANCH   1  11
ATOM     11  C   UNL     1     -14.111 -37.429  39.721  1.00  0.00     0.087 C 
BRANCH  11  12
ATOM     12  C   UNL     1     -13.072 -36.874  38.700  1.00  0.00     0.066 C 
BRANCH  12  13
ATOM     13  C   UNL     1     -12.549 -37.927  37.733  1.00  0.00     0.140 C 
ATOM     14  O   UNL     1     -12.569 -37.721  36.528  1.00  0.00    -0.299 OA
BRANCH  13  15
ATOM     15  C   UNL     1     -11.977 -39.228  38.235  1.00  0.00     0.106 CG0
ATOM     16  G   UNL     1     -13.011 -40.341  38.255  1.00  0.00     0.000 G0
ENDBRANCH  13  15
ENDBRANCH  12  13
BRANCH  12  17
ATOM     17  C   UNL     1     -13.530 -35.548  38.012  1.00  0.00    -0.006 C 
ATOM     18  C   UNL     1     -14.707 -34.901  38.757  1.00  0.00     0.008 C 
ATOM     19  C   UNL     1     -12.407 -34.519  37.793  1.00  0.00     0.008 C 
ENDBRANCH  12  17
ENDBRANCH  11  12
ENDBRANCH   1  11
TORSDOF 1
ENDMDL
MODEL 9
REMARK VINA RESULT:    -4.821      2.274      4.063
REMARK INTER + INTRA:          -7.559
REMARK INTER:                  -7.395
REMARK INTRA:                  -0.164
REMARK UNBOUND:                -0.202
REMARK SMILES CC1=CCC[C@H](C)C(=O)C[C@H](C(C)C)C(=O)C1
REMARK SMILES IDX 8 1 9 2 6 3 7 4 5 5 4 6 3 7 2 8 1 9 10 11 11 12 15 13 16 14
REMARK SMILES IDX 17 15 12 17 13 18 14 19
REMARK H PARENT
REMARK Flexibility Score: 70.00
ROOT
ATOM      1  C   UNL     1     -10.679 -37.271  39.045  1.00  0.00     0.136 C 
ATOM      2  O   UNL     1      -9.729 -36.616  38.643  1.00  0.00    -0.299 OA
ENDROOT
BRANCH   1   3
ATOM      3  C   UNL     1     -12.067 -36.986  38.501  1.00  0.00     0.053 C 
ATOM      4  C   UNL     1     -12.145 -35.531  38.024  1.00  0.00     0.016 C 
BRANCH   3   5
ATOM      5  C   UNL     1     -12.477 -37.948  37.360  1.00  0.00     0.015 C 
BRANCH   5   6
ATOM      6  C   UNL     1     -13.635 -38.907  37.694  1.00  0.00     0.028 C 
BRANCH   6   7
ATOM      7  C   UNL     1     -13.225 -40.359  37.602  1.00  0.00    -0.028 C 
ATOM      8  C   UNL     1     -13.102 -41.204  38.652  1.00  0.00    -0.070 CG0
ATOM      9  C   UNL     1     -12.731 -42.637  38.368  1.00  0.00     0.039 C 
ATOM     10  G   UNL     1     -13.296 -40.767  40.094  1.00  0.00     0.000 G0
ENDBRANCH   6   7
ENDBRANCH   5   6
ENDBRANCH   3   5
ENDBRANCH   1   3
BRANCH   1  11
ATOM     11  C   UNL     1     -10.475 -38.307  40.135  1.00  0.00     0.087 C 
BRANCH  11  12
ATOM     12  C   UNL     1     -11.763 -38.783  40.872  1.00  0.00     0.066 C 
BRANCH  12  13
ATOM     13  C   UNL     1     -12.025 -40.276  40.734  1.00  0.00     0.140 C 
ATOM     14  O   UNL     1     -11.208 -41.085  41.150  1.00  0.00    -0.299 OA
BRANCH  13  15
ATOM     15  C   UNL     1     -13.297 -40.789  40.108  1.00  0.00     0.106 CG0
ATOM     16  G   UNL     1     -13.099 -41.200  38.659  1.00  0.00     0.000 G0
ENDBRANCH  13  15
ENDBRANCH  12  13
BRANCH  12  17
ATOM     17  C   UNL     1     -11.870 -38.250  42.337  1.00  0.00    -0.006 C 
ATOM     18  C   UNL     1     -13.004 -38.941  43.110  1.00  0.00     0.008 C 
ATOM     19  C   UNL     1     -10.559 -38.317  43.138  1.00  0.00     0.008 C 
ENDBRANCH  12  17
ENDBRANCH  11  12
ENDBRANCH   1  11
TORSDOF 1
ENDMDL
