MODEL 1
REMARK VINA RESULT:    -3.018      0.000      0.000
REMARK INTER + INTRA:          -3.568
REMARK INTER:                  -3.547
REMARK INTRA:                  -0.022
REMARK UNBOUND:                -0.022
REMARK SMILES CCCCC(=O)[O-]
REMARK SMILES IDX 4 1 5 2 6 3 7 4 3 5 2 6 1 7
REMARK H PARENT
REMARK Flexibility Score: inf
ROOT
ATOM      1  C   UNL     1       7.267 -20.410 -15.389  1.00  0.00     0.053 C 
ENDROOT
BRANCH   1   2
ATOM      2  C   UNL     1       6.552 -21.226 -16.419  1.00  0.00     0.041 C 
ATOM      3  O   UNL     1       7.100 -21.472 -17.525  1.00  0.00    -0.550 OA
ATOM      4  O   UNL     1       5.259 -21.674 -16.176  1.00  0.00    -0.550 OA
ENDBRANCH   1   2
BRANCH   1   5
ATOM      5  C   UNL     1       8.587 -21.082 -14.995  1.00  0.00     0.006 C 
BRANCH   5   6
ATOM      6  C   UNL     1       9.617 -20.084 -14.445  1.00  0.00    -0.003 C 
ATOM      7  C   UNL     1      11.046 -20.411 -14.880  1.00  0.00     0.004 C 
ENDBRANCH   5   6
ENDBRANCH   1   5
TORSDOF 3
ENDMDL
MODEL 2
REMARK VINA RESULT:    -3.001      0.309      1.246
REMARK INTER + INTRA:          -3.549
REMARK INTER:                  -3.532
REMARK INTRA:                  -0.016
REMARK UNBOUND:                -0.022
REMARK SMILES CCCCC(=O)[O-]
REMARK SMILES IDX 4 1 5 2 6 3 7 4 3 5 2 6 1 7
REMARK H PARENT
REMARK Flexibility Score: inf
ROOT
ATOM      1  C   UNL     1       7.140 -20.457 -15.566  1.00  0.00     0.053 C 
ENDROOT
BRANCH   1   2
ATOM      2  C   UNL     1       6.298 -21.379 -16.388  1.00  0.00     0.041 C 
ATOM      3  O   UNL     1       5.126 -21.661 -16.024  1.00  0.00    -0.550 OA
ATOM      4  O   UNL     1       6.823 -21.968 -17.532  1.00  0.00    -0.550 OA
ENDBRANCH   1   2
BRANCH   1   5
ATOM      5  C   UNL     1       8.474 -21.125 -15.210  1.00  0.00     0.006 C 
BRANCH   5   6
ATOM      6  C   UNL     1       9.399 -20.202 -14.402  1.00  0.00    -0.003 C 
ATOM      7  C   UNL     1      10.865 -20.323 -14.820  1.00  0.00     0.004 C 
ENDBRANCH   5   6
ENDBRANCH   1   5
TORSDOF 3
ENDMDL
MODEL 3
REMARK VINA RESULT:    -2.802      1.132      1.311
REMARK INTER + INTRA:          -3.315
REMARK INTER:                  -3.256
REMARK INTRA:                  -0.058
REMARK UNBOUND:                -0.022
REMARK SMILES CCCCC(=O)[O-]
REMARK SMILES IDX 4 1 5 2 6 3 7 4 3 5 2 6 1 7
REMARK H PARENT
REMARK Flexibility Score: inf
ROOT
ATOM      1  C   UNL     1       8.437 -21.357 -15.776  1.00  0.00     0.053 C 
ENDROOT
BRANCH   1   2
ATOM      2  C   UNL     1       7.023 -20.967 -16.067  1.00  0.00     0.041 C 
ATOM      3  O   UNL     1       6.549 -19.901 -15.594  1.00  0.00    -0.550 OA
ATOM      4  O   UNL     1       6.211 -21.805 -16.822  1.00  0.00    -0.550 OA
ENDBRANCH   1   2
BRANCH   1   5
ATOM      5  C   UNL     1       8.856 -20.854 -14.390  1.00  0.00     0.006 C 
BRANCH   5   6
ATOM      6  C   UNL     1      10.225 -20.155 -14.404  1.00  0.00    -0.003 C 
ATOM      7  C   UNL     1      11.124 -20.642 -15.541  1.00  0.00     0.004 C 
ENDBRANCH   5   6
ENDBRANCH   1   5
TORSDOF 3
ENDMDL
MODEL 4
REMARK VINA RESULT:    -2.783     15.536     16.551
REMARK INTER + INTRA:          -3.293
REMARK INTER:                  -3.273
REMARK INTRA:                  -0.020
REMARK UNBOUND:                -0.022
REMARK SMILES CCCCC(=O)[O-]
REMARK SMILES IDX 4 1 5 2 6 3 7 4 3 5 2 6 1 7
REMARK H PARENT
REMARK Flexibility Score: inf
ROOT
ATOM      1  C   UNL     1      -8.727 -19.943 -14.178  1.00  0.00     0.053 C 
ENDROOT
BRANCH   1   2
ATOM      2  C   UNL     1      -8.602 -19.721 -12.704  1.00  0.00     0.041 C 
ATOM      3  O   UNL     1      -9.068 -18.676 -12.178  1.00  0.00    -0.550 OA
ATOM      4  O   UNL     1      -7.926 -20.645 -11.916  1.00  0.00    -0.550 OA
ENDBRANCH   1   2
BRANCH   1   5
ATOM      5  C   UNL     1      -7.983 -21.218 -14.592  1.00  0.00     0.006 C 
BRANCH   5   6
ATOM      6  C   UNL     1      -8.169 -21.553 -16.080  1.00  0.00    -0.003 C 
ATOM      7  C   UNL     1      -6.918 -21.266 -16.911  1.00  0.00     0.004 C 
ENDBRANCH   5   6
ENDBRANCH   1   5
TORSDOF 3
ENDMDL
MODEL 5
REMARK VINA RESULT:    -2.495     15.739     16.478
REMARK INTER + INTRA:          -2.954
REMARK INTER:                  -2.931
REMARK INTRA:                  -0.024
REMARK UNBOUND:                -0.022
REMARK SMILES CCCCC(=O)[O-]
REMARK SMILES IDX 4 1 5 2 6 3 7 4 3 5 2 6 1 7
REMARK H PARENT
REMARK Flexibility Score: inf
ROOT
ATOM      1  C   UNL     1      -8.021 -21.074 -14.369  1.00  0.00     0.053 C 
ENDROOT
BRANCH   1   2
ATOM      2  C   UNL     1      -7.950 -21.345 -15.838  1.00  0.00     0.041 C 
ATOM      3  O   UNL     1      -8.889 -21.953 -16.417  1.00  0.00    -0.550 OA
ATOM      4  O   UNL     1      -6.825 -20.970 -16.561  1.00  0.00    -0.550 OA
ENDBRANCH   1   2
BRANCH   1   5
ATOM      5  C   UNL     1      -8.851 -19.814 -14.096  1.00  0.00     0.006 C 
BRANCH   5   6
ATOM      6  C   UNL     1      -8.787 -19.372 -12.626  1.00  0.00    -0.003 C 
ATOM      7  C   UNL     1      -8.741 -20.553 -11.655  1.00  0.00     0.004 C 
ENDBRANCH   5   6
ENDBRANCH   1   5
TORSDOF 3
ENDMDL
MODEL 6
REMARK VINA RESULT:    -2.457      2.358      2.895
REMARK INTER + INTRA:          -2.909
REMARK INTER:                  -2.800
REMARK INTRA:                  -0.109
REMARK UNBOUND:                -0.022
REMARK SMILES CCCCC(=O)[O-]
REMARK SMILES IDX 4 1 5 2 6 3 7 4 3 5 2 6 1 7
REMARK H PARENT
REMARK Flexibility Score: inf
ROOT
ATOM      1  C   UNL     1       7.666 -21.602 -17.505  1.00  0.00     0.053 C 
ENDROOT
BRANCH   1   2
ATOM      2  C   UNL     1       8.942 -21.845 -18.246  1.00  0.00     0.041 C 
ATOM      3  O   UNL     1       9.902 -22.430 -17.680  1.00  0.00    -0.550 OA
ATOM      4  O   UNL     1       9.089 -21.382 -19.548  1.00  0.00    -0.550 OA
ENDBRANCH   1   2
BRANCH   1   5
ATOM      5  C   UNL     1       7.856 -21.874 -16.008  1.00  0.00     0.006 C 
BRANCH   5   6
ATOM      6  C   UNL     1       8.023 -20.585 -15.189  1.00  0.00    -0.003 C 
ATOM      7  C   UNL     1       9.417 -20.450 -14.577  1.00  0.00     0.004 C 
ENDBRANCH   5   6
ENDBRANCH   1   5
TORSDOF 3
ENDMDL
MODEL 7
REMARK VINA RESULT:    -2.416     14.777     15.609
REMARK INTER + INTRA:          -2.861
REMARK INTER:                  -2.755
REMARK INTRA:                  -0.106
REMARK UNBOUND:                -0.022
REMARK SMILES CCCCC(=O)[O-]
REMARK SMILES IDX 4 1 5 2 6 3 7 4 3 5 2 6 1 7
REMARK H PARENT
REMARK Flexibility Score: inf
ROOT
ATOM      1  C   UNL     1      -8.121 -22.273 -13.984  1.00  0.00     0.053 C 
ENDROOT
BRANCH   1   2
ATOM      2  C   UNL     1      -6.772 -22.445 -13.360  1.00  0.00     0.041 C 
ATOM      3  O   UNL     1      -6.620 -22.271 -12.122  1.00  0.00    -0.550 OA
ATOM      4  O   UNL     1      -5.673 -22.751 -14.152  1.00  0.00    -0.550 OA
ENDBRANCH   1   2
BRANCH   1   5
ATOM      5  C   UNL     1      -8.092 -21.142 -15.018  1.00  0.00     0.006 C 
BRANCH   5   6
ATOM      6  C   UNL     1      -8.201 -21.657 -16.461  1.00  0.00    -0.003 C 
ATOM      7  C   UNL     1      -6.930 -21.411 -17.274  1.00  0.00     0.004 C 
ENDBRANCH   5   6
ENDBRANCH   1   5
TORSDOF 3
ENDMDL
MODEL 8
REMARK VINA RESULT:    -2.287      2.532      4.030
REMARK INTER + INTRA:          -2.710
REMARK INTER:                  -2.680
REMARK INTRA:                  -0.030
REMARK UNBOUND:                -0.022
REMARK SMILES CCCCC(=O)[O-]
REMARK SMILES IDX 4 1 5 2 6 3 7 4 3 5 2 6 1 7
REMARK H PARENT
REMARK Flexibility Score: inf
ROOT
ATOM      1  C   UNL     1       7.757 -22.188 -16.273  1.00  0.00     0.053 C 
ENDROOT
BRANCH   1   2
ATOM      2  C   UNL     1       7.723 -20.883 -15.543  1.00  0.00     0.041 C 
ATOM      3  O   UNL     1       8.726 -20.498 -14.887  1.00  0.00    -0.550 OA
ATOM      4  O   UNL     1       6.566 -20.114 -15.547  1.00  0.00    -0.550 OA
ENDBRANCH   1   2
BRANCH   1   5
ATOM      5  C   UNL     1       7.648 -21.959 -17.785  1.00  0.00     0.006 C 
BRANCH   5   6
ATOM      6  C   UNL     1       6.667 -22.930 -18.461  1.00  0.00    -0.003 C 
ATOM      7  C   UNL     1       6.959 -23.124 -19.949  1.00  0.00     0.004 C 
ENDBRANCH   5   6
ENDBRANCH   1   5
TORSDOF 3
ENDMDL
