MODEL 1
REMARK VINA RESULT:    -4.362      0.000      0.000
REMARK INTER + INTRA:         -16.421
REMARK INTER:                 -11.503
REMARK INTRA:                  -4.917
REMARK UNBOUND:                -4.917
REMARK SMILES CCCCCCCCCCCCCCCCCCCCCCCCCCCCCC(=O)[O-]
REMARK SMILES IDX 16 1 17 2 18 3 19 4 20 5 21 6 22 7 23 8 24 9 25 10 26 11
REMARK SMILES IDX 27 12 28 13 29 14 30 15 31 16 32 17 15 18 14 19 13 20 12 21
REMARK SMILES IDX 11 22 10 23 9 24 8 25 7 26 6 27 5 28 4 29 3 30 2 31 1 32
REMARK H PARENT
REMARK Flexibility Score: inf
ROOT
ATOM      1  C   UNL     1      16.721   7.993  42.224  1.00  0.00     0.000 C 
ENDROOT
BRANCH   1   2
ATOM      2  C   UNL     1      16.349   7.391  40.852  1.00  0.00     0.000 C 
BRANCH   2   3
ATOM      3  C   UNL     1      14.993   6.659  40.835  1.00  0.00     0.000 C 
BRANCH   3   4
ATOM      4  C   UNL     1      15.073   5.130  40.984  1.00  0.00     0.000 C 
BRANCH   4   5
ATOM      5  C   UNL     1      16.441   4.507  40.640  1.00  0.00     0.000 C 
BRANCH   5   6
ATOM      6  C   UNL     1      17.156   3.852  41.840  1.00  0.00     0.000 C 
BRANCH   6   7
ATOM      7  C   UNL     1      17.619   2.413  41.542  1.00  0.00     0.000 C 
BRANCH   7   8
ATOM      8  C   UNL     1      16.769   1.721  40.458  1.00  0.00     0.000 C 
BRANCH   8   9
ATOM      9  C   UNL     1      15.496   1.036  40.996  1.00  0.00     0.000 C 
BRANCH   9  10
ATOM     10  C   UNL     1      15.514  -0.504  40.968  1.00  0.00     0.000 C 
BRANCH  10  11
ATOM     11  C   UNL     1      14.135  -1.185  41.068  1.00  0.00     0.000 C 
BRANCH  11  12
ATOM     12  C   UNL     1      13.219  -0.980  39.847  1.00  0.00     0.000 C 
BRANCH  12  13
ATOM     13  C   UNL     1      11.796  -0.537  40.229  1.00  0.00     0.006 C 
BRANCH  13  14
ATOM     14  C   UNL     1      11.707  -0.094  41.697  1.00  0.00     0.053 C 
BRANCH  14  15
ATOM     15  C   UNL     1      10.328   0.377  42.046  1.00  0.00     0.041 C 
ATOM     16  O   UNL     1      10.028   1.595  41.933  1.00  0.00    -0.550 OA
ATOM     17  O   UNL     1       9.356  -0.538  42.423  1.00  0.00    -0.550 OA
ENDBRANCH  14  15
ENDBRANCH  13  14
ENDBRANCH  12  13
ENDBRANCH  11  12
ENDBRANCH  10  11
ENDBRANCH   9  10
ENDBRANCH   8   9
ENDBRANCH   7   8
ENDBRANCH   6   7
ENDBRANCH   5   6
ENDBRANCH   4   5
ENDBRANCH   3   4
ENDBRANCH   2   3
ENDBRANCH   1   2
BRANCH   1  18
ATOM     18  C   UNL     1      15.485   8.305  43.086  1.00  0.00     0.000 C 
BRANCH  18  19
ATOM     19  C   UNL     1      15.538   7.628  44.464  1.00  0.00     0.000 C 
BRANCH  19  20
ATOM     20  C   UNL     1      16.451   6.392  44.480  1.00  0.00     0.000 C 
BRANCH  20  21
ATOM     21  C   UNL     1      15.671   5.137  44.894  1.00  0.00     0.000 C 
BRANCH  21  22
ATOM     22  C   UNL     1      15.745   4.922  46.411  1.00  0.00     0.000 C 
BRANCH  22  23
ATOM     23  C   UNL     1      14.361   4.762  47.058  1.00  0.00     0.000 C 
BRANCH  23  24
ATOM     24  C   UNL     1      13.550   6.071  47.056  1.00  0.00    -0.000 C 
BRANCH  24  25
ATOM     25  C   UNL     1      12.241   5.955  46.262  1.00  0.00    -0.000 C 
BRANCH  25  26
ATOM     26  C   UNL     1      12.064   4.578  45.598  1.00  0.00    -0.000 C 
BRANCH  26  27
ATOM     27  C   UNL     1      11.986   4.678  44.058  1.00  0.00    -0.000 C 
BRANCH  27  28
ATOM     28  C   UNL     1      12.340   6.074  43.513  1.00  0.00    -0.000 C 
BRANCH  28  29
ATOM     29  C   UNL     1      11.712   6.412  42.149  1.00  0.00    -0.000 C 
BRANCH  29  30
ATOM     30  C   UNL     1      10.919   5.263  41.493  1.00  0.00    -0.000 C 
BRANCH  30  31
ATOM     31  C   UNL     1      11.496   4.748  40.162  1.00  0.00    -0.003 C 
ATOM     32  C   UNL     1      11.567   5.826  39.083  1.00  0.00     0.004 C 
ENDBRANCH  30  31
ENDBRANCH  29  30
ENDBRANCH  28  29
ENDBRANCH  27  28
ENDBRANCH  26  27
ENDBRANCH  25  26
ENDBRANCH  24  25
ENDBRANCH  23  24
ENDBRANCH  22  23
ENDBRANCH  21  22
ENDBRANCH  20  21
ENDBRANCH  19  20
ENDBRANCH  18  19
ENDBRANCH   1  18
TORSDOF 28
ENDMDL
MODEL 2
REMARK VINA RESULT:    -4.344      2.685      7.977
REMARK INTER + INTRA:         -16.371
REMARK INTER:                 -11.961
REMARK INTRA:                  -4.410
REMARK UNBOUND:                -4.917
REMARK SMILES CCCCCCCCCCCCCCCCCCCCCCCCCCCCCC(=O)[O-]
REMARK SMILES IDX 16 1 17 2 18 3 19 4 20 5 21 6 22 7 23 8 24 9 25 10 26 11
REMARK SMILES IDX 27 12 28 13 29 14 30 15 31 16 32 17 15 18 14 19 13 20 12 21
REMARK SMILES IDX 11 22 10 23 9 24 8 25 7 26 6 27 5 28 4 29 3 30 2 31 1 32
REMARK H PARENT
REMARK Flexibility Score: inf
ROOT
ATOM      1  C   UNL     1      11.844  -4.476  39.609  1.00  0.00     0.000 C 
ENDROOT
BRANCH   1   2
ATOM      2  C   UNL     1      11.015  -4.985  38.411  1.00  0.00     0.000 C 
BRANCH   2   3
ATOM      3  C   UNL     1       9.709  -4.202  38.174  1.00  0.00     0.000 C 
BRANCH   3   4
ATOM      4  C   UNL     1       9.581  -2.889  38.967  1.00  0.00     0.000 C 
BRANCH   4   5
ATOM      5  C   UNL     1       8.376  -2.005  38.585  1.00  0.00     0.000 C 
BRANCH   5   6
ATOM      6  C   UNL     1       8.160  -1.853  37.065  1.00  0.00     0.000 C 
BRANCH   6   7
ATOM      7  C   UNL     1       8.533  -0.449  36.551  1.00  0.00     0.000 C 
BRANCH   7   8
ATOM      8  C   UNL     1       7.997   0.682  37.451  1.00  0.00     0.000 C 
BRANCH   8   9
ATOM      9  C   UNL     1       9.081   1.662  37.946  1.00  0.00     0.000 C 
BRANCH   9  10
ATOM     10  C   UNL     1      10.513   1.097  37.980  1.00  0.00     0.000 C 
BRANCH  10  11
ATOM     11  C   UNL     1      10.972   0.536  39.340  1.00  0.00     0.000 C 
BRANCH  11  12
ATOM     12  C   UNL     1      11.051   1.571  40.477  1.00  0.00     0.000 C 
BRANCH  12  13
ATOM     13  C   UNL     1      10.545   1.026  41.824  1.00  0.00     0.006 C 
BRANCH  13  14
ATOM     14  C   UNL     1      10.354  -0.497  41.793  1.00  0.00     0.053 C 
BRANCH  14  15
ATOM     15  C   UNL     1       8.966  -0.885  42.202  1.00  0.00     0.041 C 
ATOM     16  O   UNL     1       8.784  -1.873  42.962  1.00  0.00    -0.550 OA
ATOM     17  O   UNL     1       7.884  -0.113  41.807  1.00  0.00    -0.550 OA
ENDBRANCH  14  15
ENDBRANCH  13  14
ENDBRANCH  12  13
ENDBRANCH  11  12
ENDBRANCH  10  11
ENDBRANCH   9  10
ENDBRANCH   8   9
ENDBRANCH   7   8
ENDBRANCH   6   7
ENDBRANCH   5   6
ENDBRANCH   4   5
ENDBRANCH   3   4
ENDBRANCH   2   3
ENDBRANCH   1   2
BRANCH   1  18
ATOM     18  C   UNL     1      13.322  -4.245  39.248  1.00  0.00     0.000 C 
BRANCH  18  19
ATOM     19  C   UNL     1      14.015  -3.255  40.197  1.00  0.00     0.000 C 
BRANCH  19  20
ATOM     20  C   UNL     1      13.641  -1.794  39.902  1.00  0.00     0.000 C 
BRANCH  20  21
ATOM     21  C   UNL     1      13.939  -0.895  41.109  1.00  0.00     0.000 C 
BRANCH  21  22
ATOM     22  C   UNL     1      14.516   0.454  40.659  1.00  0.00     0.000 C 
BRANCH  22  23
ATOM     23  C   UNL     1      15.948   0.686  41.162  1.00  0.00     0.000 C 
BRANCH  23  24
ATOM     24  C   UNL     1      16.682   1.789  40.378  1.00  0.00    -0.000 C 
BRANCH  24  25
ATOM     25  C   UNL     1      17.718   2.534  41.232  1.00  0.00    -0.000 C 
BRANCH  25  26
ATOM     26  C   UNL     1      17.183   3.861  41.799  1.00  0.00    -0.000 C 
BRANCH  26  27
ATOM     27  C   UNL     1      16.177   4.540  40.843  1.00  0.00    -0.000 C 
BRANCH  27  28
ATOM     28  C   UNL     1      14.939   5.113  41.558  1.00  0.00    -0.000 C 
BRANCH  28  29
ATOM     29  C   UNL     1      13.644   4.308  41.352  1.00  0.00    -0.000 C 
BRANCH  29  30
ATOM     30  C   UNL     1      12.370   4.961  41.927  1.00  0.00    -0.000 C 
BRANCH  30  31
ATOM     31  C   UNL     1      11.225   5.159  40.918  1.00  0.00    -0.003 C 
ATOM     32  C   UNL     1       9.842   4.947  41.531  1.00  0.00     0.004 C 
ENDBRANCH  30  31
ENDBRANCH  29  30
ENDBRANCH  28  29
ENDBRANCH  27  28
ENDBRANCH  26  27
ENDBRANCH  25  26
ENDBRANCH  24  25
ENDBRANCH  23  24
ENDBRANCH  22  23
ENDBRANCH  21  22
ENDBRANCH  20  21
ENDBRANCH  19  20
ENDBRANCH  18  19
ENDBRANCH   1  18
TORSDOF 28
ENDMDL
MODEL 3
REMARK VINA RESULT:    -4.321      3.239      9.158
REMARK INTER + INTRA:         -16.311
REMARK INTER:                 -12.409
REMARK INTRA:                  -3.902
REMARK UNBOUND:                -4.917
REMARK SMILES CCCCCCCCCCCCCCCCCCCCCCCCCCCCCC(=O)[O-]
REMARK SMILES IDX 16 1 17 2 18 3 19 4 20 5 21 6 22 7 23 8 24 9 25 10 26 11
REMARK SMILES IDX 27 12 28 13 29 14 30 15 31 16 32 17 15 18 14 19 13 20 12 21
REMARK SMILES IDX 11 22 10 23 9 24 8 25 7 26 6 27 5 28 4 29 3 30 2 31 1 32
REMARK H PARENT
REMARK Flexibility Score: inf
ROOT
ATOM      1  C   UNL     1      11.197  -0.040  41.735  1.00  0.00     0.000 C 
ENDROOT
BRANCH   1   2
ATOM      2  C   UNL     1      11.428   1.135  40.761  1.00  0.00     0.000 C 
BRANCH   2   3
ATOM      3  C   UNL     1      10.146   1.908  40.395  1.00  0.00     0.000 C 
BRANCH   3   4
ATOM      4  C   UNL     1       9.971   2.214  38.897  1.00  0.00     0.000 C 
BRANCH   4   5
ATOM      5  C   UNL     1       9.866   3.710  38.539  1.00  0.00     0.000 C 
BRANCH   5   6
ATOM      6  C   UNL     1      10.504   4.655  39.579  1.00  0.00     0.000 C 
BRANCH   6   7
ATOM      7  C   UNL     1      11.648   5.501  38.988  1.00  0.00     0.000 C 
BRANCH   7   8
ATOM      8  C   UNL     1      12.605   6.052  40.064  1.00  0.00     0.000 C 
BRANCH   8   9
ATOM      9  C   UNL     1      12.791   5.121  41.280  1.00  0.00     0.000 C 
BRANCH   9  10
ATOM     10  C   UNL     1      14.167   5.202  41.967  1.00  0.00     0.000 C 
BRANCH  10  11
ATOM     11  C   UNL     1      15.092   6.329  41.468  1.00  0.00     0.000 C 
BRANCH  11  12
ATOM     12  C   UNL     1      16.458   5.860  40.935  1.00  0.00     0.000 C 
BRANCH  12  13
ATOM     13  C   UNL     1      16.523   4.341  40.698  1.00  0.00     0.006 C 
BRANCH  13  14
ATOM     14  C   UNL     1      17.883   3.753  41.100  1.00  0.00     0.053 C 
BRANCH  14  15
ATOM     15  C   UNL     1      18.091   2.393  40.508  1.00  0.00     0.041 C 
ATOM     16  O   UNL     1      17.153   1.552  40.509  1.00  0.00    -0.550 OA
ATOM     17  O   UNL     1      19.293   2.081  39.888  1.00  0.00    -0.550 OA
ENDBRANCH  14  15
ENDBRANCH  13  14
ENDBRANCH  12  13
ENDBRANCH  11  12
ENDBRANCH  10  11
ENDBRANCH   9  10
ENDBRANCH   8   9
ENDBRANCH   7   8
ENDBRANCH   6   7
ENDBRANCH   5   6
ENDBRANCH   4   5
ENDBRANCH   3   4
ENDBRANCH   2   3
ENDBRANCH   1   2
BRANCH   1  18
ATOM     18  C   UNL     1       9.835   0.044  42.447  1.00  0.00     0.000 C 
BRANCH  18  19
ATOM     19  C   UNL     1       9.049  -1.275  42.379  1.00  0.00     0.000 C 
BRANCH  19  20
ATOM     20  C   UNL     1       7.531  -1.064  42.497  1.00  0.00     0.000 C 
BRANCH  20  21
ATOM     21  C   UNL     1       6.936  -0.593  41.164  1.00  0.00     0.000 C 
BRANCH  21  22
ATOM     22  C   UNL     1       7.250  -1.591  40.041  1.00  0.00     0.000 C 
BRANCH  22  23
ATOM     23  C   UNL     1       7.981  -0.943  38.856  1.00  0.00     0.000 C 
BRANCH  23  24
ATOM     24  C   UNL     1       9.421  -1.462  38.691  1.00  0.00    -0.000 C 
BRANCH  24  25
ATOM     25  C   UNL     1       9.626  -2.851  39.313  1.00  0.00    -0.000 C 
BRANCH  25  26
ATOM     26  C   UNL     1       9.790  -3.960  38.260  1.00  0.00    -0.000 C 
BRANCH  26  27
ATOM     27  C   UNL     1      10.871  -4.989  38.658  1.00  0.00    -0.000 C 
BRANCH  27  28
ATOM     28  C   UNL     1      11.809  -4.495  39.775  1.00  0.00    -0.000 C 
BRANCH  28  29
ATOM     29  C   UNL     1      13.212  -4.076  39.302  1.00  0.00    -0.000 C 
BRANCH  29  30
ATOM     30  C   UNL     1      13.969  -3.132  40.258  1.00  0.00    -0.000 C 
BRANCH  30  31
ATOM     31  C   UNL     1      13.931  -1.643  39.872  1.00  0.00    -0.003 C 
ATOM     32  C   UNL     1      14.736  -0.756  40.821  1.00  0.00     0.004 C 
ENDBRANCH  30  31
ENDBRANCH  29  30
ENDBRANCH  28  29
ENDBRANCH  27  28
ENDBRANCH  26  27
ENDBRANCH  25  26
ENDBRANCH  24  25
ENDBRANCH  23  24
ENDBRANCH  22  23
ENDBRANCH  21  22
ENDBRANCH  20  21
ENDBRANCH  19  20
ENDBRANCH  18  19
ENDBRANCH   1  18
TORSDOF 28
ENDMDL
MODEL 4
REMARK VINA RESULT:    -4.301      2.959      6.850
REMARK INTER + INTRA:         -16.258
REMARK INTER:                 -12.504
REMARK INTRA:                  -3.754
REMARK UNBOUND:                -4.917
REMARK SMILES CCCCCCCCCCCCCCCCCCCCCCCCCCCCCC(=O)[O-]
REMARK SMILES IDX 16 1 17 2 18 3 19 4 20 5 21 6 22 7 23 8 24 9 25 10 26 11
REMARK SMILES IDX 27 12 28 13 29 14 30 15 31 16 32 17 15 18 14 19 13 20 12 21
REMARK SMILES IDX 11 22 10 23 9 24 8 25 7 26 6 27 5 28 4 29 3 30 2 31 1 32
REMARK H PARENT
REMARK Flexibility Score: inf
ROOT
ATOM      1  C   UNL     1      10.631   1.844  36.235  1.00  0.00     0.000 C 
ENDROOT
BRANCH   1   2
ATOM      2  C   UNL     1       9.469   0.828  36.263  1.00  0.00     0.000 C 
BRANCH   2   3
ATOM      3  C   UNL     1       9.054   0.390  37.681  1.00  0.00     0.000 C 
BRANCH   3   4
ATOM      4  C   UNL     1      10.213  -0.026  38.603  1.00  0.00     0.000 C 
BRANCH   4   5
ATOM      5  C   UNL     1       9.885  -1.149  39.607  1.00  0.00     0.000 C 
BRANCH   5   6
ATOM      6  C   UNL     1      10.260  -0.821  41.068  1.00  0.00     0.000 C 
BRANCH   6   7
ATOM      7  C   UNL     1      10.758   0.626  41.241  1.00  0.00     0.000 C 
BRANCH   7   8
ATOM      8  C   UNL     1      12.222   0.706  41.718  1.00  0.00     0.000 C 
BRANCH   8   9
ATOM      9  C   UNL     1      13.250   0.196  40.686  1.00  0.00     0.000 C 
BRANCH   9  10
ATOM     10  C   UNL     1      14.411  -0.633  41.267  1.00  0.00     0.000 C 
BRANCH  10  11
ATOM     11  C   UNL     1      14.402  -2.131  40.904  1.00  0.00     0.000 C 
BRANCH  11  12
ATOM     12  C   UNL     1      13.600  -2.488  39.639  1.00  0.00     0.000 C 
BRANCH  12  13
ATOM     13  C   UNL     1      13.233  -3.980  39.560  1.00  0.00     0.006 C 
BRANCH  13  14
ATOM     14  C   UNL     1      11.713  -4.200  39.577  1.00  0.00     0.053 C 
BRANCH  14  15
ATOM     15  C   UNL     1      11.272  -5.080  38.447  1.00  0.00     0.041 C 
ATOM     16  O   UNL     1      10.053  -5.148  38.138  1.00  0.00    -0.550 OA
ATOM     17  O   UNL     1      12.213  -5.763  37.690  1.00  0.00    -0.550 OA
ENDBRANCH  14  15
ENDBRANCH  13  14
ENDBRANCH  12  13
ENDBRANCH  11  12
ENDBRANCH  10  11
ENDBRANCH   9  10
ENDBRANCH   8   9
ENDBRANCH   7   8
ENDBRANCH   6   7
ENDBRANCH   5   6
ENDBRANCH   4   5
ENDBRANCH   3   4
ENDBRANCH   2   3
ENDBRANCH   1   2
BRANCH   1  18
ATOM     18  C   UNL     1      10.186   3.235  35.747  1.00  0.00     0.000 C 
BRANCH  18  19
ATOM     19  C   UNL     1      10.610   4.361  36.703  1.00  0.00     0.000 C 
BRANCH  19  20
ATOM     20  C   UNL     1      10.500   3.954  38.181  1.00  0.00     0.000 C 
BRANCH  20  21
ATOM     21  C   UNL     1      11.217   4.964  39.085  1.00  0.00     0.000 C 
BRANCH  21  22
ATOM     22  C   UNL     1      11.508   4.355  40.464  1.00  0.00     0.000 C 
BRANCH  22  23
ATOM     23  C   UNL     1      12.883   4.758  41.015  1.00  0.00     0.000 C 
BRANCH  23  24
ATOM     24  C   UNL     1      13.128   6.277  40.951  1.00  0.00    -0.000 C 
BRANCH  24  25
ATOM     25  C   UNL     1      14.336   6.718  41.790  1.00  0.00    -0.000 C 
BRANCH  25  26
ATOM     26  C   UNL     1      14.381   6.045  43.173  1.00  0.00    -0.000 C 
BRANCH  26  27
ATOM     27  C   UNL     1      15.630   5.151  43.346  1.00  0.00    -0.000 C 
BRANCH  27  28
ATOM     28  C   UNL     1      16.819   5.577  42.466  1.00  0.00    -0.000 C 
BRANCH  28  29
ATOM     29  C   UNL     1      17.405   4.458  41.586  1.00  0.00    -0.000 C 
BRANCH  29  30
ATOM     30  C   UNL     1      16.384   3.407  41.103  1.00  0.00    -0.000 C 
BRANCH  30  31
ATOM     31  C   UNL     1      16.987   2.050  40.698  1.00  0.00    -0.003 C 
ATOM     32  C   UNL     1      18.464   2.140  40.317  1.00  0.00     0.004 C 
ENDBRANCH  30  31
ENDBRANCH  29  30
ENDBRANCH  28  29
ENDBRANCH  27  28
ENDBRANCH  26  27
ENDBRANCH  25  26
ENDBRANCH  24  25
ENDBRANCH  23  24
ENDBRANCH  22  23
ENDBRANCH  21  22
ENDBRANCH  20  21
ENDBRANCH  19  20
ENDBRANCH  18  19
ENDBRANCH   1  18
TORSDOF 28
ENDMDL
MODEL 5
REMARK VINA RESULT:    -4.276      1.701      4.202
REMARK INTER + INTRA:         -16.192
REMARK INTER:                 -11.644
REMARK INTRA:                  -4.548
REMARK UNBOUND:                -4.917
REMARK SMILES CCCCCCCCCCCCCCCCCCCCCCCCCCCCCC(=O)[O-]
REMARK SMILES IDX 16 1 17 2 18 3 19 4 20 5 21 6 22 7 23 8 24 9 25 10 26 11
REMARK SMILES IDX 27 12 28 13 29 14 30 15 31 16 32 17 15 18 14 19 13 20 12 21
REMARK SMILES IDX 11 22 10 23 9 24 8 25 7 26 6 27 5 28 4 29 3 30 2 31 1 32
REMARK H PARENT
REMARK Flexibility Score: inf
ROOT
ATOM      1  C   UNL     1      14.019   6.821  42.767  1.00  0.00     0.000 C 
ENDROOT
BRANCH   1   2
ATOM      2  C   UNL     1      14.849   5.527  42.907  1.00  0.00     0.000 C 
BRANCH   2   3
ATOM      3  C   UNL     1      16.370   5.740  42.770  1.00  0.00     0.000 C 
BRANCH   3   4
ATOM      4  C   UNL     1      16.920   5.619  41.338  1.00  0.00     0.000 C 
BRANCH   4   5
ATOM      5  C   UNL     1      16.692   4.253  40.659  1.00  0.00     0.000 C 
BRANCH   5   6
ATOM      6  C   UNL     1      17.880   3.276  40.788  1.00  0.00     0.000 C 
BRANCH   6   7
ATOM      7  C   UNL     1      17.456   1.803  40.638  1.00  0.00     0.000 C 
BRANCH   7   8
ATOM      8  C   UNL     1      15.927   1.611  40.676  1.00  0.00     0.000 C 
BRANCH   8   9
ATOM      9  C   UNL     1      15.479   0.163  40.962  1.00  0.00     0.000 C 
BRANCH   9  10
ATOM     10  C   UNL     1      14.057  -0.193  40.489  1.00  0.00     0.000 C 
BRANCH  10  11
ATOM     11  C   UNL     1      13.024  -0.421  41.611  1.00  0.00     0.000 C 
BRANCH  11  12
ATOM     12  C   UNL     1      11.579  -0.026  41.253  1.00  0.00     0.000 C 
BRANCH  12  13
ATOM     13  C   UNL     1      11.320  -0.001  39.736  1.00  0.00     0.006 C 
BRANCH  13  14
ATOM     14  C   UNL     1      10.165   0.940  39.366  1.00  0.00     0.053 C 
BRANCH  14  15
ATOM     15  C   UNL     1       8.916   0.178  39.042  1.00  0.00     0.041 C 
ATOM     16  O   UNL     1       8.920  -0.680  38.121  1.00  0.00    -0.550 OA
ATOM     17  O   UNL     1       7.773   0.362  39.807  1.00  0.00    -0.550 OA
ENDBRANCH  14  15
ENDBRANCH  13  14
ENDBRANCH  12  13
ENDBRANCH  11  12
ENDBRANCH  10  11
ENDBRANCH   9  10
ENDBRANCH   8   9
ENDBRANCH   7   8
ENDBRANCH   6   7
ENDBRANCH   5   6
ENDBRANCH   4   5
ENDBRANCH   3   4
ENDBRANCH   2   3
ENDBRANCH   1   2
BRANCH   1  18
ATOM     18  C   UNL     1      13.671   7.143  41.303  1.00  0.00     0.000 C 
BRANCH  18  19
ATOM     19  C   UNL     1      13.395   5.883  40.469  1.00  0.00     0.000 C 
BRANCH  19  20
ATOM     20  C   UNL     1      11.916   5.749  40.074  1.00  0.00     0.000 C 
BRANCH  20  21
ATOM     21  C   UNL     1      11.435   4.300  40.226  1.00  0.00     0.000 C 
BRANCH  21  22
ATOM     22  C   UNL     1      12.017   3.661  41.494  1.00  0.00     0.000 C 
BRANCH  22  23
ATOM     23  C   UNL     1      10.971   3.484  42.605  1.00  0.00     0.000 C 
BRANCH  23  24
ATOM     24  C   UNL     1      10.415   4.825  43.117  1.00  0.00    -0.000 C 
BRANCH  24  25
ATOM     25  C   UNL     1      10.554   4.983  44.638  1.00  0.00    -0.000 C 
BRANCH  25  26
ATOM     26  C   UNL     1      11.931   4.539  45.162  1.00  0.00    -0.000 C 
BRANCH  26  27
ATOM     27  C   UNL     1      12.701   5.698  45.833  1.00  0.00    -0.000 C 
BRANCH  27  28
ATOM     28  C   UNL     1      13.005   5.455  47.323  1.00  0.00    -0.000 C 
BRANCH  28  29
ATOM     29  C   UNL     1      14.247   4.587  47.595  1.00  0.00    -0.000 C 
BRANCH  29  30
ATOM     30  C   UNL     1      15.336   4.647  46.505  1.00  0.00    -0.000 C 
BRANCH  30  31
ATOM     31  C   UNL     1      16.491   5.623  46.789  1.00  0.00    -0.003 C 
ATOM     32  C   UNL     1      16.159   7.068  46.420  1.00  0.00     0.004 C 
ENDBRANCH  30  31
ENDBRANCH  29  30
ENDBRANCH  28  29
ENDBRANCH  27  28
ENDBRANCH  26  27
ENDBRANCH  25  26
ENDBRANCH  24  25
ENDBRANCH  23  24
ENDBRANCH  22  23
ENDBRANCH  21  22
ENDBRANCH  20  21
ENDBRANCH  19  20
ENDBRANCH  18  19
ENDBRANCH   1  18
TORSDOF 28
ENDMDL
MODEL 6
REMARK VINA RESULT:    -4.269      1.141      3.703
REMARK INTER + INTRA:         -16.174
REMARK INTER:                 -11.483
REMARK INTRA:                  -4.691
REMARK UNBOUND:                -4.917
REMARK SMILES CCCCCCCCCCCCCCCCCCCCCCCCCCCCCC(=O)[O-]
REMARK SMILES IDX 16 1 17 2 18 3 19 4 20 5 21 6 22 7 23 8 24 9 25 10 26 11
REMARK SMILES IDX 27 12 28 13 29 14 30 15 31 16 32 17 15 18 14 19 13 20 12 21
REMARK SMILES IDX 11 22 10 23 9 24 8 25 7 26 6 27 5 28 4 29 3 30 2 31 1 32
REMARK H PARENT
REMARK Flexibility Score: inf
ROOT
ATOM      1  C   UNL     1      13.671   4.327  41.386  1.00  0.00     0.000 C 
ENDROOT
BRANCH   1   2
ATOM      2  C   UNL     1      14.166   5.765  41.119  1.00  0.00     0.000 C 
BRANCH   2   3
ATOM      3  C   UNL     1      15.685   5.950  41.306  1.00  0.00     0.000 C 
BRANCH   3   4
ATOM      4  C   UNL     1      16.561   4.867  40.653  1.00  0.00     0.000 C 
BRANCH   4   5
ATOM      5  C   UNL     1      17.610   4.222  41.582  1.00  0.00     0.000 C 
BRANCH   5   6
ATOM      6  C   UNL     1      17.324   2.745  41.928  1.00  0.00     0.000 C 
BRANCH   6   7
ATOM      7  C   UNL     1      17.037   1.889  40.681  1.00  0.00     0.000 C 
BRANCH   7   8
ATOM      8  C   UNL     1      15.596   1.340  40.647  1.00  0.00     0.000 C 
BRANCH   8   9
ATOM      9  C   UNL     1      15.481  -0.153  41.019  1.00  0.00     0.000 C 
BRANCH   9  10
ATOM     10  C   UNL     1      14.058  -0.642  41.347  1.00  0.00     0.000 C 
BRANCH  10  11
ATOM     11  C   UNL     1      13.156  -0.921  40.127  1.00  0.00     0.000 C 
BRANCH  11  12
ATOM     12  C   UNL     1      11.736  -0.333  40.222  1.00  0.00     0.000 C 
BRANCH  12  13
ATOM     13  C   UNL     1      11.251  -0.161  41.672  1.00  0.00     0.006 C 
BRANCH  13  14
ATOM     14  C   UNL     1       9.749  -0.448  41.813  1.00  0.00     0.053 C 
BRANCH  14  15
ATOM     15  C   UNL     1       8.938   0.808  41.712  1.00  0.00     0.041 C 
ATOM     16  O   UNL     1       9.318   1.856  42.298  1.00  0.00    -0.550 OA
ATOM     17  O   UNL     1       7.806   0.842  40.910  1.00  0.00    -0.550 OA
ENDBRANCH  14  15
ENDBRANCH  13  14
ENDBRANCH  12  13
ENDBRANCH  11  12
ENDBRANCH  10  11
ENDBRANCH   9  10
ENDBRANCH   8   9
ENDBRANCH   7   8
ENDBRANCH   6   7
ENDBRANCH   5   6
ENDBRANCH   4   5
ENDBRANCH   3   4
ENDBRANCH   2   3
ENDBRANCH   1   2
BRANCH   1  18
ATOM     18  C   UNL     1      12.149   4.184  41.205  1.00  0.00     0.000 C 
BRANCH  18  19
ATOM     19  C   UNL     1      11.355   4.800  42.367  1.00  0.00     0.000 C 
BRANCH  19  20
ATOM     20  C   UNL     1      11.541   4.029  43.683  1.00  0.00     0.000 C 
BRANCH  20  21
ATOM     21  C   UNL     1      11.656   4.990  44.873  1.00  0.00     0.000 C 
BRANCH  21  22
ATOM     22  C   UNL     1      12.345   6.297  44.457  1.00  0.00     0.000 C 
BRANCH  22  23
ATOM     23  C   UNL     1      12.001   7.473  45.382  1.00  0.00     0.000 C 
BRANCH  23  24
ATOM     24  C   UNL     1      12.062   7.093  46.873  1.00  0.00    -0.000 C 
BRANCH  24  25
ATOM     25  C   UNL     1      13.498   7.050  47.416  1.00  0.00    -0.000 C 
BRANCH  25  26
ATOM     26  C   UNL     1      13.797   5.768  48.212  1.00  0.00    -0.000 C 
BRANCH  26  27
ATOM     27  C   UNL     1      14.298   4.621  47.306  1.00  0.00    -0.000 C 
BRANCH  27  28
ATOM     28  C   UNL     1      15.683   4.885  46.687  1.00  0.00    -0.000 C 
BRANCH  28  29
ATOM     29  C   UNL     1      15.675   5.138  45.169  1.00  0.00    -0.000 C 
BRANCH  29  30
ATOM     30  C   UNL     1      16.686   6.193  44.677  1.00  0.00    -0.000 C 
BRANCH  30  31
ATOM     31  C   UNL     1      16.396   7.635  45.127  1.00  0.00    -0.003 C 
ATOM     32  C   UNL     1      15.378   8.348  44.238  1.00  0.00     0.004 C 
ENDBRANCH  30  31
ENDBRANCH  29  30
ENDBRANCH  28  29
ENDBRANCH  27  28
ENDBRANCH  26  27
ENDBRANCH  25  26
ENDBRANCH  24  25
ENDBRANCH  23  24
ENDBRANCH  22  23
ENDBRANCH  21  22
ENDBRANCH  20  21
ENDBRANCH  19  20
ENDBRANCH  18  19
ENDBRANCH   1  18
TORSDOF 28
ENDMDL
MODEL 7
REMARK VINA RESULT:    -4.255      2.219      6.756
REMARK INTER + INTRA:         -16.138
REMARK INTER:                 -11.829
REMARK INTRA:                  -4.309
REMARK UNBOUND:                -4.917
REMARK SMILES CCCCCCCCCCCCCCCCCCCCCCCCCCCCCC(=O)[O-]
REMARK SMILES IDX 16 1 17 2 18 3 19 4 20 5 21 6 22 7 23 8 24 9 25 10 26 11
REMARK SMILES IDX 27 12 28 13 29 14 30 15 31 16 32 17 15 18 14 19 13 20 12 21
REMARK SMILES IDX 11 22 10 23 9 24 8 25 7 26 6 27 5 28 4 29 3 30 2 31 1 32
REMARK H PARENT
REMARK Flexibility Score: inf
ROOT
ATOM      1  C   UNL     1      16.552   5.171  40.917  1.00  0.00     0.000 C 
ENDROOT
BRANCH   1   2
ATOM      2  C   UNL     1      15.152   5.440  41.509  1.00  0.00     0.000 C 
BRANCH   2   3
ATOM      3  C   UNL     1      14.489   6.731  40.989  1.00  0.00     0.000 C 
BRANCH   3   4
ATOM      4  C   UNL     1      13.660   7.505  42.028  1.00  0.00     0.000 C 
BRANCH   4   5
ATOM      5  C   UNL     1      14.432   8.585  42.814  1.00  0.00     0.000 C 
BRANCH   5   6
ATOM      6  C   UNL     1      14.687   9.883  42.019  1.00  0.00     0.000 C 
BRANCH   6   7
ATOM      7  C   UNL     1      16.188  10.182  41.839  1.00  0.00     0.000 C 
BRANCH   7   8
ATOM      8  C   UNL     1      16.887   9.194  40.884  1.00  0.00     0.000 C 
BRANCH   8   9
ATOM      9  C   UNL     1      18.013   8.370  41.543  1.00  0.00     0.000 C 
BRANCH   9  10
ATOM     10  C   UNL     1      18.042   8.406  43.083  1.00  0.00     0.000 C 
BRANCH  10  11
ATOM     11  C   UNL     1      17.955   7.033  43.779  1.00  0.00     0.000 C 
BRANCH  11  12
ATOM     12  C   UNL     1      16.972   6.966  44.962  1.00  0.00     0.000 C 
BRANCH  12  13
ATOM     13  C   UNL     1      16.087   5.707  44.939  1.00  0.00     0.006 C 
BRANCH  13  14
ATOM     14  C   UNL     1      15.804   5.178  46.352  1.00  0.00     0.053 C 
BRANCH  14  15
ATOM     15  C   UNL     1      14.346   4.897  46.552  1.00  0.00     0.041 C 
ATOM     16  O   UNL     1      13.524   5.128  45.626  1.00  0.00    -0.550 OA
ATOM     17  O   UNL     1      13.907   4.309  47.730  1.00  0.00    -0.550 OA
ENDBRANCH  14  15
ENDBRANCH  13  14
ENDBRANCH  12  13
ENDBRANCH  11  12
ENDBRANCH  10  11
ENDBRANCH   9  10
ENDBRANCH   8   9
ENDBRANCH   7   8
ENDBRANCH   6   7
ENDBRANCH   5   6
ENDBRANCH   4   5
ENDBRANCH   3   4
ENDBRANCH   2   3
ENDBRANCH   1   2
BRANCH   1  18
ATOM     18  C   UNL     1      17.299   4.047  41.658  1.00  0.00     0.000 C 
BRANCH  18  19
ATOM     19  C   UNL     1      18.165   3.193  40.719  1.00  0.00     0.000 C 
BRANCH  19  20
ATOM     20  C   UNL     1      17.590   1.784  40.505  1.00  0.00     0.000 C 
BRANCH  20  21
ATOM     21  C   UNL     1      16.244   1.624  41.221  1.00  0.00     0.000 C 
BRANCH  21  22
ATOM     22  C   UNL     1      15.325   0.663  40.454  1.00  0.00     0.000 C 
BRANCH  22  23
ATOM     23  C   UNL     1      14.901  -0.552  41.292  1.00  0.00     0.000 C 
BRANCH  23  24
ATOM     24  C   UNL     1      13.371  -0.705  41.384  1.00  0.00    -0.000 C 
BRANCH  24  25
ATOM     25  C   UNL     1      12.738  -1.141  40.055  1.00  0.00    -0.000 C 
BRANCH  25  26
ATOM     26  C   UNL     1      11.200  -1.128  40.093  1.00  0.00    -0.000 C 
BRANCH  26  27
ATOM     27  C   UNL     1      10.654  -0.547  41.416  1.00  0.00    -0.000 C 
BRANCH  27  28
ATOM     28  C   UNL     1       9.760   0.692  41.222  1.00  0.00    -0.000 C 
BRANCH  28  29
ATOM     29  C   UNL     1      10.487   1.933  40.673  1.00  0.00    -0.000 C 
BRANCH  29  30
ATOM     30  C   UNL     1      11.589   2.503  41.590  1.00  0.00    -0.000 C 
BRANCH  30  31
ATOM     31  C   UNL     1      12.093   3.906  41.210  1.00  0.00    -0.003 C 
ATOM     32  C   UNL     1      11.095   5.013  41.545  1.00  0.00     0.004 C 
ENDBRANCH  30  31
ENDBRANCH  29  30
ENDBRANCH  28  29
ENDBRANCH  27  28
ENDBRANCH  26  27
ENDBRANCH  25  26
ENDBRANCH  24  25
ENDBRANCH  23  24
ENDBRANCH  22  23
ENDBRANCH  21  22
ENDBRANCH  20  21
ENDBRANCH  19  20
ENDBRANCH  18  19
ENDBRANCH   1  18
TORSDOF 28
ENDMDL
MODEL 8
REMARK VINA RESULT:    -4.229      2.213      5.751
REMARK INTER + INTRA:         -16.069
REMARK INTER:                 -11.312
REMARK INTRA:                  -4.757
REMARK UNBOUND:                -4.917
REMARK SMILES CCCCCCCCCCCCCCCCCCCCCCCCCCCCCC(=O)[O-]
REMARK SMILES IDX 16 1 17 2 18 3 19 4 20 5 21 6 22 7 23 8 24 9 25 10 26 11
REMARK SMILES IDX 27 12 28 13 29 14 30 15 31 16 32 17 15 18 14 19 13 20 12 21
REMARK SMILES IDX 11 22 10 23 9 24 8 25 7 26 6 27 5 28 4 29 3 30 2 31 1 32
REMARK H PARENT
REMARK Flexibility Score: inf
ROOT
ATOM      1  C   UNL     1      12.407   3.941  41.527  1.00  0.00     0.000 C 
ENDROOT
BRANCH   1   2
ATOM      2  C   UNL     1      11.587   4.245  40.255  1.00  0.00     0.000 C 
BRANCH   2   3
ATOM      3  C   UNL     1      10.342   3.352  40.083  1.00  0.00     0.000 C 
BRANCH   3   4
ATOM      4  C   UNL     1       9.547   3.582  38.786  1.00  0.00     0.000 C 
BRANCH   4   5
ATOM      5  C   UNL     1      10.178   2.981  37.513  1.00  0.00     0.000 C 
BRANCH   5   6
ATOM      6  C   UNL     1      10.628   1.512  37.664  1.00  0.00     0.000 C 
BRANCH   6   7
ATOM      7  C   UNL     1       9.474   0.514  37.453  1.00  0.00     0.000 C 
BRANCH   7   8
ATOM      8  C   UNL     1       9.409  -0.569  38.548  1.00  0.00     0.000 C 
BRANCH   8   9
ATOM      9  C   UNL     1       8.884  -0.062  39.907  1.00  0.00     0.000 C 
BRANCH   9  10
ATOM     10  C   UNL     1       9.541  -0.698  41.147  1.00  0.00     0.000 C 
BRANCH  10  11
ATOM     11  C   UNL     1      10.493   0.222  41.937  1.00  0.00     0.000 C 
BRANCH  11  12
ATOM     12  C   UNL     1      11.988  -0.115  41.794  1.00  0.00     0.000 C 
BRANCH  12  13
ATOM     13  C   UNL     1      12.557   0.244  40.410  1.00  0.00     0.006 C 
BRANCH  13  14
ATOM     14  C   UNL     1      13.481  -0.855  39.866  1.00  0.00     0.053 C 
BRANCH  14  15
ATOM     15  C   UNL     1      14.688  -1.039  40.735  1.00  0.00     0.041 C 
ATOM     16  O   UNL     1      15.406  -0.050  41.038  1.00  0.00    -0.550 OA
ATOM     17  O   UNL     1      14.973  -2.286  41.271  1.00  0.00    -0.550 OA
ENDBRANCH  14  15
ENDBRANCH  13  14
ENDBRANCH  12  13
ENDBRANCH  11  12
ENDBRANCH  10  11
ENDBRANCH   9  10
ENDBRANCH   8   9
ENDBRANCH   7   8
ENDBRANCH   6   7
ENDBRANCH   5   6
ENDBRANCH   4   5
ENDBRANCH   3   4
ENDBRANCH   2   3
ENDBRANCH   1   2
BRANCH   1  18
ATOM     18  C   UNL     1      11.533   3.883  42.793  1.00  0.00     0.000 C 
BRANCH  18  19
ATOM     19  C   UNL     1      11.685   5.132  43.675  1.00  0.00     0.000 C 
BRANCH  19  20
ATOM     20  C   UNL     1      13.104   5.719  43.627  1.00  0.00     0.000 C 
BRANCH  20  21
ATOM     21  C   UNL     1      13.939   5.240  44.821  1.00  0.00     0.000 C 
BRANCH  21  22
ATOM     22  C   UNL     1      15.437   5.459  44.566  1.00  0.00     0.000 C 
BRANCH  22  23
ATOM     23  C   UNL     1      15.773   6.914  44.207  1.00  0.00     0.000 C 
BRANCH  23  24
ATOM     24  C   UNL     1      17.239   7.096  43.774  1.00  0.00    -0.000 C 
BRANCH  24  25
ATOM     25  C   UNL     1      17.385   8.003  42.544  1.00  0.00    -0.000 C 
BRANCH  25  26
ATOM     26  C   UNL     1      16.199   7.886  41.571  1.00  0.00    -0.000 C 
BRANCH  26  27
ATOM     27  C   UNL     1      16.388   6.739  40.554  1.00  0.00    -0.000 C 
BRANCH  27  28
ATOM     28  C   UNL     1      15.444   5.545  40.789  1.00  0.00    -0.000 C 
BRANCH  28  29
ATOM     29  C   UNL     1      16.141   4.176  40.863  1.00  0.00    -0.000 C 
BRANCH  29  30
ATOM     30  C   UNL     1      17.571   4.202  41.442  1.00  0.00    -0.000 C 
BRANCH  30  31
ATOM     31  C   UNL     1      18.275   2.835  41.506  1.00  0.00    -0.003 C 
ATOM     32  C   UNL     1      18.998   2.472  40.210  1.00  0.00     0.004 C 
ENDBRANCH  30  31
ENDBRANCH  29  30
ENDBRANCH  28  29
ENDBRANCH  27  28
ENDBRANCH  26  27
ENDBRANCH  25  26
ENDBRANCH  24  25
ENDBRANCH  23  24
ENDBRANCH  22  23
ENDBRANCH  21  22
ENDBRANCH  20  21
ENDBRANCH  19  20
ENDBRANCH  18  19
ENDBRANCH   1  18
TORSDOF 28
ENDMDL
MODEL 9
REMARK VINA RESULT:    -4.228      4.507      9.501
REMARK INTER + INTRA:         -16.067
REMARK INTER:                 -10.435
REMARK INTRA:                  -5.632
REMARK UNBOUND:                -4.917
REMARK SMILES CCCCCCCCCCCCCCCCCCCCCCCCCCCCCC(=O)[O-]
REMARK SMILES IDX 16 1 17 2 18 3 19 4 20 5 21 6 22 7 23 8 24 9 25 10 26 11
REMARK SMILES IDX 27 12 28 13 29 14 30 15 31 16 32 17 15 18 14 19 13 20 12 21
REMARK SMILES IDX 11 22 10 23 9 24 8 25 7 26 6 27 5 28 4 29 3 30 2 31 1 32
REMARK H PARENT
REMARK Flexibility Score: inf
ROOT
ATOM      1  C   UNL     1      13.914  -1.446  40.320  1.00  0.00     0.000 C 
ENDROOT
BRANCH   1   2
ATOM      2  C   UNL     1      13.370  -0.704  41.560  1.00  0.00     0.000 C 
BRANCH   2   3
ATOM      3  C   UNL     1      11.973  -0.086  41.358  1.00  0.00     0.000 C 
BRANCH   3   4
ATOM      4  C   UNL     1      11.497  -0.008  39.896  1.00  0.00     0.000 C 
BRANCH   4   5
ATOM      5  C   UNL     1      10.381  -1.001  39.514  1.00  0.00     0.000 C 
BRANCH   5   6
ATOM      6  C   UNL     1       9.560  -1.521  40.713  1.00  0.00     0.000 C 
BRANCH   6   7
ATOM      7  C   UNL     1       8.123  -1.913  40.322  1.00  0.00     0.000 C 
BRANCH   7   8
ATOM      8  C   UNL     1       7.085  -0.834  40.690  1.00  0.00     0.000 C 
BRANCH   8   9
ATOM      9  C   UNL     1       7.493   0.054  41.884  1.00  0.00     0.000 C 
BRANCH   9  10
ATOM     10  C   UNL     1       7.464   1.570  41.619  1.00  0.00     0.000 C 
BRANCH  10  11
ATOM     11  C   UNL     1       8.794   2.184  41.136  1.00  0.00     0.000 C 
BRANCH  11  12
ATOM     12  C   UNL     1       9.730   2.668  42.258  1.00  0.00     0.000 C 
BRANCH  12  13
ATOM     13  C   UNL     1      10.915   3.501  41.736  1.00  0.00     0.006 C 
BRANCH  13  14
ATOM     14  C   UNL     1      10.529   4.347  40.515  1.00  0.00     0.053 C 
BRANCH  14  15
ATOM     15  C   UNL     1      11.729   4.989  39.889  1.00  0.00     0.041 C 
ATOM     16  O   UNL     1      11.641   5.521  38.751  1.00  0.00    -0.550 OA
ATOM     17  O   UNL     1      12.922   5.067  40.594  1.00  0.00    -0.550 OA
ENDBRANCH  14  15
ENDBRANCH  13  14
ENDBRANCH  12  13
ENDBRANCH  11  12
ENDBRANCH  10  11
ENDBRANCH   9  10
ENDBRANCH   8   9
ENDBRANCH   7   8
ENDBRANCH   6   7
ENDBRANCH   5   6
ENDBRANCH   4   5
ENDBRANCH   3   4
ENDBRANCH   2   3
ENDBRANCH   1   2
BRANCH   1  18
ATOM     18  C   UNL     1      14.345  -2.889  40.638  1.00  0.00     0.000 C 
BRANCH  18  19
ATOM     19  C   UNL     1      13.982  -3.875  39.517  1.00  0.00     0.000 C 
BRANCH  19  20
ATOM     20  C   UNL     1      12.480  -4.200  39.480  1.00  0.00     0.000 C 
BRANCH  20  21
ATOM     21  C   UNL     1      12.161  -5.201  38.362  1.00  0.00     0.000 C 
BRANCH  21  22
ATOM     22  C   UNL     1      10.684  -5.615  38.402  1.00  0.00     0.000 C 
BRANCH  22  23
ATOM     23  C   UNL     1       9.727  -4.426  38.229  1.00  0.00     0.000 C 
BRANCH  23  24
ATOM     24  C   UNL     1       9.310  -4.208  36.763  1.00  0.00    -0.000 C 
BRANCH  24  25
ATOM     25  C   UNL     1       8.039  -3.356  36.630  1.00  0.00    -0.000 C 
BRANCH  25  26
ATOM     26  C   UNL     1       8.336  -1.849  36.539  1.00  0.00    -0.000 C 
BRANCH  26  27
ATOM     27  C   UNL     1       7.072  -0.990  36.769  1.00  0.00    -0.000 C 
BRANCH  27  28
ATOM     28  C   UNL     1       7.317   0.522  36.608  1.00  0.00    -0.000 C 
BRANCH  28  29
ATOM     29  C   UNL     1       8.098   1.176  37.761  1.00  0.00    -0.000 C 
BRANCH  29  30
ATOM     30  C   UNL     1       8.846   2.473  37.391  1.00  0.00    -0.000 C 
BRANCH  30  31
ATOM     31  C   UNL     1      10.380   2.359  37.366  1.00  0.00    -0.003 C 
ATOM     32  C   UNL     1      10.901   1.543  36.184  1.00  0.00     0.004 C 
ENDBRANCH  30  31
ENDBRANCH  29  30
ENDBRANCH  28  29
ENDBRANCH  27  28
ENDBRANCH  26  27
ENDBRANCH  25  26
ENDBRANCH  24  25
ENDBRANCH  23  24
ENDBRANCH  22  23
ENDBRANCH  21  22
ENDBRANCH  20  21
ENDBRANCH  19  20
ENDBRANCH  18  19
ENDBRANCH   1  18
TORSDOF 28
ENDMDL
