MODEL 1
REMARK VINA RESULT:    -5.075      0.000      0.000
REMARK INTER + INTRA:          -5.465
REMARK INTER:                  -5.372
REMARK INTRA:                  -0.093
REMARK UNBOUND:                -0.093
REMARK SMILES C=C(C)[C@H]1CC=C(C)C(=O)C1
REMARK SMILES IDX 8 1 7 2 6 3 5 4 4 5 11 6 9 7 10 8 2 9 1 10 3 11
REMARK H PARENT
REMARK Flexibility Score: inf
ROOT
ATOM      1  C   UNL     1     -29.838  19.431 -33.444  1.00  0.00     0.048 C 
ATOM      2  C   UNL     1     -28.359  19.671 -33.569  1.00  0.00    -0.012 C 
ATOM      3  C   UNL     1     -27.907  20.678 -34.335  1.00  0.00    -0.019 C 
ATOM      4  C   UNL     1     -26.436  20.951 -34.509  1.00  0.00     0.036 C 
ATOM      5  C   UNL     1     -25.650  20.588 -33.234  1.00  0.00     0.025 C 
ATOM      6  C   UNL     1     -25.929  19.128 -32.832  1.00  0.00     0.089 C 
ATOM      7  C   UNL     1     -27.409  18.876 -32.749  1.00  0.00     0.158 C 
ATOM      8  O   UNL     1     -27.835  17.955 -32.002  1.00  0.00    -0.295 OA
ENDROOT
BRANCH   5   9
ATOM      9  C   UNL     1     -24.159  20.851 -33.399  1.00  0.00    -0.077 C 
ATOM     10  C   UNL     1     -23.439  20.222 -34.345  1.00  0.00     0.008 C 
ATOM     11  C   UNL     1     -23.459  21.830 -32.493  1.00  0.00     0.039 C 
ENDBRANCH   5   9
TORSDOF 1
ENDMDL
MODEL 2
REMARK VINA RESULT:    -4.706      6.491      8.743
REMARK INTER + INTRA:          -5.074
REMARK INTER:                  -4.985
REMARK INTRA:                  -0.090
REMARK UNBOUND:                -0.093
REMARK SMILES C=C(C)[C@H]1CC=C(C)C(=O)C1
REMARK SMILES IDX 8 1 7 2 6 3 5 4 4 5 11 6 9 7 10 8 2 9 1 10 3 11
REMARK H PARENT
REMARK Flexibility Score: inf
ROOT
ATOM      1  C   UNL     1     -22.636  14.580 -30.191  1.00  0.00     0.048 C 
ATOM      2  C   UNL     1     -24.022  13.997 -30.190  1.00  0.00    -0.012 C 
ATOM      3  C   UNL     1     -24.213  12.728 -29.795  1.00  0.00    -0.019 C 
ATOM      4  C   UNL     1     -25.577  12.089 -29.792  1.00  0.00     0.036 C 
ATOM      5  C   UNL     1     -26.675  13.127 -29.487  1.00  0.00     0.025 C 
ATOM      6  C   UNL     1     -26.585  14.305 -30.474  1.00  0.00     0.089 C 
ATOM      7  C   UNL     1     -25.188  14.862 -30.507  1.00  0.00     0.158 C 
ATOM      8  O   UNL     1     -25.012  16.063 -30.844  1.00  0.00    -0.295 OA
ENDROOT
BRANCH   5   9
ATOM      9  C   UNL     1     -28.061  12.496 -29.490  1.00  0.00    -0.077 C 
ATOM     10  C   UNL     1     -28.940  12.734 -28.500  1.00  0.00     0.008 C 
ATOM     11  C   UNL     1     -28.475  11.584 -30.616  1.00  0.00     0.039 C 
ENDBRANCH   5   9
TORSDOF 1
ENDMDL
MODEL 3
REMARK VINA RESULT:    -4.555     11.529     13.026
REMARK INTER + INTRA:          -4.914
REMARK INTER:                  -4.818
REMARK INTRA:                  -0.096
REMARK UNBOUND:                -0.093
REMARK SMILES C=C(C)[C@H]1CC=C(C)C(=O)C1
REMARK SMILES IDX 8 1 7 2 6 3 5 4 4 5 11 6 9 7 10 8 2 9 1 10 3 11
REMARK H PARENT
REMARK Flexibility Score: inf
ROOT
ATOM      1  C   UNL     1     -13.800  16.042 -32.042  1.00  0.00     0.048 C 
ATOM      2  C   UNL     1     -14.692  15.015 -31.400  1.00  0.00    -0.012 C 
ATOM      3  C   UNL     1     -14.429  14.587 -30.154  1.00  0.00    -0.019 C 
ATOM      4  C   UNL     1     -15.279  13.548 -29.471  1.00  0.00     0.036 C 
ATOM      5  C   UNL     1     -16.751  13.656 -29.916  1.00  0.00     0.025 C 
ATOM      6  C   UNL     1     -16.852  13.576 -31.450  1.00  0.00     0.089 C 
ATOM      7  C   UNL     1     -15.928  14.573 -32.094  1.00  0.00     0.158 C 
ATOM      8  O   UNL     1     -16.195  15.002 -33.248  1.00  0.00    -0.295 OA
ENDROOT
BRANCH   5   9
ATOM      9  C   UNL     1     -17.621  12.604 -29.240  1.00  0.00    -0.077 C 
ATOM     10  C   UNL     1     -17.158  11.868 -28.214  1.00  0.00     0.008 C 
ATOM     11  C   UNL     1     -19.031  12.370 -29.716  1.00  0.00     0.039 C 
ENDBRANCH   5   9
TORSDOF 1
ENDMDL
MODEL 4
REMARK VINA RESULT:    -4.520      6.879      8.080
REMARK INTER + INTRA:          -4.877
REMARK INTER:                  -4.784
REMARK INTRA:                  -0.093
REMARK UNBOUND:                -0.093
REMARK SMILES C=C(C)[C@H]1CC=C(C)C(=O)C1
REMARK SMILES IDX 8 1 7 2 6 3 5 4 4 5 11 6 9 7 10 8 2 9 1 10 3 11
REMARK H PARENT
REMARK Flexibility Score: inf
ROOT
ATOM      1  C   UNL     1     -30.009  10.875 -30.812  1.00  0.00     0.048 C 
ATOM      2  C   UNL     1     -28.681  11.546 -30.590  1.00  0.00    -0.012 C 
ATOM      3  C   UNL     1     -27.757  11.538 -31.565  1.00  0.00    -0.019 C 
ATOM      4  C   UNL     1     -26.405  12.178 -31.389  1.00  0.00     0.036 C 
ATOM      5  C   UNL     1     -26.491  13.411 -30.467  1.00  0.00     0.025 C 
ATOM      6  C   UNL     1     -27.135  13.027 -29.122  1.00  0.00     0.089 C 
ATOM      7  C   UNL     1     -28.443  12.319 -29.344  1.00  0.00     0.158 C 
ATOM      8  O   UNL     1     -29.323  12.356 -28.444  1.00  0.00    -0.295 OA
ENDROOT
BRANCH   5   9
ATOM      9  C   UNL     1     -25.128  14.063 -30.272  1.00  0.00    -0.077 C 
ATOM     10  C   UNL     1     -24.108  13.395 -29.705  1.00  0.00     0.008 C 
ATOM     11  C   UNL     1     -24.900  15.484 -30.718  1.00  0.00     0.039 C 
ENDBRANCH   5   9
TORSDOF 1
ENDMDL
MODEL 5
REMARK VINA RESULT:    -4.504      6.997      9.075
REMARK INTER + INTRA:          -4.860
REMARK INTER:                  -4.767
REMARK INTRA:                  -0.093
REMARK UNBOUND:                -0.093
REMARK SMILES C=C(C)[C@H]1CC=C(C)C(=O)C1
REMARK SMILES IDX 8 1 7 2 6 3 5 4 4 5 11 6 9 7 10 8 2 9 1 10 3 11
REMARK H PARENT
REMARK Flexibility Score: inf
ROOT
ATOM      1  C   UNL     1     -23.114  14.426 -30.393  1.00  0.00     0.048 C 
ATOM      2  C   UNL     1     -24.478  13.911 -30.025  1.00  0.00    -0.012 C 
ATOM      3  C   UNL     1     -25.563  14.669 -30.256  1.00  0.00    -0.019 C 
ATOM      4  C   UNL     1     -26.951  14.211 -29.890  1.00  0.00     0.036 C 
ATOM      5  C   UNL     1     -27.082  12.680 -30.023  1.00  0.00     0.025 C 
ATOM      6  C   UNL     1     -25.995  11.978 -29.188  1.00  0.00     0.089 C 
ATOM      7  C   UNL     1     -24.634  12.522 -29.525  1.00  0.00     0.158 C 
ATOM      8  O   UNL     1     -23.620  11.797 -29.341  1.00  0.00    -0.295 OA
ENDROOT
BRANCH   5   9
ATOM      9  C   UNL     1     -28.477  12.201 -29.647  1.00  0.00    -0.077 C 
ATOM     10  C   UNL     1     -29.017  12.489 -28.450  1.00  0.00     0.008 C 
ATOM     11  C   UNL     1     -29.285  11.387 -30.624  1.00  0.00     0.039 C 
ENDBRANCH   5   9
TORSDOF 1
ENDMDL
MODEL 6
REMARK VINA RESULT:    -4.456     11.842     13.804
REMARK INTER + INTRA:          -4.810
REMARK INTER:                  -4.713
REMARK INTRA:                  -0.097
REMARK UNBOUND:                -0.093
REMARK SMILES C=C(C)[C@H]1CC=C(C)C(=O)C1
REMARK SMILES IDX 8 1 7 2 6 3 5 4 4 5 11 6 9 7 10 8 2 9 1 10 3 11
REMARK H PARENT
REMARK Flexibility Score: inf
ROOT
ATOM      1  C   UNL     1     -17.254  13.362 -30.930  1.00  0.00     0.048 C 
ATOM      2  C   UNL     1     -15.871  13.938 -31.065  1.00  0.00    -0.012 C 
ATOM      3  C   UNL     1     -14.930  13.640 -30.153  1.00  0.00    -0.019 C 
ATOM      4  C   UNL     1     -13.536  14.204 -30.230  1.00  0.00     0.036 C 
ATOM      5  C   UNL     1     -13.100  14.407 -31.695  1.00  0.00     0.025 C 
ATOM      6  C   UNL     1     -14.126  15.282 -32.439  1.00  0.00     0.089 C 
ATOM      7  C   UNL     1     -15.515  14.730 -32.269  1.00  0.00     0.158 C 
ATOM      8  O   UNL     1     -16.387  14.981 -33.144  1.00  0.00    -0.295 OA
ENDROOT
BRANCH   5   9
ATOM      9  C   UNL     1     -11.695  14.986 -31.788  1.00  0.00    -0.077 C 
ATOM     10  C   UNL     1     -10.907  15.086 -30.703  1.00  0.00     0.008 C 
ATOM     11  C   UNL     1     -11.159  15.461 -33.114  1.00  0.00     0.039 C 
ENDBRANCH   5   9
TORSDOF 1
ENDMDL
MODEL 7
REMARK VINA RESULT:    -4.364     11.796     12.671
REMARK INTER + INTRA:          -4.712
REMARK INTER:                  -4.618
REMARK INTRA:                  -0.095
REMARK UNBOUND:                -0.093
REMARK SMILES C=C(C)[C@H]1CC=C(C)C(=O)C1
REMARK SMILES IDX 8 1 7 2 6 3 5 4 4 5 11 6 9 7 10 8 2 9 1 10 3 11
REMARK H PARENT
REMARK Flexibility Score: inf
ROOT
ATOM      1  C   UNL     1     -18.594  12.364 -29.591  1.00  0.00     0.048 C 
ATOM      2  C   UNL     1     -17.321  13.032 -30.032  1.00  0.00    -0.012 C 
ATOM      3  C   UNL     1     -17.217  13.516 -31.281  1.00  0.00    -0.019 C 
ATOM      4  C   UNL     1     -15.959  14.177 -31.780  1.00  0.00     0.036 C 
ATOM      5  C   UNL     1     -15.236  14.923 -30.641  1.00  0.00     0.025 C 
ATOM      6  C   UNL     1     -14.966  13.967 -29.464  1.00  0.00     0.089 C 
ATOM      7  C   UNL     1     -16.231  13.267 -29.051  1.00  0.00     0.158 C 
ATOM      8  O   UNL     1     -16.342  12.845 -27.868  1.00  0.00    -0.295 OA
ENDROOT
BRANCH   5   9
ATOM      9  C   UNL     1     -13.957  15.590 -31.129  1.00  0.00    -0.077 C 
ATOM     10  C   UNL     1     -13.904  16.212 -32.320  1.00  0.00     0.008 C 
ATOM     11  C   UNL     1     -12.717  15.561 -30.275  1.00  0.00     0.039 C 
ENDBRANCH   5   9
TORSDOF 1
ENDMDL
MODEL 8
REMARK VINA RESULT:    -4.335      1.711      2.301
REMARK INTER + INTRA:          -4.682
REMARK INTER:                  -4.587
REMARK INTRA:                  -0.095
REMARK UNBOUND:                -0.093
REMARK SMILES C=C(C)[C@H]1CC=C(C)C(=O)C1
REMARK SMILES IDX 8 1 7 2 6 3 5 4 4 5 11 6 9 7 10 8 2 9 1 10 3 11
REMARK H PARENT
REMARK Flexibility Score: inf
ROOT
ATOM      1  C   UNL     1     -29.917  19.494 -33.875  1.00  0.00     0.048 C 
ATOM      2  C   UNL     1     -28.479  19.641 -33.458  1.00  0.00    -0.012 C 
ATOM      3  C   UNL     1     -27.887  18.668 -32.747  1.00  0.00    -0.019 C 
ATOM      4  C   UNL     1     -26.456  18.772 -32.288  1.00  0.00     0.036 C 
ATOM      5  C   UNL     1     -25.605  19.565 -33.300  1.00  0.00     0.025 C 
ATOM      6  C   UNL     1     -26.237  20.945 -33.561  1.00  0.00     0.089 C 
ATOM      7  C   UNL     1     -27.686  20.801 -33.937  1.00  0.00     0.158 C 
ATOM      8  O   UNL     1     -28.232  21.698 -34.634  1.00  0.00    -0.295 OA
ENDROOT
BRANCH   5   9
ATOM      9  C   UNL     1     -24.157  19.686 -32.844  1.00  0.00    -0.077 C 
ATOM     10  C   UNL     1     -23.583  18.739 -32.082  1.00  0.00     0.008 C 
ATOM     11  C   UNL     1     -23.337  20.885 -33.244  1.00  0.00     0.039 C 
ENDBRANCH   5   9
TORSDOF 1
ENDMDL
MODEL 9
REMARK VINA RESULT:    -4.298     12.105     14.146
REMARK INTER + INTRA:          -4.643
REMARK INTER:                  -4.554
REMARK INTRA:                  -0.089
REMARK UNBOUND:                -0.093
REMARK SMILES C=C(C)[C@H]1CC=C(C)C(=O)C1
REMARK SMILES IDX 8 1 7 2 6 3 5 4 4 5 11 6 9 7 10 8 2 9 1 10 3 11
REMARK H PARENT
REMARK Flexibility Score: inf
ROOT
ATOM      1  C   UNL     1     -11.676  15.108 -32.242  1.00  0.00     0.048 C 
ATOM      2  C   UNL     1     -12.932  14.695 -31.525  1.00  0.00    -0.012 C 
ATOM      3  C   UNL     1     -13.866  15.614 -31.227  1.00  0.00    -0.019 C 
ATOM      4  C   UNL     1     -15.133  15.258 -30.495  1.00  0.00     0.036 C 
ATOM      5  C   UNL     1     -15.594  13.830 -30.847  1.00  0.00     0.025 C 
ATOM      6  C   UNL     1     -14.462  12.822 -30.579  1.00  0.00     0.089 C 
ATOM      7  C   UNL     1     -13.193  13.257 -31.260  1.00  0.00     0.158 C 
ATOM      8  O   UNL     1     -12.334  12.389 -31.571  1.00  0.00    -0.295 OA
ENDROOT
BRANCH   5   9
ATOM      9  C   UNL     1     -16.870  13.453 -30.107  1.00  0.00    -0.077 C 
ATOM     10  C   UNL     1     -17.952  12.999 -30.764  1.00  0.00     0.008 C 
ATOM     11  C   UNL     1     -16.941  13.584 -28.608  1.00  0.00     0.039 C 
ENDBRANCH   5   9
TORSDOF 1
ENDMDL
