MODEL 1
REMARK VINA RESULT:    -4.216      0.000      0.000
REMARK INTER + INTRA:         -10.144
REMARK INTER:                  -7.667
REMARK INTRA:                  -2.477
REMARK UNBOUND:                -2.477
REMARK SMILES CCCCCC=CCC=CCCCCCCCC(=O)[O-]
REMARK SMILES IDX 11 1 12 2 13 3 14 4 15 5 16 6 17 7 18 8 19 9 20 10 10 11
REMARK SMILES IDX 9 12 8 13 7 14 6 15 5 16 4 17 3 18 2 19 1 20
REMARK H PARENT
REMARK Flexibility Score: inf
ROOT
ATOM      1  C   UNL     1       5.298  -7.572  14.569  1.00  0.00     0.027 C 
ENDROOT
BRANCH   1   2
ATOM      2  C   UNL     1       6.705  -8.077  14.918  1.00  0.00     0.004 C 
BRANCH   2   3
ATOM      3  C   UNL     1       6.985  -8.008  16.431  1.00  0.00     0.000 C 
BRANCH   3   4
ATOM      4  C   UNL     1       5.931  -8.760  17.260  1.00  0.00     0.000 C 
BRANCH   4   5
ATOM      5  C   UNL     1       5.758  -8.170  18.670  1.00  0.00     0.000 C 
BRANCH   5   6
ATOM      6  C   UNL     1       7.011  -7.425  19.168  1.00  0.00     0.006 C 
BRANCH   6   7
ATOM      7  C   UNL     1       7.113  -7.334  20.701  1.00  0.00     0.053 C 
BRANCH   7   8
ATOM      8  C   UNL     1       6.615  -6.026  21.238  1.00  0.00     0.041 C 
ATOM      9  O   UNL     1       5.724  -5.384  20.622  1.00  0.00    -0.550 OA
ATOM     10  O   UNL     1       7.125  -5.526  22.431  1.00  0.00    -0.550 OA
ENDBRANCH   7   8
ENDBRANCH   6   7
ENDBRANCH   5   6
ENDBRANCH   4   5
ENDBRANCH   3   4
ENDBRANCH   2   3
ENDBRANCH   1   2
BRANCH   1  11
ATOM     11  C   UNL     1       5.352  -6.489  13.525  1.00  0.00    -0.031 C 
ATOM     12  C   UNL     1       6.444  -5.734  13.347  1.00  0.00    -0.027 C 
BRANCH  12  13
ATOM     13  C   UNL     1       6.506  -4.684  12.273  1.00  0.00     0.054 C 
BRANCH  13  14
ATOM     14  C   UNL     1       5.374  -3.696  12.414  1.00  0.00    -0.027 C 
ATOM     15  C   UNL     1       5.361  -2.668  13.283  1.00  0.00    -0.031 C 
BRANCH  15  16
ATOM     16  C   UNL     1       6.439  -2.397  14.303  1.00  0.00     0.027 C 
BRANCH  16  17
ATOM     17  C   UNL     1       5.900  -2.570  15.726  1.00  0.00     0.004 C 
BRANCH  17  18
ATOM     18  C   UNL     1       6.524  -3.795  16.404  1.00  0.00     0.000 C 
BRANCH  18  19
ATOM     19  C   UNL     1       5.475  -4.569  17.209  1.00  0.00    -0.003 C 
ATOM     20  C   UNL     1       4.127  -4.584  16.492  1.00  0.00     0.004 C 
ENDBRANCH  18  19
ENDBRANCH  17  18
ENDBRANCH  16  17
ENDBRANCH  15  16
ENDBRANCH  13  14
ENDBRANCH  12  13
ENDBRANCH   1  11
TORSDOF 14
ENDMDL
MODEL 2
REMARK VINA RESULT:    -4.151     17.105     18.638
REMARK INTER + INTRA:         -10.025
REMARK INTER:                  -8.936
REMARK INTRA:                  -1.089
REMARK UNBOUND:                -2.477
REMARK SMILES CCCCCC=CCC=CCCCCCCCC(=O)[O-]
REMARK SMILES IDX 11 1 12 2 13 3 14 4 15 5 16 6 17 7 18 8 19 9 20 10 10 11
REMARK SMILES IDX 9 12 8 13 7 14 6 15 5 16 4 17 3 18 2 19 1 20
REMARK H PARENT
REMARK Flexibility Score: inf
ROOT
ATOM      1  C   UNL     1     -10.401  -8.547  21.501  1.00  0.00     0.027 C 
ENDROOT
BRANCH   1   2
ATOM      2  C   UNL     1     -11.247  -8.785  22.758  1.00  0.00     0.004 C 
BRANCH   2   3
ATOM      3  C   UNL     1     -10.970  -7.735  23.850  1.00  0.00     0.000 C 
BRANCH   3   4
ATOM      4  C   UNL     1     -12.103  -7.647  24.884  1.00  0.00     0.000 C 
BRANCH   4   5
ATOM      5  C   UNL     1     -12.764  -6.258  24.920  1.00  0.00     0.000 C 
BRANCH   5   6
ATOM      6  C   UNL     1     -11.789  -5.119  24.564  1.00  0.00     0.006 C 
BRANCH   6   7
ATOM      7  C   UNL     1     -12.370  -4.087  23.582  1.00  0.00     0.053 C 
BRANCH   7   8
ATOM      8  C   UNL     1     -11.686  -4.105  22.249  1.00  0.00     0.041 C 
ATOM      9  O   UNL     1     -11.626  -5.171  21.580  1.00  0.00    -0.550 OA
ATOM     10  O   UNL     1     -11.130  -2.938  21.737  1.00  0.00    -0.550 OA
ENDBRANCH   7   8
ENDBRANCH   6   7
ENDBRANCH   5   6
ENDBRANCH   4   5
ENDBRANCH   3   4
ENDBRANCH   2   3
ENDBRANCH   1   2
BRANCH   1  11
ATOM     11  C   UNL     1     -11.185  -8.849  20.251  1.00  0.00    -0.031 C 
ATOM     12  C   UNL     1     -11.100  -8.076  19.161  1.00  0.00    -0.027 C 
BRANCH  12  13
ATOM     13  C   UNL     1     -11.851  -8.408  17.902  1.00  0.00     0.054 C 
BRANCH  13  14
ATOM     14  C   UNL     1     -10.909  -8.571  16.735  1.00  0.00    -0.027 C 
ATOM     15  C   UNL     1     -10.664  -7.622  15.812  1.00  0.00    -0.031 C 
BRANCH  15  16
ATOM     16  C   UNL     1     -11.357  -6.283  15.758  1.00  0.00     0.027 C 
BRANCH  16  17
ATOM     17  C   UNL     1     -12.522  -6.311  14.764  1.00  0.00     0.004 C 
BRANCH  17  18
ATOM     18  C   UNL     1     -12.866  -4.896  14.282  1.00  0.00     0.000 C 
BRANCH  18  19
ATOM     19  C   UNL     1     -12.947  -4.843  12.754  1.00  0.00    -0.003 C 
ATOM     20  C   UNL     1     -11.772  -5.577  12.111  1.00  0.00     0.004 C 
ENDBRANCH  18  19
ENDBRANCH  17  18
ENDBRANCH  16  17
ENDBRANCH  15  16
ENDBRANCH  13  14
ENDBRANCH  12  13
ENDBRANCH   1  11
TORSDOF 14
ENDMDL
MODEL 3
REMARK VINA RESULT:    -4.131     17.393     19.157
REMARK INTER + INTRA:          -9.989
REMARK INTER:                  -8.208
REMARK INTRA:                  -1.781
REMARK UNBOUND:                -2.477
REMARK SMILES CCCCCC=CCC=CCCCCCCCC(=O)[O-]
REMARK SMILES IDX 11 1 12 2 13 3 14 4 15 5 16 6 17 7 18 8 19 9 20 10 10 11
REMARK SMILES IDX 9 12 8 13 7 14 6 15 5 16 4 17 3 18 2 19 1 20
REMARK H PARENT
REMARK Flexibility Score: inf
ROOT
ATOM      1  C   UNL     1     -10.145  -8.207  20.813  1.00  0.00     0.027 C 
ENDROOT
BRANCH   1   2
ATOM      2  C   UNL     1     -11.393  -8.967  20.346  1.00  0.00     0.004 C 
BRANCH   2   3
ATOM      3  C   UNL     1     -12.050  -8.303  19.121  1.00  0.00     0.000 C 
BRANCH   3   4
ATOM      4  C   UNL     1     -11.253  -8.532  17.828  1.00  0.00     0.000 C 
BRANCH   4   5
ATOM      5  C   UNL     1     -12.120  -8.384  16.566  1.00  0.00     0.000 C 
BRANCH   5   6
ATOM      6  C   UNL     1     -11.454  -7.523  15.476  1.00  0.00     0.006 C 
BRANCH   6   7
ATOM      7  C   UNL     1     -12.374  -6.436  14.892  1.00  0.00     0.053 C 
BRANCH   7   8
ATOM      8  C   UNL     1     -12.066  -5.069  15.424  1.00  0.00     0.041 C 
ATOM      9  O   UNL     1     -12.677  -4.062  14.979  1.00  0.00    -0.550 OA
ATOM     10  O   UNL     1     -11.116  -4.912  16.428  1.00  0.00    -0.550 OA
ENDBRANCH   7   8
ENDBRANCH   6   7
ENDBRANCH   5   6
ENDBRANCH   4   5
ENDBRANCH   3   4
ENDBRANCH   2   3
ENDBRANCH   1   2
BRANCH   1  11
ATOM     11  C   UNL     1     -10.285  -7.757  22.243  1.00  0.00    -0.031 C 
ATOM     12  C   UNL     1     -11.195  -8.295  23.066  1.00  0.00    -0.027 C 
BRANCH  12  13
ATOM     13  C   UNL     1     -11.299  -7.872  24.505  1.00  0.00     0.054 C 
BRANCH  13  14
ATOM     14  C   UNL     1     -12.342  -6.795  24.679  1.00  0.00    -0.027 C 
ATOM     15  C   UNL     1     -12.087  -5.474  24.657  1.00  0.00    -0.031 C 
BRANCH  15  16
ATOM     16  C   UNL     1     -10.710  -4.871  24.535  1.00  0.00     0.027 C 
BRANCH  16  17
ATOM     17  C   UNL     1     -10.561  -4.113  23.211  1.00  0.00     0.004 C 
BRANCH  17  18
ATOM     18  C   UNL     1     -11.930  -3.842  22.578  1.00  0.00     0.000 C 
BRANCH  18  19
ATOM     19  C   UNL     1     -11.793  -3.551  21.081  1.00  0.00    -0.003 C 
ATOM     20  C   UNL     1     -11.763  -4.843  20.267  1.00  0.00     0.004 C 
ENDBRANCH  18  19
ENDBRANCH  17  18
ENDBRANCH  16  17
ENDBRANCH  15  16
ENDBRANCH  13  14
ENDBRANCH  12  13
ENDBRANCH   1  11
TORSDOF 14
ENDMDL
MODEL 4
REMARK VINA RESULT:    -4.025     16.671     18.367
REMARK INTER + INTRA:          -9.797
REMARK INTER:                  -8.435
REMARK INTRA:                  -1.362
REMARK UNBOUND:                -2.477
REMARK SMILES CCCCCC=CCC=CCCCCCCCC(=O)[O-]
REMARK SMILES IDX 11 1 12 2 13 3 14 4 15 5 16 6 17 7 18 8 19 9 20 10 10 11
REMARK SMILES IDX 9 12 8 13 7 14 6 15 5 16 4 17 3 18 2 19 1 20
REMARK H PARENT
REMARK Flexibility Score: inf
ROOT
ATOM      1  C   UNL     1     -10.363  -5.857  20.566  1.00  0.00     0.027 C 
ENDROOT
BRANCH   1   2
ATOM      2  C   UNL     1     -11.675  -5.070  20.448  1.00  0.00     0.004 C 
BRANCH   2   3
ATOM      3  C   UNL     1     -11.651  -3.777  21.283  1.00  0.00     0.000 C 
BRANCH   3   4
ATOM      4  C   UNL     1     -11.227  -4.023  22.740  1.00  0.00     0.000 C 
BRANCH   4   5
ATOM      5  C   UNL     1     -12.404  -4.452  23.633  1.00  0.00     0.000 C 
BRANCH   5   6
ATOM      6  C   UNL     1     -12.011  -5.515  24.676  1.00  0.00     0.006 C 
BRANCH   6   7
ATOM      7  C   UNL     1     -10.937  -6.501  24.184  1.00  0.00     0.053 C 
BRANCH   7   8
ATOM      8  C   UNL     1     -11.478  -7.880  23.953  1.00  0.00     0.041 C 
ATOM      9  O   UNL     1     -12.088  -8.486  24.874  1.00  0.00    -0.550 OA
ATOM     10  O   UNL     1     -11.325  -8.487  22.712  1.00  0.00    -0.550 OA
ENDBRANCH   7   8
ENDBRANCH   6   7
ENDBRANCH   5   6
ENDBRANCH   4   5
ENDBRANCH   3   4
ENDBRANCH   2   3
ENDBRANCH   1   2
BRANCH   1  11
ATOM     11  C   UNL     1     -10.299  -6.964  19.549  1.00  0.00    -0.031 C 
ATOM     12  C   UNL     1     -11.405  -7.554  19.076  1.00  0.00    -0.027 C 
BRANCH  12  13
ATOM     13  C   UNL     1     -11.336  -8.628  18.027  1.00  0.00     0.054 C 
BRANCH  13  14
ATOM     14  C   UNL     1     -12.410  -8.439  16.985  1.00  0.00    -0.027 C 
ATOM     15  C   UNL     1     -12.182  -8.072  15.710  1.00  0.00    -0.031 C 
BRANCH  15  16
ATOM     16  C   UNL     1     -10.827  -7.716  15.153  1.00  0.00     0.027 C 
BRANCH  16  17
ATOM     17  C   UNL     1     -10.861  -6.346  14.467  1.00  0.00     0.004 C 
BRANCH  17  18
ATOM     18  C   UNL     1     -10.133  -6.389  13.119  1.00  0.00     0.000 C 
BRANCH  18  19
ATOM     19  C   UNL     1     -11.097  -6.096  11.965  1.00  0.00    -0.003 C 
ATOM     20  C   UNL     1     -12.256  -5.213  12.424  1.00  0.00     0.004 C 
ENDBRANCH  18  19
ENDBRANCH  17  18
ENDBRANCH  16  17
ENDBRANCH  15  16
ENDBRANCH  13  14
ENDBRANCH  12  13
ENDBRANCH   1  11
TORSDOF 14
ENDMDL
MODEL 5
REMARK VINA RESULT:    -4.000     16.965     18.740
REMARK INTER + INTRA:          -9.750
REMARK INTER:                  -8.386
REMARK INTRA:                  -1.365
REMARK UNBOUND:                -2.477
REMARK SMILES CCCCCC=CCC=CCCCCCCCC(=O)[O-]
REMARK SMILES IDX 11 1 12 2 13 3 14 4 15 5 16 6 17 7 18 8 19 9 20 10 10 11
REMARK SMILES IDX 9 12 8 13 7 14 6 15 5 16 4 17 3 18 2 19 1 20
REMARK H PARENT
REMARK Flexibility Score: inf
ROOT
ATOM      1  C   UNL     1     -10.476  -7.979  23.312  1.00  0.00     0.027 C 
ENDROOT
BRANCH   1   2
ATOM      2  C   UNL     1     -11.671  -8.185  24.252  1.00  0.00     0.004 C 
BRANCH   2   3
ATOM      3  C   UNL     1     -12.287  -6.849  24.706  1.00  0.00     0.000 C 
BRANCH   3   4
ATOM      4  C   UNL     1     -11.463  -5.635  24.250  1.00  0.00     0.000 C 
BRANCH   4   5
ATOM      5  C   UNL     1     -12.345  -4.448  23.824  1.00  0.00     0.000 C 
BRANCH   5   6
ATOM      6  C   UNL     1     -11.920  -3.838  22.475  1.00  0.00     0.006 C 
BRANCH   6   7
ATOM      7  C   UNL     1     -11.624  -4.883  21.385  1.00  0.00     0.053 C 
BRANCH   7   8
ATOM      8  C   UNL     1     -11.839  -4.352  20.000  1.00  0.00     0.041 C 
ATOM      9  O   UNL     1     -11.307  -4.924  19.011  1.00  0.00    -0.550 OA
ATOM     10  O   UNL     1     -12.643  -3.236  19.800  1.00  0.00    -0.550 OA
ENDBRANCH   7   8
ENDBRANCH   6   7
ENDBRANCH   5   6
ENDBRANCH   4   5
ENDBRANCH   3   4
ENDBRANCH   2   3
ENDBRANCH   1   2
BRANCH   1  11
ATOM     11  C   UNL     1     -10.830  -8.338  21.894  1.00  0.00    -0.031 C 
ATOM     12  C   UNL     1      -9.891  -8.604  20.977  1.00  0.00    -0.027 C 
BRANCH  12  13
ATOM     13  C   UNL     1     -10.253  -9.005  19.575  1.00  0.00     0.054 C 
BRANCH  13  14
ATOM     14  C   UNL     1     -11.675  -8.619  19.250  1.00  0.00    -0.027 C 
ATOM     15  C   UNL     1     -12.136  -8.372  18.010  1.00  0.00    -0.031 C 
BRANCH  15  16
ATOM     16  C   UNL     1     -11.282  -8.364  16.766  1.00  0.00     0.027 C 
BRANCH  16  17
ATOM     17  C   UNL     1     -11.898  -7.468  15.686  1.00  0.00     0.004 C 
BRANCH  17  18
ATOM     18  C   UNL     1     -10.844  -6.534  15.082  1.00  0.00     0.000 C 
BRANCH  18  19
ATOM     19  C   UNL     1     -11.113  -6.294  13.593  1.00  0.00    -0.003 C 
ATOM     20  C   UNL     1     -12.302  -5.356  13.390  1.00  0.00     0.004 C 
ENDBRANCH  18  19
ENDBRANCH  17  18
ENDBRANCH  16  17
ENDBRANCH  15  16
ENDBRANCH  13  14
ENDBRANCH  12  13
ENDBRANCH   1  11
TORSDOF 14
ENDMDL
MODEL 6
REMARK VINA RESULT:    -3.992     17.032     18.050
REMARK INTER + INTRA:          -9.737
REMARK INTER:                  -7.833
REMARK INTRA:                  -1.904
REMARK UNBOUND:                -2.477
REMARK SMILES CCCCCC=CCC=CCCCCCCCC(=O)[O-]
REMARK SMILES IDX 11 1 12 2 13 3 14 4 15 5 16 6 17 7 18 8 19 9 20 10 10 11
REMARK SMILES IDX 9 12 8 13 7 14 6 15 5 16 4 17 3 18 2 19 1 20
REMARK H PARENT
REMARK Flexibility Score: inf
ROOT
ATOM      1  C   UNL     1     -10.316  -7.816  17.484  1.00  0.00     0.027 C 
ENDROOT
BRANCH   1   2
ATOM      2  C   UNL     1     -11.594  -8.581  17.850  1.00  0.00     0.004 C 
BRANCH   2   3
ATOM      3  C   UNL     1     -11.996  -8.367  19.321  1.00  0.00     0.000 C 
BRANCH   3   4
ATOM      4  C   UNL     1     -10.800  -8.480  20.280  1.00  0.00     0.000 C 
BRANCH   4   5
ATOM      5  C   UNL     1     -11.207  -8.989  21.674  1.00  0.00     0.000 C 
BRANCH   5   6
ATOM      6  C   UNL     1     -10.875  -7.990  22.799  1.00  0.00     0.006 C 
BRANCH   6   7
ATOM      7  C   UNL     1     -11.612  -8.274  24.120  1.00  0.00     0.053 C 
BRANCH   7   8
ATOM      8  C   UNL     1     -12.056  -7.023  24.817  1.00  0.00     0.041 C 
ATOM      9  O   UNL     1     -12.119  -5.934  24.188  1.00  0.00    -0.550 OA
ATOM     10  O   UNL     1     -12.418  -7.067  26.159  1.00  0.00    -0.550 OA
ENDBRANCH   7   8
ENDBRANCH   6   7
ENDBRANCH   5   6
ENDBRANCH   4   5
ENDBRANCH   3   4
ENDBRANCH   2   3
ENDBRANCH   1   2
BRANCH   1  11
ATOM     11  C   UNL     1     -10.489  -7.047  16.201  1.00  0.00    -0.031 C 
ATOM     12  C   UNL     1     -11.699  -6.823  15.671  1.00  0.00    -0.027 C 
BRANCH  12  13
ATOM     13  C   UNL     1     -11.868  -6.017  14.414  1.00  0.00     0.054 C 
BRANCH  13  14
ATOM     14  C   UNL     1     -13.040  -5.073  14.529  1.00  0.00    -0.027 C 
ATOM     15  C   UNL     1     -13.042  -3.943  15.260  1.00  0.00    -0.031 C 
BRANCH  15  16
ATOM     16  C   UNL     1     -11.902  -3.491  16.139  1.00  0.00     0.027 C 
BRANCH  16  17
ATOM     17  C   UNL     1     -12.315  -3.497  17.614  1.00  0.00     0.004 C 
BRANCH  17  18
ATOM     18  C   UNL     1     -11.252  -4.184  18.478  1.00  0.00     0.000 C 
BRANCH  18  19
ATOM     19  C   UNL     1     -11.866  -4.729  19.772  1.00  0.00    -0.003 C 
ATOM     20  C   UNL     1     -10.825  -4.811  20.886  1.00  0.00     0.004 C 
ENDBRANCH  18  19
ENDBRANCH  17  18
ENDBRANCH  16  17
ENDBRANCH  15  16
ENDBRANCH  13  14
ENDBRANCH  12  13
ENDBRANCH   1  11
TORSDOF 14
ENDMDL
MODEL 7
REMARK VINA RESULT:    -3.986     16.653     18.557
REMARK INTER + INTRA:          -9.725
REMARK INTER:                  -7.131
REMARK INTRA:                  -2.594
REMARK UNBOUND:                -2.477
REMARK SMILES CCCCCC=CCC=CCCCCCCCC(=O)[O-]
REMARK SMILES IDX 11 1 12 2 13 3 14 4 15 5 16 6 17 7 18 8 19 9 20 10 10 11
REMARK SMILES IDX 9 12 8 13 7 14 6 15 5 16 4 17 3 18 2 19 1 20
REMARK H PARENT
REMARK Flexibility Score: inf
ROOT
ATOM      1  C   UNL     1     -10.810  -8.666  20.366  1.00  0.00     0.027 C 
ENDROOT
BRANCH   1   2
ATOM      2  C   UNL     1     -11.972  -8.351  19.416  1.00  0.00     0.004 C 
BRANCH   2   3
ATOM      3  C   UNL     1     -11.625  -8.672  17.950  1.00  0.00     0.000 C 
BRANCH   3   4
ATOM      4  C   UNL     1     -10.118  -8.568  17.666  1.00  0.00     0.000 C 
BRANCH   4   5
ATOM      5  C   UNL     1      -9.812  -7.767  16.389  1.00  0.00     0.000 C 
BRANCH   5   6
ATOM      6  C   UNL     1     -10.969  -6.842  15.968  1.00  0.00     0.006 C 
BRANCH   6   7
ATOM      7  C   UNL     1     -11.227  -6.820  14.451  1.00  0.00     0.053 C 
BRANCH   7   8
ATOM      8  C   UNL     1     -12.072  -5.658  14.024  1.00  0.00     0.041 C 
ATOM      9  O   UNL     1     -12.746  -5.016  14.873  1.00  0.00    -0.550 OA
ATOM     10  O   UNL     1     -12.100  -5.273  12.688  1.00  0.00    -0.550 OA
ENDBRANCH   7   8
ENDBRANCH   6   7
ENDBRANCH   5   6
ENDBRANCH   4   5
ENDBRANCH   3   4
ENDBRANCH   2   3
ENDBRANCH   1   2
BRANCH   1  11
ATOM     11  C   UNL     1     -10.887  -7.831  21.617  1.00  0.00    -0.031 C 
ATOM     12  C   UNL     1      -9.806  -7.229  22.131  1.00  0.00    -0.027 C 
BRANCH  12  13
ATOM     13  C   UNL     1      -9.899  -6.360  23.354  1.00  0.00     0.054 C 
BRANCH  13  14
ATOM     14  C   UNL     1     -11.319  -5.911  23.594  1.00  0.00    -0.027 C 
ATOM     15  C   UNL     1     -11.850  -4.767  23.121  1.00  0.00    -0.031 C 
BRANCH  15  16
ATOM     16  C   UNL     1     -11.081  -3.724  22.348  1.00  0.00     0.027 C 
BRANCH  16  17
ATOM     17  C   UNL     1     -11.772  -3.414  21.016  1.00  0.00     0.004 C 
BRANCH  17  18
ATOM     18  C   UNL     1     -11.927  -4.682  20.170  1.00  0.00     0.000 C 
BRANCH  18  19
ATOM     19  C   UNL     1     -11.069  -4.605  18.904  1.00  0.00    -0.003 C 
ATOM     20  C   UNL     1      -9.664  -5.150  19.154  1.00  0.00     0.004 C 
ENDBRANCH  18  19
ENDBRANCH  17  18
ENDBRANCH  16  17
ENDBRANCH  15  16
ENDBRANCH  13  14
ENDBRANCH  12  13
ENDBRANCH   1  11
TORSDOF 14
ENDMDL
MODEL 8
REMARK VINA RESULT:    -3.937      1.160      2.942
REMARK INTER + INTRA:          -9.637
REMARK INTER:                  -7.235
REMARK INTRA:                  -2.402
REMARK UNBOUND:                -2.477
REMARK SMILES CCCCCC=CCC=CCCCCCCCC(=O)[O-]
REMARK SMILES IDX 11 1 12 2 13 3 14 4 15 5 16 6 17 7 18 8 19 9 20 10 10 11
REMARK SMILES IDX 9 12 8 13 7 14 6 15 5 16 4 17 3 18 2 19 1 20
REMARK H PARENT
REMARK Flexibility Score: inf
ROOT
ATOM      1  C   UNL     1       6.000  -5.407  17.852  1.00  0.00     0.027 C 
ENDROOT
BRANCH   1   2
ATOM      2  C   UNL     1       6.960  -6.600  17.748  1.00  0.00     0.004 C 
BRANCH   2   3
ATOM      3  C   UNL     1       6.278  -7.925  18.135  1.00  0.00     0.000 C 
BRANCH   3   4
ATOM      4  C   UNL     1       5.175  -7.736  19.188  1.00  0.00     0.000 C 
BRANCH   4   5
ATOM      5  C   UNL     1       5.565  -8.308  20.561  1.00  0.00     0.000 C 
BRANCH   5   6
ATOM      6  C   UNL     1       5.701  -7.224  21.648  1.00  0.00     0.006 C 
BRANCH   6   7
ATOM      7  C   UNL     1       6.996  -6.400  21.546  1.00  0.00     0.053 C 
BRANCH   7   8
ATOM      8  C   UNL     1       6.837  -5.003  22.064  1.00  0.00     0.041 C 
ATOM      9  O   UNL     1       7.125  -4.732  23.261  1.00  0.00    -0.550 OA
ATOM     10  O   UNL     1       6.387  -3.995  21.219  1.00  0.00    -0.550 OA
ENDBRANCH   7   8
ENDBRANCH   6   7
ENDBRANCH   5   6
ENDBRANCH   4   5
ENDBRANCH   3   4
ENDBRANCH   2   3
ENDBRANCH   1   2
BRANCH   1  11
ATOM     11  C   UNL     1       6.448  -4.269  16.974  1.00  0.00    -0.031 C 
ATOM     12  C   UNL     1       5.582  -3.568  16.230  1.00  0.00    -0.027 C 
BRANCH  12  13
ATOM     13  C   UNL     1       6.030  -2.405  15.390  1.00  0.00     0.054 C 
BRANCH  13  14
ATOM     14  C   UNL     1       5.303  -2.380  14.067  1.00  0.00    -0.027 C 
ATOM     15  C   UNL     1       5.567  -3.202  13.034  1.00  0.00    -0.031 C 
BRANCH  15  16
ATOM     16  C   UNL     1       6.683  -4.218  13.013  1.00  0.00     0.027 C 
BRANCH  16  17
ATOM     17  C   UNL     1       6.130  -5.630  12.797  1.00  0.00     0.004 C 
BRANCH  17  18
ATOM     18  C   UNL     1       6.382  -6.512  14.026  1.00  0.00     0.000 C 
BRANCH  18  19
ATOM     19  C   UNL     1       5.123  -7.298  14.403  1.00  0.00    -0.003 C 
ATOM     20  C   UNL     1       3.965  -6.361  14.739  1.00  0.00     0.004 C 
ENDBRANCH  18  19
ENDBRANCH  17  18
ENDBRANCH  16  17
ENDBRANCH  15  16
ENDBRANCH  13  14
ENDBRANCH  12  13
ENDBRANCH   1  11
TORSDOF 14
ENDMDL
MODEL 9
REMARK VINA RESULT:    -3.928      3.947      6.810
REMARK INTER + INTRA:          -9.619
REMARK INTER:                  -7.258
REMARK INTRA:                  -2.361
REMARK UNBOUND:                -2.477
REMARK SMILES CCCCCC=CCC=CCCCCCCCC(=O)[O-]
REMARK SMILES IDX 11 1 12 2 13 3 14 4 15 5 16 6 17 7 18 8 19 9 20 10 10 11
REMARK SMILES IDX 9 12 8 13 7 14 6 15 5 16 4 17 3 18 2 19 1 20
REMARK H PARENT
REMARK Flexibility Score: inf
ROOT
ATOM      1  C   UNL     1       7.081  -8.165  16.108  1.00  0.00     0.027 C 
ENDROOT
BRANCH   1   2
ATOM      2  C   UNL     1       6.750  -7.364  14.841  1.00  0.00     0.004 C 
BRANCH   2   3
ATOM      3  C   UNL     1       5.510  -6.470  15.030  1.00  0.00     0.000 C 
BRANCH   3   4
ATOM      4  C   UNL     1       5.083  -5.773  13.728  1.00  0.00     0.000 C 
BRANCH   4   5
ATOM      5  C   UNL     1       6.266  -5.520  12.778  1.00  0.00     0.000 C 
BRANCH   5   6
ATOM      6  C   UNL     1       6.476  -4.026  12.466  1.00  0.00     0.006 C 
BRANCH   6   7
ATOM      7  C   UNL     1       5.245  -3.341  11.846  1.00  0.00     0.053 C 
BRANCH   7   8
ATOM      8  C   UNL     1       5.294  -3.307  10.348  1.00  0.00     0.041 C 
ATOM      9  O   UNL     1       4.373  -2.750   9.695  1.00  0.00    -0.550 OA
ATOM     10  O   UNL     1       6.370  -3.876   9.675  1.00  0.00    -0.550 OA
ENDBRANCH   7   8
ENDBRANCH   6   7
ENDBRANCH   5   6
ENDBRANCH   4   5
ENDBRANCH   3   4
ENDBRANCH   2   3
ENDBRANCH   1   2
BRANCH   1  11
ATOM     11  C   UNL     1       7.079  -7.281  17.326  1.00  0.00    -0.031 C 
ATOM     12  C   UNL     1       6.709  -7.739  18.530  1.00  0.00    -0.027 C 
BRANCH  12  13
ATOM     13  C   UNL     1       6.752  -6.863  19.751  1.00  0.00     0.054 C 
BRANCH  13  14
ATOM     14  C   UNL     1       5.368  -6.399  20.134  1.00  0.00    -0.027 C 
ATOM     15  C   UNL     1       4.884  -5.165  19.899  1.00  0.00    -0.031 C 
BRANCH  15  16
ATOM     16  C   UNL     1       5.678  -4.036  19.289  1.00  0.00     0.027 C 
BRANCH  16  17
ATOM     17  C   UNL     1       5.407  -3.928  17.785  1.00  0.00     0.004 C 
BRANCH  17  18
ATOM     18  C   UNL     1       6.686  -3.569  17.021  1.00  0.00     0.000 C 
BRANCH  18  19
ATOM     19  C   UNL     1       6.373  -2.678  15.815  1.00  0.00    -0.003 C 
ATOM     20  C   UNL     1       4.869  -2.448  15.674  1.00  0.00     0.004 C 
ENDBRANCH  18  19
ENDBRANCH  17  18
ENDBRANCH  16  17
ENDBRANCH  15  16
ENDBRANCH  13  14
ENDBRANCH  12  13
ENDBRANCH   1  11
TORSDOF 14
ENDMDL
