MODEL 1
REMARK VINA RESULT:    -6.125      0.000      0.000
REMARK INTER + INTRA:          -6.483
REMARK INTER:                  -6.483
REMARK INTRA:                   0.000
REMARK UNBOUND:                 0.000
REMARK SMILES O=c1ccc2cc(O)c(O)cc2o1
REMARK SMILES IDX 4 1 3 2 2 3 1 4 13 5 12 6 11 7 9 8 7 9 6 10 5 11 8 12 10 14
REMARK H PARENT 8 13 10 15
REMARK Flexibility Score: inf
ROOT
ATOM      1  C   UNL     1      11.528  -3.800  19.732  1.00  0.00     0.019 A 
ATOM      2  C   UNL     1      11.352  -2.418  19.712  1.00  0.00     0.094 A 
ATOM      3  C   UNL     1      10.052  -1.899  19.708  1.00  0.00     0.336 A 
ATOM      4  O   UNL     1       9.872  -0.654  19.690  1.00  0.00    -0.246 OA
ATOM      5  O   UNL     1       9.001  -2.716  19.726  1.00  0.00    -0.423 OA
ATOM      6  C   UNL     1       9.126  -4.041  19.746  1.00  0.00     0.142 A 
ATOM      7  C   UNL     1       7.985  -4.850  19.764  1.00  0.00     0.098 A 
ATOM      8  C   UNL     1       8.109  -6.247  19.785  1.00  0.00     0.161 A 
ATOM      9  C   UNL     1       9.386  -6.838  19.789  1.00  0.00     0.158 A 
ATOM     10  C   UNL     1      10.529  -6.031  19.772  1.00  0.00     0.062 A 
ATOM     11  C   UNL     1      10.406  -4.635  19.750  1.00  0.00     0.022 A 
ENDROOT
BRANCH   9  12
ATOM     12  O   UNL     1       9.537  -8.224  19.810  1.00  0.00    -0.504 OA
ATOM     13  H   UNL     1       9.579  -8.748  20.676  1.00  0.00     0.293 HD
ENDBRANCH   9  12
BRANCH   8  14
ATOM     14  O   UNL     1       6.969  -7.049  19.803  1.00  0.00    -0.504 OA
ATOM     15  H   UNL     1       6.231  -6.939  19.116  1.00  0.00     0.293 HD
ENDBRANCH   8  14
TORSDOF 2
ENDMDL
MODEL 2
REMARK VINA RESULT:    -6.036     11.213     12.686
REMARK INTER + INTRA:          -6.388
REMARK INTER:                  -6.388
REMARK INTRA:                   0.000
REMARK UNBOUND:                 0.000
REMARK SMILES O=c1ccc2cc(O)c(O)cc2o1
REMARK SMILES IDX 4 1 3 2 2 3 1 4 13 5 12 6 11 7 9 8 7 9 6 10 5 11 8 12 10 14
REMARK H PARENT 8 13 10 15
REMARK Flexibility Score: inf
ROOT
ATOM      1  C   UNL     1       8.237   5.359  11.565  1.00  0.00     0.019 A 
ATOM      2  C   UNL     1       7.559   6.494  11.122  1.00  0.00     0.094 A 
ATOM      3  C   UNL     1       6.499   6.342  10.220  1.00  0.00     0.336 A 
ATOM      4  O   UNL     1       5.876   7.354   9.809  1.00  0.00    -0.246 OA
ATOM      5  O   UNL     1       6.145   5.132   9.795  1.00  0.00    -0.423 OA
ATOM      6  C   UNL     1       6.766   4.024  10.193  1.00  0.00     0.142 A 
ATOM      7  C   UNL     1       6.350   2.778   9.712  1.00  0.00     0.098 A 
ATOM      8  C   UNL     1       6.999   1.606  10.127  1.00  0.00     0.161 A 
ATOM      9  C   UNL     1       8.074   1.683  11.033  1.00  0.00     0.158 A 
ATOM     10  C   UNL     1       8.492   2.928  11.516  1.00  0.00     0.062 A 
ATOM     11  C   UNL     1       7.844   4.099  11.101  1.00  0.00     0.022 A 
ENDROOT
BRANCH   9  12
ATOM     12  O   UNL     1       8.737   0.534  11.462  1.00  0.00    -0.504 OA
ATOM     13  H   UNL     1       8.546  -0.378  11.064  1.00  0.00     0.293 HD
ENDBRANCH   9  12
BRANCH   8  14
ATOM     14  O   UNL     1       6.581   0.367   9.645  1.00  0.00    -0.504 OA
ATOM     15  H   UNL     1       6.915   0.001   8.761  1.00  0.00     0.293 HD
ENDBRANCH   8  14
TORSDOF 2
ENDMDL
MODEL 3
REMARK VINA RESULT:    -5.938      1.192      2.281
REMARK INTER + INTRA:          -6.285
REMARK INTER:                  -6.285
REMARK INTRA:                   0.000
REMARK UNBOUND:                 0.000
REMARK SMILES O=c1ccc2cc(O)c(O)cc2o1
REMARK SMILES IDX 4 1 3 2 2 3 1 4 13 5 12 6 11 7 9 8 7 9 6 10 5 11 8 12 10 14
REMARK H PARENT 8 13 10 15
REMARK Flexibility Score: inf
ROOT
ATOM      1  C   UNL     1       9.100  -2.631  19.772  1.00  0.00     0.019 A 
ATOM      2  C   UNL     1      10.276  -1.883  19.812  1.00  0.00     0.094 A 
ATOM      3  C   UNL     1      11.505  -2.552  19.860  1.00  0.00     0.336 A 
ATOM      4  O   UNL     1      12.576  -1.895  19.897  1.00  0.00    -0.246 OA
ATOM      5  O   UNL     1      11.546  -3.883  19.867  1.00  0.00    -0.423 OA
ATOM      6  C   UNL     1      10.448  -4.633  19.830  1.00  0.00     0.142 A 
ATOM      7  C   UNL     1      10.554  -6.028  19.840  1.00  0.00     0.098 A 
ATOM      8  C   UNL     1       9.401  -6.825  19.801  1.00  0.00     0.161 A 
ATOM      9  C   UNL     1       8.131  -6.220  19.751  1.00  0.00     0.158 A 
ATOM     10  C   UNL     1       8.022  -4.825  19.741  1.00  0.00     0.062 A 
ATOM     11  C   UNL     1       9.174  -4.028  19.780  1.00  0.00     0.022 A 
ENDROOT
BRANCH   9  12
ATOM     12  O   UNL     1       6.969  -6.990  19.712  1.00  0.00    -0.504 OA
ATOM     13  H   UNL     1       6.132  -6.727  20.218  1.00  0.00     0.293 HD
ENDBRANCH   9  12
BRANCH   8  14
ATOM     14  O   UNL     1       9.511  -8.214  19.811  1.00  0.00    -0.504 OA
ATOM     15  H   UNL     1      10.174  -8.699  19.216  1.00  0.00     0.293 HD
ENDBRANCH   8  14
TORSDOF 2
ENDMDL
MODEL 4
REMARK VINA RESULT:    -5.895      1.282      2.549
REMARK INTER + INTRA:          -6.240
REMARK INTER:                  -6.240
REMARK INTRA:                   0.000
REMARK UNBOUND:                 0.000
REMARK SMILES O=c1ccc2cc(O)c(O)cc2o1
REMARK SMILES IDX 4 1 3 2 2 3 1 4 13 5 12 6 11 7 9 8 7 9 6 10 5 11 8 12 10 14
REMARK H PARENT 8 13 10 15
REMARK Flexibility Score: inf
ROOT
ATOM      1  C   UNL     1       7.331  -3.426  19.691  1.00  0.00     0.019 A 
ATOM      2  C   UNL     1       7.534  -2.047  19.668  1.00  0.00     0.094 A 
ATOM      3  C   UNL     1       8.844  -1.553  19.678  1.00  0.00     0.336 A 
ATOM      4  O   UNL     1       9.047  -0.312  19.658  1.00  0.00    -0.246 OA
ATOM      5  O   UNL     1       9.878  -2.391  19.706  1.00  0.00    -0.423 OA
ATOM      6  C   UNL     1       9.728  -3.713  19.728  1.00  0.00     0.142 A 
ATOM      7  C   UNL     1      10.853  -4.544  19.758  1.00  0.00     0.098 A 
ATOM      8  C   UNL     1      10.702  -5.938  19.781  1.00  0.00     0.161 A 
ATOM      9  C   UNL     1       9.413  -6.504  19.773  1.00  0.00     0.158 A 
ATOM     10  C   UNL     1       8.286  -5.675  19.743  1.00  0.00     0.062 A 
ATOM     11  C   UNL     1       8.437  -4.283  19.720  1.00  0.00     0.022 A 
ENDROOT
BRANCH   9  12
ATOM     12  O   UNL     1       9.235  -7.887  19.796  1.00  0.00    -0.504 OA
ATOM     13  H   UNL     1       8.695  -8.349  20.518  1.00  0.00     0.293 HD
ENDBRANCH   9  12
BRANCH   8  14
ATOM     14  O   UNL     1      11.825  -6.762  19.811  1.00  0.00    -0.504 OA
ATOM     15  H   UNL     1      12.746  -6.398  20.028  1.00  0.00     0.293 HD
ENDBRANCH   8  14
TORSDOF 2
ENDMDL
MODEL 5
REMARK VINA RESULT:    -5.574      1.626      4.743
REMARK INTER + INTRA:          -5.900
REMARK INTER:                  -5.900
REMARK INTRA:                   0.000
REMARK UNBOUND:                 0.000
REMARK SMILES O=c1ccc2cc(O)c(O)cc2o1
REMARK SMILES IDX 4 1 3 2 2 3 1 4 13 5 12 6 11 7 9 8 7 9 6 10 5 11 8 12 10 14
REMARK H PARENT 8 13 10 15
REMARK Flexibility Score: inf
ROOT
ATOM      1  C   UNL     1      11.125  -5.442  19.750  1.00  0.00     0.019 A 
ATOM      2  C   UNL     1       9.873  -6.005  19.991  1.00  0.00     0.094 A 
ATOM      3  C   UNL     1       8.736  -5.193  19.909  1.00  0.00     0.336 A 
ATOM      4  O   UNL     1       7.597  -5.682  20.124  1.00  0.00    -0.246 OA
ATOM      5  O   UNL     1       8.852  -3.903  19.603  1.00  0.00    -0.423 OA
ATOM      6  C   UNL     1      10.027  -3.326  19.366  1.00  0.00     0.142 A 
ATOM      7  C   UNL     1      10.088  -1.965  19.049  1.00  0.00     0.098 A 
ATOM      8  C   UNL     1      11.323  -1.351  18.797  1.00  0.00     0.161 A 
ATOM      9  C   UNL     1      12.508  -2.108  18.862  1.00  0.00     0.158 A 
ATOM     10  C   UNL     1      12.451  -3.470  19.179  1.00  0.00     0.062 A 
ATOM     11  C   UNL     1      11.217  -4.083  19.431  1.00  0.00     0.022 A 
ENDROOT
BRANCH   9  12
ATOM     12  O   UNL     1      13.750  -1.522  18.617  1.00  0.00    -0.504 OA
ATOM     13  H   UNL     1      14.079  -1.330  17.678  1.00  0.00     0.293 HD
ENDBRANCH   9  12
BRANCH   8  14
ATOM     14  O   UNL     1      11.378   0.005  18.482  1.00  0.00    -0.504 OA
ATOM     15  H   UNL     1      10.542   0.535  18.265  1.00  0.00     0.293 HD
ENDBRANCH   8  14
TORSDOF 2
ENDMDL
MODEL 6
REMARK VINA RESULT:    -5.365      1.882      5.336
REMARK INTER + INTRA:          -5.679
REMARK INTER:                  -5.679
REMARK INTRA:                   0.000
REMARK UNBOUND:                 0.000
REMARK SMILES O=c1ccc2cc(O)c(O)cc2o1
REMARK SMILES IDX 4 1 3 2 2 3 1 4 13 5 12 6 11 7 9 8 7 9 6 10 5 11 8 12 10 14
REMARK H PARENT 8 13 10 15
REMARK Flexibility Score: inf
ROOT
ATOM      1  C   UNL     1       8.964  -3.762  19.799  1.00  0.00     0.019 A 
ATOM      2  C   UNL     1       8.861  -5.143  19.960  1.00  0.00     0.094 A 
ATOM      3  C   UNL     1      10.004  -5.933  19.788  1.00  0.00     0.336 A 
ATOM      4  O   UNL     1       9.931  -7.181  19.929  1.00  0.00    -0.246 OA
ATOM      5  O   UNL     1      11.169  -5.371  19.476  1.00  0.00    -0.423 OA
ATOM      6  C   UNL     1      11.310  -4.058  19.313  1.00  0.00     0.142 A 
ATOM      7  C   UNL     1      12.561  -3.524  18.985  1.00  0.00     0.098 A 
ATOM      8  C   UNL     1      12.716  -2.141  18.812  1.00  0.00     0.161 A 
ATOM      9  C   UNL     1      11.609  -1.286  18.970  1.00  0.00     0.158 A 
ATOM     10  C   UNL     1      10.357  -1.817  19.299  1.00  0.00     0.062 A 
ATOM     11  C   UNL     1      10.202  -3.199  19.471  1.00  0.00     0.022 A 
ENDROOT
BRANCH   9  12
ATOM     12  O   UNL     1      11.737   0.093  18.804  1.00  0.00    -0.504 OA
ATOM     13  H   UNL     1      12.531   0.608  19.165  1.00  0.00     0.293 HD
ENDBRANCH   9  12
BRANCH   8  14
ATOM     14  O   UNL     1      13.964  -1.614  18.485  1.00  0.00    -0.504 OA
ATOM     15  H   UNL     1      14.196  -0.644  18.669  1.00  0.00     0.293 HD
ENDBRANCH   8  14
TORSDOF 2
ENDMDL
MODEL 7
REMARK VINA RESULT:    -5.215     10.925     13.294
REMARK INTER + INTRA:          -5.519
REMARK INTER:                  -5.519
REMARK INTRA:                   0.000
REMARK UNBOUND:                 0.000
REMARK SMILES O=c1ccc2cc(O)c(O)cc2o1
REMARK SMILES IDX 4 1 3 2 2 3 1 4 13 5 12 6 11 7 9 8 7 9 6 10 5 11 8 12 10 14
REMARK H PARENT 8 13 10 15
REMARK Flexibility Score: inf
ROOT
ATOM      1  C   UNL     1       6.641   2.126   9.990  1.00  0.00     0.019 A 
ATOM      2  C   UNL     1       7.402   1.058  10.464  1.00  0.00     0.094 A 
ATOM      3  C   UNL     1       8.495   1.320  11.298  1.00  0.00     0.336 A 
ATOM      4  O   UNL     1       9.194   0.370  11.735  1.00  0.00    -0.246 OA
ATOM      5  O   UNL     1       8.799   2.572  11.634  1.00  0.00    -0.423 OA
ATOM      6  C   UNL     1       8.099   3.619  11.204  1.00  0.00     0.142 A 
ATOM      7  C   UNL     1       8.467   4.912  11.590  1.00  0.00     0.098 A 
ATOM      8  C   UNL     1       7.733   6.019  11.140  1.00  0.00     0.161 A 
ATOM      9  C   UNL     1       6.621   5.830  10.298  1.00  0.00     0.158 A 
ATOM     10  C   UNL     1       6.251   4.537   9.911  1.00  0.00     0.062 A 
ATOM     11  C   UNL     1       6.984   3.430  10.359  1.00  0.00     0.022 A 
ENDROOT
BRANCH   9  12
ATOM     12  O   UNL     1       5.875   6.914   9.837  1.00  0.00    -0.504 OA
ATOM     13  H   UNL     1       6.311   7.766   9.506  1.00  0.00     0.293 HD
ENDBRANCH   9  12
BRANCH   8  14
ATOM     14  O   UNL     1       8.103   7.306  11.527  1.00  0.00    -0.504 OA
ATOM     15  H   UNL     1       8.516   7.490  12.435  1.00  0.00     0.293 HD
ENDBRANCH   8  14
TORSDOF 2
ENDMDL
MODEL 8
REMARK VINA RESULT:    -5.137      1.638      5.038
REMARK INTER + INTRA:          -5.438
REMARK INTER:                  -5.438
REMARK INTRA:                   0.000
REMARK UNBOUND:                 0.000
REMARK SMILES O=c1ccc2cc(O)c(O)cc2o1
REMARK SMILES IDX 4 1 3 2 2 3 1 4 13 5 12 6 11 7 9 8 7 9 6 10 5 11 8 12 10 14
REMARK H PARENT 8 13 10 15
REMARK Flexibility Score: inf
ROOT
ATOM      1  C   UNL     1      11.819  -4.068  19.011  1.00  0.00     0.019 A 
ATOM      2  C   UNL     1      11.110  -5.195  19.425  1.00  0.00     0.094 A 
ATOM      3  C   UNL     1       9.747  -5.070  19.718  1.00  0.00     0.336 A 
ATOM      4  O   UNL     1       9.091  -6.075  20.092  1.00  0.00    -0.246 OA
ATOM      5  O   UNL     1       9.140  -3.891  19.601  1.00  0.00    -0.423 OA
ATOM      6  C   UNL     1       9.780  -2.792  19.210  1.00  0.00     0.142 A 
ATOM      7  C   UNL     1       9.089  -1.580  19.106  1.00  0.00     0.098 A 
ATOM      8  C   UNL     1       9.757  -0.418  18.694  1.00  0.00     0.161 A 
ATOM      9  C   UNL     1      11.128  -0.470  18.383  1.00  0.00     0.158 A 
ATOM     10  C   UNL     1      11.822  -1.681  18.486  1.00  0.00     0.062 A 
ATOM     11  C   UNL     1      11.155  -2.842  18.898  1.00  0.00     0.022 A 
ENDROOT
BRANCH   9  12
ATOM     12  O   UNL     1      11.817   0.671  17.971  1.00  0.00    -0.504 OA
ATOM     13  H   UNL     1      11.657   1.577  18.394  1.00  0.00     0.293 HD
ENDBRANCH   9  12
BRANCH   8  14
ATOM     14  O   UNL     1       9.064   0.787  18.592  1.00  0.00    -0.504 OA
ATOM     15  H   UNL     1       8.604   1.205  19.393  1.00  0.00     0.293 HD
ENDBRANCH   8  14
TORSDOF 2
ENDMDL
