MODEL 1
REMARK VINA RESULT:    -4.630      0.000      0.000
REMARK INTER + INTRA:         -10.514
REMARK INTER:                  -8.961
REMARK INTRA:                  -1.553
REMARK UNBOUND:                -1.553
REMARK SMILES CCCCCCCCCCCCCCCCCC(=O)[O-]
REMARK SMILES IDX 10 1 11 2 12 3 13 4 14 5 15 6 16 7 17 8 18 9 19 10 20 11
REMARK SMILES IDX 9 12 8 13 7 14 6 15 5 16 4 17 3 18 2 19 1 20
REMARK H PARENT
REMARK Flexibility Score: inf
ROOT
ATOM      1  C   UNL     1      -2.574  12.032 -18.346  1.00  0.00     0.000 C 
ENDROOT
BRANCH   1   2
ATOM      2  C   UNL     1      -3.567  11.098 -19.063  1.00  0.00     0.000 C 
BRANCH   2   3
ATOM      3  C   UNL     1      -4.793  11.795 -19.681  1.00  0.00     0.000 C 
BRANCH   3   4
ATOM      4  C   UNL     1      -6.112  11.408 -18.992  1.00  0.00     0.000 C 
BRANCH   4   5
ATOM      5  C   UNL     1      -6.516  12.390 -17.878  1.00  0.00     0.000 C 
BRANCH   5   6
ATOM      6  C   UNL     1      -5.965  12.061 -16.475  1.00  0.00     0.000 C 
BRANCH   6   7
ATOM      7  C   UNL     1      -4.834  12.985 -15.982  1.00  0.00     0.006 C 
BRANCH   7   8
ATOM      8  C   UNL     1      -4.299  12.641 -14.583  1.00  0.00     0.053 C 
BRANCH   8   9
ATOM      9  C   UNL     1      -3.098  11.749 -14.650  1.00  0.00     0.041 C 
ATOM     10  O   UNL     1      -1.970  12.175 -14.285  1.00  0.00    -0.550 OA
ATOM     11  O   UNL     1      -3.217  10.459 -15.153  1.00  0.00    -0.550 OA
ENDBRANCH   8   9
ENDBRANCH   7   8
ENDBRANCH   6   7
ENDBRANCH   5   6
ENDBRANCH   4   5
ENDBRANCH   3   4
ENDBRANCH   2   3
ENDBRANCH   1   2
BRANCH   1  12
ATOM     12  C   UNL     1      -2.419  13.393 -19.042  1.00  0.00     0.000 C 
BRANCH  12  13
ATOM     13  C   UNL     1      -1.806  14.429 -18.090  1.00  0.00    -0.000 C 
BRANCH  13  14
ATOM     14  C   UNL     1      -1.117  15.583 -18.836  1.00  0.00    -0.000 C 
BRANCH  14  15
ATOM     15  C   UNL     1       0.275  15.908 -18.268  1.00  0.00    -0.000 C 
BRANCH  15  16
ATOM     16  C   UNL     1       1.312  16.182 -19.369  1.00  0.00    -0.000 C 
BRANCH  16  17
ATOM     17  C   UNL     1       1.047  17.504 -20.110  1.00  0.00    -0.000 C 
BRANCH  17  18
ATOM     18  C   UNL     1       1.075  18.722 -19.173  1.00  0.00    -0.000 C 
BRANCH  18  19
ATOM     19  C   UNL     1      -0.079  19.698 -19.438  1.00  0.00    -0.003 C 
ATOM     20  C   UNL     1      -1.300  19.348 -18.593  1.00  0.00     0.004 C 
ENDBRANCH  18  19
ENDBRANCH  17  18
ENDBRANCH  16  17
ENDBRANCH  15  16
ENDBRANCH  14  15
ENDBRANCH  13  14
ENDBRANCH  12  13
ENDBRANCH   1  12
TORSDOF 16
ENDMDL
MODEL 2
REMARK VINA RESULT:    -4.492      3.065      7.374
REMARK INTER + INTRA:         -10.247
REMARK INTER:                  -8.989
REMARK INTRA:                  -1.257
REMARK UNBOUND:                -1.553
REMARK SMILES CCCCCCCCCCCCCCCCCC(=O)[O-]
REMARK SMILES IDX 10 1 11 2 12 3 13 4 14 5 15 6 16 7 17 8 18 9 19 10 20 11
REMARK SMILES IDX 9 12 8 13 7 14 6 15 5 16 4 17 3 18 2 19 1 20
REMARK H PARENT
REMARK Flexibility Score: inf
ROOT
ATOM      1  C   UNL     1      -2.519  13.306 -15.097  1.00  0.00     0.000 C 
ENDROOT
BRANCH   1   2
ATOM      2  C   UNL     1      -1.924  14.247 -16.160  1.00  0.00     0.000 C 
BRANCH   2   3
ATOM      3  C   UNL     1      -2.442  14.027 -17.593  1.00  0.00     0.000 C 
BRANCH   3   4
ATOM      4  C   UNL     1      -1.566  14.708 -18.658  1.00  0.00     0.000 C 
BRANCH   4   5
ATOM      5  C   UNL     1      -0.507  15.646 -18.051  1.00  0.00     0.000 C 
BRANCH   5   6
ATOM      6  C   UNL     1       0.761  15.850 -18.905  1.00  0.00     0.000 C 
BRANCH   6   7
ATOM      7  C   UNL     1       1.197  17.317 -19.091  1.00  0.00     0.006 C 
BRANCH   7   8
ATOM      8  C   UNL     1       0.078  18.255 -19.569  1.00  0.00     0.053 C 
BRANCH   8   9
ATOM      9  C   UNL     1      -0.240  19.307 -18.551  1.00  0.00     0.041 C 
ATOM     10  O   UNL     1       0.684  19.849 -17.888  1.00  0.00    -0.550 OA
ATOM     11  O   UNL     1      -1.562  19.660 -18.306  1.00  0.00    -0.550 OA
ENDBRANCH   8   9
ENDBRANCH   7   8
ENDBRANCH   6   7
ENDBRANCH   5   6
ENDBRANCH   4   5
ENDBRANCH   3   4
ENDBRANCH   2   3
ENDBRANCH   1   2
BRANCH   1  12
ATOM     12  C   UNL     1      -4.028  13.078 -15.272  1.00  0.00     0.000 C 
BRANCH  12  13
ATOM     13  C   UNL     1      -4.319  11.630 -15.691  1.00  0.00    -0.000 C 
BRANCH  13  14
ATOM     14  C   UNL     1      -3.101  10.709 -15.519  1.00  0.00    -0.000 C 
BRANCH  14  15
ATOM     15  C   UNL     1      -2.661  10.058 -16.842  1.00  0.00    -0.000 C 
BRANCH  15  16
ATOM     16  C   UNL     1      -2.680  11.045 -18.020  1.00  0.00    -0.000 C 
BRANCH  16  17
ATOM     17  C   UNL     1      -3.619  10.592 -19.152  1.00  0.00    -0.000 C 
BRANCH  17  18
ATOM     18  C   UNL     1      -4.495  11.738 -19.684  1.00  0.00    -0.000 C 
BRANCH  18  19
ATOM     19  C   UNL     1      -5.993  11.489 -19.456  1.00  0.00    -0.003 C 
ATOM     20  C   UNL     1      -6.427  11.972 -18.076  1.00  0.00     0.004 C 
ENDBRANCH  18  19
ENDBRANCH  17  18
ENDBRANCH  16  17
ENDBRANCH  15  16
ENDBRANCH  14  15
ENDBRANCH  13  14
ENDBRANCH  12  13
ENDBRANCH   1  12
TORSDOF 16
ENDMDL
MODEL 3
REMARK VINA RESULT:    -4.395      2.920      7.133
REMARK INTER + INTRA:         -10.058
REMARK INTER:                  -8.159
REMARK INTRA:                  -1.900
REMARK UNBOUND:                -1.553
REMARK SMILES CCCCCCCCCCCCCCCCCC(=O)[O-]
REMARK SMILES IDX 10 1 11 2 12 3 13 4 14 5 15 6 16 7 17 8 18 9 19 10 20 11
REMARK SMILES IDX 9 12 8 13 7 14 6 15 5 16 4 17 3 18 2 19 1 20
REMARK H PARENT
REMARK Flexibility Score: inf
ROOT
ATOM      1  C   UNL     1      -2.462  10.187 -16.592  1.00  0.00     0.000 C 
ENDROOT
BRANCH   1   2
ATOM      2  C   UNL     1      -3.187  10.730 -17.837  1.00  0.00     0.000 C 
BRANCH   2   3
ATOM      3  C   UNL     1      -2.373  11.719 -18.691  1.00  0.00     0.000 C 
BRANCH   3   4
ATOM      4  C   UNL     1      -2.607  13.186 -18.294  1.00  0.00     0.000 C 
BRANCH   4   5
ATOM      5  C   UNL     1      -1.689  14.164 -19.048  1.00  0.00     0.000 C 
BRANCH   5   6
ATOM      6  C   UNL     1      -1.329  15.454 -18.283  1.00  0.00     0.000 C 
BRANCH   6   7
ATOM      7  C   UNL     1       0.123  15.941 -18.465  1.00  0.00     0.006 C 
BRANCH   7   8
ATOM      8  C   UNL     1       0.287  17.077 -19.486  1.00  0.00     0.053 C 
BRANCH   8   9
ATOM      9  C   UNL     1      -0.017  18.415 -18.884  1.00  0.00     0.041 C 
ATOM     10  O   UNL     1      -1.207  18.823 -18.813  1.00  0.00    -0.550 OA
ATOM     11  O   UNL     1       1.018  19.227 -18.436  1.00  0.00    -0.550 OA
ENDBRANCH   8   9
ENDBRANCH   7   8
ENDBRANCH   6   7
ENDBRANCH   5   6
ENDBRANCH   4   5
ENDBRANCH   3   4
ENDBRANCH   2   3
ENDBRANCH   1   2
BRANCH   1  12
ATOM     12  C   UNL     1      -3.151  10.581 -15.276  1.00  0.00     0.000 C 
BRANCH  12  13
ATOM     13  C   UNL     1      -2.546  11.871 -14.704  1.00  0.00    -0.000 C 
BRANCH  13  14
ATOM     14  C   UNL     1      -3.541  13.042 -14.709  1.00  0.00    -0.000 C 
BRANCH  14  15
ATOM     15  C   UNL     1      -5.000  12.578 -14.860  1.00  0.00    -0.000 C 
BRANCH  15  16
ATOM     16  C   UNL     1      -5.665  13.129 -16.132  1.00  0.00    -0.000 C 
BRANCH  16  17
ATOM     17  C   UNL     1      -6.191  12.012 -17.051  1.00  0.00    -0.000 C 
BRANCH  17  18
ATOM     18  C   UNL     1      -6.116  12.390 -18.539  1.00  0.00    -0.000 C 
BRANCH  18  19
ATOM     19  C   UNL     1      -6.454  11.213 -19.465  1.00  0.00    -0.003 C 
ATOM     20  C   UNL     1      -5.453  11.110 -20.611  1.00  0.00     0.004 C 
ENDBRANCH  18  19
ENDBRANCH  17  18
ENDBRANCH  16  17
ENDBRANCH  15  16
ENDBRANCH  14  15
ENDBRANCH  13  14
ENDBRANCH  12  13
ENDBRANCH   1  12
TORSDOF 16
ENDMDL
MODEL 4
REMARK VINA RESULT:    -4.394      3.085      7.539
REMARK INTER + INTRA:         -10.056
REMARK INTER:                  -8.365
REMARK INTRA:                  -1.692
REMARK UNBOUND:                -1.553
REMARK SMILES CCCCCCCCCCCCCCCCCC(=O)[O-]
REMARK SMILES IDX 10 1 11 2 12 3 13 4 14 5 15 6 16 7 17 8 18 9 19 10 20 11
REMARK SMILES IDX 9 12 8 13 7 14 6 15 5 16 4 17 3 18 2 19 1 20
REMARK H PARENT
REMARK Flexibility Score: inf
ROOT
ATOM      1  C   UNL     1      -2.701  13.351 -14.792  1.00  0.00     0.000 C 
ENDROOT
BRANCH   1   2
ATOM      2  C   UNL     1      -1.866  14.038 -15.889  1.00  0.00     0.000 C 
BRANCH   2   3
ATOM      3  C   UNL     1      -2.501  14.042 -17.291  1.00  0.00     0.000 C 
BRANCH   3   4
ATOM      4  C   UNL     1      -1.515  14.459 -18.394  1.00  0.00     0.000 C 
BRANCH   4   5
ATOM      5  C   UNL     1      -0.832  15.808 -18.109  1.00  0.00     0.000 C 
BRANCH   5   6
ATOM      6  C   UNL     1       0.555  15.996 -18.759  1.00  0.00     0.000 C 
BRANCH   6   7
ATOM      7  C   UNL     1       0.832  17.408 -19.313  1.00  0.00     0.006 C 
BRANCH   7   8
ATOM      8  C   UNL     1      -0.368  18.364 -19.241  1.00  0.00     0.053 C 
BRANCH   8   9
ATOM      9  C   UNL     1      -0.131  19.485 -18.276  1.00  0.00     0.041 C 
ATOM     10  O   UNL     1       1.036  19.913 -18.076  1.00  0.00    -0.550 OA
ATOM     11  O   UNL     1      -1.196  20.029 -17.568  1.00  0.00    -0.550 OA
ENDBRANCH   8   9
ENDBRANCH   7   8
ENDBRANCH   6   7
ENDBRANCH   5   6
ENDBRANCH   4   5
ENDBRANCH   3   4
ENDBRANCH   2   3
ENDBRANCH   1   2
BRANCH   1  12
ATOM     12  C   UNL     1      -2.797  11.829 -14.975  1.00  0.00     0.000 C 
BRANCH  12  13
ATOM     13  C   UNL     1      -4.249  11.397 -15.227  1.00  0.00    -0.000 C 
BRANCH  13  14
ATOM     14  C   UNL     1      -5.217  12.589 -15.288  1.00  0.00    -0.000 C 
BRANCH  14  15
ATOM     15  C   UNL     1      -5.620  12.951 -16.728  1.00  0.00    -0.000 C 
BRANCH  15  16
ATOM     16  C   UNL     1      -6.644  11.969 -17.318  1.00  0.00    -0.000 C 
BRANCH  16  17
ATOM     17  C   UNL     1      -6.233  11.457 -18.710  1.00  0.00    -0.000 C 
BRANCH  17  18
ATOM     18  C   UNL     1      -4.903  12.059 -19.190  1.00  0.00    -0.000 C 
BRANCH  18  19
ATOM     19  C   UNL     1      -3.872  10.986 -19.569  1.00  0.00    -0.003 C 
ATOM     20  C   UNL     1      -2.764  10.895 -18.525  1.00  0.00     0.004 C 
ENDBRANCH  18  19
ENDBRANCH  17  18
ENDBRANCH  16  17
ENDBRANCH  15  16
ENDBRANCH  14  15
ENDBRANCH  13  14
ENDBRANCH  12  13
ENDBRANCH   1  12
TORSDOF 16
ENDMDL
MODEL 5
REMARK VINA RESULT:    -4.369      2.882      7.530
REMARK INTER + INTRA:         -10.009
REMARK INTER:                  -8.101
REMARK INTRA:                  -1.907
REMARK UNBOUND:                -1.553
REMARK SMILES CCCCCCCCCCCCCCCCCC(=O)[O-]
REMARK SMILES IDX 10 1 11 2 12 3 13 4 14 5 15 6 16 7 17 8 18 9 19 10 20 11
REMARK SMILES IDX 9 12 8 13 7 14 6 15 5 16 4 17 3 18 2 19 1 20
REMARK H PARENT
REMARK Flexibility Score: inf
ROOT
ATOM      1  C   UNL     1      -2.453  11.750 -18.540  1.00  0.00     0.000 C 
ENDROOT
BRANCH   1   2
ATOM      2  C   UNL     1      -2.415  13.237 -18.937  1.00  0.00     0.000 C 
BRANCH   2   3
ATOM      3  C   UNL     1      -1.890  14.193 -17.851  1.00  0.00     0.000 C 
BRANCH   3   4
ATOM      4  C   UNL     1      -1.311  15.495 -18.427  1.00  0.00     0.000 C 
BRANCH   4   5
ATOM      5  C   UNL     1       0.107  15.319 -18.998  1.00  0.00     0.000 C 
BRANCH   5   6
ATOM      6  C   UNL     1       1.120  16.413 -18.602  1.00  0.00     0.000 C 
BRANCH   6   7
ATOM      7  C   UNL     1       1.612  17.302 -19.761  1.00  0.00     0.006 C 
BRANCH   7   8
ATOM      8  C   UNL     1       0.644  18.430 -20.150  1.00  0.00     0.053 C 
BRANCH   8   9
ATOM      9  C   UNL     1       0.108  19.143 -18.946  1.00  0.00     0.041 C 
ATOM     10  O   UNL     1       0.880  19.808 -18.206  1.00  0.00    -0.550 OA
ATOM     11  O   UNL     1      -1.240  19.040 -18.621  1.00  0.00    -0.550 OA
ENDBRANCH   8   9
ENDBRANCH   7   8
ENDBRANCH   6   7
ENDBRANCH   5   6
ENDBRANCH   4   5
ENDBRANCH   3   4
ENDBRANCH   2   3
ENDBRANCH   1   2
BRANCH   1  12
ATOM     12  C   UNL     1      -3.779  11.064 -18.906  1.00  0.00     0.000 C 
BRANCH  12  13
ATOM     13  C   UNL     1      -4.823  12.095 -19.358  1.00  0.00    -0.000 C 
BRANCH  13  14
ATOM     14  C   UNL     1      -6.187  11.892 -18.678  1.00  0.00    -0.000 C 
BRANCH  14  15
ATOM     15  C   UNL     1      -6.078  11.818 -17.145  1.00  0.00    -0.000 C 
BRANCH  15  16
ATOM     16  C   UNL     1      -5.341  13.028 -16.548  1.00  0.00    -0.000 C 
BRANCH  16  17
ATOM     17  C   UNL     1      -4.886  12.782 -15.099  1.00  0.00    -0.000 C 
BRANCH  17  18
ATOM     18  C   UNL     1      -3.387  13.060 -14.897  1.00  0.00    -0.000 C 
BRANCH  18  19
ATOM     19  C   UNL     1      -2.565  11.774 -14.736  1.00  0.00    -0.003 C 
ATOM     20  C   UNL     1      -3.469  10.548 -14.669  1.00  0.00     0.004 C 
ENDBRANCH  18  19
ENDBRANCH  17  18
ENDBRANCH  16  17
ENDBRANCH  15  16
ENDBRANCH  14  15
ENDBRANCH  13  14
ENDBRANCH  12  13
ENDBRANCH   1  12
TORSDOF 16
ENDMDL
MODEL 6
REMARK VINA RESULT:    -4.366      2.139      3.682
REMARK INTER + INTRA:         -10.004
REMARK INTER:                  -8.516
REMARK INTRA:                  -1.488
REMARK UNBOUND:                -1.553
REMARK SMILES CCCCCCCCCCCCCCCCCC(=O)[O-]
REMARK SMILES IDX 10 1 11 2 12 3 13 4 14 5 15 6 16 7 17 8 18 9 19 10 20 11
REMARK SMILES IDX 9 12 8 13 7 14 6 15 5 16 4 17 3 18 2 19 1 20
REMARK H PARENT
REMARK Flexibility Score: inf
ROOT
ATOM      1  C   UNL     1      -1.636  14.162 -15.937  1.00  0.00     0.000 C 
ENDROOT
BRANCH   1   2
ATOM      2  C   UNL     1      -2.349  13.119 -15.058  1.00  0.00     0.000 C 
BRANCH   2   3
ATOM      3  C   UNL     1      -3.871  13.015 -15.267  1.00  0.00     0.000 C 
BRANCH   3   4
ATOM      4  C   UNL     1      -4.296  11.695 -15.932  1.00  0.00     0.000 C 
BRANCH   4   5
ATOM      5  C   UNL     1      -3.100  10.794 -16.291  1.00  0.00     0.000 C 
BRANCH   5   6
ATOM      6  C   UNL     1      -2.674  10.822 -17.773  1.00  0.00     0.000 C 
BRANCH   6   7
ATOM      7  C   UNL     1      -3.548  11.702 -18.690  1.00  0.00     0.006 C 
BRANCH   7   8
ATOM      8  C   UNL     1      -4.245  10.938 -19.825  1.00  0.00     0.053 C 
BRANCH   8   9
ATOM      9  C   UNL     1      -5.710  11.247 -19.888  1.00  0.00     0.041 C 
ATOM     10  O   UNL     1      -6.308  11.264 -20.996  1.00  0.00    -0.550 OA
ATOM     11  O   UNL     1      -6.404  11.554 -18.724  1.00  0.00    -0.550 OA
ENDBRANCH   8   9
ENDBRANCH   7   8
ENDBRANCH   6   7
ENDBRANCH   5   6
ENDBRANCH   4   5
ENDBRANCH   3   4
ENDBRANCH   2   3
ENDBRANCH   1   2
BRANCH   1  12
ATOM     12  C   UNL     1      -2.404  14.486 -17.228  1.00  0.00     0.000 C 
BRANCH  12  13
ATOM     13  C   UNL     1      -1.441  14.649 -18.412  1.00  0.00    -0.000 C 
BRANCH  13  14
ATOM     14  C   UNL     1      -0.554  15.898 -18.286  1.00  0.00    -0.000 C 
BRANCH  14  15
ATOM     15  C   UNL     1       0.822  15.715 -18.949  1.00  0.00    -0.000 C 
BRANCH  15  16
ATOM     16  C   UNL     1       1.643  17.014 -18.971  1.00  0.00    -0.000 C 
BRANCH  16  17
ATOM     17  C   UNL     1       1.120  18.023 -20.009  1.00  0.00    -0.000 C 
BRANCH  17  18
ATOM     18  C   UNL     1       0.871  19.414 -19.404  1.00  0.00    -0.000 C 
BRANCH  18  19
ATOM     19  C   UNL     1      -0.587  19.871 -19.555  1.00  0.00    -0.003 C 
ATOM     20  C   UNL     1      -1.372  19.636 -18.269  1.00  0.00     0.004 C 
ENDBRANCH  18  19
ENDBRANCH  17  18
ENDBRANCH  16  17
ENDBRANCH  15  16
ENDBRANCH  14  15
ENDBRANCH  13  14
ENDBRANCH  12  13
ENDBRANCH   1  12
TORSDOF 16
ENDMDL
MODEL 7
REMARK VINA RESULT:    -4.363      3.101      8.066
REMARK INTER + INTRA:          -9.997
REMARK INTER:                  -8.346
REMARK INTRA:                  -1.651
REMARK UNBOUND:                -1.553
REMARK SMILES CCCCCCCCCCCCCCCCCC(=O)[O-]
REMARK SMILES IDX 10 1 11 2 12 3 13 4 14 5 15 6 16 7 17 8 18 9 19 10 20 11
REMARK SMILES IDX 9 12 8 13 7 14 6 15 5 16 4 17 3 18 2 19 1 20
REMARK H PARENT
REMARK Flexibility Score: inf
ROOT
ATOM      1  C   UNL     1      -1.569  14.497 -16.941  1.00  0.00     0.000 C 
ENDROOT
BRANCH   1   2
ATOM      2  C   UNL     1      -1.510  15.028 -18.384  1.00  0.00     0.000 C 
BRANCH   2   3
ATOM      3  C   UNL     1      -0.662  16.299 -18.581  1.00  0.00     0.000 C 
BRANCH   3   4
ATOM      4  C   UNL     1       0.832  15.997 -18.783  1.00  0.00     0.000 C 
BRANCH   4   5
ATOM      5  C   UNL     1       1.646  17.242 -19.177  1.00  0.00     0.000 C 
BRANCH   5   6
ATOM      6  C   UNL     1       1.037  18.099 -20.306  1.00  0.00     0.000 C 
BRANCH   6   7
ATOM      7  C   UNL     1       0.892  19.600 -19.984  1.00  0.00     0.006 C 
BRANCH   7   8
ATOM      8  C   UNL     1      -0.555  20.061 -19.752  1.00  0.00     0.053 C 
BRANCH   8   9
ATOM      9  C   UNL     1      -0.897  20.114 -18.295  1.00  0.00     0.041 C 
ATOM     10  O   UNL     1       0.017  20.115 -17.429  1.00  0.00    -0.550 OA
ATOM     11  O   UNL     1      -2.227  20.122 -17.893  1.00  0.00    -0.550 OA
ENDBRANCH   8   9
ENDBRANCH   7   8
ENDBRANCH   6   7
ENDBRANCH   5   6
ENDBRANCH   4   5
ENDBRANCH   3   4
ENDBRANCH   2   3
ENDBRANCH   1   2
BRANCH   1  12
ATOM     12  C   UNL     1      -2.958  13.967 -16.551  1.00  0.00     0.000 C 
BRANCH  12  13
ATOM     13  C   UNL     1      -2.864  13.010 -15.355  1.00  0.00    -0.000 C 
BRANCH  13  14
ATOM     14  C   UNL     1      -4.108  12.118 -15.213  1.00  0.00    -0.000 C 
BRANCH  14  15
ATOM     15  C   UNL     1      -5.405  12.844 -15.612  1.00  0.00    -0.000 C 
BRANCH  15  16
ATOM     16  C   UNL     1      -6.323  11.973 -16.484  1.00  0.00    -0.000 C 
BRANCH  16  17
ATOM     17  C   UNL     1      -6.342  12.428 -17.955  1.00  0.00    -0.000 C 
BRANCH  17  18
ATOM     18  C   UNL     1      -5.672  11.412 -18.894  1.00  0.00    -0.000 C 
BRANCH  18  19
ATOM     19  C   UNL     1      -4.312  11.897 -19.416  1.00  0.00    -0.003 C 
ATOM     20  C   UNL     1      -3.165  11.218 -18.674  1.00  0.00     0.004 C 
ENDBRANCH  18  19
ENDBRANCH  17  18
ENDBRANCH  16  17
ENDBRANCH  15  16
ENDBRANCH  14  15
ENDBRANCH  13  14
ENDBRANCH  12  13
ENDBRANCH   1  12
TORSDOF 16
ENDMDL
MODEL 8
REMARK VINA RESULT:    -4.344      1.069      2.263
REMARK INTER + INTRA:          -9.960
REMARK INTER:                  -8.520
REMARK INTRA:                  -1.441
REMARK UNBOUND:                -1.553
REMARK SMILES CCCCCCCCCCCCCCCCCC(=O)[O-]
REMARK SMILES IDX 10 1 11 2 12 3 13 4 14 5 15 6 16 7 17 8 18 9 19 10 20 11
REMARK SMILES IDX 9 12 8 13 7 14 6 15 5 16 4 17 3 18 2 19 1 20
REMARK H PARENT
REMARK Flexibility Score: inf
ROOT
ATOM      1  C   UNL     1      -4.661  11.748 -19.783  1.00  0.00     0.000 C 
ENDROOT
BRANCH   1   2
ATOM      2  C   UNL     1      -5.954  11.344 -19.050  1.00  0.00     0.000 C 
BRANCH   2   3
ATOM      3  C   UNL     1      -6.460  12.358 -18.008  1.00  0.00     0.000 C 
BRANCH   3   4
ATOM      4  C   UNL     1      -6.021  12.014 -16.575  1.00  0.00     0.000 C 
BRANCH   4   5
ATOM      5  C   UNL     1      -5.594  13.251 -15.766  1.00  0.00     0.000 C 
BRANCH   5   6
ATOM      6  C   UNL     1      -4.644  12.971 -14.583  1.00  0.00     0.000 C 
BRANCH   6   7
ATOM      7  C   UNL     1      -3.141  13.094 -14.906  1.00  0.00     0.006 C 
BRANCH   7   8
ATOM      8  C   UNL     1      -2.271  11.978 -14.307  1.00  0.00     0.053 C 
BRANCH   8   9
ATOM      9  C   UNL     1      -2.902  10.630 -14.473  1.00  0.00     0.041 C 
ATOM     10  O   UNL     1      -3.128  10.173 -15.624  1.00  0.00    -0.550 OA
ATOM     11  O   UNL     1      -3.276   9.896 -13.354  1.00  0.00    -0.550 OA
ENDBRANCH   8   9
ENDBRANCH   7   8
ENDBRANCH   6   7
ENDBRANCH   5   6
ENDBRANCH   4   5
ENDBRANCH   3   4
ENDBRANCH   2   3
ENDBRANCH   1   2
BRANCH   1  12
ATOM     12  C   UNL     1      -3.388  11.329 -19.030  1.00  0.00     0.000 C 
BRANCH  12  13
ATOM     13  C   UNL     1      -2.793  12.515 -18.257  1.00  0.00    -0.000 C 
BRANCH  13  14
ATOM     14  C   UNL     1      -1.920  13.419 -19.142  1.00  0.00    -0.000 C 
BRANCH  14  15
ATOM     15  C   UNL     1      -1.865  14.870 -18.632  1.00  0.00    -0.000 C 
BRANCH  15  16
ATOM     16  C   UNL     1      -0.495  15.233 -18.036  1.00  0.00    -0.000 C 
BRANCH  16  17
ATOM     17  C   UNL     1       0.527  15.634 -19.114  1.00  0.00    -0.000 C 
BRANCH  17  18
ATOM     18  C   UNL     1       1.087  17.049 -18.898  1.00  0.00    -0.000 C 
BRANCH  18  19
ATOM     19  C   UNL     1       0.129  18.144 -19.392  1.00  0.00    -0.003 C 
ATOM     20  C   UNL     1       0.771  18.980 -20.493  1.00  0.00     0.004 C 
ENDBRANCH  18  19
ENDBRANCH  17  18
ENDBRANCH  16  17
ENDBRANCH  15  16
ENDBRANCH  14  15
ENDBRANCH  13  14
ENDBRANCH  12  13
ENDBRANCH   1  12
TORSDOF 16
ENDMDL
MODEL 9
REMARK VINA RESULT:    -4.270      3.198      7.705
REMARK INTER + INTRA:          -9.818
REMARK INTER:                  -8.219
REMARK INTRA:                  -1.599
REMARK UNBOUND:                -1.553
REMARK SMILES CCCCCCCCCCCCCCCCCC(=O)[O-]
REMARK SMILES IDX 10 1 11 2 12 3 13 4 14 5 15 6 16 7 17 8 18 9 19 10 20 11
REMARK SMILES IDX 9 12 8 13 7 14 6 15 5 16 4 17 3 18 2 19 1 20
REMARK H PARENT
REMARK Flexibility Score: inf
ROOT
ATOM      1  C   UNL     1      -2.295  11.251 -18.371  1.00  0.00     0.000 C 
ENDROOT
BRANCH   1   2
ATOM      2  C   UNL     1      -2.749  12.665 -18.776  1.00  0.00     0.000 C 
BRANCH   2   3
ATOM      3  C   UNL     1      -2.093  13.815 -17.990  1.00  0.00     0.000 C 
BRANCH   3   4
ATOM      4  C   UNL     1      -1.543  14.926 -18.900  1.00  0.00     0.000 C 
BRANCH   4   5
ATOM      5  C   UNL     1      -0.422  15.745 -18.235  1.00  0.00     0.000 C 
BRANCH   5   6
ATOM      6  C   UNL     1       0.898  15.824 -19.029  1.00  0.00     0.000 C 
BRANCH   6   7
ATOM      7  C   UNL     1       1.616  17.187 -18.973  1.00  0.00     0.006 C 
BRANCH   7   8
ATOM      8  C   UNL     1       0.992  18.269 -19.867  1.00  0.00     0.053 C 
BRANCH   8   9
ATOM      9  C   UNL     1       0.370  19.368 -19.061  1.00  0.00     0.041 C 
ATOM     10  O   UNL     1       0.899  19.739 -17.980  1.00  0.00    -0.550 OA
ATOM     11  O   UNL     1      -0.817  19.955 -19.485  1.00  0.00    -0.550 OA
ENDBRANCH   8   9
ENDBRANCH   7   8
ENDBRANCH   6   7
ENDBRANCH   5   6
ENDBRANCH   4   5
ENDBRANCH   3   4
ENDBRANCH   2   3
ENDBRANCH   1   2
BRANCH   1  12
ATOM     12  C   UNL     1      -3.233  10.588 -17.351  1.00  0.00     0.000 C 
BRANCH  12  13
ATOM     13  C   UNL     1      -2.769  10.870 -15.915  1.00  0.00    -0.000 C 
BRANCH  13  14
ATOM     14  C   UNL     1      -3.900  11.410 -15.024  1.00  0.00    -0.000 C 
BRANCH  14  15
ATOM     15  C   UNL     1      -4.399  12.793 -15.477  1.00  0.00    -0.000 C 
BRANCH  15  16
ATOM     16  C   UNL     1      -5.933  12.869 -15.557  1.00  0.00    -0.000 C 
BRANCH  16  17
ATOM     17  C   UNL     1      -6.515  11.916 -16.615  1.00  0.00    -0.000 C 
BRANCH  17  18
ATOM     18  C   UNL     1      -6.148  12.332 -18.048  1.00  0.00    -0.000 C 
BRANCH  18  19
ATOM     19  C   UNL     1      -6.531  11.269 -19.088  1.00  0.00    -0.003 C 
ATOM     20  C   UNL     1      -5.566  11.282 -20.268  1.00  0.00     0.004 C 
ENDBRANCH  18  19
ENDBRANCH  17  18
ENDBRANCH  16  17
ENDBRANCH  15  16
ENDBRANCH  14  15
ENDBRANCH  13  14
ENDBRANCH  12  13
ENDBRANCH   1  12
TORSDOF 16
ENDMDL
