MODEL 1
REMARK VINA RESULT:    -4.196      0.000      0.000
REMARK INTER + INTRA:          -5.057
REMARK INTER:                  -4.809
REMARK INTRA:                  -0.248
REMARK UNBOUND:                -0.248
REMARK SMILES COc1ccc(C=O)c(O)c1
REMARK SMILES IDX 3 1 11 2 9 3 6 4 5 5 4 6 2 7 1 8 10 9 7 11 8 12
REMARK H PARENT 10 10
REMARK Flexibility Score: inf
ROOT
ATOM      1  C   UNL     1     -23.016  24.271  11.620  1.00  0.00     0.122 A 
ATOM      2  C   UNL     1     -22.836  25.649  11.394  1.00  0.00     0.093 A 
ATOM      3  C   UNL     1     -23.126  26.210  10.140  1.00  0.00     0.129 A 
ATOM      4  C   UNL     1     -23.602  25.388   9.095  1.00  0.00     0.056 A 
ATOM      5  C   UNL     1     -23.778  24.016   9.331  1.00  0.00     0.019 A 
ATOM      6  C   UNL     1     -23.487  23.466  10.581  1.00  0.00     0.047 A 
ENDROOT
BRANCH   1   7
ATOM      7  O   UNL     1     -22.739  23.668  12.857  1.00  0.00    -0.497 OA
ATOM      8  C   UNL     1     -21.432  23.347  13.321  1.00  0.00     0.278 C 
ENDBRANCH   1   7
BRANCH   3   9
ATOM      9  O   UNL     1     -22.940  27.578   9.943  1.00  0.00    -0.507 OA
ATOM     10  H   UNL     1     -22.195  27.936   9.356  1.00  0.00     0.293 HD
ENDBRANCH   3   9
BRANCH   4  11
ATOM     11  C   UNL     1     -23.925  25.922   7.753  1.00  0.00     0.263 C 
ATOM     12  O   UNL     1     -23.297  26.894   7.258  1.00  0.00    -0.298 OA
ENDBRANCH   4  11
TORSDOF 3
ENDMDL
MODEL 2
REMARK VINA RESULT:    -4.164      1.489      2.068
REMARK INTER + INTRA:          -5.020
REMARK INTER:                  -4.971
REMARK INTRA:                  -0.049
REMARK UNBOUND:                -0.248
REMARK SMILES COc1ccc(C=O)c(O)c1
REMARK SMILES IDX 3 1 11 2 9 3 6 4 5 5 4 6 2 7 1 8 10 9 7 11 8 12
REMARK H PARENT 10 10
REMARK Flexibility Score: inf
ROOT
ATOM      1  C   UNL     1     -22.215  24.700  11.512  1.00  0.00     0.122 A 
ATOM      2  C   UNL     1     -21.692  24.081  10.361  1.00  0.00     0.093 A 
ATOM      3  C   UNL     1     -21.960  24.601   9.086  1.00  0.00     0.129 A 
ATOM      4  C   UNL     1     -22.762  25.756   8.952  1.00  0.00     0.056 A 
ATOM      5  C   UNL     1     -23.278  26.366  10.105  1.00  0.00     0.019 A 
ATOM      6  C   UNL     1     -23.006  25.842  11.370  1.00  0.00     0.047 A 
ENDROOT
BRANCH   1   7
ATOM      7  O   UNL     1     -21.971  24.215  12.806  1.00  0.00    -0.497 OA
ATOM      8  C   UNL     1     -20.675  23.992  13.351  1.00  0.00     0.278 C 
ENDBRANCH   1   7
BRANCH   3   9
ATOM      9  O   UNL     1     -21.430  23.968   7.962  1.00  0.00    -0.507 OA
ATOM     10  H   UNL     1     -20.952  23.076   8.027  1.00  0.00     0.293 HD
ENDBRANCH   3   9
BRANCH   4  11
ATOM     11  C   UNL     1     -23.080  26.350   7.634  1.00  0.00     0.263 C 
ATOM     12  O   UNL     1     -23.713  27.434   7.532  1.00  0.00    -0.298 OA
ENDBRANCH   4  11
TORSDOF 3
ENDMDL
MODEL 3
REMARK VINA RESULT:    -3.716      1.963      4.704
REMARK INTER + INTRA:          -4.507
REMARK INTER:                  -4.455
REMARK INTRA:                  -0.053
REMARK UNBOUND:                -0.248
REMARK SMILES COc1ccc(C=O)c(O)c1
REMARK SMILES IDX 3 1 11 2 9 3 6 4 5 5 4 6 2 7 1 8 10 9 7 11 8 12
REMARK H PARENT 10 10
REMARK Flexibility Score: inf
ROOT
ATOM      1  C   UNL     1     -23.488  26.821   8.555  1.00  0.00     0.122 A 
ATOM      2  C   UNL     1     -22.688  25.840   7.940  1.00  0.00     0.093 A 
ATOM      3  C   UNL     1     -22.069  24.840   8.706  1.00  0.00     0.129 A 
ATOM      4  C   UNL     1     -22.249  24.814  10.107  1.00  0.00     0.056 A 
ATOM      5  C   UNL     1     -23.050  25.796  10.710  1.00  0.00     0.019 A 
ATOM      6  C   UNL     1     -23.661  26.788   9.940  1.00  0.00     0.047 A 
ENDROOT
BRANCH   1   7
ATOM      7  O   UNL     1     -24.125  27.838   7.828  1.00  0.00    -0.497 OA
ATOM      8  C   UNL     1     -23.809  29.222   7.934  1.00  0.00     0.278 C 
ENDBRANCH   1   7
BRANCH   3   9
ATOM      9  O   UNL     1     -21.281  23.879   8.072  1.00  0.00    -0.507 OA
ATOM     10  H   UNL     1     -21.605  22.929   7.936  1.00  0.00     0.293 HD
ENDBRANCH   3   9
BRANCH   4  11
ATOM     11  C   UNL     1     -21.623  23.786  10.967  1.00  0.00     0.263 C 
ATOM     12  O   UNL     1     -21.149  24.068  12.099  1.00  0.00    -0.298 OA
ENDBRANCH   4  11
TORSDOF 3
ENDMDL
MODEL 4
REMARK VINA RESULT:    -3.411      2.092      4.705
REMARK INTER + INTRA:          -4.158
REMARK INTER:                  -3.952
REMARK INTRA:                  -0.206
REMARK UNBOUND:                -0.248
REMARK SMILES COc1ccc(C=O)c(O)c1
REMARK SMILES IDX 3 1 11 2 9 3 6 4 5 5 4 6 2 7 1 8 10 9 7 11 8 12
REMARK H PARENT 10 10
REMARK Flexibility Score: inf
ROOT
ATOM      1  C   UNL     1     -23.840  28.107   8.079  1.00  0.00     0.122 A 
ATOM      2  C   UNL     1     -23.341  27.834   9.367  1.00  0.00     0.093 A 
ATOM      3  C   UNL     1     -23.133  26.511   9.787  1.00  0.00     0.129 A 
ATOM      4  C   UNL     1     -23.424  25.442   8.912  1.00  0.00     0.056 A 
ATOM      5  C   UNL     1     -23.920  25.724   7.629  1.00  0.00     0.019 A 
ATOM      6  C   UNL     1     -24.125  27.043   7.221  1.00  0.00     0.047 A 
ENDROOT
BRANCH   1   7
ATOM      7  O   UNL     1     -24.063  29.414   7.620  1.00  0.00    -0.497 OA
ATOM      8  C   UNL     1     -23.347  30.559   8.071  1.00  0.00     0.278 C 
ENDBRANCH   1   7
BRANCH   3   9
ATOM      9  O   UNL     1     -22.638  26.268  11.068  1.00  0.00    -0.507 OA
ATOM     10  H   UNL     1     -22.810  26.906  11.837  1.00  0.00     0.293 HD
ENDBRANCH   3   9
BRANCH   4  11
ATOM     11  C   UNL     1     -23.225  24.027   9.296  1.00  0.00     0.263 C 
ATOM     12  O   UNL     1     -23.067  23.682  10.497  1.00  0.00    -0.298 OA
ENDBRANCH   4  11
TORSDOF 3
ENDMDL
MODEL 5
REMARK VINA RESULT:    -3.395      1.750      4.617
REMARK INTER + INTRA:          -4.139
REMARK INTER:                  -3.894
REMARK INTRA:                  -0.245
REMARK UNBOUND:                -0.248
REMARK SMILES COc1ccc(C=O)c(O)c1
REMARK SMILES IDX 3 1 11 2 9 3 6 4 5 5 4 6 2 7 1 8 10 9 7 11 8 12
REMARK H PARENT 10 10
REMARK Flexibility Score: inf
ROOT
ATOM      1  C   UNL     1     -23.040  24.354   9.744  1.00  0.00     0.122 A 
ATOM      2  C   UNL     1     -21.885  24.582  10.516  1.00  0.00     0.093 A 
ATOM      3  C   UNL     1     -21.822  24.150  11.850  1.00  0.00     0.129 A 
ATOM      4  C   UNL     1     -22.924  23.480  12.425  1.00  0.00     0.056 A 
ATOM      5  C   UNL     1     -24.070  23.257  11.647  1.00  0.00     0.019 A 
ATOM      6  C   UNL     1     -24.125  23.691  10.321  1.00  0.00     0.047 A 
ENDROOT
BRANCH   1   7
ATOM      7  O   UNL     1     -23.146  24.769   8.407  1.00  0.00    -0.497 OA
ATOM      8  C   UNL     1     -23.380  26.112   7.998  1.00  0.00     0.278 C 
ENDBRANCH   1   7
BRANCH   3   9
ATOM      9  O   UNL     1     -20.666  24.388  12.593  1.00  0.00    -0.507 OA
ATOM     10  H   UNL     1     -20.477  25.291  13.012  1.00  0.00     0.293 HD
ENDBRANCH   3   9
BRANCH   4  11
ATOM     11  C   UNL     1     -22.917  23.001  13.826  1.00  0.00     0.263 C 
ATOM     12  O   UNL     1     -22.261  23.591  14.724  1.00  0.00    -0.298 OA
ENDBRANCH   4  11
TORSDOF 3
ENDMDL
MODEL 6
REMARK VINA RESULT:    -3.338      3.349      4.642
REMARK INTER + INTRA:          -4.074
REMARK INTER:                  -3.802
REMARK INTRA:                  -0.272
REMARK UNBOUND:                -0.248
REMARK SMILES COc1ccc(C=O)c(O)c1
REMARK SMILES IDX 3 1 11 2 9 3 6 4 5 5 4 6 2 7 1 8 10 9 7 11 8 12
REMARK H PARENT 10 10
REMARK Flexibility Score: inf
ROOT
ATOM      1  C   UNL     1     -20.309  23.643  14.889  1.00  0.00     0.122 A 
ATOM      2  C   UNL     1     -20.259  24.135  13.571  1.00  0.00     0.093 A 
ATOM      3  C   UNL     1     -21.395  24.085  12.747  1.00  0.00     0.129 A 
ATOM      4  C   UNL     1     -22.599  23.538  13.241  1.00  0.00     0.056 A 
ATOM      5  C   UNL     1     -22.639  23.051  14.557  1.00  0.00     0.019 A 
ATOM      6  C   UNL     1     -21.504  23.104  15.370  1.00  0.00     0.047 A 
ENDROOT
BRANCH   1   7
ATOM      7  O   UNL     1     -19.199  23.673  15.746  1.00  0.00    -0.497 OA
ATOM      8  C   UNL     1     -19.275  23.577  17.165  1.00  0.00     0.278 C 
ENDBRANCH   1   7
BRANCH   3   9
ATOM      9  O   UNL     1     -21.319  24.579  11.445  1.00  0.00    -0.507 OA
ATOM     10  H   UNL     1     -22.143  24.886  10.941  1.00  0.00     0.293 HD
ENDBRANCH   3   9
BRANCH   4  11
ATOM     11  C   UNL     1     -23.828  23.458  12.421  1.00  0.00     0.263 C 
ATOM     12  O   UNL     1     -23.798  23.093  11.216  1.00  0.00    -0.298 OA
ENDBRANCH   4  11
TORSDOF 3
ENDMDL
MODEL 7
REMARK VINA RESULT:    -3.331      2.905      4.945
REMARK INTER + INTRA:          -4.065
REMARK INTER:                  -3.818
REMARK INTRA:                  -0.248
REMARK UNBOUND:                -0.248
REMARK SMILES COc1ccc(C=O)c(O)c1
REMARK SMILES IDX 3 1 11 2 9 3 6 4 5 5 4 6 2 7 1 8 10 9 7 11 8 12
REMARK H PARENT 10 10
REMARK Flexibility Score: inf
ROOT
ATOM      1  C   UNL     1     -20.623  23.433  15.595  1.00  0.00     0.122 A 
ATOM      2  C   UNL     1     -21.948  23.223  15.168  1.00  0.00     0.093 A 
ATOM      3  C   UNL     1     -22.300  23.397  13.821  1.00  0.00     0.129 A 
ATOM      4  C   UNL     1     -21.319  23.788  12.883  1.00  0.00     0.056 A 
ATOM      5  C   UNL     1     -20.001  23.995  13.318  1.00  0.00     0.019 A 
ATOM      6  C   UNL     1     -19.660  23.819  14.660  1.00  0.00     0.047 A 
ENDROOT
BRANCH   1   7
ATOM      7  O   UNL     1     -20.227  23.270  16.931  1.00  0.00    -0.497 OA
ATOM      8  C   UNL     1     -18.874  23.250  17.374  1.00  0.00     0.278 C 
ENDBRANCH   1   7
BRANCH   3   9
ATOM      9  O   UNL     1     -23.619  23.182  13.424  1.00  0.00    -0.507 OA
ATOM     10  H   UNL     1     -24.270  23.948  13.295  1.00  0.00     0.293 HD
ENDBRANCH   3   9
BRANCH   4  11
ATOM     11  C   UNL     1     -21.629  23.987  11.449  1.00  0.00     0.263 C 
ATOM     12  O   UNL     1     -22.465  24.848  11.066  1.00  0.00    -0.298 OA
ENDBRANCH   4  11
TORSDOF 3
ENDMDL
MODEL 8
REMARK VINA RESULT:    -3.327      2.945      6.821
REMARK INTER + INTRA:          -4.062
REMARK INTER:                  -3.802
REMARK INTRA:                  -0.260
REMARK UNBOUND:                -0.248
REMARK SMILES COc1ccc(C=O)c(O)c1
REMARK SMILES IDX 3 1 11 2 9 3 6 4 5 5 4 6 2 7 1 8 10 9 7 11 8 12
REMARK H PARENT 10 10
REMARK Flexibility Score: inf
ROOT
ATOM      1  C   UNL     1     -21.684  23.615  13.332  1.00  0.00     0.122 A 
ATOM      2  C   UNL     1     -22.251  23.248  14.566  1.00  0.00     0.093 A 
ATOM      3  C   UNL     1     -21.475  23.243  15.736  1.00  0.00     0.129 A 
ATOM      4  C   UNL     1     -20.112  23.610  15.677  1.00  0.00     0.056 A 
ATOM      5  C   UNL     1     -19.556  23.975  14.441  1.00  0.00     0.019 A 
ATOM      6  C   UNL     1     -20.336  23.977  13.283  1.00  0.00     0.047 A 
ENDROOT
BRANCH   1   7
ATOM      7  O   UNL     1     -22.423  23.634  12.139  1.00  0.00    -0.497 OA
ATOM      8  C   UNL     1     -22.180  24.527  11.056  1.00  0.00     0.278 C 
ENDBRANCH   1   7
BRANCH   3   9
ATOM      9  O   UNL     1     -22.062  22.875  16.946  1.00  0.00    -0.507 OA
ATOM     10  H   UNL     1     -22.343  21.920  17.135  1.00  0.00     0.293 HD
ENDBRANCH   3   9
BRANCH   4  11
ATOM     11  C   UNL     1     -19.244  23.624  16.875  1.00  0.00     0.263 C 
ATOM     12  O   UNL     1     -19.689  23.929  18.013  1.00  0.00    -0.298 OA
ENDBRANCH   4  11
TORSDOF 3
ENDMDL
