MODEL 1
REMARK VINA RESULT:    -3.957      0.000      0.000
REMARK INTER + INTRA:          -4.975
REMARK INTER:                  -4.883
REMARK INTRA:                  -0.092
REMARK UNBOUND:                -0.092
REMARK SMILES C=CC[C@@H](C)C(=O)CC
REMARK SMILES IDX 4 1 5 2 6 3 7 4 8 5 9 6 3 7 2 8 1 9
REMARK H PARENT
REMARK Flexibility Score: inf
ROOT
ATOM      1  C   UNL     1     167.856 184.977 316.184  1.00  0.00     0.057 C 
ATOM      2  C   UNL     1     167.899 183.670 315.380  1.00  0.00     0.016 C 
ENDROOT
BRANCH   1   3
ATOM      3  C   UNL     1     168.187 184.734 317.644  1.00  0.00     0.135 C 
ATOM      4  O   UNL     1     168.717 185.617 318.304  1.00  0.00    -0.299 OA
BRANCH   3   5
ATOM      5  C   UNL     1     167.883 183.413 318.301  1.00  0.00     0.072 C 
ATOM      6  C   UNL     1     166.506 183.442 318.958  1.00  0.00     0.012 C 
ENDBRANCH   3   5
ENDBRANCH   1   3
BRANCH   1   7
ATOM      7  C   UNL     1     168.757 186.071 315.572  1.00  0.00     0.038 C 
BRANCH   7   8
ATOM      8  C   UNL     1     168.952 185.925 314.084  1.00  0.00    -0.034 C 
ATOM      9  C   UNL     1     170.133 185.588 313.557  1.00  0.00     0.004 C 
ENDBRANCH   7   8
ENDBRANCH   1   7
TORSDOF 4
ENDMDL
MODEL 2
REMARK VINA RESULT:    -3.815     19.020     21.073
REMARK INTER + INTRA:          -4.798
REMARK INTER:                  -4.600
REMARK INTRA:                  -0.198
REMARK UNBOUND:                -0.092
REMARK SMILES C=CC[C@@H](C)C(=O)CC
REMARK SMILES IDX 4 1 5 2 6 3 7 4 8 5 9 6 3 7 2 8 1 9
REMARK H PARENT
REMARK Flexibility Score: inf
ROOT
ATOM      1  C   UNL     1     166.033 199.353 302.063  1.00  0.00     0.057 C 
ATOM      2  C   UNL     1     164.921 200.392 302.264  1.00  0.00     0.016 C 
ENDROOT
BRANCH   1   3
ATOM      3  C   UNL     1     167.063 199.839 301.061  1.00  0.00     0.135 C 
ATOM      4  O   UNL     1     166.948 200.949 300.559  1.00  0.00    -0.299 OA
BRANCH   3   5
ATOM      5  C   UNL     1     168.228 198.972 300.659  1.00  0.00     0.072 C 
ATOM      6  C   UNL     1     168.319 198.863 299.140  1.00  0.00     0.012 C 
ENDBRANCH   3   5
ENDBRANCH   1   3
BRANCH   1   7
ATOM      7  C   UNL     1     166.691 198.931 303.394  1.00  0.00     0.038 C 
BRANCH   7   8
ATOM      8  C   UNL     1     166.463 199.915 304.513  1.00  0.00    -0.034 C 
ATOM      9  C   UNL     1     166.166 199.516 305.754  1.00  0.00     0.004 C 
ENDBRANCH   7   8
ENDBRANCH   1   7
TORSDOF 4
ENDMDL
MODEL 3
REMARK VINA RESULT:    -3.754     17.955     19.994
REMARK INTER + INTRA:          -4.724
REMARK INTER:                  -4.518
REMARK INTRA:                  -0.206
REMARK UNBOUND:                -0.092
REMARK SMILES C=CC[C@@H](C)C(=O)CC
REMARK SMILES IDX 4 1 5 2 6 3 7 4 8 5 9 6 3 7 2 8 1 9
REMARK H PARENT
REMARK Flexibility Score: inf
ROOT
ATOM      1  C   UNL     1     165.518 199.839 304.303  1.00  0.00     0.057 C 
ATOM      2  C   UNL     1     164.951 201.238 304.024  1.00  0.00     0.016 C 
ENDROOT
BRANCH   1   3
ATOM      3  C   UNL     1     166.229 199.283 303.085  1.00  0.00     0.135 C 
ATOM      4  O   UNL     1     167.197 198.548 303.226  1.00  0.00    -0.299 OA
BRANCH   3   5
ATOM      5  C   UNL     1     165.770 199.626 301.691  1.00  0.00     0.072 C 
ATOM      6  C   UNL     1     166.945 200.097 300.839  1.00  0.00     0.012 C 
ENDBRANCH   3   5
ENDBRANCH   1   3
BRANCH   1   7
ATOM      7  C   UNL     1     166.425 199.812 305.552  1.00  0.00     0.038 C 
BRANCH   7   8
ATOM      8  C   UNL     1     165.728 199.304 306.789  1.00  0.00    -0.034 C 
ATOM      9  C   UNL     1     164.963 200.098 307.544  1.00  0.00     0.004 C 
ENDBRANCH   7   8
ENDBRANCH   1   7
TORSDOF 4
ENDMDL
MODEL 4
REMARK VINA RESULT:    -3.710     18.397     20.215
REMARK INTER + INTRA:          -4.670
REMARK INTER:                  -4.299
REMARK INTRA:                  -0.371
REMARK UNBOUND:                -0.092
REMARK SMILES C=CC[C@@H](C)C(=O)CC
REMARK SMILES IDX 4 1 5 2 6 3 7 4 8 5 9 6 3 7 2 8 1 9
REMARK H PARENT
REMARK Flexibility Score: inf
ROOT
ATOM      1  C   UNL     1     164.988 199.872 303.425  1.00  0.00     0.057 C 
ATOM      2  C   UNL     1     165.081 199.677 301.905  1.00  0.00     0.016 C 
ENDROOT
BRANCH   1   3
ATOM      3  C   UNL     1     166.248 199.389 304.118  1.00  0.00     0.135 C 
ATOM      4  O   UNL     1     167.009 198.627 303.538  1.00  0.00    -0.299 OA
BRANCH   3   5
ATOM      5  C   UNL     1     166.580 199.824 305.522  1.00  0.00     0.072 C 
ATOM      6  C   UNL     1     165.780 199.016 306.539  1.00  0.00     0.012 C 
ENDBRANCH   3   5
ENDBRANCH   1   3
BRANCH   1   7
ATOM      7  C   UNL     1     164.650 201.328 303.811  1.00  0.00     0.038 C 
BRANCH   7   8
ATOM      8  C   UNL     1     165.339 202.353 302.946  1.00  0.00    -0.034 C 
ATOM      9  C   UNL     1     166.433 203.001 303.357  1.00  0.00     0.004 C 
ENDBRANCH   7   8
ENDBRANCH   1   7
TORSDOF 4
ENDMDL
MODEL 5
REMARK VINA RESULT:    -3.666     18.556     20.435
REMARK INTER + INTRA:          -4.615
REMARK INTER:                  -4.115
REMARK INTRA:                  -0.500
REMARK UNBOUND:                -0.092
REMARK SMILES C=CC[C@@H](C)C(=O)CC
REMARK SMILES IDX 4 1 5 2 6 3 7 4 8 5 9 6 3 7 2 8 1 9
REMARK H PARENT
REMARK Flexibility Score: inf
ROOT
ATOM      1  C   UNL     1     166.164 200.283 303.731  1.00  0.00     0.057 C 
ATOM      2  C   UNL     1     165.082 199.281 303.301  1.00  0.00     0.016 C 
ENDROOT
BRANCH   1   3
ATOM      3  C   UNL     1     165.664 201.711 303.619  1.00  0.00     0.135 C 
ATOM      4  O   UNL     1     166.465 202.633 303.551  1.00  0.00    -0.299 OA
BRANCH   3   5
ATOM      5  C   UNL     1     164.190 202.020 303.599  1.00  0.00     0.072 C 
ATOM      6  C   UNL     1     163.698 202.389 304.996  1.00  0.00     0.012 C 
ENDBRANCH   3   5
ENDBRANCH   1   3
BRANCH   1   7
ATOM      7  C   UNL     1     166.714 199.983 305.142  1.00  0.00     0.038 C 
BRANCH   7   8
ATOM      8  C   UNL     1     165.718 199.294 306.040  1.00  0.00    -0.034 C 
ATOM      9  C   UNL     1     165.314 199.838 307.192  1.00  0.00     0.004 C 
ENDBRANCH   7   8
ENDBRANCH   1   7
TORSDOF 4
ENDMDL
MODEL 6
REMARK VINA RESULT:    -3.663     18.581     20.656
REMARK INTER + INTRA:          -4.611
REMARK INTER:                  -4.324
REMARK INTRA:                  -0.287
REMARK UNBOUND:                -0.092
REMARK SMILES C=CC[C@@H](C)C(=O)CC
REMARK SMILES IDX 4 1 5 2 6 3 7 4 8 5 9 6 3 7 2 8 1 9
REMARK H PARENT
REMARK Flexibility Score: inf
ROOT
ATOM      1  C   UNL     1     164.955 200.704 304.075  1.00  0.00     0.057 C 
ATOM      2  C   UNL     1     164.382 202.078 304.453  1.00  0.00     0.016 C 
ENDROOT
BRANCH   1   3
ATOM      3  C   UNL     1     165.013 200.531 302.569  1.00  0.00     0.135 C 
ATOM      4  O   UNL     1     164.548 201.394 301.838  1.00  0.00    -0.299 OA
BRANCH   3   5
ATOM      5  C   UNL     1     165.627 199.302 301.950  1.00  0.00     0.072 C 
ATOM      6  C   UNL     1     166.880 199.666 301.159  1.00  0.00     0.012 C 
ENDBRANCH   3   5
ENDBRANCH   1   3
BRANCH   1   7
ATOM      7  C   UNL     1     166.327 200.440 304.730  1.00  0.00     0.038 C 
BRANCH   7   8
ATOM      8  C   UNL     1     166.330 199.251 305.657  1.00  0.00    -0.034 C 
ATOM      9  C   UNL     1     165.674 199.263 306.822  1.00  0.00     0.004 C 
ENDBRANCH   7   8
ENDBRANCH   1   7
TORSDOF 4
ENDMDL
MODEL 7
REMARK VINA RESULT:    -3.638     18.388     20.251
REMARK INTER + INTRA:          -4.580
REMARK INTER:                  -4.407
REMARK INTRA:                  -0.174
REMARK UNBOUND:                -0.092
REMARK SMILES C=CC[C@@H](C)C(=O)CC
REMARK SMILES IDX 4 1 5 2 6 3 7 4 8 5 9 6 3 7 2 8 1 9
REMARK H PARENT
REMARK Flexibility Score: inf
ROOT
ATOM      1  C   UNL     1     166.119 200.451 302.657  1.00  0.00     0.057 C 
ATOM      2  C   UNL     1     164.824 200.624 301.851  1.00  0.00     0.016 C 
ENDROOT
BRANCH   1   3
ATOM      3  C   UNL     1     165.838 200.425 304.147  1.00  0.00     0.135 C 
ATOM      4  O   UNL     1     165.030 201.207 304.628  1.00  0.00    -0.299 OA
BRANCH   3   5
ATOM      5  C   UNL     1     166.547 199.455 305.056  1.00  0.00     0.072 C 
ATOM      6  C   UNL     1     165.903 199.445 306.440  1.00  0.00     0.012 C 
ENDBRANCH   3   5
ENDBRANCH   1   3
BRANCH   1   7
ATOM      7  C   UNL     1     166.928 199.214 302.210  1.00  0.00     0.038 C 
BRANCH   7   8
ATOM      8  C   UNL     1     167.517 199.350 300.829  1.00  0.00    -0.034 C 
ATOM      9  C   UNL     1     168.718 198.850 300.522  1.00  0.00     0.004 C 
ENDBRANCH   7   8
ENDBRANCH   1   7
TORSDOF 4
ENDMDL
MODEL 8
REMARK VINA RESULT:    -3.578      0.881      4.160
REMARK INTER + INTRA:          -4.507
REMARK INTER:                  -4.273
REMARK INTRA:                  -0.234
REMARK UNBOUND:                -0.092
REMARK SMILES C=CC[C@@H](C)C(=O)CC
REMARK SMILES IDX 4 1 5 2 6 3 7 4 8 5 9 6 3 7 2 8 1 9
REMARK H PARENT
REMARK Flexibility Score: inf
ROOT
ATOM      1  C   UNL     1     168.780 183.987 316.125  1.00  0.00     0.057 C 
ATOM      2  C   UNL     1     167.756 183.164 315.332  1.00  0.00     0.016 C 
ENDROOT
BRANCH   1   3
ATOM      3  C   UNL     1     168.593 185.473 315.884  1.00  0.00     0.135 C 
ATOM      4  O   UNL     1     168.293 186.208 316.814  1.00  0.00    -0.299 OA
BRANCH   3   5
ATOM      5  C   UNL     1     168.760 186.066 314.509  1.00  0.00     0.072 C 
ATOM      6  C   UNL     1     169.967 185.455 313.802  1.00  0.00     0.012 C 
ENDBRANCH   3   5
ENDBRANCH   1   3
BRANCH   1   7
ATOM      7  C   UNL     1     168.764 183.650 317.631  1.00  0.00     0.038 C 
BRANCH   7   8
ATOM      8  C   UNL     1     167.478 183.010 318.089  1.00  0.00    -0.034 C 
ATOM      9  C   UNL     1     166.686 183.589 318.996  1.00  0.00     0.004 C 
ENDBRANCH   7   8
ENDBRANCH   1   7
TORSDOF 4
ENDMDL
MODEL 9
REMARK VINA RESULT:    -3.441     19.291     20.973
REMARK INTER + INTRA:          -4.337
REMARK INTER:                  -3.862
REMARK INTRA:                  -0.475
REMARK UNBOUND:                -0.092
REMARK SMILES C=CC[C@@H](C)C(=O)CC
REMARK SMILES IDX 4 1 5 2 6 3 7 4 8 5 9 6 3 7 2 8 1 9
REMARK H PARENT
REMARK Flexibility Score: inf
ROOT
ATOM      1  C   UNL     1     165.285 199.940 304.205  1.00  0.00     0.057 C 
ATOM      2  C   UNL     1     166.551 199.724 305.046  1.00  0.00     0.016 C 
ENDROOT
BRANCH   1   3
ATOM      3  C   UNL     1     164.987 201.417 304.031  1.00  0.00     0.135 C 
ATOM      4  O   UNL     1     163.845 201.830 304.177  1.00  0.00    -0.299 OA
BRANCH   3   5
ATOM      5  C   UNL     1     166.076 202.393 303.670  1.00  0.00     0.072 C 
ATOM      6  C   UNL     1     165.887 202.908 302.246  1.00  0.00     0.012 C 
ENDBRANCH   3   5
ENDBRANCH   1   3
BRANCH   1   7
ATOM      7  C   UNL     1     165.351 199.210 302.846  1.00  0.00     0.038 C 
BRANCH   7   8
ATOM      8  C   UNL     1     166.751 199.081 302.303  1.00  0.00    -0.034 C 
ATOM      9  C   UNL     1     167.083 199.540 301.092  1.00  0.00     0.004 C 
ENDBRANCH   7   8
ENDBRANCH   1   7
TORSDOF 4
ENDMDL
