MODEL 1
REMARK VINA RESULT:    -6.128      0.000      0.000
REMARK INTER + INTRA:          -8.492
REMARK INTER:                  -7.740
REMARK INTRA:                  -0.751
REMARK UNBOUND:                -0.751
REMARK SMILES O=C(C=Cc1ccc(O)cc1)c1ccc(O)cc1O
REMARK SMILES IDX 4 1 3 2 5 3 6 4 7 5 8 6 11 7 10 8 9 9 2 11 1 12 12 13 18 14
REMARK SMILES IDX 13 15 17 16 14 17 15 18 19 19 16 21
REMARK H PARENT 9 10 19 20 16 22
REMARK Flexibility Score: inf
ROOT
ATOM      1  C   UNL     1     107.532 121.762 119.288  1.00  0.00     0.012 C 
ATOM      2  C   UNL     1     106.421 121.757 120.039  1.00  0.00     0.053 C 
ENDROOT
BRANCH   1   3
ATOM      3  C   UNL     1     108.782 121.057 119.663  1.00  0.00    -0.025 A 
ATOM      4  C   UNL     1     109.594 121.615 120.665  1.00  0.00     0.012 A 
ATOM      5  C   UNL     1     110.777 120.981 121.058  1.00  0.00     0.047 A 
ATOM      6  C   UNL     1     111.156 119.771 120.463  1.00  0.00     0.115 A 
ATOM      7  C   UNL     1     109.165 119.832 119.081  1.00  0.00     0.012 A 
ATOM      8  C   UNL     1     110.348 119.199 119.478  1.00  0.00     0.047 A 
BRANCH   6   9
ATOM      9  O   UNL     1     112.332 119.129 120.846  1.00  0.00    -0.508 OA
ATOM     10  H   UNL     1     113.220 119.619 120.866  1.00  0.00     0.293 HD
ENDBRANCH   6   9
ENDBRANCH   1   3
BRANCH   2  11
ATOM     11  C   UNL     1     105.187 122.459 119.625  1.00  0.00     0.189 C 
ATOM     12  O   UNL     1     104.711 123.375 120.352  1.00  0.00    -0.289 OA
BRANCH  11  13
ATOM     13  C   UNL     1     104.520 122.142 118.341  1.00  0.00     0.064 A 
ATOM     14  C   UNL     1     104.252 123.137 117.375  1.00  0.00     0.130 A 
ATOM     15  C   UNL     1     104.165 120.810 118.065  1.00  0.00     0.020 A 
ATOM     16  C   UNL     1     103.603 122.794 116.179  1.00  0.00     0.093 A 
ATOM     17  C   UNL     1     103.525 120.477 116.869  1.00  0.00     0.047 A 
ATOM     18  C   UNL     1     103.239 121.465 115.925  1.00  0.00     0.119 A 
BRANCH  14  19
ATOM     19  O   UNL     1     104.649 124.458 117.586  1.00  0.00    -0.507 OA
ATOM     20  H   UNL     1     104.588 125.157 116.855  1.00  0.00     0.293 HD
ENDBRANCH  14  19
BRANCH  18  21
ATOM     21  O   UNL     1     102.598 121.119 114.739  1.00  0.00    -0.508 OA
ATOM     22  H   UNL     1     102.618 120.170 114.383  1.00  0.00     0.293 HD
ENDBRANCH  18  21
ENDBRANCH  11  13
ENDBRANCH   2  11
TORSDOF 6
ENDMDL
MODEL 2
REMARK VINA RESULT:    -6.056      1.474      2.406
REMARK INTER + INTRA:          -8.400
REMARK INTER:                  -7.649
REMARK INTRA:                  -0.751
REMARK UNBOUND:                -0.751
REMARK SMILES O=C(C=Cc1ccc(O)cc1)c1ccc(O)cc1O
REMARK SMILES IDX 4 1 3 2 5 3 6 4 7 5 8 6 11 7 10 8 9 9 2 11 1 12 12 13 18 14
REMARK SMILES IDX 13 15 17 16 14 17 15 18 19 19 16 21
REMARK H PARENT 9 10 19 20 16 22
REMARK Flexibility Score: inf
ROOT
ATOM      1  C   UNL     1     107.314 120.516 119.096  1.00  0.00     0.012 C 
ATOM      2  C   UNL     1     106.238 120.278 119.860  1.00  0.00     0.053 C 
ENDROOT
BRANCH   1   3
ATOM      3  C   UNL     1     108.709 120.282 119.544  1.00  0.00    -0.025 A 
ATOM      4  C   UNL     1     109.191 121.010 120.645  1.00  0.00     0.012 A 
ATOM      5  C   UNL     1     110.497 120.817 121.109  1.00  0.00     0.047 A 
ATOM      6  C   UNL     1     111.333 119.882 120.485  1.00  0.00     0.115 A 
ATOM      7  C   UNL     1     109.553 119.334 118.932  1.00  0.00     0.012 A 
ATOM      8  C   UNL     1     110.857 119.143 119.399  1.00  0.00     0.047 A 
BRANCH   6   9
ATOM      9  O   UNL     1     112.635 119.681 120.937  1.00  0.00    -0.508 OA
ATOM     10  H   UNL     1     113.432 119.784 120.319  1.00  0.00     0.293 HD
ENDBRANCH   6   9
ENDBRANCH   1   3
BRANCH   2  11
ATOM     11  C   UNL     1     104.860 120.508 119.374  1.00  0.00     0.189 C 
ATOM     12  O   UNL     1     103.998 119.592 119.472  1.00  0.00    -0.289 OA
BRANCH  11  13
ATOM     13  C   UNL     1     104.454 121.819 118.816  1.00  0.00     0.064 A 
ATOM     14  C   UNL     1     103.910 121.941 117.518  1.00  0.00     0.130 A 
ATOM     15  C   UNL     1     104.590 122.971 119.610  1.00  0.00     0.020 A 
ATOM     16  C   UNL     1     103.554 123.206 117.025  1.00  0.00     0.093 A 
ATOM     17  C   UNL     1     104.227 124.226 119.112  1.00  0.00     0.047 A 
ATOM     18  C   UNL     1     103.713 124.347 117.820  1.00  0.00     0.119 A 
BRANCH  14  19
ATOM     19  O   UNL     1     103.699 120.810 116.728  1.00  0.00    -0.507 OA
ATOM     20  H   UNL     1     104.005 120.769 115.763  1.00  0.00     0.293 HD
ENDBRANCH  14  19
BRANCH  18  21
ATOM     21  O   UNL     1     103.358 125.604 117.337  1.00  0.00    -0.508 OA
ATOM     22  H   UNL     1     102.388 125.882 117.243  1.00  0.00     0.293 HD
ENDBRANCH  18  21
ENDBRANCH  11  13
ENDBRANCH   2  11
TORSDOF 6
ENDMDL
MODEL 3
REMARK VINA RESULT:    -5.981      2.172      2.801
REMARK INTER + INTRA:          -8.306
REMARK INTER:                  -7.632
REMARK INTRA:                  -0.674
REMARK UNBOUND:                -0.751
REMARK SMILES O=C(C=Cc1ccc(O)cc1)c1ccc(O)cc1O
REMARK SMILES IDX 4 1 3 2 5 3 6 4 7 5 8 6 11 7 10 8 9 9 2 11 1 12 12 13 18 14
REMARK SMILES IDX 13 15 17 16 14 17 15 18 19 19 16 21
REMARK H PARENT 9 10 19 20 16 22
REMARK Flexibility Score: inf
ROOT
ATOM      1  C   UNL     1     107.042 121.371 121.321  1.00  0.00     0.012 C 
ATOM      2  C   UNL     1     106.046 121.104 120.464  1.00  0.00     0.053 C 
ENDROOT
BRANCH   1   3
ATOM      3  C   UNL     1     108.405 120.798 121.202  1.00  0.00    -0.025 A 
ATOM      4  C   UNL     1     108.811 120.284 119.959  1.00  0.00     0.012 A 
ATOM      5  C   UNL     1     110.091 119.742 119.796  1.00  0.00     0.047 A 
ATOM      6  C   UNL     1     110.986 119.719 120.873  1.00  0.00     0.115 A 
ATOM      7  C   UNL     1     109.319 120.783 122.275  1.00  0.00     0.012 A 
ATOM      8  C   UNL     1     110.597 120.242 122.109  1.00  0.00     0.047 A 
BRANCH   6   9
ATOM      9  O   UNL     1     112.263 119.182 120.724  1.00  0.00    -0.508 OA
ATOM     10  H   UNL     1     112.549 118.728 119.864  1.00  0.00     0.293 HD
ENDBRANCH   6   9
ENDBRANCH   1   3
BRANCH   2  11
ATOM     11  C   UNL     1     104.702 121.706 120.605  1.00  0.00     0.189 C 
ATOM     12  O   UNL     1     103.953 121.356 121.559  1.00  0.00    -0.289 OA
BRANCH  11  13
ATOM     13  C   UNL     1     104.232 122.756 119.672  1.00  0.00     0.064 A 
ATOM     14  C   UNL     1     102.903 122.790 119.196  1.00  0.00     0.130 A 
ATOM     15  C   UNL     1     105.128 123.762 119.268  1.00  0.00     0.020 A 
ATOM     16  C   UNL     1     102.507 123.795 118.300  1.00  0.00     0.093 A 
ATOM     17  C   UNL     1     104.722 124.762 118.380  1.00  0.00     0.047 A 
ATOM     18  C   UNL     1     103.414 124.780 117.891  1.00  0.00     0.119 A 
BRANCH  14  19
ATOM     19  O   UNL     1     101.970 121.847 119.628  1.00  0.00    -0.507 OA
ATOM     20  H   UNL     1     101.012 121.854 119.296  1.00  0.00     0.293 HD
ENDBRANCH  14  19
BRANCH  18  21
ATOM     21  O   UNL     1     103.025 125.781 117.005  1.00  0.00    -0.508 OA
ATOM     22  H   UNL     1     102.217 125.671 116.404  1.00  0.00     0.293 HD
ENDBRANCH  18  21
ENDBRANCH  11  13
ENDBRANCH   2  11
TORSDOF 6
ENDMDL
MODEL 4
REMARK VINA RESULT:    -5.860      2.036      3.795
REMARK INTER + INTRA:          -8.153
REMARK INTER:                  -7.412
REMARK INTRA:                  -0.741
REMARK UNBOUND:                -0.751
REMARK SMILES O=C(C=Cc1ccc(O)cc1)c1ccc(O)cc1O
REMARK SMILES IDX 4 1 3 2 5 3 6 4 7 5 8 6 11 7 10 8 9 9 2 11 1 12 12 13 18 14
REMARK SMILES IDX 13 15 17 16 14 17 15 18 19 19 16 21
REMARK H PARENT 9 10 19 20 16 22
REMARK Flexibility Score: inf
ROOT
ATOM      1  C   UNL     1     106.968 121.140 119.928  1.00  0.00     0.012 C 
ATOM      2  C   UNL     1     106.655 122.126 119.075  1.00  0.00     0.053 C 
ENDROOT
BRANCH   1   3
ATOM      3  C   UNL     1     108.341 120.604 120.097  1.00  0.00    -0.025 A 
ATOM      4  C   UNL     1     109.057 120.945 121.257  1.00  0.00     0.012 A 
ATOM      5  C   UNL     1     110.351 120.455 121.464  1.00  0.00     0.047 A 
ATOM      6  C   UNL     1     110.941 119.608 120.518  1.00  0.00     0.115 A 
ATOM      7  C   UNL     1     108.938 119.739 119.159  1.00  0.00     0.012 A 
ATOM      8  C   UNL     1     110.231 119.251 119.369  1.00  0.00     0.047 A 
BRANCH   6   9
ATOM      9  O   UNL     1     112.230 119.114 120.713  1.00  0.00    -0.508 OA
ATOM     10  H   UNL     1     112.448 118.495 121.485  1.00  0.00     0.293 HD
ENDBRANCH   6   9
ENDBRANCH   1   3
BRANCH   2  11
ATOM     11  C   UNL     1     105.277 122.646 118.944  1.00  0.00     0.189 C 
ATOM     12  O   UNL     1     104.763 122.786 117.799  1.00  0.00    -0.289 OA
BRANCH  11  13
ATOM     13  C   UNL     1     104.461 122.964 120.140  1.00  0.00     0.064 A 
ATOM     14  C   UNL     1     103.392 122.138 120.554  1.00  0.00     0.130 A 
ATOM     15  C   UNL     1     104.775 124.105 120.898  1.00  0.00     0.020 A 
ATOM     16  C   UNL     1     102.637 122.487 121.684  1.00  0.00     0.093 A 
ATOM     17  C   UNL     1     104.021 124.440 122.025  1.00  0.00     0.047 A 
ATOM     18  C   UNL     1     102.950 123.636 122.419  1.00  0.00     0.119 A 
BRANCH  14  19
ATOM     19  O   UNL     1     103.095 120.962 119.864  1.00  0.00    -0.507 OA
ATOM     20  H   UNL     1     103.805 120.268 119.661  1.00  0.00     0.293 HD
ENDBRANCH  14  19
BRANCH  18  21
ATOM     21  O   UNL     1     102.205 123.985 123.543  1.00  0.00    -0.508 OA
ATOM     22  H   UNL     1     101.529 123.349 123.950  1.00  0.00     0.293 HD
ENDBRANCH  18  21
ENDBRANCH  11  13
ENDBRANCH   2  11
TORSDOF 6
ENDMDL
MODEL 5
REMARK VINA RESULT:    -5.762      1.833      7.535
REMARK INTER + INTRA:          -8.029
REMARK INTER:                  -7.660
REMARK INTRA:                  -0.370
REMARK UNBOUND:                -0.751
REMARK SMILES O=C(C=Cc1ccc(O)cc1)c1ccc(O)cc1O
REMARK SMILES IDX 4 1 3 2 5 3 6 4 7 5 8 6 11 7 10 8 9 9 2 11 1 12 12 13 18 14
REMARK SMILES IDX 13 15 17 16 14 17 15 18 19 19 16 21
REMARK H PARENT 9 10 19 20 16 22
REMARK Flexibility Score: inf
ROOT
ATOM      1  C   UNL     1     105.748 122.006 120.069  1.00  0.00     0.012 C 
ATOM      2  C   UNL     1     106.625 121.032 119.783  1.00  0.00     0.053 C 
ENDROOT
BRANCH   1   3
ATOM      3  C   UNL     1     104.959 122.730 119.042  1.00  0.00    -0.025 A 
ATOM      4  C   UNL     1     104.547 122.030 117.895  1.00  0.00     0.012 A 
ATOM      5  C   UNL     1     103.794 122.669 116.905  1.00  0.00     0.047 A 
ATOM      6  C   UNL     1     103.432 124.014 117.055  1.00  0.00     0.115 A 
ATOM      7  C   UNL     1     104.577 124.078 119.190  1.00  0.00     0.012 A 
ATOM      8  C   UNL     1     103.824 124.713 118.199  1.00  0.00     0.047 A 
BRANCH   6   9
ATOM      9  O   UNL     1     102.682 124.661 116.075  1.00  0.00    -0.508 OA
ATOM     10  H   UNL     1     102.392 125.626 116.182  1.00  0.00     0.293 HD
ENDBRANCH   6   9
ENDBRANCH   1   3
BRANCH   2  11
ATOM     11  C   UNL     1     107.383 120.321 120.835  1.00  0.00     0.189 C 
ATOM     12  O   UNL     1     106.767 119.686 121.735  1.00  0.00    -0.289 OA
BRANCH  11  13
ATOM     13  C   UNL     1     108.865 120.296 120.826  1.00  0.00     0.064 A 
ATOM     14  C   UNL     1     109.592 119.588 119.843  1.00  0.00     0.130 A 
ATOM     15  C   UNL     1     109.566 121.016 121.807  1.00  0.00     0.020 A 
ATOM     16  C   UNL     1     110.995 119.580 119.883  1.00  0.00     0.093 A 
ATOM     17  C   UNL     1     110.963 121.007 121.836  1.00  0.00     0.047 A 
ATOM     18  C   UNL     1     111.680 120.287 120.878  1.00  0.00     0.119 A 
BRANCH  14  19
ATOM     19  O   UNL     1     108.930 118.917 118.815  1.00  0.00    -0.507 OA
ATOM     20  H   UNL     1     108.565 117.979 118.938  1.00  0.00     0.293 HD
ENDBRANCH  14  19
BRANCH  18  21
ATOM     21  O   UNL     1     113.073 120.284 120.921  1.00  0.00    -0.508 OA
ATOM     22  H   UNL     1     113.622 120.929 120.364  1.00  0.00     0.293 HD
ENDBRANCH  18  21
ENDBRANCH  11  13
ENDBRANCH   2  11
TORSDOF 6
ENDMDL
MODEL 6
REMARK VINA RESULT:    -5.752      4.269      7.508
REMARK INTER + INTRA:          -8.016
REMARK INTER:                  -7.349
REMARK INTRA:                  -0.667
REMARK UNBOUND:                -0.751
REMARK SMILES O=C(C=Cc1ccc(O)cc1)c1ccc(O)cc1O
REMARK SMILES IDX 4 1 3 2 5 3 6 4 7 5 8 6 11 7 10 8 9 9 2 11 1 12 12 13 18 14
REMARK SMILES IDX 13 15 17 16 14 17 15 18 19 19 16 21
REMARK H PARENT 9 10 19 20 16 22
REMARK Flexibility Score: inf
ROOT
ATOM      1  C   UNL     1     105.432 119.429 121.952  1.00  0.00     0.012 C 
ATOM      2  C   UNL     1     106.286 120.443 122.153  1.00  0.00     0.053 C 
ENDROOT
BRANCH   1   3
ATOM      3  C   UNL     1     104.534 118.889 123.003  1.00  0.00    -0.025 A 
ATOM      4  C   UNL     1     104.308 119.662 124.154  1.00  0.00     0.012 A 
ATOM      5  C   UNL     1     103.462 119.198 125.167  1.00  0.00     0.047 A 
ATOM      6  C   UNL     1     102.820 117.961 125.035  1.00  0.00     0.115 A 
ATOM      7  C   UNL     1     103.872 117.652 122.872  1.00  0.00     0.012 A 
ATOM      8  C   UNL     1     103.026 117.192 123.886  1.00  0.00     0.047 A 
BRANCH   6   9
ATOM      9  O   UNL     1     101.975 117.488 126.037  1.00  0.00    -0.508 OA
ATOM     10  H   UNL     1     101.382 118.115 126.568  1.00  0.00     0.293 HD
ENDBRANCH   6   9
ENDBRANCH   1   3
BRANCH   2  11
ATOM     11  C   UNL     1     107.156 120.965 121.077  1.00  0.00     0.189 C 
ATOM     12  O   UNL     1     106.707 121.819 120.264  1.00  0.00    -0.289 OA
BRANCH  11  13
ATOM     13  C   UNL     1     108.572 120.541 120.964  1.00  0.00     0.064 A 
ATOM     14  C   UNL     1     109.054 119.852 119.829  1.00  0.00     0.130 A 
ATOM     15  C   UNL     1     109.464 120.854 122.003  1.00  0.00     0.020 A 
ATOM     16  C   UNL     1     110.400 119.456 119.772  1.00  0.00     0.093 A 
ATOM     17  C   UNL     1     110.803 120.461 121.934  1.00  0.00     0.047 A 
ATOM     18  C   UNL     1     111.273 119.759 120.823  1.00  0.00     0.119 A 
BRANCH  14  19
ATOM     19  O   UNL     1     108.212 119.583 118.749  1.00  0.00    -0.507 OA
ATOM     20  H   UNL     1     107.768 120.326 118.221  1.00  0.00     0.293 HD
ENDBRANCH  14  19
BRANCH  18  21
ATOM     21  O   UNL     1     112.610 119.370 120.770  1.00  0.00    -0.508 OA
ATOM     22  H   UNL     1     113.097 119.266 119.887  1.00  0.00     0.293 HD
ENDBRANCH  18  21
ENDBRANCH  11  13
ENDBRANCH   2  11
TORSDOF 6
ENDMDL
MODEL 7
REMARK VINA RESULT:    -5.733      1.541      2.061
REMARK INTER + INTRA:          -7.993
REMARK INTER:                  -7.328
REMARK INTRA:                  -0.665
REMARK UNBOUND:                -0.751
REMARK SMILES O=C(C=Cc1ccc(O)cc1)c1ccc(O)cc1O
REMARK SMILES IDX 4 1 3 2 5 3 6 4 7 5 8 6 11 7 10 8 9 9 2 11 1 12 12 13 18 14
REMARK SMILES IDX 13 15 17 16 14 17 15 18 19 19 16 21
REMARK H PARENT 9 10 19 20 16 22
REMARK Flexibility Score: inf
ROOT
ATOM      1  C   UNL     1     107.430 121.882 119.377  1.00  0.00     0.012 C 
ATOM      2  C   UNL     1     107.393 122.994 118.628  1.00  0.00     0.053 C 
ENDROOT
BRANCH   1   3
ATOM      3  C   UNL     1     108.672 121.123 119.663  1.00  0.00    -0.025 A 
ATOM      4  C   UNL     1     109.597 121.666 120.571  1.00  0.00     0.012 A 
ATOM      5  C   UNL     1     110.777 120.983 120.879  1.00  0.00     0.047 A 
ATOM      6  C   UNL     1     111.043 119.740 120.291  1.00  0.00     0.115 A 
ATOM      7  C   UNL     1     108.942 119.865 119.088  1.00  0.00     0.012 A 
ATOM      8  C   UNL     1     110.123 119.184 119.398  1.00  0.00     0.047 A 
BRANCH   6   9
ATOM      9  O   UNL     1     112.216 119.049 120.588  1.00  0.00    -0.508 OA
ATOM     10  H   UNL     1     113.073 119.538 120.825  1.00  0.00     0.293 HD
ENDBRANCH   6   9
ENDBRANCH   1   3
BRANCH   2  11
ATOM     11  C   UNL     1     106.138 123.733 118.376  1.00  0.00     0.189 C 
ATOM     12  O   UNL     1     106.182 124.932 117.984  1.00  0.00    -0.289 OA
BRANCH  11  13
ATOM     13  C   UNL     1     104.818 123.076 118.529  1.00  0.00     0.064 A 
ATOM     14  C   UNL     1     103.991 123.318 119.648  1.00  0.00     0.130 A 
ATOM     15  C   UNL     1     104.367 122.208 117.521  1.00  0.00     0.020 A 
ATOM     16  C   UNL     1     102.755 122.661 119.759  1.00  0.00     0.093 A 
ATOM     17  C   UNL     1     103.133 121.563 117.637  1.00  0.00     0.047 A 
ATOM     18  C   UNL     1     102.326 121.784 118.755  1.00  0.00     0.119 A 
BRANCH  14  19
ATOM     19  O   UNL     1     104.378 124.225 120.635  1.00  0.00    -0.507 OA
ATOM     20  H   UNL     1     104.880 125.076 120.410  1.00  0.00     0.293 HD
ENDBRANCH  14  19
BRANCH  18  21
ATOM     21  O   UNL     1     101.100 121.131 118.859  1.00  0.00    -0.508 OA
ATOM     22  H   UNL     1     100.247 121.637 119.067  1.00  0.00     0.293 HD
ENDBRANCH  18  21
ENDBRANCH  11  13
ENDBRANCH   2  11
TORSDOF 6
ENDMDL
MODEL 8
REMARK VINA RESULT:    -5.669      1.910      7.503
REMARK INTER + INTRA:          -7.912
REMARK INTER:                  -7.364
REMARK INTRA:                  -0.549
REMARK UNBOUND:                -0.751
REMARK SMILES O=C(C=Cc1ccc(O)cc1)c1ccc(O)cc1O
REMARK SMILES IDX 4 1 3 2 5 3 6 4 7 5 8 6 11 7 10 8 9 9 2 11 1 12 12 13 18 14
REMARK SMILES IDX 13 15 17 16 14 17 15 18 19 19 16 21
REMARK H PARENT 9 10 19 20 16 22
REMARK Flexibility Score: inf
ROOT
ATOM      1  C   UNL     1     105.322 121.791 120.095  1.00  0.00     0.012 C 
ATOM      2  C   UNL     1     106.657 121.668 120.119  1.00  0.00     0.053 C 
ENDROOT
BRANCH   1   3
ATOM      3  C   UNL     1     104.584 122.561 119.064  1.00  0.00    -0.025 A 
ATOM      4  C   UNL     1     104.666 123.964 119.087  1.00  0.00     0.012 A 
ATOM      5  C   UNL     1     103.996 124.732 118.130  1.00  0.00     0.047 A 
ATOM      6  C   UNL     1     103.245 124.106 117.127  1.00  0.00     0.115 A 
ATOM      7  C   UNL     1     103.838 121.940 118.042  1.00  0.00     0.012 A 
ATOM      8  C   UNL     1     103.170 122.711 117.086  1.00  0.00     0.047 A 
BRANCH   6   9
ATOM      9  O   UNL     1     102.572 124.860 116.168  1.00  0.00    -0.508 OA
ATOM     10  H   UNL     1     102.730 124.718 115.176  1.00  0.00     0.293 HD
ENDBRANCH   6   9
ENDBRANCH   1   3
BRANCH   2  11
ATOM     11  C   UNL     1     107.357 120.879 121.154  1.00  0.00     0.189 C 
ATOM     12  O   UNL     1     106.696 120.302 122.061  1.00  0.00    -0.289 OA
BRANCH  11  13
ATOM     13  C   UNL     1     108.829 120.707 121.120  1.00  0.00     0.064 A 
ATOM     14  C   UNL     1     109.675 121.340 122.058  1.00  0.00     0.130 A 
ATOM     15  C   UNL     1     109.397 119.871 120.144  1.00  0.00     0.020 A 
ATOM     16  C   UNL     1     111.065 121.161 121.978  1.00  0.00     0.093 A 
ATOM     17  C   UNL     1     110.781 119.694 120.076  1.00  0.00     0.047 A 
ATOM     18  C   UNL     1     111.618 120.340 120.988  1.00  0.00     0.119 A 
BRANCH  14  19
ATOM     19  O   UNL     1     109.141 122.124 123.081  1.00  0.00    -0.507 OA
ATOM     20  H   UNL     1     109.343 123.114 123.156  1.00  0.00     0.293 HD
ENDBRANCH  14  19
BRANCH  18  21
ATOM     21  O   UNL     1     112.997 120.157 120.906  1.00  0.00    -0.508 OA
ATOM     22  H   UNL     1     113.426 119.721 120.098  1.00  0.00     0.293 HD
ENDBRANCH  18  21
ENDBRANCH  11  13
ENDBRANCH   2  11
TORSDOF 6
ENDMDL
MODEL 9
REMARK VINA RESULT:    -5.591      4.435      5.701
REMARK INTER + INTRA:          -7.813
REMARK INTER:                  -7.180
REMARK INTRA:                  -0.633
REMARK UNBOUND:                -0.751
REMARK SMILES O=C(C=Cc1ccc(O)cc1)c1ccc(O)cc1O
REMARK SMILES IDX 4 1 3 2 5 3 6 4 7 5 8 6 11 7 10 8 9 9 2 11 1 12 12 13 18 14
REMARK SMILES IDX 13 15 17 16 14 17 15 18 19 19 16 21
REMARK H PARENT 9 10 19 20 16 22
REMARK Flexibility Score: inf
ROOT
ATOM      1  C   UNL     1     107.369 120.925 121.746  1.00  0.00     0.012 C 
ATOM      2  C   UNL     1     106.741 120.362 122.788  1.00  0.00     0.053 C 
ENDROOT
BRANCH   1   3
ATOM      3  C   UNL     1     108.812 120.735 121.455  1.00  0.00    -0.025 A 
ATOM      4  C   UNL     1     109.754 121.362 122.287  1.00  0.00     0.012 A 
ATOM      5  C   UNL     1     111.124 121.204 122.057  1.00  0.00     0.047 A 
ATOM      6  C   UNL     1     111.571 120.404 120.998  1.00  0.00     0.115 A 
ATOM      7  C   UNL     1     109.271 119.920 120.401  1.00  0.00     0.012 A 
ATOM      8  C   UNL     1     110.642 119.763 120.174  1.00  0.00     0.047 A 
BRANCH   6   9
ATOM      9  O   UNL     1     112.933 120.239 120.758  1.00  0.00    -0.508 OA
ATOM     10  H   UNL     1     113.333 120.404 119.841  1.00  0.00     0.293 HD
ENDBRANCH   6   9
ENDBRANCH   1   3
BRANCH   2  11
ATOM     11  C   UNL     1     105.297 120.561 123.039  1.00  0.00     0.189 C 
ATOM     12  O   UNL     1     104.771 121.688 122.823  1.00  0.00    -0.289 OA
BRANCH  11  13
ATOM     13  C   UNL     1     104.438 119.444 123.495  1.00  0.00     0.064 A 
ATOM     14  C   UNL     1     103.633 119.546 124.652  1.00  0.00     0.130 A 
ATOM     15  C   UNL     1     104.404 118.257 122.743  1.00  0.00     0.020 A 
ATOM     16  C   UNL     1     102.847 118.456 125.055  1.00  0.00     0.093 A 
ATOM     17  C   UNL     1     103.613 117.179 123.149  1.00  0.00     0.047 A 
ATOM     18  C   UNL     1     102.836 117.273 124.305  1.00  0.00     0.119 A 
BRANCH  14  19
ATOM     19  O   UNL     1     103.591 120.733 125.385  1.00  0.00    -0.507 OA
ATOM     20  H   UNL     1     102.767 121.322 125.399  1.00  0.00     0.293 HD
ENDBRANCH  14  19
BRANCH  18  21
ATOM     21  O   UNL     1     102.056 116.189 124.700  1.00  0.00    -0.508 OA
ATOM     22  H   UNL     1     102.201 115.263 124.314  1.00  0.00     0.293 HD
ENDBRANCH  18  21
ENDBRANCH  11  13
ENDBRANCH   2  11
TORSDOF 6
ENDMDL
