MODEL 1
REMARK VINA RESULT:    -2.430      0.000      0.000
REMARK INTER + INTRA:          -2.758
REMARK INTER:                  -2.714
REMARK INTRA:                  -0.043
REMARK UNBOUND:                -0.043
REMARK SMILES CCCC(=O)[O-]
REMARK SMILES IDX 3 1 4 2 5 3 6 4 2 5 1 6
REMARK H PARENT
REMARK Flexibility Score: inf
ROOT
ATOM      1  C   UNL     1      55.506  17.716  84.444  1.00  0.00     0.052 C 
ENDROOT
BRANCH   1   2
ATOM      2  C   UNL     1      55.767  17.093  85.778  1.00  0.00     0.041 C 
ATOM      3  O   UNL     1      56.078  15.875  85.860  1.00  0.00    -0.550 OA
ATOM      4  O   UNL     1      55.620  17.844  86.937  1.00  0.00    -0.550 OA
ENDBRANCH   1   2
BRANCH   1   5
ATOM      5  C   UNL     1      54.592  18.935  84.593  1.00  0.00     0.003 C 
ATOM      6  C   UNL     1      53.122  18.535  84.510  1.00  0.00     0.004 C 
ENDBRANCH   1   5
TORSDOF 2
ENDMDL
MODEL 2
REMARK VINA RESULT:    -2.401      1.926      2.797
REMARK INTER + INTRA:          -2.725
REMARK INTER:                  -2.661
REMARK INTRA:                  -0.064
REMARK UNBOUND:                -0.043
REMARK SMILES CCCC(=O)[O-]
REMARK SMILES IDX 3 1 4 2 5 3 6 4 2 5 1 6
REMARK H PARENT
REMARK Flexibility Score: inf
ROOT
ATOM      1  C   UNL     1      55.746  18.517  84.636  1.00  0.00     0.052 C 
ENDROOT
BRANCH   1   2
ATOM      2  C   UNL     1      54.345  18.643  85.145  1.00  0.00     0.041 C 
ATOM      3  O   UNL     1      53.369  18.410  84.384  1.00  0.00    -0.550 OA
ATOM      4  O   UNL     1      54.115  19.063  86.449  1.00  0.00    -0.550 OA
ENDBRANCH   1   2
BRANCH   1   5
ATOM      5  C   UNL     1      56.099  17.046  84.401  1.00  0.00     0.003 C 
ATOM      6  C   UNL     1      56.122  16.269  85.715  1.00  0.00     0.004 C 
ENDBRANCH   1   5
TORSDOF 2
ENDMDL
MODEL 3
REMARK VINA RESULT:    -2.385     18.717     19.325
REMARK INTER + INTRA:          -2.707
REMARK INTER:                  -2.669
REMARK INTRA:                  -0.038
REMARK UNBOUND:                -0.043
REMARK SMILES CCCC(=O)[O-]
REMARK SMILES IDX 3 1 4 2 5 3 6 4 2 5 1 6
REMARK H PARENT
REMARK Flexibility Score: inf
ROOT
ATOM      1  C   UNL     1      41.295  30.243  88.944  1.00  0.00     0.052 C 
ENDROOT
BRANCH   1   2
ATOM      2  C   UNL     1      42.219  31.113  88.153  1.00  0.00     0.041 C 
ATOM      3  O   UNL     1      43.386  31.341  88.566  1.00  0.00    -0.550 OA
ATOM      4  O   UNL     1      41.776  31.712  86.981  1.00  0.00    -0.550 OA
ENDBRANCH   1   2
BRANCH   1   5
ATOM      5  C   UNL     1      39.844  30.480  88.520  1.00  0.00     0.003 C 
ATOM      6  C   UNL     1      39.251  29.235  87.865  1.00  0.00     0.004 C 
ENDBRANCH   1   5
TORSDOF 2
ENDMDL
MODEL 4
REMARK VINA RESULT:    -2.372     17.968     18.679
REMARK INTER + INTRA:          -2.692
REMARK INTER:                  -2.653
REMARK INTRA:                  -0.039
REMARK UNBOUND:                -0.043
REMARK SMILES CCCC(=O)[O-]
REMARK SMILES IDX 3 1 4 2 5 3 6 4 2 5 1 6
REMARK H PARENT
REMARK Flexibility Score: inf
ROOT
ATOM      1  C   UNL     1      42.253  31.264  87.816  1.00  0.00     0.052 C 
ENDROOT
BRANCH   1   2
ATOM      2  C   UNL     1      43.189  30.852  88.907  1.00  0.00     0.041 C 
ATOM      3  O   UNL     1      44.138  31.606  89.248  1.00  0.00    -0.550 OA
ATOM      4  O   UNL     1      43.043  29.612  89.517  1.00  0.00    -0.550 OA
ENDBRANCH   1   2
BRANCH   1   5
ATOM      5  C   UNL     1      41.105  30.260  87.688  1.00  0.00     0.003 C 
ATOM      6  C   UNL     1      39.842  30.776  88.373  1.00  0.00     0.004 C 
ENDBRANCH   1   5
TORSDOF 2
ENDMDL
MODEL 5
REMARK VINA RESULT:    -2.290     16.923     17.417
REMARK INTER + INTRA:          -2.601
REMARK INTER:                  -2.589
REMARK INTRA:                  -0.012
REMARK UNBOUND:                -0.043
REMARK SMILES CCCC(=O)[O-]
REMARK SMILES IDX 3 1 4 2 5 3 6 4 2 5 1 6
REMARK H PARENT
REMARK Flexibility Score: inf
ROOT
ATOM      1  C   UNL     1      39.696  19.440  80.013  1.00  0.00     0.052 C 
ENDROOT
BRANCH   1   2
ATOM      2  C   UNL     1      38.303  18.897  79.990  1.00  0.00     0.041 C 
ATOM      3  O   UNL     1      37.331  19.629  80.316  1.00  0.00    -0.550 OA
ATOM      4  O   UNL     1      38.080  17.568  79.654  1.00  0.00    -0.550 OA
ENDBRANCH   1   2
BRANCH   1   5
ATOM      5  C   UNL     1      39.770  20.755  79.233  1.00  0.00     0.003 C 
ATOM      6  C   UNL     1      40.808  20.676  78.116  1.00  0.00     0.004 C 
ENDBRANCH   1   5
TORSDOF 2
ENDMDL
MODEL 6
REMARK VINA RESULT:    -2.280     17.305     18.081
REMARK INTER + INTRA:          -2.590
REMARK INTER:                  -2.584
REMARK INTRA:                  -0.006
REMARK UNBOUND:                -0.043
REMARK SMILES CCCC(=O)[O-]
REMARK SMILES IDX 3 1 4 2 5 3 6 4 2 5 1 6
REMARK H PARENT
REMARK Flexibility Score: inf
ROOT
ATOM      1  C   UNL     1      44.841  31.256  90.633  1.00  0.00     0.052 C 
ENDROOT
BRANCH   1   2
ATOM      2  C   UNL     1      44.455  31.246  92.078  1.00  0.00     0.041 C 
ATOM      3  O   UNL     1      44.097  30.173  92.631  1.00  0.00    -0.550 OA
ATOM      4  O   UNL     1      44.444  32.431  92.802  1.00  0.00    -0.550 OA
ENDBRANCH   1   2
BRANCH   1   5
ATOM      5  C   UNL     1      46.363  31.320  90.487  1.00  0.00     0.003 C 
ATOM      6  C   UNL     1      46.764  31.771  89.085  1.00  0.00     0.004 C 
ENDBRANCH   1   5
TORSDOF 2
ENDMDL
MODEL 7
REMARK VINA RESULT:    -2.280      1.330      1.680
REMARK INTER + INTRA:          -2.589
REMARK INTER:                  -2.579
REMARK INTRA:                  -0.010
REMARK UNBOUND:                -0.043
REMARK SMILES CCCC(=O)[O-]
REMARK SMILES IDX 3 1 4 2 5 3 6 4 2 5 1 6
REMARK H PARENT
REMARK Flexibility Score: inf
ROOT
ATOM      1  C   UNL     1      54.281  18.139  85.684  1.00  0.00     0.052 C 
ENDROOT
BRANCH   1   2
ATOM      2  C   UNL     1      55.469  17.367  85.205  1.00  0.00     0.041 C 
ATOM      3  O   UNL     1      56.035  17.679  84.125  1.00  0.00    -0.550 OA
ATOM      4  O   UNL     1      55.923  16.271  85.928  1.00  0.00    -0.550 OA
ENDBRANCH   1   2
BRANCH   1   5
ATOM      5  C   UNL     1      53.369  18.500  84.509  1.00  0.00     0.003 C 
ATOM      6  C   UNL     1      51.899  18.311  84.875  1.00  0.00     0.004 C 
ENDBRANCH   1   5
TORSDOF 2
ENDMDL
MODEL 8
REMARK VINA RESULT:    -2.278     18.183     19.168
REMARK INTER + INTRA:          -2.587
REMARK INTER:                  -2.550
REMARK INTRA:                  -0.037
REMARK UNBOUND:                -0.043
REMARK SMILES CCCC(=O)[O-]
REMARK SMILES IDX 3 1 4 2 5 3 6 4 2 5 1 6
REMARK H PARENT
REMARK Flexibility Score: inf
ROOT
ATOM      1  C   UNL     1      41.754  31.242  87.610  1.00  0.00     0.052 C 
ENDROOT
BRANCH   1   2
ATOM      2  C   UNL     1      40.667  30.493  88.313  1.00  0.00     0.041 C 
ATOM      3  O   UNL     1      39.499  30.960  88.355  1.00  0.00    -0.550 OA
ATOM      4  O   UNL     1      40.954  29.299  88.963  1.00  0.00    -0.550 OA
ENDBRANCH   1   2
BRANCH   1   5
ATOM      5  C   UNL     1      43.115  30.604  87.898  1.00  0.00     0.003 C 
ATOM      6  C   UNL     1      43.848  31.349  89.011  1.00  0.00     0.004 C 
ENDBRANCH   1   5
TORSDOF 2
ENDMDL
MODEL 9
REMARK VINA RESULT:    -2.267     17.760     18.141
REMARK INTER + INTRA:          -2.575
REMARK INTER:                  -2.568
REMARK INTRA:                  -0.007
REMARK UNBOUND:                -0.043
REMARK SMILES CCCC(=O)[O-]
REMARK SMILES IDX 3 1 4 2 5 3 6 4 2 5 1 6
REMARK H PARENT
REMARK Flexibility Score: inf
ROOT
ATOM      1  C   UNL     1      43.952  30.593  90.273  1.00  0.00     0.052 C 
ENDROOT
BRANCH   1   2
ATOM      2  C   UNL     1      44.842  31.295  91.248  1.00  0.00     0.041 C 
ATOM      3  O   UNL     1      46.012  31.624  90.916  1.00  0.00    -0.550 OA
ATOM      4  O   UNL     1      44.398  31.545  92.540  1.00  0.00    -0.550 OA
ENDBRANCH   1   2
BRANCH   1   5
ATOM      5  C   UNL     1      43.885  31.369  88.955  1.00  0.00     0.003 C 
ATOM      6  C   UNL     1      42.585  31.079  88.210  1.00  0.00     0.004 C 
ENDBRANCH   1   5
TORSDOF 2
ENDMDL
