MODEL 1
REMARK VINA RESULT:    -3.565      0.000      0.000
REMARK INTER + INTRA:          -4.500
REMARK INTER:                  -4.294
REMARK INTRA:                  -0.205
REMARK UNBOUND:                -0.205
REMARK SMILES OCC(O)CO
REMARK SMILES IDX 3 1 5 2 6 3 2 5 1 6 4 8
REMARK H PARENT 6 4 1 7 4 9
REMARK Flexibility Score: inf
ROOT
ATOM      1  C   UNL     1     101.649 113.788 126.579  1.00  0.00     0.165 C 
ENDROOT
BRANCH   1   2
ATOM      2  C   UNL     1     102.686 114.918 126.685  1.00  0.00     0.190 C 
BRANCH   2   3
ATOM      3  O   UNL     1     103.371 114.842 127.905  1.00  0.00    -0.394 OA
ATOM      4  H   UNL     1     103.742 115.745 128.081  1.00  0.00     0.210 HD
ENDBRANCH   2   3
ENDBRANCH   1   2
BRANCH   1   5
ATOM      5  C   UNL     1     102.320 112.407 126.682  1.00  0.00     0.190 C 
BRANCH   5   6
ATOM      6  O   UNL     1     102.705 112.146 128.004  1.00  0.00    -0.394 OA
ATOM      7  H   UNL     1     103.652 112.433 128.086  1.00  0.00     0.210 HD
ENDBRANCH   5   6
ENDBRANCH   1   5
BRANCH   1   8
ATOM      8  O   UNL     1     100.654 113.932 127.562  1.00  0.00    -0.388 OA
ATOM      9  H   UNL     1     101.101 114.226 128.400  1.00  0.00     0.211 HD
ENDBRANCH   1   8
TORSDOF 5
ENDMDL
MODEL 2
REMARK VINA RESULT:    -3.393      0.641      2.524
REMARK INTER + INTRA:          -4.293
REMARK INTER:                  -4.113
REMARK INTRA:                  -0.180
REMARK UNBOUND:                -0.205
REMARK SMILES OCC(O)CO
REMARK SMILES IDX 3 1 5 2 6 3 2 5 1 6 4 8
REMARK H PARENT 6 4 1 7 4 9
REMARK Flexibility Score: inf
ROOT
ATOM      1  C   UNL     1     102.302 113.192 126.705  1.00  0.00     0.165 C 
ENDROOT
BRANCH   1   2
ATOM      2  C   UNL     1     100.769 113.173 126.820  1.00  0.00     0.190 C 
BRANCH   2   3
ATOM      3  O   UNL     1     100.307 114.355 127.416  1.00  0.00    -0.394 OA
ATOM      4  H   UNL     1     100.917 114.548 128.174  1.00  0.00     0.210 HD
ENDBRANCH   2   3
ENDBRANCH   1   2
BRANCH   1   5
ATOM      5  C   UNL     1     102.842 114.633 126.710  1.00  0.00     0.190 C 
BRANCH   5   6
ATOM      6  O   UNL     1     103.366 114.957 127.969  1.00  0.00    -0.394 OA
ATOM      7  H   UNL     1     102.607 115.287 128.517  1.00  0.00     0.210 HD
ENDBRANCH   5   6
ENDBRANCH   1   5
BRANCH   1   8
ATOM      8  O   UNL     1     102.887 112.439 127.739  1.00  0.00    -0.388 OA
ATOM      9  H   UNL     1     102.240 112.411 128.492  1.00  0.00     0.211 HD
ENDBRANCH   1   8
TORSDOF 5
ENDMDL
MODEL 3
REMARK VINA RESULT:    -3.374      0.659      2.534
REMARK INTER + INTRA:          -4.270
REMARK INTER:                  -4.074
REMARK INTRA:                  -0.195
REMARK UNBOUND:                -0.205
REMARK SMILES OCC(O)CO
REMARK SMILES IDX 3 1 5 2 6 3 2 5 1 6 4 8
REMARK H PARENT 6 4 1 7 4 9
REMARK Flexibility Score: inf
ROOT
ATOM      1  C   UNL     1     102.476 114.284 126.719  1.00  0.00     0.165 C 
ENDROOT
BRANCH   1   2
ATOM      2  C   UNL     1     102.445 112.747 126.677  1.00  0.00     0.190 C 
BRANCH   2   3
ATOM      3  O   UNL     1     102.671 112.218 127.955  1.00  0.00    -0.394 OA
ATOM      4  H   UNL     1     102.284 112.864 128.602  1.00  0.00     0.210 HD
ENDBRANCH   2   3
ENDBRANCH   1   2
BRANCH   1   5
ATOM      5  C   UNL     1     101.055 114.866 126.814  1.00  0.00     0.190 C 
BRANCH   5   6
ATOM      6  O   UNL     1     100.140 113.869 127.182  1.00  0.00    -0.394 OA
ATOM      7  H   UNL     1      99.492 113.788 126.435  1.00  0.00     0.210 HD
ENDBRANCH   5   6
ENDBRANCH   1   5
BRANCH   1   8
ATOM      8  O   UNL     1     103.271 114.737 127.786  1.00  0.00    -0.388 OA
ATOM      9  H   UNL     1     103.453 115.702 127.635  1.00  0.00     0.211 HD
ENDBRANCH   1   8
TORSDOF 5
ENDMDL
MODEL 4
REMARK VINA RESULT:    -3.132      0.759      2.295
REMARK INTER + INTRA:          -3.978
REMARK INTER:                  -3.774
REMARK INTRA:                  -0.204
REMARK UNBOUND:                -0.205
REMARK SMILES OCC(O)CO
REMARK SMILES IDX 3 1 5 2 6 3 2 5 1 6 4 8
REMARK H PARENT 6 4 1 7 4 9
REMARK Flexibility Score: inf
ROOT
ATOM      1  C   UNL     1     101.440 113.986 126.863  1.00  0.00     0.165 C 
ENDROOT
BRANCH   1   2
ATOM      2  C   UNL     1     101.922 112.529 126.776  1.00  0.00     0.190 C 
BRANCH   2   3
ATOM      3  O   UNL     1     102.726 112.211 127.880  1.00  0.00    -0.394 OA
ATOM      4  H   UNL     1     103.456 112.882 127.902  1.00  0.00     0.210 HD
ENDBRANCH   2   3
ENDBRANCH   1   2
BRANCH   1   5
ATOM      5  C   UNL     1     102.623 114.968 126.795  1.00  0.00     0.190 C 
BRANCH   5   6
ATOM      6  O   UNL     1     103.379 114.909 127.974  1.00  0.00    -0.394 OA
ATOM      7  H   UNL     1     104.196 114.387 127.762  1.00  0.00     0.210 HD
ENDBRANCH   5   6
ENDBRANCH   1   5
BRANCH   1   8
ATOM      8  O   UNL     1     100.505 114.262 125.850  1.00  0.00    -0.388 OA
ATOM      9  H   UNL     1     101.003 114.322 124.992  1.00  0.00     0.211 HD
ENDBRANCH   1   8
TORSDOF 5
ENDMDL
MODEL 5
REMARK VINA RESULT:    -3.086      1.589      2.461
REMARK INTER + INTRA:          -3.922
REMARK INTER:                  -3.920
REMARK INTRA:                  -0.002
REMARK UNBOUND:                -0.205
REMARK SMILES OCC(O)CO
REMARK SMILES IDX 3 1 5 2 6 3 2 5 1 6 4 8
REMARK H PARENT 6 4 1 7 4 9
REMARK Flexibility Score: inf
ROOT
ATOM      1  C   UNL     1     101.397 114.777 126.515  1.00  0.00     0.165 C 
ENDROOT
BRANCH   1   2
ATOM      2  C   UNL     1     100.699 116.052 126.015  1.00  0.00     0.190 C 
BRANCH   2   3
ATOM      3  O   UNL     1      99.546 116.308 126.770  1.00  0.00    -0.394 OA
ATOM      4  H   UNL     1      98.825 115.743 126.388  1.00  0.00     0.210 HD
ENDBRANCH   2   3
ENDBRANCH   1   2
BRANCH   1   5
ATOM      5  C   UNL     1     102.785 115.095 127.098  1.00  0.00     0.190 C 
BRANCH   5   6
ATOM      6  O   UNL     1     103.229 114.044 127.912  1.00  0.00    -0.394 OA
ATOM      7  H   UNL     1     102.464 113.419 128.012  1.00  0.00     0.210 HD
ENDBRANCH   5   6
ENDBRANCH   1   5
BRANCH   1   8
ATOM      8  O   UNL     1     100.600 114.113 127.465  1.00  0.00    -0.388 OA
ATOM      9  H   UNL     1      99.776 113.806 127.002  1.00  0.00     0.211 HD
ENDBRANCH   1   8
TORSDOF 5
ENDMDL
MODEL 6
REMARK VINA RESULT:    -3.074      1.461      2.961
REMARK INTER + INTRA:          -3.908
REMARK INTER:                  -3.906
REMARK INTRA:                  -0.003
REMARK UNBOUND:                -0.205
REMARK SMILES OCC(O)CO
REMARK SMILES IDX 3 1 5 2 6 3 2 5 1 6 4 8
REMARK H PARENT 6 4 1 7 4 9
REMARK Flexibility Score: inf
ROOT
ATOM      1  C   UNL     1     102.329 112.675 126.593  1.00  0.00     0.165 C 
ENDROOT
BRANCH   1   2
ATOM      2  C   UNL     1     102.616 111.486 125.662  1.00  0.00     0.190 C 
BRANCH   2   3
ATOM      3  O   UNL     1     103.679 110.720 126.160  1.00  0.00    -0.394 OA
ATOM      4  H   UNL     1     103.892 110.045 125.465  1.00  0.00     0.210 HD
ENDBRANCH   2   3
ENDBRANCH   1   2
BRANCH   1   5
ATOM      5  C   UNL     1     100.824 112.988 126.647  1.00  0.00     0.190 C 
BRANCH   5   6
ATOM      6  O   UNL     1     100.569 114.021 127.561  1.00  0.00    -0.394 OA
ATOM      7  H   UNL     1     101.237 113.927 128.289  1.00  0.00     0.210 HD
ENDBRANCH   5   6
ENDBRANCH   1   5
BRANCH   1   8
ATOM      8  O   UNL     1     102.832 112.429 127.884  1.00  0.00    -0.388 OA
ATOM      9  H   UNL     1     102.553 113.187 128.463  1.00  0.00     0.211 HD
ENDBRANCH   1   8
TORSDOF 5
ENDMDL
MODEL 7
REMARK VINA RESULT:    -3.019      1.741      2.583
REMARK INTER + INTRA:          -3.842
REMARK INTER:                  -3.839
REMARK INTRA:                  -0.003
REMARK UNBOUND:                -0.205
REMARK SMILES OCC(O)CO
REMARK SMILES IDX 3 1 5 2 6 3 2 5 1 6 4 8
REMARK H PARENT 6 4 1 7 4 9
REMARK Flexibility Score: inf
ROOT
ATOM      1  C   UNL     1     100.835 112.925 126.632  1.00  0.00     0.165 C 
ENDROOT
BRANCH   1   2
ATOM      2  C   UNL     1     100.406 113.352 125.219  1.00  0.00     0.190 C 
BRANCH   2   3
ATOM      3  O   UNL     1     100.279 112.232 124.386  1.00  0.00    -0.394 OA
ATOM      4  H   UNL     1      99.502 111.714 124.722  1.00  0.00     0.210 HD
ENDBRANCH   2   3
ENDBRANCH   1   2
BRANCH   1   5
ATOM      5  C   UNL     1     102.273 112.376 126.634  1.00  0.00     0.190 C 
BRANCH   5   6
ATOM      6  O   UNL     1     102.782 112.340 127.940  1.00  0.00    -0.394 OA
ATOM      7  H   UNL     1     102.384 113.110 128.422  1.00  0.00     0.210 HD
ENDBRANCH   5   6
ENDBRANCH   1   5
BRANCH   1   8
ATOM      8  O   UNL     1     100.711 113.996 127.535  1.00  0.00    -0.388 OA
ATOM      9  H   UNL     1     101.353 113.839 128.276  1.00  0.00     0.211 HD
ENDBRANCH   1   8
TORSDOF 5
ENDMDL
MODEL 8
REMARK VINA RESULT:    -3.018      1.206      1.732
REMARK INTER + INTRA:          -3.841
REMARK INTER:                  -3.618
REMARK INTRA:                  -0.223
REMARK UNBOUND:                -0.205
REMARK SMILES OCC(O)CO
REMARK SMILES IDX 3 1 5 2 6 3 2 5 1 6 4 8
REMARK H PARENT 6 4 1 7 4 9
REMARK Flexibility Score: inf
ROOT
ATOM      1  C   UNL     1     101.806 113.073 125.757  1.00  0.00     0.165 C 
ENDROOT
BRANCH   1   2
ATOM      2  C   UNL     1     101.672 114.328 126.636  1.00  0.00     0.190 C 
BRANCH   2   3
ATOM      3  O   UNL     1     100.597 114.191 127.525  1.00  0.00    -0.394 OA
ATOM      4  H   UNL     1      99.977 113.529 127.122  1.00  0.00     0.210 HD
ENDBRANCH   2   3
ENDBRANCH   1   2
BRANCH   1   5
ATOM      5  C   UNL     1     102.522 111.940 126.512  1.00  0.00     0.190 C 
BRANCH   5   6
ATOM      6  O   UNL     1     102.812 112.332 127.827  1.00  0.00    -0.394 OA
ATOM      7  H   UNL     1     103.719 112.735 127.810  1.00  0.00     0.210 HD
ENDBRANCH   5   6
ENDBRANCH   1   5
BRANCH   1   8
ATOM      8  O   UNL     1     100.545 112.648 125.302  1.00  0.00    -0.388 OA
ATOM      9  H   UNL     1     100.623 111.688 125.057  1.00  0.00     0.211 HD
ENDBRANCH   1   8
TORSDOF 5
ENDMDL
MODEL 9
REMARK VINA RESULT:    -2.857      1.617      2.474
REMARK INTER + INTRA:          -3.647
REMARK INTER:                  -3.638
REMARK INTRA:                  -0.009
REMARK UNBOUND:                -0.205
REMARK SMILES OCC(O)CO
REMARK SMILES IDX 3 1 5 2 6 3 2 5 1 6 4 8
REMARK H PARENT 6 4 1 7 4 9
REMARK Flexibility Score: inf
ROOT
ATOM      1  C   UNL     1     101.383 113.661 126.406  1.00  0.00     0.165 C 
ENDROOT
BRANCH   1   2
ATOM      2  C   UNL     1     102.204 112.381 126.632  1.00  0.00     0.190 C 
BRANCH   2   3
ATOM      3  O   UNL     1     102.786 112.391 127.908  1.00  0.00    -0.394 OA
ATOM      4  H   UNL     1     103.091 111.464 128.088  1.00  0.00     0.210 HD
ENDBRANCH   2   3
ENDBRANCH   1   2
BRANCH   1   5
ATOM      5  C   UNL     1     100.345 113.465 125.289  1.00  0.00     0.190 C 
BRANCH   5   6
ATOM      6  O   UNL     1     100.708 112.392 124.463  1.00  0.00    -0.394 OA
ATOM      7  H   UNL     1     101.119 112.786 123.649  1.00  0.00     0.210 HD
ENDBRANCH   5   6
ENDBRANCH   1   5
BRANCH   1   8
ATOM      8  O   UNL     1     100.760 114.069 127.599  1.00  0.00    -0.388 OA
ATOM      9  H   UNL     1     101.043 115.004 127.781  1.00  0.00     0.211 HD
ENDBRANCH   1   8
TORSDOF 5
ENDMDL
