MODEL 1
REMARK VINA RESULT:    10.312      0.000      0.000
REMARK INTER + INTRA:          15.436
REMARK INTER:                  15.738
REMARK INTRA:                  -0.302
REMARK UNBOUND:                -0.302
REMARK SMILES OC[C@@H]1O[C@H](O[C@]2(CO)O[C@@H](CO)[C@@H](O)[C@H]2O)[C@H](O)[C@H](O)[C@H]1O
REMARK SMILES IDX 6 1 5 2 3 3 22 4 4 5 20 6 18 7 2 8 1 9 23 11 21 13 19 15
REMARK SMILES IDX 7 17 16 18 10 19 14 20 11 21 8 22 9 23 17 25 15 27 12 29
REMARK SMILES IDX 13 30
REMARK H PARENT 1 10 23 12 21 14 19 16 9 24 17 26 15 28 13 31
REMARK Flexibility Score: inf
ROOT
ATOM      1  O   UNL     1      88.880  51.410  91.188  1.00  0.00    -0.313 OA
ENDROOT
BRANCH   1   2
ATOM      2  C   UNL     1      90.064  51.125  90.453  1.00  0.00     0.285 C 
ATOM      3  C   UNL     1      89.633  49.281  88.959  1.00  0.00     0.178 C 
ATOM      4  C   UNL     1      88.444  50.134  88.443  1.00  0.00     0.177 C 
ATOM      5  O   UNL     1      90.125  49.719  90.225  1.00  0.00    -0.341 OA
ATOM      6  C   UNL     1      88.872  51.607  88.259  1.00  0.00     0.179 C 
ATOM      7  C   UNL     1      90.084  51.960  89.155  1.00  0.00     0.202 C 
BRANCH   3   8
ATOM      8  C   UNL     1      89.235  47.802  89.087  1.00  0.00     0.191 C 
BRANCH   8   9
ATOM      9  O   UNL     1      87.912  47.613  88.659  1.00  0.00    -0.394 OA
ATOM     10  H   UNL     1      87.950  47.029  87.858  1.00  0.00     0.210 HD
ENDBRANCH   8   9
ENDBRANCH   3   8
BRANCH   4  11
ATOM     11  O   UNL     1      87.980  49.639  87.210  1.00  0.00    -0.387 OA
ATOM     12  H   UNL     1      87.996  50.391  86.563  1.00  0.00     0.211 HD
ENDBRANCH   4  11
BRANCH   6  13
ATOM     13  O   UNL     1      87.775  52.437  88.554  1.00  0.00    -0.387 OA
ATOM     14  H   UNL     1      87.373  52.104  89.398  1.00  0.00     0.211 HD
ENDBRANCH   6  13
BRANCH   7  15
ATOM     15  O   UNL     1      90.107  53.330  89.465  1.00  0.00    -0.385 OA
ATOM     16  H   UNL     1      89.764  53.417  90.393  1.00  0.00     0.211 HD
ENDBRANCH   7  15
ENDBRANCH   1   2
BRANCH   1  17
ATOM     17  C   UNL     1      88.866  50.916  92.525  1.00  0.00     0.224 C 
ATOM     18  C   UNL     1      88.859  52.085  93.548  1.00  0.00     0.208 C 
ATOM     19  O   UNL     1      87.738  50.083  92.748  1.00  0.00    -0.337 OA
ATOM     20  C   UNL     1      87.788  51.693  94.555  1.00  0.00     0.180 C 
ATOM     21  C   UNL     1      86.994  50.589  93.839  1.00  0.00     0.179 C 
BRANCH  17  22
ATOM     22  C   UNL     1      90.122  50.024  92.640  1.00  0.00     0.225 C 
BRANCH  22  23
ATOM     23  O   UNL     1      89.813  48.774  93.191  1.00  0.00    -0.391 OA
ATOM     24  H   UNL     1      89.560  48.192  92.429  1.00  0.00     0.210 HD
ENDBRANCH  22  23
ENDBRANCH  17  22
BRANCH  18  25
ATOM     25  O   UNL     1      90.113  52.294  94.152  1.00  0.00    -0.385 OA
ATOM     26  H   UNL     1      90.705  51.562  93.839  1.00  0.00     0.211 HD
ENDBRANCH  18  25
BRANCH  20  27
ATOM     27  O   UNL     1      88.314  51.296  95.801  1.00  0.00    -0.387 OA
ATOM     28  H   UNL     1      88.165  52.024  96.454  1.00  0.00     0.211 HD
ENDBRANCH  20  27
BRANCH  21  29
ATOM     29  C   UNL     1      86.516  49.439  94.739  1.00  0.00     0.191 C 
BRANCH  29  30
ATOM     30  O   UNL     1      87.541  48.507  94.945  1.00  0.00    -0.394 OA
ATOM     31  H   UNL     1      87.098  47.671  95.244  1.00  0.00     0.210 HD
ENDBRANCH  29  30
ENDBRANCH  21  29
ENDBRANCH   1  17
TORSDOF 13
ENDMDL
MODEL 2
REMARK VINA RESULT:    12.586      7.452      9.868
REMARK INTER + INTRA:          18.906
REMARK INTER:                  19.216
REMARK INTRA:                  -0.310
REMARK UNBOUND:                -0.302
REMARK SMILES OC[C@@H]1O[C@H](O[C@]2(CO)O[C@@H](CO)[C@@H](O)[C@H]2O)[C@H](O)[C@H](O)[C@H]1O
REMARK SMILES IDX 6 1 5 2 3 3 22 4 4 5 20 6 18 7 2 8 1 9 23 11 21 13 19 15
REMARK SMILES IDX 7 17 16 18 10 19 14 20 11 21 8 22 9 23 17 25 15 27 12 29
REMARK SMILES IDX 13 30
REMARK H PARENT 1 10 23 12 21 14 19 16 9 24 17 26 15 28 13 31
REMARK Flexibility Score: inf
ROOT
ATOM      1  O   UNL     1      85.732  58.184  88.598  1.00  0.00    -0.313 OA
ENDROOT
BRANCH   1   2
ATOM      2  C   UNL     1      84.496  58.826  88.307  1.00  0.00     0.285 C 
ATOM      3  C   UNL     1      84.026  60.442  90.034  1.00  0.00     0.178 C 
ATOM      4  C   UNL     1      85.430  61.018  89.708  1.00  0.00     0.177 C 
ATOM      5  O   UNL     1      83.839  59.118  89.538  1.00  0.00    -0.341 OA
ATOM      6  C   UNL     1      85.648  61.089  88.181  1.00  0.00     0.179 C 
ATOM      7  C   UNL     1      84.749  60.072  87.434  1.00  0.00     0.202 C 
BRANCH   3   8
ATOM      8  C   UNL     1      83.777  60.425  91.550  1.00  0.00     0.191 C 
BRANCH   8   9
ATOM      9  O   UNL     1      83.130  61.603  91.953  1.00  0.00    -0.394 OA
ATOM     10  H   UNL     1      82.803  62.048  91.129  1.00  0.00     0.210 HD
ENDBRANCH   8   9
ENDBRANCH   3   8
BRANCH   4  11
ATOM     11  O   UNL     1      85.571  62.310  90.247  1.00  0.00    -0.387 OA
ATOM     12  H   UNL     1      86.516  62.411  90.534  1.00  0.00     0.211 HD
ENDBRANCH   4  11
BRANCH   6  13
ATOM     13  O   UNL     1      87.006  60.850  87.905  1.00  0.00    -0.387 OA
ATOM     14  H   UNL     1      87.388  61.697  87.556  1.00  0.00     0.211 HD
ENDBRANCH   6  13
BRANCH   7  15
ATOM     15  O   UNL     1      85.320  59.692  86.208  1.00  0.00    -0.385 OA
ATOM     16  H   UNL     1      86.177  60.188  86.128  1.00  0.00     0.211 HD
ENDBRANCH   7  15
ENDBRANCH   1   2
BRANCH   1  17
ATOM     17  C   UNL     1      85.621  56.838  89.055  1.00  0.00     0.224 C 
ATOM     18  C   UNL     1      84.867  55.962  88.017  1.00  0.00     0.208 C 
ATOM     19  O   UNL     1      86.901  56.280  89.308  1.00  0.00    -0.337 OA
ATOM     20  C   UNL     1      85.711  54.701  87.910  1.00  0.00     0.180 C 
ATOM     21  C   UNL     1      87.054  55.101  88.541  1.00  0.00     0.179 C 
BRANCH  17  22
ATOM     22  C   UNL     1      84.886  56.930  90.411  1.00  0.00     0.225 C 
BRANCH  22  23
ATOM     23  O   UNL     1      85.588  57.732  91.319  1.00  0.00    -0.391 OA
ATOM     24  H   UNL     1      85.332  58.669  91.115  1.00  0.00     0.210 HD
ENDBRANCH  22  23
ENDBRANCH  17  22
BRANCH  18  25
ATOM     25  O   UNL     1      83.538  55.688  88.391  1.00  0.00    -0.385 OA
ATOM     26  H   UNL     1      83.520  54.748  88.707  1.00  0.00     0.211 HD
ENDBRANCH  18  25
BRANCH  20  27
ATOM     27  O   UNL     1      85.113  53.578  88.517  1.00  0.00    -0.387 OA
ATOM     28  H   UNL     1      84.686  53.028  87.813  1.00  0.00     0.211 HD
ENDBRANCH  20  27
BRANCH  21  29
ATOM     29  C   UNL     1      87.737  54.006  89.374  1.00  0.00     0.191 C 
BRANCH  29  30
ATOM     30  O   UNL     1      87.872  52.825  88.632  1.00  0.00    -0.394 OA
ATOM     31  H   UNL     1      88.016  52.099  89.293  1.00  0.00     0.210 HD
ENDBRANCH  29  30
ENDBRANCH  21  29
ENDBRANCH   1  17
TORSDOF 13
ENDMDL
MODEL 3
REMARK VINA RESULT:    13.227      7.105      9.387
REMARK INTER + INTRA:          19.885
REMARK INTER:                  20.216
REMARK INTRA:                  -0.331
REMARK UNBOUND:                -0.302
REMARK SMILES OC[C@@H]1O[C@H](O[C@]2(CO)O[C@@H](CO)[C@@H](O)[C@H]2O)[C@H](O)[C@H](O)[C@H]1O
REMARK SMILES IDX 6 1 5 2 3 3 22 4 4 5 20 6 18 7 2 8 1 9 23 11 21 13 19 15
REMARK SMILES IDX 7 17 16 18 10 19 14 20 11 21 8 22 9 23 17 25 15 27 12 29
REMARK SMILES IDX 13 30
REMARK H PARENT 1 10 23 12 21 14 19 16 9 24 17 26 15 28 13 31
REMARK Flexibility Score: inf
ROOT
ATOM      1  O   UNL     1      84.956  57.208  88.172  1.00  0.00    -0.313 OA
ENDROOT
BRANCH   1   2
ATOM      2  C   UNL     1      84.797  56.460  89.373  1.00  0.00     0.285 C 
ATOM      3  C   UNL     1      84.884  54.108  88.848  1.00  0.00     0.178 C 
ATOM      4  C   UNL     1      86.242  54.432  88.171  1.00  0.00     0.177 C 
ATOM      5  O   UNL     1      84.081  55.266  89.068  1.00  0.00    -0.341 OA
ATOM      6  C   UNL     1      87.078  55.382  89.057  1.00  0.00     0.179 C 
ATOM      7  C   UNL     1      86.177  56.203  90.012  1.00  0.00     0.202 C 
BRANCH   3   8
ATOM      8  C   UNL     1      84.071  53.116  88.002  1.00  0.00     0.191 C 
BRANCH   8   9
ATOM      9  O   UNL     1      83.692  52.009  88.775  1.00  0.00    -0.394 OA
ATOM     10  H   UNL     1      84.239  52.034  89.603  1.00  0.00     0.210 HD
ENDBRANCH   8   9
ENDBRANCH   3   8
BRANCH   4  11
ATOM     11  O   UNL     1      86.977  53.254  87.949  1.00  0.00    -0.387 OA
ATOM     12  H   UNL     1      87.494  53.066  88.775  1.00  0.00     0.211 HD
ENDBRANCH   4  11
BRANCH   6  13
ATOM     13  O   UNL     1      87.830  56.233  88.226  1.00  0.00    -0.387 OA
ATOM     14  H   UNL     1      87.713  57.156  88.569  1.00  0.00     0.211 HD
ENDBRANCH   6  13
BRANCH   7  15
ATOM     15  O   UNL     1      86.782  57.423  90.359  1.00  0.00    -0.385 OA
ATOM     16  H   UNL     1      86.309  57.755  91.166  1.00  0.00     0.211 HD
ENDBRANCH   7  15
ENDBRANCH   1   2
BRANCH   1  17
ATOM     17  C   UNL     1      84.549  58.572  88.252  1.00  0.00     0.224 C 
ATOM     18  C   UNL     1      84.218  58.966  89.717  1.00  0.00     0.208 C 
ATOM     19  O   UNL     1      85.557  59.433  87.745  1.00  0.00    -0.337 OA
ATOM     20  C   UNL     1      84.917  60.303  89.912  1.00  0.00     0.180 C 
ATOM     21  C   UNL     1      85.910  60.374  88.741  1.00  0.00     0.179 C 
BRANCH  17  22
ATOM     22  C   UNL     1      83.332  58.687  87.309  1.00  0.00     0.225 C 
BRANCH  22  23
ATOM     23  O   UNL     1      83.690  59.255  86.080  1.00  0.00    -0.391 OA
ATOM     24  H   UNL     1      83.471  58.578  85.388  1.00  0.00     0.210 HD
ENDBRANCH  22  23
ENDBRANCH  17  22
BRANCH  18  25
ATOM     25  O   UNL     1      82.835  59.042  89.967  1.00  0.00    -0.385 OA
ATOM     26  H   UNL     1      82.670  59.925  90.390  1.00  0.00     0.211 HD
ENDBRANCH  18  25
BRANCH  20  27
ATOM     27  O   UNL     1      84.026  61.394  89.967  1.00  0.00    -0.387 OA
ATOM     28  H   UNL     1      84.288  61.979  90.721  1.00  0.00     0.211 HD
ENDBRANCH  20  27
BRANCH  21  29
ATOM     29  C   UNL     1      86.090  61.768  88.120  1.00  0.00     0.191 C 
BRANCH  29  30
ATOM     30  O   UNL     1      87.422  61.977  87.742  1.00  0.00    -0.394 OA
ATOM     31  H   UNL     1      87.510  61.606  86.825  1.00  0.00     0.210 HD
ENDBRANCH  29  30
ENDBRANCH  21  29
ENDBRANCH   1  17
TORSDOF 13
ENDMDL
