MODEL 1
REMARK VINA RESULT:    -4.486      0.000      0.000
REMARK INTER + INTRA:          -5.175
REMARK INTER:                  -5.011
REMARK INTRA:                  -0.164
REMARK UNBOUND:                -0.164
REMARK SMILES O=C([O-])c1ccccc1C(=O)[O-]
REMARK SMILES IDX 4 1 9 2 5 3 8 4 6 5 7 6 2 7 1 8 3 9 10 10 11 11 12 12
REMARK H PARENT
REMARK Flexibility Score: inf
ROOT
ATOM      1  C   UNL     1     114.521 111.923 121.674  1.00  0.00     0.006 A 
ATOM      2  C   UNL     1     114.165 110.549 121.577  1.00  0.00     0.006 A 
ATOM      3  C   UNL     1     115.756 112.272 122.253  1.00  0.00     0.010 A 
ATOM      4  C   UNL     1     115.085 109.572 122.003  1.00  0.00     0.010 A 
ATOM      5  C   UNL     1     116.642 111.287 122.689  1.00  0.00     0.001 A 
ATOM      6  C   UNL     1     116.313 109.941 122.554  1.00  0.00     0.001 A 
ENDROOT
BRANCH   1   7
ATOM      7  C   UNL     1     113.677 113.008 121.124  1.00  0.00     0.072 C 
ATOM      8  O   UNL     1     113.840 113.401 119.939  1.00  0.00    -0.545 OA
ATOM      9  O   UNL     1     112.652 113.563 121.883  1.00  0.00    -0.545 OA
ENDBRANCH   1   7
BRANCH   2  10
ATOM     10  C   UNL     1     112.837 110.090 121.110  1.00  0.00     0.072 C 
ATOM     11  O   UNL     1     112.542 110.113 119.885  1.00  0.00    -0.545 OA
ATOM     12  O   UNL     1     111.873 109.690 122.029  1.00  0.00    -0.545 OA
ENDBRANCH   2  10
TORSDOF 2
ENDMDL
MODEL 2
REMARK VINA RESULT:    -4.477      0.050      2.882
REMARK INTER + INTRA:          -5.164
REMARK INTER:                  -4.998
REMARK INTRA:                  -0.165
REMARK UNBOUND:                -0.164
REMARK SMILES O=C([O-])c1ccccc1C(=O)[O-]
REMARK SMILES IDX 4 1 9 2 5 3 8 4 6 5 7 6 2 7 1 8 3 9 10 10 11 11 12 12
REMARK H PARENT
REMARK Flexibility Score: inf
ROOT
ATOM      1  C   UNL     1     114.158 110.534 121.611  1.00  0.00     0.006 A 
ATOM      2  C   UNL     1     114.511 111.910 121.685  1.00  0.00     0.006 A 
ATOM      3  C   UNL     1     115.082 109.565 122.046  1.00  0.00     0.010 A 
ATOM      4  C   UNL     1     115.748 112.270 122.252  1.00  0.00     0.010 A 
ATOM      5  C   UNL     1     116.312 109.944 122.584  1.00  0.00     0.001 A 
ATOM      6  C   UNL     1     116.640 111.293 122.698  1.00  0.00     0.001 A 
ENDROOT
BRANCH   1   7
ATOM      7  C   UNL     1     112.825 110.073 121.160  1.00  0.00     0.072 C 
ATOM      8  O   UNL     1     112.553 110.027 119.931  1.00  0.00    -0.545 OA
ATOM      9  O   UNL     1     111.882 109.624 122.077  1.00  0.00    -0.545 OA
ENDBRANCH   1   7
BRANCH   2  10
ATOM     10  C   UNL     1     113.665 112.991 121.129  1.00  0.00     0.072 C 
ATOM     11  O   UNL     1     113.875 113.442 119.971  1.00  0.00    -0.545 OA
ATOM     12  O   UNL     1     112.667 113.567 121.906  1.00  0.00    -0.545 OA
ENDBRANCH   2  10
TORSDOF 2
ENDMDL
MODEL 3
REMARK VINA RESULT:    -4.329      2.077      3.247
REMARK INTER + INTRA:          -4.998
REMARK INTER:                  -4.831
REMARK INTRA:                  -0.167
REMARK UNBOUND:                -0.164
REMARK SMILES O=C([O-])c1ccccc1C(=O)[O-]
REMARK SMILES IDX 4 1 9 2 5 3 8 4 6 5 7 6 2 7 1 8 3 9 10 10 11 11 12 12
REMARK H PARENT
REMARK Flexibility Score: inf
ROOT
ATOM      1  C   UNL     1     114.194 112.411 121.373  1.00  0.00     0.006 A 
ATOM      2  C   UNL     1     113.798 111.087 121.706  1.00  0.00     0.006 A 
ATOM      3  C   UNL     1     113.240 113.446 121.424  1.00  0.00     0.010 A 
ATOM      4  C   UNL     1     112.479 110.856 122.141  1.00  0.00     0.010 A 
ATOM      5  C   UNL     1     111.933 113.189 121.837  1.00  0.00     0.001 A 
ATOM      6  C   UNL     1     111.556 111.900 122.206  1.00  0.00     0.001 A 
ENDROOT
BRANCH   1   7
ATOM      7  C   UNL     1     115.593 112.769 121.041  1.00  0.00     0.072 C 
ATOM      8  O   UNL     1     116.398 113.092 121.953  1.00  0.00    -0.545 OA
ATOM      9  O   UNL     1     116.052 112.689 119.731  1.00  0.00    -0.545 OA
ENDBRANCH   1   7
BRANCH   2  10
ATOM     10  C   UNL     1     114.690 109.915 121.552  1.00  0.00     0.072 C 
ATOM     11  O   UNL     1     114.475 109.054 120.657  1.00  0.00    -0.545 OA
ATOM     12  O   UNL     1     115.742 109.716 122.439  1.00  0.00    -0.545 OA
ENDBRANCH   2  10
TORSDOF 2
ENDMDL
MODEL 4
REMARK VINA RESULT:    -4.307      2.055      4.214
REMARK INTER + INTRA:          -4.974
REMARK INTER:                  -4.798
REMARK INTRA:                  -0.176
REMARK UNBOUND:                -0.164
REMARK SMILES O=C([O-])c1ccccc1C(=O)[O-]
REMARK SMILES IDX 4 1 9 2 5 3 8 4 6 5 7 6 2 7 1 8 3 9 10 10 11 11 12 12
REMARK H PARENT
REMARK Flexibility Score: inf
ROOT
ATOM      1  C   UNL     1     113.722 111.010 121.645  1.00  0.00     0.006 A 
ATOM      2  C   UNL     1     114.144 112.332 121.334  1.00  0.00     0.006 A 
ATOM      3  C   UNL     1     112.402 110.799 122.088  1.00  0.00     0.010 A 
ATOM      4  C   UNL     1     113.213 113.385 121.413  1.00  0.00     0.010 A 
ATOM      5  C   UNL     1     111.503 111.861 122.181  1.00  0.00     0.001 A 
ATOM      6  C   UNL     1     111.904 113.149 121.834  1.00  0.00     0.001 A 
ENDROOT
BRANCH   1   7
ATOM      7  C   UNL     1     114.592 109.826 121.455  1.00  0.00     0.072 C 
ATOM      8  O   UNL     1     114.418 109.064 120.468  1.00  0.00    -0.545 OA
ATOM      9  O   UNL     1     115.649 109.577 122.323  1.00  0.00    -0.545 OA
ENDBRANCH   1   7
BRANCH   2  10
ATOM     10  C   UNL     1     115.545 112.672 120.992  1.00  0.00     0.072 C 
ATOM     11  O   UNL     1     115.944 112.632 119.797  1.00  0.00    -0.545 OA
ATOM     12  O   UNL     1     116.455 112.975 121.998  1.00  0.00    -0.545 OA
ENDBRANCH   2  10
TORSDOF 2
ENDMDL
MODEL 5
REMARK VINA RESULT:    -4.302      2.165      3.106
REMARK INTER + INTRA:          -4.968
REMARK INTER:                  -4.965
REMARK INTRA:                  -0.004
REMARK UNBOUND:                -0.164
REMARK SMILES O=C([O-])c1ccccc1C(=O)[O-]
REMARK SMILES IDX 4 1 9 2 5 3 8 4 6 5 7 6 2 7 1 8 3 9 10 10 11 11 12 12
REMARK H PARENT
REMARK Flexibility Score: inf
ROOT
ATOM      1  C   UNL     1     113.892 111.907 121.012  1.00  0.00     0.006 A 
ATOM      2  C   UNL     1     112.548 111.999 121.467  1.00  0.00     0.006 A 
ATOM      3  C   UNL     1     114.558 110.668 121.088  1.00  0.00     0.010 A 
ATOM      4  C   UNL     1     111.897 110.836 121.919  1.00  0.00     0.010 A 
ATOM      5  C   UNL     1     113.899 109.533 121.561  1.00  0.00     0.001 A 
ATOM      6  C   UNL     1     112.569 109.614 121.965  1.00  0.00     0.001 A 
ENDROOT
BRANCH   1   7
ATOM      7  C   UNL     1     114.607 113.046 120.392  1.00  0.00     0.072 C 
ATOM      8  O   UNL     1     115.459 113.696 121.054  1.00  0.00    -0.545 OA
ATOM      9  O   UNL     1     114.398 113.372 119.057  1.00  0.00    -0.545 OA
ENDBRANCH   1   7
BRANCH   2  10
ATOM     10  C   UNL     1     111.812 113.281 121.555  1.00  0.00     0.072 C 
ATOM     11  O   UNL     1     112.322 114.279 122.133  1.00  0.00    -0.545 OA
ATOM     12  O   UNL     1     110.518 113.380 121.055  1.00  0.00    -0.545 OA
ENDBRANCH   2  10
TORSDOF 2
ENDMDL
MODEL 6
REMARK VINA RESULT:    -4.260      2.195      3.297
REMARK INTER + INTRA:          -4.922
REMARK INTER:                  -4.809
REMARK INTRA:                  -0.113
REMARK UNBOUND:                -0.164
REMARK SMILES O=C([O-])c1ccccc1C(=O)[O-]
REMARK SMILES IDX 4 1 9 2 5 3 8 4 6 5 7 6 2 7 1 8 3 9 10 10 11 11 12 12
REMARK H PARENT
REMARK Flexibility Score: inf
ROOT
ATOM      1  C   UNL     1     112.536 111.933 121.296  1.00  0.00     0.006 A 
ATOM      2  C   UNL     1     113.851 111.886 120.756  1.00  0.00     0.006 A 
ATOM      3  C   UNL     1     111.983 110.765 121.856  1.00  0.00     0.010 A 
ATOM      4  C   UNL     1     114.589 110.691 120.855  1.00  0.00     0.010 A 
ATOM      5  C   UNL     1     112.725 109.586 121.923  1.00  0.00     0.001 A 
ATOM      6  C   UNL     1     114.029 109.552 121.434  1.00  0.00     0.001 A 
ENDROOT
BRANCH   1   7
ATOM      7  C   UNL     1     111.742 113.181 121.362  1.00  0.00     0.072 C 
ATOM      8  O   UNL     1     110.596 113.231 120.842  1.00  0.00    -0.545 OA
ATOM      9  O   UNL     1     112.219 114.290 122.051  1.00  0.00    -0.545 OA
ENDBRANCH   1   7
BRANCH   2  10
ATOM     10  C   UNL     1     114.465 113.019 120.028  1.00  0.00     0.072 C 
ATOM     11  O   UNL     1     115.203 113.846 120.628  1.00  0.00    -0.545 OA
ATOM     12  O   UNL     1     114.178 113.223 118.683  1.00  0.00    -0.545 OA
ENDBRANCH   2  10
TORSDOF 2
ENDMDL
MODEL 7
REMARK VINA RESULT:    -4.133      1.365      1.905
REMARK INTER + INTRA:          -4.779
REMARK INTER:                  -4.581
REMARK INTRA:                  -0.199
REMARK UNBOUND:                -0.164
REMARK SMILES O=C([O-])c1ccccc1C(=O)[O-]
REMARK SMILES IDX 4 1 9 2 5 3 8 4 6 5 7 6 2 7 1 8 3 9 10 10 11 11 12 12
REMARK H PARENT
REMARK Flexibility Score: inf
ROOT
ATOM      1  C   UNL     1     113.944 111.971 121.393  1.00  0.00     0.006 A 
ATOM      2  C   UNL     1     113.229 111.031 120.602  1.00  0.00     0.006 A 
ATOM      3  C   UNL     1     114.933 111.507 122.282  1.00  0.00     0.010 A 
ATOM      4  C   UNL     1     113.574 109.669 120.678  1.00  0.00     0.010 A 
ATOM      5  C   UNL     1     115.243 110.149 122.357  1.00  0.00     0.001 A 
ATOM      6  C   UNL     1     114.573 109.233 121.549  1.00  0.00     0.001 A 
ENDROOT
BRANCH   1   7
ATOM      7  C   UNL     1     113.744 113.434 121.275  1.00  0.00     0.072 C 
ATOM      8  O   UNL     1     114.534 114.128 120.582  1.00  0.00    -0.545 OA
ATOM      9  O   UNL     1     112.648 114.050 121.870  1.00  0.00    -0.545 OA
ENDBRANCH   1   7
BRANCH   2  10
ATOM     10  C   UNL     1     112.083 111.407 119.742  1.00  0.00     0.072 C 
ATOM     11  O   UNL     1     110.899 111.288 120.158  1.00  0.00    -0.545 OA
ATOM     12  O   UNL     1     112.299 111.834 118.437  1.00  0.00    -0.545 OA
ENDBRANCH   2  10
TORSDOF 2
ENDMDL
MODEL 8
REMARK VINA RESULT:    -4.017      1.497      2.628
REMARK INTER + INTRA:          -4.650
REMARK INTER:                  -4.419
REMARK INTRA:                  -0.231
REMARK UNBOUND:                -0.164
REMARK SMILES O=C([O-])c1ccccc1C(=O)[O-]
REMARK SMILES IDX 4 1 9 2 5 3 8 4 6 5 7 6 2 7 1 8 3 9 10 10 11 11 12 12
REMARK H PARENT
REMARK Flexibility Score: inf
ROOT
ATOM      1  C   UNL     1     114.085 111.220 120.405  1.00  0.00     0.006 A 
ATOM      2  C   UNL     1     113.806 111.588 121.750  1.00  0.00     0.006 A 
ATOM      3  C   UNL     1     115.362 110.720 120.082  1.00  0.00     0.010 A 
ATOM      4  C   UNL     1     114.791 111.381 122.734  1.00  0.00     0.010 A 
ATOM      5  C   UNL     1     116.330 110.545 121.070  1.00  0.00     0.001 A 
ATOM      6  C   UNL     1     116.042 110.864 122.396  1.00  0.00     0.001 A 
ENDROOT
BRANCH   1   7
ATOM      7  C   UNL     1     113.065 111.272 119.332  1.00  0.00     0.072 C 
ATOM      8  O   UNL     1     112.256 110.319 119.181  1.00  0.00    -0.545 OA
ATOM      9  O   UNL     1     112.943 112.397 118.524  1.00  0.00    -0.545 OA
ENDBRANCH   1   7
BRANCH   2  10
ATOM     10  C   UNL     1     112.546 112.247 122.161  1.00  0.00     0.072 C 
ATOM     11  O   UNL     1     111.587 111.572 122.623  1.00  0.00    -0.545 OA
ATOM     12  O   UNL     1     112.380 113.615 121.978  1.00  0.00    -0.545 OA
ENDBRANCH   2  10
TORSDOF 2
ENDMDL
MODEL 9
REMARK VINA RESULT:    -3.896     13.164     14.620
REMARK INTER + INTRA:          -4.515
REMARK INTER:                  -4.283
REMARK INTRA:                  -0.232
REMARK UNBOUND:                -0.164
REMARK SMILES O=C([O-])c1ccccc1C(=O)[O-]
REMARK SMILES IDX 4 1 9 2 5 3 8 4 6 5 7 6 2 7 1 8 3 9 10 10 11 11 12 12
REMARK H PARENT
REMARK Flexibility Score: inf
ROOT
ATOM      1  C   UNL     1     102.661 114.575 114.174  1.00  0.00     0.006 A 
ATOM      2  C   UNL     1     101.459 113.873 114.465  1.00  0.00     0.006 A 
ATOM      3  C   UNL     1     102.879 115.050 112.867  1.00  0.00     0.010 A 
ATOM      4  C   UNL     1     100.489 113.729 113.455  1.00  0.00     0.010 A 
ATOM      5  C   UNL     1     101.913 114.876 111.875  1.00  0.00     0.001 A 
ATOM      6  C   UNL     1     100.716 114.227 112.171  1.00  0.00     0.001 A 
ENDROOT
BRANCH   1   7
ATOM      7  C   UNL     1     103.672 114.894 115.209  1.00  0.00     0.072 C 
ATOM      8  O   UNL     1     103.545 115.923 115.923  1.00  0.00    -0.545 OA
ATOM      9  O   UNL     1     104.736 114.031 115.451  1.00  0.00    -0.545 OA
ENDBRANCH   1   7
BRANCH   2  10
ATOM     10  C   UNL     1     101.201 113.220 115.768  1.00  0.00     0.072 C 
ATOM     11  O   UNL     1     100.551 113.815 116.670  1.00  0.00    -0.545 OA
ATOM     12  O   UNL     1     101.733 111.964 116.038  1.00  0.00    -0.545 OA
ENDBRANCH   2  10
TORSDOF 2
ENDMDL
