MODEL 1
REMARK VINA RESULT:    -4.019      0.000      0.000
REMARK INTER + INTRA:          -5.068
REMARK INTER:                  -4.959
REMARK INTRA:                  -0.109
REMARK UNBOUND:                -0.109
REMARK SMILES CCCCCC(=O)[O-]
REMARK SMILES IDX 4 1 5 2 6 3 7 4 8 5 3 6 2 7 1 8
REMARK H PARENT
REMARK Flexibility Score: inf
ROOT
ATOM      1  C   UNL     1      -3.745   3.715  31.175  1.00  0.00     0.006 C 
ENDROOT
BRANCH   1   2
ATOM      2  C   UNL     1      -2.324   4.258  30.999  1.00  0.00     0.053 C 
BRANCH   2   3
ATOM      3  C   UNL     1      -1.315   3.215  31.362  1.00  0.00     0.041 C 
ATOM      4  O   UNL     1      -0.670   2.617  30.461  1.00  0.00    -0.550 OA
ATOM      5  O   UNL     1      -1.122   2.867  32.693  1.00  0.00    -0.550 OA
ENDBRANCH   2   3
ENDBRANCH   1   2
BRANCH   1   6
ATOM      6  C   UNL     1      -4.765   4.860  31.254  1.00  0.00     0.000 C 
BRANCH   6   7
ATOM      7  C   UNL     1      -4.109   6.219  31.543  1.00  0.00    -0.003 C 
ATOM      8  C   UNL     1      -4.301   6.671  32.990  1.00  0.00     0.004 C 
ENDBRANCH   6   7
ENDBRANCH   1   6
TORSDOF 4
ENDMDL
MODEL 2
REMARK VINA RESULT:    -3.981     15.878     16.967
REMARK INTER + INTRA:          -5.021
REMARK INTER:                  -4.756
REMARK INTRA:                  -0.265
REMARK UNBOUND:                -0.109
REMARK SMILES CCCCCC(=O)[O-]
REMARK SMILES IDX 4 1 5 2 6 3 7 4 8 5 3 6 2 7 1 8
REMARK H PARENT
REMARK Flexibility Score: inf
ROOT
ATOM      1  C   UNL     1       5.788   0.855  16.661  1.00  0.00     0.006 C 
ENDROOT
BRANCH   1   2
ATOM      2  C   UNL     1       4.674   1.777  16.157  1.00  0.00     0.053 C 
BRANCH   2   3
ATOM      3  C   UNL     1       3.475   1.687  17.046  1.00  0.00     0.041 C 
ATOM      4  O   UNL     1       2.323   1.591  16.548  1.00  0.00    -0.550 OA
ATOM      5  O   UNL     1       3.625   1.759  18.425  1.00  0.00    -0.550 OA
ENDBRANCH   2   3
ENDBRANCH   1   2
BRANCH   1   6
ATOM      6  C   UNL     1       5.437  -0.619  16.416  1.00  0.00     0.000 C 
BRANCH   6   7
ATOM      7  C   UNL     1       5.351  -1.431  17.717  1.00  0.00    -0.003 C 
ATOM      8  C   UNL     1       6.112  -0.779  18.871  1.00  0.00     0.004 C 
ENDBRANCH   6   7
ENDBRANCH   1   6
TORSDOF 4
ENDMDL
MODEL 3
REMARK VINA RESULT:    -3.865     16.211     17.082
REMARK INTER + INTRA:          -4.878
REMARK INTER:                  -4.686
REMARK INTRA:                  -0.192
REMARK UNBOUND:                -0.109
REMARK SMILES CCCCCC(=O)[O-]
REMARK SMILES IDX 4 1 5 2 6 3 7 4 8 5 3 6 2 7 1 8
REMARK H PARENT
REMARK Flexibility Score: inf
ROOT
ATOM      1  C   UNL     1       5.525   0.880  16.876  1.00  0.00     0.006 C 
ENDROOT
BRANCH   1   2
ATOM      2  C   UNL     1       4.317   1.603  17.479  1.00  0.00     0.053 C 
BRANCH   2   3
ATOM      3  C   UNL     1       3.249   1.790  16.449  1.00  0.00     0.041 C 
ATOM      4  O   UNL     1       3.465   2.505  15.436  1.00  0.00    -0.550 OA
ATOM      5  O   UNL     1       1.998   1.214  16.631  1.00  0.00    -0.550 OA
ENDBRANCH   2   3
ENDBRANCH   1   2
BRANCH   1   6
ATOM      6  C   UNL     1       5.224  -0.611  16.665  1.00  0.00     0.000 C 
BRANCH   6   7
ATOM      7  C   UNL     1       5.059  -1.375  17.988  1.00  0.00    -0.003 C 
ATOM      8  C   UNL     1       6.306  -1.304  18.870  1.00  0.00     0.004 C 
ENDBRANCH   6   7
ENDBRANCH   1   6
TORSDOF 4
ENDMDL
MODEL 4
REMARK VINA RESULT:    -3.860     17.435     18.436
REMARK INTER + INTRA:          -4.872
REMARK INTER:                  -4.666
REMARK INTRA:                  -0.206
REMARK UNBOUND:                -0.109
REMARK SMILES CCCCCC(=O)[O-]
REMARK SMILES IDX 4 1 5 2 6 3 7 4 8 5 3 6 2 7 1 8
REMARK H PARENT
REMARK Flexibility Score: inf
ROOT
ATOM      1  C   UNL     1       3.628   0.663  13.603  1.00  0.00     0.006 C 
ENDROOT
BRANCH   1   2
ATOM      2  C   UNL     1       3.149  -0.231  14.751  1.00  0.00     0.053 C 
BRANCH   2   3
ATOM      3  C   UNL     1       1.744   0.113  15.131  1.00  0.00     0.041 C 
ATOM      4  O   UNL     1       1.521   0.863  16.118  1.00  0.00    -0.550 OA
ATOM      5  O   UNL     1       0.678  -0.433  14.428  1.00  0.00    -0.550 OA
ENDBRANCH   2   3
ENDBRANCH   1   2
BRANCH   1   6
ATOM      6  C   UNL     1       4.620   1.721  14.107  1.00  0.00     0.000 C 
BRANCH   6   7
ATOM      7  C   UNL     1       4.213   3.149  13.713  1.00  0.00    -0.003 C 
ATOM      8  C   UNL     1       3.173   3.749  14.660  1.00  0.00     0.004 C 
ENDBRANCH   6   7
ENDBRANCH   1   6
TORSDOF 4
ENDMDL
MODEL 5
REMARK VINA RESULT:    -3.806      2.625      4.060
REMARK INTER + INTRA:          -4.805
REMARK INTER:                  -4.659
REMARK INTRA:                  -0.146
REMARK UNBOUND:                -0.109
REMARK SMILES CCCCCC(=O)[O-]
REMARK SMILES IDX 4 1 5 2 6 3 7 4 8 5 3 6 2 7 1 8
REMARK H PARENT
REMARK Flexibility Score: inf
ROOT
ATOM      1  C   UNL     1      -3.524   3.939  31.130  1.00  0.00     0.006 C 
ENDROOT
BRANCH   1   2
ATOM      2  C   UNL     1      -4.726   4.858  31.371  1.00  0.00     0.053 C 
BRANCH   2   3
ATOM      3  C   UNL     1      -4.275   6.185  31.893  1.00  0.00     0.041 C 
ATOM      4  O   UNL     1      -3.446   6.874  31.241  1.00  0.00    -0.550 OA
ATOM      5  O   UNL     1      -4.732   6.640  33.123  1.00  0.00    -0.550 OA
ENDBRANCH   2   3
ENDBRANCH   1   2
BRANCH   1   6
ATOM      6  C   UNL     1      -2.767   3.670  32.439  1.00  0.00     0.000 C 
BRANCH   6   7
ATOM      7  C   UNL     1      -1.387   3.036  32.204  1.00  0.00    -0.003 C 
ATOM      8  C   UNL     1      -0.940   3.119  30.744  1.00  0.00     0.004 C 
ENDBRANCH   6   7
ENDBRANCH   1   6
TORSDOF 4
ENDMDL
MODEL 6
REMARK VINA RESULT:    -3.790     16.952     18.188
REMARK INTER + INTRA:          -4.785
REMARK INTER:                  -4.621
REMARK INTRA:                  -0.164
REMARK UNBOUND:                -0.109
REMARK SMILES CCCCCC(=O)[O-]
REMARK SMILES IDX 4 1 5 2 6 3 7 4 8 5 3 6 2 7 1 8
REMARK H PARENT
REMARK Flexibility Score: inf
ROOT
ATOM      1  C   UNL     1       3.419   3.124  14.708  1.00  0.00     0.006 C 
ENDROOT
BRANCH   1   2
ATOM      2  C   UNL     1       4.171   2.780  15.998  1.00  0.00     0.053 C 
BRANCH   2   3
ATOM      3  C   UNL     1       3.481   1.673  16.729  1.00  0.00     0.041 C 
ATOM      4  O   UNL     1       4.150   0.841  17.396  1.00  0.00    -0.550 OA
ATOM      5  O   UNL     1       2.103   1.529  16.634  1.00  0.00    -0.550 OA
ENDBRANCH   2   3
ENDBRANCH   1   2
BRANCH   1   6
ATOM      6  C   UNL     1       4.372   3.150  13.505  1.00  0.00     0.000 C 
BRANCH   6   7
ATOM      7  C   UNL     1       5.076   1.803  13.279  1.00  0.00    -0.003 C 
ATOM      8  C   UNL     1       4.101   0.677  12.936  1.00  0.00     0.004 C 
ENDBRANCH   6   7
ENDBRANCH   1   6
TORSDOF 4
ENDMDL
MODEL 7
REMARK VINA RESULT:    -3.718     16.885     17.778
REMARK INTER + INTRA:          -4.697
REMARK INTER:                  -4.513
REMARK INTRA:                  -0.183
REMARK UNBOUND:                -0.109
REMARK SMILES CCCCCC(=O)[O-]
REMARK SMILES IDX 4 1 5 2 6 3 7 4 8 5 3 6 2 7 1 8
REMARK H PARENT
REMARK Flexibility Score: inf
ROOT
ATOM      1  C   UNL     1       3.525   2.269  15.064  1.00  0.00     0.006 C 
ENDROOT
BRANCH   1   2
ATOM      2  C   UNL     1       3.205   0.841  14.614  1.00  0.00     0.053 C 
BRANCH   2   3
ATOM      3  C   UNL     1       1.835   0.443  15.063  1.00  0.00     0.041 C 
ATOM      4  O   UNL     1       1.404   0.815  16.186  1.00  0.00    -0.550 OA
ATOM      5  O   UNL     1       1.052  -0.380  14.263  1.00  0.00    -0.550 OA
ENDBRANCH   2   3
ENDBRANCH   1   2
BRANCH   1   6
ATOM      6  C   UNL     1       4.679   2.281  16.078  1.00  0.00     0.000 C 
BRANCH   6   7
ATOM      7  C   UNL     1       5.405   0.929  16.163  1.00  0.00    -0.003 C 
ATOM      8  C   UNL     1       5.514   0.407  17.596  1.00  0.00     0.004 C 
ENDBRANCH   6   7
ENDBRANCH   1   6
TORSDOF 4
ENDMDL
MODEL 8
REMARK VINA RESULT:    -3.659     16.640     17.490
REMARK INTER + INTRA:          -4.624
REMARK INTER:                  -4.483
REMARK INTRA:                  -0.141
REMARK UNBOUND:                -0.109
REMARK SMILES CCCCCC(=O)[O-]
REMARK SMILES IDX 4 1 5 2 6 3 7 4 8 5 3 6 2 7 1 8
REMARK H PARENT
REMARK Flexibility Score: inf
ROOT
ATOM      1  C   UNL     1       3.771  -1.018  15.838  1.00  0.00     0.006 C 
ENDROOT
BRANCH   1   2
ATOM      2  C   UNL     1       3.018  -0.110  14.862  1.00  0.00     0.053 C 
BRANCH   2   3
ATOM      3  C   UNL     1       1.835   0.515  15.531  1.00  0.00     0.041 C 
ATOM      4  O   UNL     1       0.675   0.311  15.085  1.00  0.00    -0.550 OA
ATOM      5  O   UNL     1       2.016   1.362  16.616  1.00  0.00    -0.550 OA
ENDBRANCH   2   3
ENDBRANCH   1   2
BRANCH   1   6
ATOM      6  C   UNL     1       5.165  -0.455  16.151  1.00  0.00     0.000 C 
BRANCH   6   7
ATOM      7  C   UNL     1       5.264   0.125  17.570  1.00  0.00    -0.003 C 
ATOM      8  C   UNL     1       5.862  -0.865  18.571  1.00  0.00     0.004 C 
ENDBRANCH   6   7
ENDBRANCH   1   6
TORSDOF 4
ENDMDL
MODEL 9
REMARK VINA RESULT:    -3.565     16.005     16.801
REMARK INTER + INTRA:          -4.507
REMARK INTER:                  -4.461
REMARK INTRA:                  -0.046
REMARK UNBOUND:                -0.109
REMARK SMILES CCCCCC(=O)[O-]
REMARK SMILES IDX 4 1 5 2 6 3 7 4 8 5 3 6 2 7 1 8
REMARK H PARENT
REMARK Flexibility Score: inf
ROOT
ATOM      1  C   UNL     1       4.674   1.472  17.104  1.00  0.00     0.006 C 
ENDROOT
BRANCH   1   2
ATOM      2  C   UNL     1       5.791   0.445  17.306  1.00  0.00     0.053 C 
BRANCH   2   3
ATOM      3  C   UNL     1       5.560  -0.342  18.557  1.00  0.00     0.041 C 
ATOM      4  O   UNL     1       6.184  -1.420  18.751  1.00  0.00    -0.550 OA
ATOM      5  O   UNL     1       4.620   0.086  19.485  1.00  0.00    -0.550 OA
ENDBRANCH   2   3
ENDBRANCH   1   2
BRANCH   1   6
ATOM      6  C   UNL     1       4.672   2.007  15.664  1.00  0.00     0.000 C 
BRANCH   6   7
ATOM      7  C   UNL     1       3.268   2.403  15.183  1.00  0.00    -0.003 C 
ATOM      8  C   UNL     1       3.205   3.840  14.666  1.00  0.00     0.004 C 
ENDBRANCH   6   7
ENDBRANCH   1   6
TORSDOF 4
ENDMDL
