MODEL 1
REMARK VINA RESULT:    -4.239      0.000      0.000
REMARK INTER + INTRA:          -4.363
REMARK INTER:                  -4.363
REMARK INTRA:                   0.000
REMARK UNBOUND:                 0.000
REMARK SMILES Oc1ccc2[nH]ccc2c1
REMARK SMILES IDX 3 1 4 2 5 3 9 4 8 5 7 6 6 7 10 8 2 9 1 11
REMARK H PARENT 6 10 1 12
REMARK Flexibility Score: inf
ROOT
ATOM      1  C   UNL     1      47.024 -29.097 -30.771  1.00  0.00     0.048 A 
ATOM      2  C   UNL     1      48.283 -29.441 -30.244  1.00  0.00     0.030 A 
ATOM      3  C   UNL     1      49.417 -29.003 -30.927  1.00  0.00     0.046 A 
ATOM      4  C   UNL     1      49.324 -28.263 -32.075  1.00  0.00     0.003 A 
ATOM      5  C   UNL     1      50.607 -27.995 -32.497  1.00  0.00     0.028 A 
ATOM      6  C   UNL     1      51.433 -28.603 -31.557  1.00  0.00     0.083 A 
ATOM      7  N   UNL     1      50.701 -29.218 -30.600  1.00  0.00    -0.361 N 
ATOM      8  C   UNL     1      48.094 -27.906 -32.624  1.00  0.00     0.056 A 
ATOM      9  C   UNL     1      46.926 -28.332 -31.957  1.00  0.00     0.116 A 
ATOM     10  H   UNL     1      51.065 -29.749 -29.777  1.00  0.00     0.166 HD
ENDROOT
BRANCH   9  11
ATOM     11  O   UNL     1      45.669 -28.006 -32.457  1.00  0.00    -0.508 OA
ATOM     12  H   UNL     1      45.022 -28.721 -32.771  1.00  0.00     0.293 HD
ENDBRANCH   9  11
TORSDOF 1
ENDMDL
MODEL 2
REMARK VINA RESULT:    -4.136      2.661      4.110
REMARK INTER + INTRA:          -4.256
REMARK INTER:                  -4.256
REMARK INTRA:                   0.000
REMARK UNBOUND:                 0.000
REMARK SMILES Oc1ccc2[nH]ccc2c1
REMARK SMILES IDX 3 1 4 2 5 3 9 4 8 5 7 6 6 7 10 8 2 9 1 11
REMARK H PARENT 6 10 1 12
REMARK Flexibility Score: inf
ROOT
ATOM      1  C   UNL     1      51.345 -28.379 -32.178  1.00  0.00     0.048 A 
ATOM      2  C   UNL     1      50.258 -27.818 -32.873  1.00  0.00     0.030 A 
ATOM      3  C   UNL     1      48.979 -28.026 -32.358  1.00  0.00     0.046 A 
ATOM      4  C   UNL     1      48.773 -28.751 -31.214  1.00  0.00     0.003 A 
ATOM      5  C   UNL     1      47.416 -28.769 -30.978  1.00  0.00     0.028 A 
ATOM      6  C   UNL     1      46.856 -28.036 -32.019  1.00  0.00     0.083 A 
ATOM      7  N   UNL     1      47.815 -27.584 -32.859  1.00  0.00    -0.361 N 
ATOM      8  C   UNL     1      49.827 -29.320 -30.503  1.00  0.00     0.056 A 
ATOM      9  C   UNL     1      51.135 -29.128 -30.996  1.00  0.00     0.116 A 
ATOM     10  H   UNL     1      47.674 -27.008 -33.720  1.00  0.00     0.166 HD
ENDROOT
BRANCH   9  11
ATOM     11  O   UNL     1      52.228 -29.672 -30.328  1.00  0.00    -0.508 OA
ATOM     12  H   UNL     1      52.909 -29.085 -29.861  1.00  0.00     0.293 HD
ENDBRANCH   9  11
TORSDOF 1
ENDMDL
MODEL 3
REMARK VINA RESULT:    -4.092      1.427      2.697
REMARK INTER + INTRA:          -4.211
REMARK INTER:                  -4.211
REMARK INTRA:                   0.000
REMARK UNBOUND:                 0.000
REMARK SMILES Oc1ccc2[nH]ccc2c1
REMARK SMILES IDX 3 1 4 2 5 3 9 4 8 5 7 6 6 7 10 8 2 9 1 11
REMARK H PARENT 6 10 1 12
REMARK Flexibility Score: inf
ROOT
ATOM      1  C   UNL     1      50.232 -27.833 -32.893  1.00  0.00     0.048 A 
ATOM      2  C   UNL     1      51.260 -28.419 -32.132  1.00  0.00     0.030 A 
ATOM      3  C   UNL     1      50.900 -29.119 -30.981  1.00  0.00     0.046 A 
ATOM      4  C   UNL     1      49.592 -29.240 -30.593  1.00  0.00     0.003 A 
ATOM      5  C   UNL     1      49.575 -29.980 -29.431  1.00  0.00     0.028 A 
ATOM      6  C   UNL     1      50.909 -30.276 -29.169  1.00  0.00     0.083 A 
ATOM      7  N   UNL     1      51.714 -29.748 -30.119  1.00  0.00    -0.361 N 
ATOM      8  C   UNL     1      48.551 -28.672 -31.324  1.00  0.00     0.056 A 
ATOM      9  C   UNL     1      48.881 -27.957 -32.495  1.00  0.00     0.116 A 
ATOM     10  H   UNL     1      52.756 -29.818 -30.167  1.00  0.00     0.166 HD
ENDROOT
BRANCH   9  11
ATOM     11  O   UNL     1      47.884 -27.368 -33.266  1.00  0.00    -0.508 OA
ATOM     12  H   UNL     1      48.106 -26.722 -34.015  1.00  0.00     0.293 HD
ENDBRANCH   9  11
TORSDOF 1
ENDMDL
MODEL 4
REMARK VINA RESULT:    -3.994      2.787      3.882
REMARK INTER + INTRA:          -4.111
REMARK INTER:                  -4.111
REMARK INTRA:                   0.000
REMARK UNBOUND:                 0.000
REMARK SMILES Oc1ccc2[nH]ccc2c1
REMARK SMILES IDX 3 1 4 2 5 3 9 4 8 5 7 6 6 7 10 8 2 9 1 11
REMARK H PARENT 6 10 1 12
REMARK Flexibility Score: inf
ROOT
ATOM      1  C   UNL     1      50.628 -26.405 -30.961  1.00  0.00     0.048 A 
ATOM      2  C   UNL     1      49.311 -26.393 -30.466  1.00  0.00     0.030 A 
ATOM      3  C   UNL     1      48.382 -27.241 -31.067  1.00  0.00     0.046 A 
ATOM      4  C   UNL     1      48.726 -28.064 -32.107  1.00  0.00     0.003 A 
ATOM      5  C   UNL     1      47.596 -28.763 -32.470  1.00  0.00     0.028 A 
ATOM      6  C   UNL     1      46.600 -28.316 -31.608  1.00  0.00     0.083 A 
ATOM      7  N   UNL     1      47.085 -27.386 -30.753  1.00  0.00    -0.361 N 
ATOM      8  C   UNL     1      50.021 -28.099 -32.621  1.00  0.00     0.056 A 
ATOM      9  C   UNL     1      50.986 -27.253 -32.034  1.00  0.00     0.116 A 
ATOM     10  H   UNL     1      46.555 -26.887 -30.004  1.00  0.00     0.166 HD
ENDROOT
BRANCH   9  11
ATOM     11  O   UNL     1      52.296 -27.245 -32.505  1.00  0.00    -0.508 OA
ATOM     12  H   UNL     1      52.713 -28.069 -32.921  1.00  0.00     0.293 HD
ENDBRANCH   9  11
TORSDOF 1
ENDMDL
MODEL 5
REMARK VINA RESULT:    -3.947     13.364     14.127
REMARK INTER + INTRA:          -4.063
REMARK INTER:                  -4.063
REMARK INTRA:                   0.000
REMARK UNBOUND:                 0.000
REMARK SMILES Oc1ccc2[nH]ccc2c1
REMARK SMILES IDX 3 1 4 2 5 3 9 4 8 5 7 6 6 7 10 8 2 9 1 11
REMARK H PARENT 6 10 1 12
REMARK Flexibility Score: inf
ROOT
ATOM      1  C   UNL     1      55.785 -41.209 -29.259  1.00  0.00     0.048 A 
ATOM      2  C   UNL     1      56.298 -40.373 -30.268  1.00  0.00     0.030 A 
ATOM      3  C   UNL     1      55.580 -40.276 -31.460  1.00  0.00     0.046 A 
ATOM      4  C   UNL     1      54.413 -40.966 -31.656  1.00  0.00     0.003 A 
ATOM      5  C   UNL     1      53.960 -40.657 -32.919  1.00  0.00     0.028 A 
ATOM      6  C   UNL     1      54.900 -39.773 -33.437  1.00  0.00     0.083 A 
ATOM      7  N   UNL     1      55.888 -39.543 -32.542  1.00  0.00    -0.361 N 
ATOM      8  C   UNL     1      53.879 -41.802 -30.677  1.00  0.00     0.056 A 
ATOM      9  C   UNL     1      54.580 -41.922 -29.458  1.00  0.00     0.116 A 
ATOM     10  H   UNL     1      56.719 -38.922 -32.670  1.00  0.00     0.166 HD
ENDROOT
BRANCH   9  11
ATOM     11  O   UNL     1      54.095 -42.742 -28.443  1.00  0.00    -0.508 OA
ATOM     12  H   UNL     1      54.527 -42.760 -27.527  1.00  0.00     0.293 HD
ENDBRANCH   9  11
TORSDOF 1
ENDMDL
MODEL 6
REMARK VINA RESULT:    -3.939      1.420      2.162
REMARK INTER + INTRA:          -4.054
REMARK INTER:                  -4.054
REMARK INTRA:                   0.000
REMARK UNBOUND:                 0.000
REMARK SMILES Oc1ccc2[nH]ccc2c1
REMARK SMILES IDX 3 1 4 2 5 3 9 4 8 5 7 6 6 7 10 8 2 9 1 11
REMARK H PARENT 6 10 1 12
REMARK Flexibility Score: inf
ROOT
ATOM      1  C   UNL     1      47.381 -28.562 -32.120  1.00  0.00     0.048 A 
ATOM      2  C   UNL     1      48.433 -27.997 -32.863  1.00  0.00     0.030 A 
ATOM      3  C   UNL     1      49.723 -28.091 -32.340  1.00  0.00     0.046 A 
ATOM      4  C   UNL     1      49.971 -28.709 -31.144  1.00  0.00     0.003 A 
ATOM      5  C   UNL     1      51.327 -28.632 -30.915  1.00  0.00     0.028 A 
ATOM      6  C   UNL     1      51.843 -27.952 -32.013  1.00  0.00     0.083 A 
ATOM      7  N   UNL     1      50.859 -27.624 -32.882  1.00  0.00    -0.361 N 
ATOM      8  C   UNL     1      48.951 -29.279 -30.384  1.00  0.00     0.056 A 
ATOM      9  C   UNL     1      47.634 -29.202 -30.884  1.00  0.00     0.116 A 
ATOM     10  H   UNL     1      50.966 -27.112 -33.786  1.00  0.00     0.166 HD
ENDROOT
BRANCH   9  11
ATOM     11  O   UNL     1      46.575 -29.753 -30.169  1.00  0.00    -0.508 OA
ATOM     12  H   UNL     1      45.700 -29.255 -30.053  1.00  0.00     0.293 HD
ENDBRANCH   9  11
TORSDOF 1
ENDMDL
MODEL 7
REMARK VINA RESULT:    -3.932     13.357     13.810
REMARK INTER + INTRA:          -4.047
REMARK INTER:                  -4.047
REMARK INTRA:                   0.000
REMARK UNBOUND:                 0.000
REMARK SMILES Oc1ccc2[nH]ccc2c1
REMARK SMILES IDX 3 1 4 2 5 3 9 4 8 5 7 6 6 7 10 8 2 9 1 11
REMARK H PARENT 6 10 1 12
REMARK Flexibility Score: inf
ROOT
ATOM      1  C   UNL     1      55.893 -40.449 -31.675  1.00  0.00     0.048 A 
ATOM      2  C   UNL     1      55.380 -40.835 -30.423  1.00  0.00     0.030 A 
ATOM      3  C   UNL     1      54.021 -41.137 -30.340  1.00  0.00     0.046 A 
ATOM      4  C   UNL     1      53.201 -41.065 -31.434  1.00  0.00     0.003 A 
ATOM      5  C   UNL     1      51.935 -41.421 -31.023  1.00  0.00     0.028 A 
ATOM      6  C   UNL     1      52.058 -41.697 -29.665  1.00  0.00     0.083 A 
ATOM      7  N   UNL     1      53.335 -41.522 -29.253  1.00  0.00    -0.361 N 
ATOM      8  C   UNL     1      53.677 -40.687 -32.688  1.00  0.00     0.056 A 
ATOM      9  C   UNL     1      55.047 -40.374 -32.807  1.00  0.00     0.116 A 
ATOM     10  H   UNL     1      53.705 -41.660 -28.286  1.00  0.00     0.166 HD
ENDROOT
BRANCH   9  11
ATOM     11  O   UNL     1      55.580 -39.990 -34.034  1.00  0.00    -0.508 OA
ATOM     12  H   UNL     1      55.307 -39.122 -34.480  1.00  0.00     0.293 HD
ENDBRANCH   9  11
TORSDOF 1
ENDMDL
MODEL 8
REMARK VINA RESULT:    -3.922      0.851      2.342
REMARK INTER + INTRA:          -4.037
REMARK INTER:                  -4.037
REMARK INTRA:                   0.000
REMARK UNBOUND:                 0.000
REMARK SMILES Oc1ccc2[nH]ccc2c1
REMARK SMILES IDX 3 1 4 2 5 3 9 4 8 5 7 6 6 7 10 8 2 9 1 11
REMARK H PARENT 6 10 1 12
REMARK Flexibility Score: inf
ROOT
ATOM      1  C   UNL     1      48.051 -27.885 -32.511  1.00  0.00     0.048 A 
ATOM      2  C   UNL     1      49.309 -28.226 -31.981  1.00  0.00     0.030 A 
ATOM      3  C   UNL     1      49.340 -29.057 -30.862  1.00  0.00     0.046 A 
ATOM      4  C   UNL     1      48.192 -29.532 -30.286  1.00  0.00     0.003 A 
ATOM      5  C   UNL     1      48.562 -30.313 -29.214  1.00  0.00     0.028 A 
ATOM      6  C   UNL     1      49.952 -30.270 -29.195  1.00  0.00     0.083 A 
ATOM      7  N   UNL     1      50.423 -29.501 -30.204  1.00  0.00    -0.361 N 
ATOM      8  C   UNL     1      46.931 -29.212 -30.786  1.00  0.00     0.056 A 
ATOM      9  C   UNL     1      46.863 -28.374 -31.919  1.00  0.00     0.116 A 
ATOM     10  H   UNL     1      51.424 -29.298 -30.422  1.00  0.00     0.166 HD
ENDROOT
BRANCH   9  11
ATOM     11  O   UNL     1      45.632 -28.021 -32.463  1.00  0.00    -0.508 OA
ATOM     12  H   UNL     1      45.010 -27.376 -31.989  1.00  0.00     0.293 HD
ENDBRANCH   9  11
TORSDOF 1
ENDMDL
MODEL 9
REMARK VINA RESULT:    -3.896      3.082      4.070
REMARK INTER + INTRA:          -4.010
REMARK INTER:                  -4.010
REMARK INTRA:                   0.000
REMARK UNBOUND:                 0.000
REMARK SMILES Oc1ccc2[nH]ccc2c1
REMARK SMILES IDX 3 1 4 2 5 3 9 4 8 5 7 6 6 7 10 8 2 9 1 11
REMARK H PARENT 6 10 1 12
REMARK Flexibility Score: inf
ROOT
ATOM      1  C   UNL     1      49.945 -27.990 -32.992  1.00  0.00     0.048 A 
ATOM      2  C   UNL     1      48.578 -27.906 -32.666  1.00  0.00     0.030 A 
ATOM      3  C   UNL     1      48.224 -27.178 -31.531  1.00  0.00     0.046 A 
ATOM      4  C   UNL     1      49.163 -26.561 -30.749  1.00  0.00     0.003 A 
ATOM      5  C   UNL     1      48.495 -25.936 -29.720  1.00  0.00     0.028 A 
ATOM      6  C   UNL     1      47.150 -26.214 -29.937  1.00  0.00     0.083 A 
ATOM      7  N   UNL     1      46.989 -26.974 -31.045  1.00  0.00    -0.361 N 
ATOM      8  C   UNL     1      50.524 -26.625 -31.044  1.00  0.00     0.056 A 
ATOM      9  C   UNL     1      50.917 -27.353 -32.187  1.00  0.00     0.116 A 
ATOM     10  H   UNL     1      46.087 -27.326 -31.437  1.00  0.00     0.166 HD
ENDROOT
BRANCH   9  11
ATOM     11  O   UNL     1      52.262 -27.452 -32.531  1.00  0.00    -0.508 OA
ATOM     12  H   UNL     1      52.557 -27.501 -33.500  1.00  0.00     0.293 HD
ENDBRANCH   9  11
TORSDOF 1
ENDMDL
