MODEL 1
REMARK VINA RESULT:    -7.454      0.000      0.000
REMARK INTER + INTRA:         -10.685
REMARK INTER:                 -10.068
REMARK INTRA:                  -0.617
REMARK UNBOUND:                -0.617
REMARK SMILES O=c1c(-c2ccc(O)cc2)coc2c([C@H]3O[C@H](CO)[C@@H](O)[C@H](O)[C@@H]3O)c(O)ccc12
REMARK SMILES IDX 3 1 11 2 12 3 13 4 30 5 2 6 1 7 29 8 28 9 26 10 14 11 4 12
REMARK SMILES IDX 5 13 6 14 7 15 10 16 9 17 8 18 15 20 24 21 16 22 22 23 17 24
REMARK SMILES IDX 20 25 25 26 23 28 18 30 19 31 21 33 27 35
REMARK H PARENT 8 19 25 27 23 29 19 32 21 34 27 36
REMARK Flexibility Score: inf
ROOT
ATOM      1  C   UNL     1      -7.880  65.462   3.194  1.00  0.00     0.065 A 
ATOM      2  C   UNL     1      -8.061  64.569   4.256  1.00  0.00     0.208 A 
ATOM      3  O   UNL     1      -8.862  63.518   4.136  1.00  0.00    -0.463 OA
ATOM      4  C   UNL     1      -9.553  63.247   3.033  1.00  0.00     0.147 A 
ATOM      5  C   UNL     1      -9.468  64.123   1.927  1.00  0.00     0.066 A 
ATOM      6  C   UNL     1      -8.611  65.237   2.012  1.00  0.00     0.200 A 
ATOM      7  O   UNL     1      -8.515  66.040   1.043  1.00  0.00    -0.288 OA
ATOM      8  C   UNL     1     -10.238  63.871   0.786  1.00  0.00     0.020 A 
ATOM      9  C   UNL     1     -11.110  62.788   0.757  1.00  0.00     0.047 A 
ATOM     10  C   UNL     1     -11.198  61.906   1.842  1.00  0.00     0.125 A 
ATOM     11  C   UNL     1     -10.367  62.086   2.974  1.00  0.00     0.069 A 
ENDROOT
BRANCH   1  12
ATOM     12  C   UNL     1      -6.941  66.604   3.338  1.00  0.00    -0.011 A 
ATOM     13  C   UNL     1      -6.233  67.094   2.223  1.00  0.00     0.013 A 
ATOM     14  C   UNL     1      -5.345  68.163   2.364  1.00  0.00     0.047 A 
ATOM     15  C   UNL     1      -5.148  68.755   3.617  1.00  0.00     0.115 A 
ATOM     16  C   UNL     1      -6.753  67.222   4.588  1.00  0.00     0.013 A 
ATOM     17  C   UNL     1      -5.857  68.284   4.727  1.00  0.00     0.047 A 
BRANCH  15  18
ATOM     18  O   UNL     1      -4.251  69.812   3.744  1.00  0.00    -0.508 OA
ATOM     19  H   UNL     1      -3.736  70.171   2.948  1.00  0.00     0.293 HD
ENDBRANCH  15  18
ENDBRANCH   1  12
BRANCH  11  20
ATOM     20  C   UNL     1     -10.366  61.114   4.157  1.00  0.00     0.188 C 
ATOM     21  C   UNL     1      -9.677  59.764   3.882  1.00  0.00     0.179 C 
ATOM     22  O   UNL     1     -11.699  60.907   4.589  1.00  0.00    -0.362 OA
ATOM     23  C   UNL     1      -9.611  58.943   5.178  1.00  0.00     0.177 C 
ATOM     24  C   UNL     1     -11.760  60.267   5.861  1.00  0.00     0.176 C 
ATOM     25  C   UNL     1     -10.985  58.913   5.912  1.00  0.00     0.177 C 
BRANCH  21  26
ATOM     26  O   UNL     1      -8.382  59.973   3.374  1.00  0.00    -0.387 OA
ATOM     27  H   UNL     1      -8.092  60.867   3.689  1.00  0.00     0.211 HD
ENDBRANCH  21  26
BRANCH  23  28
ATOM     28  O   UNL     1      -8.559  59.376   6.011  1.00  0.00    -0.387 OA
ATOM     29  H   UNL     1      -8.585  58.859   6.853  1.00  0.00     0.211 HD
ENDBRANCH  23  28
BRANCH  24  30
ATOM     30  C   UNL     1     -11.465  61.251   7.022  1.00  0.00     0.191 C 
BRANCH  30  31
ATOM     31  O   UNL     1     -10.200  61.010   7.583  1.00  0.00    -0.394 OA
ATOM     32  H   UNL     1     -10.350  60.501   8.425  1.00  0.00     0.210 HD
ENDBRANCH  30  31
ENDBRANCH  24  30
BRANCH  25  33
ATOM     33  O   UNL     1     -11.801  57.925   5.330  1.00  0.00    -0.388 OA
ATOM     34  H   UNL     1     -11.404  57.041   5.572  1.00  0.00     0.211 HD
ENDBRANCH  25  33
ENDBRANCH  11  20
BRANCH  10  35
ATOM     35  O   UNL     1     -12.125  60.867   1.790  1.00  0.00    -0.507 OA
ATOM     36  H   UNL     1     -13.086  61.015   1.507  1.00  0.00     0.293 HD
ENDBRANCH  10  35
TORSDOF 9
ENDMDL
MODEL 2
REMARK VINA RESULT:    -7.366      1.883      8.063
REMARK INTER + INTRA:         -10.566
REMARK INTER:                 -10.240
REMARK INTRA:                  -0.326
REMARK UNBOUND:                -0.617
REMARK SMILES O=c1c(-c2ccc(O)cc2)coc2c([C@H]3O[C@H](CO)[C@@H](O)[C@H](O)[C@@H]3O)c(O)ccc12
REMARK SMILES IDX 3 1 11 2 12 3 13 4 30 5 2 6 1 7 29 8 28 9 26 10 14 11 4 12
REMARK SMILES IDX 5 13 6 14 7 15 10 16 9 17 8 18 15 20 24 21 16 22 22 23 17 24
REMARK SMILES IDX 20 25 25 26 23 28 18 30 19 31 21 33 27 35
REMARK H PARENT 8 19 25 27 23 29 19 32 21 34 27 36
REMARK Flexibility Score: inf
ROOT
ATOM      1  C   UNL     1      -8.735  62.206   4.100  1.00  0.00     0.065 A 
ATOM      2  C   UNL     1      -7.907  63.069   4.826  1.00  0.00     0.208 A 
ATOM      3  O   UNL     1      -7.671  64.305   4.404  1.00  0.00    -0.463 OA
ATOM      4  C   UNL     1      -8.174  64.802   3.278  1.00  0.00     0.147 A 
ATOM      5  C   UNL     1      -8.983  63.983   2.457  1.00  0.00     0.066 A 
ATOM      6  C   UNL     1      -9.271  62.673   2.885  1.00  0.00     0.200 A 
ATOM      7  O   UNL     1      -9.987  61.916   2.174  1.00  0.00    -0.288 OA
ATOM      8  C   UNL     1      -9.467  64.486   1.244  1.00  0.00     0.020 A 
ATOM      9  C   UNL     1      -9.122  65.769   0.832  1.00  0.00     0.047 A 
ATOM     10  C   UNL     1      -8.329  66.595   1.639  1.00  0.00     0.125 A 
ATOM     11  C   UNL     1      -7.898  66.145   2.911  1.00  0.00     0.069 A 
ENDROOT
BRANCH   1  12
ATOM     12  C   UNL     1      -9.021  60.843   4.619  1.00  0.00    -0.011 A 
ATOM     13  C   UNL     1      -8.664  59.703   3.873  1.00  0.00     0.013 A 
ATOM     14  C   UNL     1      -8.942  58.424   4.361  1.00  0.00     0.047 A 
ATOM     15  C   UNL     1      -9.583  58.265   5.595  1.00  0.00     0.115 A 
ATOM     16  C   UNL     1      -9.644  60.671   5.869  1.00  0.00     0.013 A 
ATOM     17  C   UNL     1      -9.929  59.391   6.349  1.00  0.00     0.047 A 
BRANCH  15  18
ATOM     18  O   UNL     1      -9.863  56.984   6.063  1.00  0.00    -0.508 OA
ATOM     19  H   UNL     1      -9.710  56.162   5.489  1.00  0.00     0.293 HD
ENDBRANCH  15  18
ENDBRANCH   1  12
BRANCH  11  20
ATOM     20  C   UNL     1      -7.092  67.028   3.866  1.00  0.00     0.188 C 
ATOM     21  C   UNL     1      -7.881  67.550   5.082  1.00  0.00     0.179 C 
ATOM     22  O   UNL     1      -6.535  68.110   3.141  1.00  0.00    -0.362 OA
ATOM     23  C   UNL     1      -6.932  68.294   6.035  1.00  0.00     0.177 C 
ATOM     24  C   UNL     1      -5.532  68.798   3.884  1.00  0.00     0.176 C 
ATOM     25  C   UNL     1      -6.031  69.311   5.272  1.00  0.00     0.177 C 
BRANCH  21  26
ATOM     26  O   UNL     1      -8.502  66.481   5.754  1.00  0.00    -0.387 OA
ATOM     27  H   UNL     1      -8.514  66.716   6.717  1.00  0.00     0.211 HD
ENDBRANCH  21  26
BRANCH  23  28
ATOM     28  O   UNL     1      -6.188  67.397   6.828  1.00  0.00    -0.387 OA
ATOM     29  H   UNL     1      -5.279  67.761   6.954  1.00  0.00     0.211 HD
ENDBRANCH  23  28
BRANCH  24  30
ATOM     30  C   UNL     1      -4.187  68.028   3.899  1.00  0.00     0.191 C 
BRANCH  30  31
ATOM     31  O   UNL     1      -3.513  68.161   2.673  1.00  0.00    -0.394 OA
ATOM     32  H   UNL     1      -3.454  69.136   2.481  1.00  0.00     0.210 HD
ENDBRANCH  30  31
ENDBRANCH  24  30
BRANCH  25  33
ATOM     33  O   UNL     1      -6.751  70.501   5.060  1.00  0.00    -0.388 OA
ATOM     34  H   UNL     1      -7.719  70.255   5.034  1.00  0.00     0.211 HD
ENDBRANCH  25  33
ENDBRANCH  11  20
BRANCH  10  35
ATOM     35  O   UNL     1      -7.963  67.851   1.160  1.00  0.00    -0.507 OA
ATOM     36  H   UNL     1      -7.734  68.618   1.780  1.00  0.00     0.293 HD
ENDBRANCH  10  35
TORSDOF 9
ENDMDL
MODEL 3
REMARK VINA RESULT:    -7.305      2.074      3.667
REMARK INTER + INTRA:         -10.484
REMARK INTER:                  -9.444
REMARK INTRA:                  -1.040
REMARK UNBOUND:                -0.617
REMARK SMILES O=c1c(-c2ccc(O)cc2)coc2c([C@H]3O[C@H](CO)[C@@H](O)[C@H](O)[C@@H]3O)c(O)ccc12
REMARK SMILES IDX 3 1 11 2 12 3 13 4 30 5 2 6 1 7 29 8 28 9 26 10 14 11 4 12
REMARK SMILES IDX 5 13 6 14 7 15 10 16 9 17 8 18 15 20 24 21 16 22 22 23 17 24
REMARK SMILES IDX 20 25 25 26 23 28 18 30 19 31 21 33 27 35
REMARK H PARENT 8 19 25 27 23 29 19 32 21 34 27 36
REMARK Flexibility Score: inf
ROOT
ATOM      1  C   UNL     1      -7.818  65.440   5.235  1.00  0.00     0.065 A 
ATOM      2  C   UNL     1      -7.865  64.222   4.547  1.00  0.00     0.208 A 
ATOM      3  O   UNL     1      -8.695  63.257   4.924  1.00  0.00    -0.463 OA
ATOM      4  C   UNL     1      -9.513  63.361   5.967  1.00  0.00     0.147 A 
ATOM      5  C   UNL     1      -9.498  64.539   6.747  1.00  0.00     0.066 A 
ATOM      6  C   UNL     1      -8.645  65.592   6.365  1.00  0.00     0.200 A 
ATOM      7  O   UNL     1      -8.605  66.655   7.043  1.00  0.00    -0.288 OA
ATOM      8  C   UNL     1     -10.317  64.628   7.879  1.00  0.00     0.020 A 
ATOM      9  C   UNL     1     -11.111  63.549   8.253  1.00  0.00     0.047 A 
ATOM     10  C   UNL     1     -11.144  62.379   7.484  1.00  0.00     0.125 A 
ATOM     11  C   UNL     1     -10.392  62.293   6.286  1.00  0.00     0.069 A 
ENDROOT
BRANCH   1  12
ATOM     12  C   UNL     1      -6.915  66.522   4.765  1.00  0.00    -0.011 A 
ATOM     13  C   UNL     1      -7.061  67.067   3.475  1.00  0.00     0.013 A 
ATOM     14  C   UNL     1      -6.205  68.079   3.034  1.00  0.00     0.047 A 
ATOM     15  C   UNL     1      -5.189  68.557   3.871  1.00  0.00     0.115 A 
ATOM     16  C   UNL     1      -5.906  67.026   5.607  1.00  0.00     0.013 A 
ATOM     17  C   UNL     1      -5.045  68.030   5.159  1.00  0.00     0.047 A 
BRANCH  15  18
ATOM     18  O   UNL     1      -4.336  69.557   3.414  1.00  0.00    -0.508 OA
ATOM     19  H   UNL     1      -3.366  69.602   3.704  1.00  0.00     0.293 HD
ENDBRANCH  15  18
ENDBRANCH   1  12
BRANCH  11  20
ATOM     20  C   UNL     1     -10.445  61.070   5.368  1.00  0.00     0.188 C 
ATOM     21  C   UNL     1     -11.763  60.906   4.587  1.00  0.00     0.179 C 
ATOM     22  O   UNL     1     -10.175  59.906   6.128  1.00  0.00    -0.362 OA
ATOM     23  C   UNL     1     -11.637  59.737   3.598  1.00  0.00     0.177 C 
ATOM     24  C   UNL     1      -9.904  58.775   5.304  1.00  0.00     0.176 C 
ATOM     25  C   UNL     1     -11.041  58.469   4.278  1.00  0.00     0.177 C 
BRANCH  21  26
ATOM     26  O   UNL     1     -12.072  62.093   3.899  1.00  0.00    -0.387 OA
ATOM     27  H   UNL     1     -12.904  61.920   3.389  1.00  0.00     0.211 HD
ENDBRANCH  21  26
BRANCH  23  28
ATOM     28  O   UNL     1     -10.930  60.116   2.439  1.00  0.00    -0.387 OA
ATOM     29  H   UNL     1     -11.090  59.443   1.733  1.00  0.00     0.211 HD
ENDBRANCH  23  28
BRANCH  24  30
ATOM     30  C   UNL     1      -8.468  58.809   4.722  1.00  0.00     0.191 C 
BRANCH  30  31
ATOM     31  O   UNL     1      -8.485  58.688   3.323  1.00  0.00    -0.394 OA
ATOM     32  H   UNL     1      -9.401  58.935   3.023  1.00  0.00     0.210 HD
ENDBRANCH  30  31
ENDBRANCH  24  30
BRANCH  25  33
ATOM     33  O   UNL     1     -12.063  57.781   4.958  1.00  0.00    -0.388 OA
ATOM     34  H   UNL     1     -12.325  58.348   5.738  1.00  0.00     0.211 HD
ENDBRANCH  25  33
ENDBRANCH  11  20
BRANCH  10  35
ATOM     35  O   UNL     1     -11.911  61.304   7.928  1.00  0.00    -0.507 OA
ATOM     36  H   UNL     1     -12.836  61.428   8.322  1.00  0.00     0.293 HD
ENDBRANCH  10  35
TORSDOF 9
ENDMDL
MODEL 4
REMARK VINA RESULT:    -7.252      2.119      7.942
REMARK INTER + INTRA:         -10.413
REMARK INTER:                  -9.361
REMARK INTRA:                  -1.052
REMARK UNBOUND:                -0.617
REMARK SMILES O=c1c(-c2ccc(O)cc2)coc2c([C@H]3O[C@H](CO)[C@@H](O)[C@H](O)[C@@H]3O)c(O)ccc12
REMARK SMILES IDX 3 1 11 2 12 3 13 4 30 5 2 6 1 7 29 8 28 9 26 10 14 11 4 12
REMARK SMILES IDX 5 13 6 14 7 15 10 16 9 17 8 18 15 20 24 21 16 22 22 23 17 24
REMARK SMILES IDX 20 25 25 26 23 28 18 30 19 31 21 33 27 35
REMARK H PARENT 8 19 25 27 23 29 19 32 21 34 27 36
REMARK Flexibility Score: inf
ROOT
ATOM      1  C   UNL     1      -9.344  61.890   4.433  1.00  0.00     0.065 A 
ATOM      2  C   UNL     1      -8.771  62.835   5.292  1.00  0.00     0.208 A 
ATOM      3  O   UNL     1      -8.513  64.068   4.876  1.00  0.00    -0.463 OA
ATOM      4  C   UNL     1      -8.755  64.488   3.637  1.00  0.00     0.147 A 
ATOM      5  C   UNL     1      -9.289  63.586   2.690  1.00  0.00     0.066 A 
ATOM      6  C   UNL     1      -9.595  62.275   3.103  1.00  0.00     0.200 A 
ATOM      7  O   UNL     1     -10.069  61.444   2.280  1.00  0.00    -0.288 OA
ATOM      8  C   UNL     1      -9.492  64.009   1.371  1.00  0.00     0.020 A 
ATOM      9  C   UNL     1      -9.133  65.298   0.988  1.00  0.00     0.047 A 
ATOM     10  C   UNL     1      -8.612  66.206   1.919  1.00  0.00     0.125 A 
ATOM     11  C   UNL     1      -8.478  65.833   3.279  1.00  0.00     0.069 A 
ENDROOT
BRANCH   1  12
ATOM     12  C   UNL     1      -9.666  60.530   4.938  1.00  0.00    -0.011 A 
ATOM     13  C   UNL     1     -10.871  60.289   5.626  1.00  0.00     0.013 A 
ATOM     14  C   UNL     1     -11.167  59.010   6.105  1.00  0.00     0.047 A 
ATOM     15  C   UNL     1     -10.266  57.958   5.909  1.00  0.00     0.115 A 
ATOM     16  C   UNL     1      -8.778  59.460   4.725  1.00  0.00     0.013 A 
ATOM     17  C   UNL     1      -9.073  58.185   5.214  1.00  0.00     0.047 A 
BRANCH  15  18
ATOM     18  O   UNL     1     -10.569  56.692   6.401  1.00  0.00    -0.508 OA
ATOM     19  H   UNL     1     -10.464  56.465   7.385  1.00  0.00     0.293 HD
ENDBRANCH  15  18
ENDBRANCH   1  12
BRANCH  11  20
ATOM     20  C   UNL     1      -7.984  66.805   4.353  1.00  0.00     0.188 C 
ATOM     21  C   UNL     1      -9.094  67.609   5.056  1.00  0.00     0.179 C 
ATOM     22  O   UNL     1      -7.027  67.681   3.783  1.00  0.00    -0.362 OA
ATOM     23  C   UNL     1      -8.490  68.431   6.205  1.00  0.00     0.177 C 
ATOM     24  C   UNL     1      -6.302  68.404   4.773  1.00  0.00     0.176 C 
ATOM     25  C   UNL     1      -7.218  69.206   5.751  1.00  0.00     0.177 C 
BRANCH  21  26
ATOM     26  O   UNL     1     -10.085  66.741   5.549  1.00  0.00    -0.387 OA
ATOM     27  H   UNL     1     -10.108  66.862   6.533  1.00  0.00     0.211 HD
ENDBRANCH  21  26
BRANCH  23  28
ATOM     28  O   UNL     1      -8.264  67.635   7.346  1.00  0.00    -0.387 OA
ATOM     29  H   UNL     1      -7.604  68.087   7.925  1.00  0.00     0.211 HD
ENDBRANCH  23  28
BRANCH  24  30
ATOM     30  C   UNL     1      -5.206  67.536   5.443  1.00  0.00     0.191 C 
BRANCH  30  31
ATOM     31  O   UNL     1      -5.621  67.080   6.705  1.00  0.00    -0.394 OA
ATOM     32  H   UNL     1      -4.810  66.738   7.169  1.00  0.00     0.210 HD
ENDBRANCH  30  31
ENDBRANCH  24  30
BRANCH  25  33
ATOM     33  O   UNL     1      -7.603  70.395   5.105  1.00  0.00    -0.388 OA
ATOM     34  H   UNL     1      -6.782  70.774   4.679  1.00  0.00     0.211 HD
ENDBRANCH  25  33
ENDBRANCH  11  20
BRANCH  10  35
ATOM     35  O   UNL     1      -8.216  67.466   1.478  1.00  0.00    -0.507 OA
ATOM     36  H   UNL     1      -7.920  67.636   0.524  1.00  0.00     0.293 HD
ENDBRANCH  10  35
TORSDOF 9
ENDMDL
MODEL 5
REMARK VINA RESULT:    -7.224      2.791      8.535
REMARK INTER + INTRA:         -10.375
REMARK INTER:                  -9.254
REMARK INTRA:                  -1.121
REMARK UNBOUND:                -0.617
REMARK SMILES O=c1c(-c2ccc(O)cc2)coc2c([C@H]3O[C@H](CO)[C@@H](O)[C@H](O)[C@@H]3O)c(O)ccc12
REMARK SMILES IDX 3 1 11 2 12 3 13 4 30 5 2 6 1 7 29 8 28 9 26 10 14 11 4 12
REMARK SMILES IDX 5 13 6 14 7 15 10 16 9 17 8 18 15 20 24 21 16 22 22 23 17 24
REMARK SMILES IDX 20 25 25 26 23 28 18 30 19 31 21 33 27 35
REMARK H PARENT 8 19 25 27 23 29 19 32 21 34 27 36
REMARK Flexibility Score: inf
ROOT
ATOM      1  C   UNL     1      -9.296  62.285   5.242  1.00  0.00     0.065 A 
ATOM      2  C   UNL     1      -8.622  63.260   4.497  1.00  0.00     0.208 A 
ATOM      3  O   UNL     1      -8.477  64.495   4.962  1.00  0.00    -0.463 OA
ATOM      4  C   UNL     1      -8.963  64.898   6.133  1.00  0.00     0.147 A 
ATOM      5  C   UNL     1      -9.699  63.991   6.929  1.00  0.00     0.066 A 
ATOM      6  C   UNL     1      -9.855  62.667   6.476  1.00  0.00     0.200 A 
ATOM      7  O   UNL     1     -10.510  61.834   7.162  1.00  0.00    -0.288 OA
ATOM      8  C   UNL     1     -10.260  64.429   8.134  1.00  0.00     0.020 A 
ATOM      9  C   UNL     1     -10.126  65.757   8.525  1.00  0.00     0.047 A 
ATOM     10  C   UNL     1      -9.392  66.665   7.751  1.00  0.00     0.125 A 
ATOM     11  C   UNL     1      -8.739  66.229   6.572  1.00  0.00     0.069 A 
ENDROOT
BRANCH   1  12
ATOM     12  C   UNL     1      -9.403  60.898   4.720  1.00  0.00    -0.011 A 
ATOM     13  C   UNL     1      -8.752  59.835   5.374  1.00  0.00     0.013 A 
ATOM     14  C   UNL     1      -8.849  58.533   4.877  1.00  0.00     0.047 A 
ATOM     15  C   UNL     1      -9.593  58.275   3.719  1.00  0.00     0.115 A 
ATOM     16  C   UNL     1     -10.168  60.624   3.571  1.00  0.00     0.013 A 
ATOM     17  C   UNL     1     -10.254  59.323   3.070  1.00  0.00     0.047 A 
BRANCH  15  18
ATOM     18  O   UNL     1      -9.671  56.975   3.228  1.00  0.00    -0.508 OA
ATOM     19  H   UNL     1      -9.771  56.786   2.237  1.00  0.00     0.293 HD
ENDBRANCH  15  18
ENDBRANCH   1  12
BRANCH  11  20
ATOM     20  C   UNL     1      -7.864  67.156   5.725  1.00  0.00     0.188 C 
ATOM     21  C   UNL     1      -6.570  67.628   6.415  1.00  0.00     0.179 C 
ATOM     22  O   UNL     1      -8.633  68.270   5.308  1.00  0.00    -0.362 OA
ATOM     23  C   UNL     1      -5.713  68.424   5.419  1.00  0.00     0.177 C 
ATOM     24  C   UNL     1      -7.990  69.014   4.277  1.00  0.00     0.176 C 
ATOM     25  C   UNL     1      -6.555  69.494   4.661  1.00  0.00     0.177 C 
BRANCH  21  26
ATOM     26  O   UNL     1      -5.847  66.524   6.901  1.00  0.00    -0.387 OA
ATOM     27  H   UNL     1      -6.196  66.330   7.809  1.00  0.00     0.211 HD
ENDBRANCH  21  26
BRANCH  23  28
ATOM     28  O   UNL     1      -5.006  67.571   4.548  1.00  0.00    -0.387 OA
ATOM     29  H   UNL     1      -5.626  66.886   4.200  1.00  0.00     0.211 HD
ENDBRANCH  23  28
BRANCH  24  30
ATOM     30  C   UNL     1      -8.119  68.323   2.895  1.00  0.00     0.191 C 
BRANCH  30  31
ATOM     31  O   UNL     1      -6.866  68.202   2.271  1.00  0.00    -0.394 OA
ATOM     32  H   UNL     1      -6.984  67.577   1.505  1.00  0.00     0.210 HD
ENDBRANCH  30  31
ENDBRANCH  24  30
BRANCH  25  33
ATOM     33  O   UNL     1      -6.683  70.641   5.466  1.00  0.00    -0.388 OA
ATOM     34  H   UNL     1      -6.350  71.413   4.926  1.00  0.00     0.211 HD
ENDBRANCH  25  33
ENDBRANCH  11  20
BRANCH  10  35
ATOM     35  O   UNL     1      -9.331  67.997   8.154  1.00  0.00    -0.507 OA
ATOM     36  H   UNL     1     -10.156  68.581   8.212  1.00  0.00     0.293 HD
ENDBRANCH  10  35
TORSDOF 9
ENDMDL
MODEL 6
REMARK VINA RESULT:    -7.076      2.192      8.291
REMARK INTER + INTRA:         -10.174
REMARK INTER:                  -9.995
REMARK INTRA:                  -0.179
REMARK UNBOUND:                -0.617
REMARK SMILES O=c1c(-c2ccc(O)cc2)coc2c([C@H]3O[C@H](CO)[C@@H](O)[C@H](O)[C@@H]3O)c(O)ccc12
REMARK SMILES IDX 3 1 11 2 12 3 13 4 30 5 2 6 1 7 29 8 28 9 26 10 14 11 4 12
REMARK SMILES IDX 5 13 6 14 7 15 10 16 9 17 8 18 15 20 24 21 16 22 22 23 17 24
REMARK SMILES IDX 20 25 25 26 23 28 18 30 19 31 21 33 27 35
REMARK H PARENT 8 19 25 27 23 29 19 32 21 34 27 36
REMARK Flexibility Score: inf
ROOT
ATOM      1  C   UNL     1      -9.544  61.464   3.888  1.00  0.00     0.065 A 
ATOM      2  C   UNL     1      -9.144  62.471   3.002  1.00  0.00     0.208 A 
ATOM      3  O   UNL     1      -8.906  63.704   3.432  1.00  0.00    -0.463 OA
ATOM      4  C   UNL     1      -9.043  64.075   4.702  1.00  0.00     0.147 A 
ATOM      5  C   UNL     1      -9.490  63.134   5.657  1.00  0.00     0.066 A 
ATOM      6  C   UNL     1      -9.731  61.811   5.240  1.00  0.00     0.200 A 
ATOM      7  O   UNL     1     -10.134  60.948   6.067  1.00  0.00    -0.288 OA
ATOM      8  C   UNL     1      -9.689  63.537   6.982  1.00  0.00     0.020 A 
ATOM      9  C   UNL     1      -9.487  64.864   7.347  1.00  0.00     0.047 A 
ATOM     10  C   UNL     1      -9.035  65.806   6.413  1.00  0.00     0.125 A 
ATOM     11  C   UNL     1      -8.740  65.407   5.086  1.00  0.00     0.069 A 
ENDROOT
BRANCH   1  12
ATOM     12  C   UNL     1      -9.757  60.081   3.390  1.00  0.00    -0.011 A 
ATOM     13  C   UNL     1     -11.024  59.674   2.926  1.00  0.00     0.013 A 
ATOM     14  C   UNL     1     -11.222  58.370   2.465  1.00  0.00     0.047 A 
ATOM     15  C   UNL     1     -10.164  57.455   2.464  1.00  0.00     0.115 A 
ATOM     16  C   UNL     1      -8.694  59.159   3.362  1.00  0.00     0.013 A 
ATOM     17  C   UNL     1      -8.899  57.853   2.910  1.00  0.00     0.047 A 
BRANCH  15  18
ATOM     18  O   UNL     1     -10.379  56.156   2.013  1.00  0.00    -0.508 OA
ATOM     19  H   UNL     1     -10.174  55.350   2.594  1.00  0.00     0.293 HD
ENDBRANCH  15  18
ENDBRANCH   1  12
BRANCH  11  20
ATOM     20  C   UNL     1      -8.175  66.375   4.043  1.00  0.00     0.188 C 
ATOM     21  C   UNL     1      -8.735  66.188   2.620  1.00  0.00     0.179 C 
ATOM     22  O   UNL     1      -6.762  66.274   4.033  1.00  0.00    -0.362 OA
ATOM     23  C   UNL     1      -8.208  67.304   1.706  1.00  0.00     0.177 C 
ATOM     24  C   UNL     1      -6.151  67.346   3.320  1.00  0.00     0.176 C 
ATOM     25  C   UNL     1      -6.668  67.491   1.854  1.00  0.00     0.177 C 
BRANCH  21  26
ATOM     26  O   UNL     1     -10.141  66.206   2.645  1.00  0.00    -0.387 OA
ATOM     27  H   UNL     1     -10.413  67.136   2.851  1.00  0.00     0.211 HD
ENDBRANCH  21  26
BRANCH  23  28
ATOM     28  O   UNL     1      -8.921  68.505   1.892  1.00  0.00    -0.387 OA
ATOM     29  H   UNL     1      -9.686  68.522   1.267  1.00  0.00     0.211 HD
ENDBRANCH  23  28
BRANCH  24  30
ATOM     30  C   UNL     1      -6.119  68.654   4.152  1.00  0.00     0.191 C 
BRANCH  30  31
ATOM     31  O   UNL     1      -5.117  69.524   3.689  1.00  0.00    -0.394 OA
ATOM     32  H   UNL     1      -4.531  68.993   3.084  1.00  0.00     0.210 HD
ENDBRANCH  30  31
ENDBRANCH  24  30
BRANCH  25  33
ATOM     33  O   UNL     1      -6.005  66.533   1.065  1.00  0.00    -0.388 OA
ATOM     34  H   UNL     1      -6.208  66.752   0.111  1.00  0.00     0.211 HD
ENDBRANCH  25  33
ENDBRANCH  11  20
BRANCH  10  35
ATOM     35  O   UNL     1      -8.899  67.134   6.811  1.00  0.00    -0.507 OA
ATOM     36  H   UNL     1      -7.994  67.559   6.970  1.00  0.00     0.293 HD
ENDBRANCH  10  35
TORSDOF 9
ENDMDL
MODEL 7
REMARK VINA RESULT:    -7.033      3.165      7.602
REMARK INTER + INTRA:         -10.117
REMARK INTER:                  -9.653
REMARK INTRA:                  -0.463
REMARK UNBOUND:                -0.617
REMARK SMILES O=c1c(-c2ccc(O)cc2)coc2c([C@H]3O[C@H](CO)[C@@H](O)[C@H](O)[C@@H]3O)c(O)ccc12
REMARK SMILES IDX 3 1 11 2 12 3 13 4 30 5 2 6 1 7 29 8 28 9 26 10 14 11 4 12
REMARK SMILES IDX 5 13 6 14 7 15 10 16 9 17 8 18 15 20 24 21 16 22 22 23 17 24
REMARK SMILES IDX 20 25 25 26 23 28 18 30 19 31 21 33 27 35
REMARK H PARENT 8 19 25 27 23 29 19 32 21 34 27 36
REMARK Flexibility Score: inf
ROOT
ATOM      1  C   UNL     1      -8.846  62.908   3.749  1.00  0.00     0.065 A 
ATOM      2  C   UNL     1      -8.984  63.465   5.025  1.00  0.00     0.208 A 
ATOM      3  O   UNL     1      -8.608  64.714   5.268  1.00  0.00    -0.463 OA
ATOM      4  C   UNL     1      -8.069  65.509   4.348  1.00  0.00     0.147 A 
ATOM      5  C   UNL     1      -7.849  65.012   3.044  1.00  0.00     0.066 A 
ATOM      6  C   UNL     1      -8.255  63.697   2.744  1.00  0.00     0.200 A 
ATOM      7  O   UNL     1      -8.069  63.223   1.590  1.00  0.00    -0.288 OA
ATOM      8  C   UNL     1      -7.230  65.827   2.090  1.00  0.00     0.020 A 
ATOM      9  C   UNL     1      -6.799  67.104   2.436  1.00  0.00     0.047 A 
ATOM     10  C   UNL     1      -7.018  67.613   3.722  1.00  0.00     0.125 A 
ATOM     11  C   UNL     1      -7.721  66.844   4.682  1.00  0.00     0.069 A 
ENDROOT
BRANCH   1  12
ATOM     12  C   UNL     1      -9.319  61.523   3.490  1.00  0.00    -0.011 A 
ATOM     13  C   UNL     1      -8.479  60.421   3.745  1.00  0.00     0.013 A 
ATOM     14  C   UNL     1      -8.924  59.121   3.493  1.00  0.00     0.047 A 
ATOM     15  C   UNL     1     -10.208  58.902   2.982  1.00  0.00     0.115 A 
ATOM     16  C   UNL     1     -10.617  61.290   2.999  1.00  0.00     0.013 A 
ATOM     17  C   UNL     1     -11.054  59.990   2.739  1.00  0.00     0.047 A 
BRANCH  15  18
ATOM     18  O   UNL     1     -10.634  57.602   2.726  1.00  0.00    -0.508 OA
ATOM     19  H   UNL     1     -11.156  57.369   1.888  1.00  0.00     0.293 HD
ENDBRANCH  15  18
ENDBRANCH   1  12
BRANCH  11  20
ATOM     20  C   UNL     1      -8.054  67.375   6.078  1.00  0.00     0.188 C 
ATOM     21  C   UNL     1      -7.198  66.784   7.214  1.00  0.00     0.179 C 
ATOM     22  O   UNL     1      -9.431  67.166   6.339  1.00  0.00    -0.362 OA
ATOM     23  C   UNL     1      -7.524  67.500   8.534  1.00  0.00     0.177 C 
ATOM     24  C   UNL     1      -9.881  67.898   7.475  1.00  0.00     0.176 C 
ATOM     25  C   UNL     1      -9.061  67.602   8.769  1.00  0.00     0.177 C 
BRANCH  21  26
ATOM     26  O   UNL     1      -5.831  66.919   6.914  1.00  0.00    -0.387 OA
ATOM     27  H   UNL     1      -5.400  67.316   7.714  1.00  0.00     0.211 HD
ENDBRANCH  21  26
BRANCH  23  28
ATOM     28  O   UNL     1      -6.876  68.749   8.618  1.00  0.00    -0.387 OA
ATOM     29  H   UNL     1      -6.387  68.799   9.474  1.00  0.00     0.211 HD
ENDBRANCH  23  28
BRANCH  24  30
ATOM     30  C   UNL     1     -10.103  69.398   7.150  1.00  0.00     0.191 C 
BRANCH  30  31
ATOM     31  O   UNL     1     -11.267  69.884   7.768  1.00  0.00    -0.394 OA
ATOM     32  H   UNL     1     -12.017  69.303   7.468  1.00  0.00     0.210 HD
ENDBRANCH  30  31
ENDBRANCH  24  30
BRANCH  25  33
ATOM     33  O   UNL     1      -9.530  66.392   9.312  1.00  0.00    -0.388 OA
ATOM     34  H   UNL     1      -9.644  66.539  10.294  1.00  0.00     0.211 HD
ENDBRANCH  25  33
ENDBRANCH  11  20
BRANCH  10  35
ATOM     35  O   UNL     1      -6.521  68.875   4.039  1.00  0.00    -0.507 OA
ATOM     36  H   UNL     1      -7.036  69.529   4.615  1.00  0.00     0.293 HD
ENDBRANCH  10  35
TORSDOF 9
ENDMDL
MODEL 8
REMARK VINA RESULT:    -6.849      2.089      3.499
REMARK INTER + INTRA:          -9.868
REMARK INTER:                  -9.345
REMARK INTRA:                  -0.522
REMARK UNBOUND:                -0.617
REMARK SMILES O=c1c(-c2ccc(O)cc2)coc2c([C@H]3O[C@H](CO)[C@@H](O)[C@H](O)[C@@H]3O)c(O)ccc12
REMARK SMILES IDX 3 1 11 2 12 3 13 4 30 5 2 6 1 7 29 8 28 9 26 10 14 11 4 12
REMARK SMILES IDX 5 13 6 14 7 15 10 16 9 17 8 18 15 20 24 21 16 22 22 23 17 24
REMARK SMILES IDX 20 25 25 26 23 28 18 30 19 31 21 33 27 35
REMARK H PARENT 8 19 25 27 23 29 19 32 21 34 27 36
REMARK Flexibility Score: inf
ROOT
ATOM      1  C   UNL     1      -7.811  65.360   5.034  1.00  0.00     0.065 A 
ATOM      2  C   UNL     1      -7.682  64.080   4.484  1.00  0.00     0.208 A 
ATOM      3  O   UNL     1      -8.517  63.105   4.821  1.00  0.00    -0.463 OA
ATOM      4  C   UNL     1      -9.503  63.257   5.700  1.00  0.00     0.147 A 
ATOM      5  C   UNL     1      -9.676  64.505   6.341  1.00  0.00     0.066 A 
ATOM      6  C   UNL     1      -8.822  65.568   5.991  1.00  0.00     0.200 A 
ATOM      7  O   UNL     1      -8.948  66.694   6.548  1.00  0.00    -0.288 OA
ATOM      8  C   UNL     1     -10.677  64.652   7.308  1.00  0.00     0.020 A 
ATOM      9  C   UNL     1     -11.471  63.565   7.662  1.00  0.00     0.047 A 
ATOM     10  C   UNL     1     -11.317  62.325   7.029  1.00  0.00     0.125 A 
ATOM     11  C   UNL     1     -10.372  62.172   5.985  1.00  0.00     0.069 A 
ENDROOT
BRANCH   1  12
ATOM     12  C   UNL     1      -6.893  66.447   4.604  1.00  0.00    -0.011 A 
ATOM     13  C   UNL     1      -6.953  66.957   3.292  1.00  0.00     0.013 A 
ATOM     14  C   UNL     1      -6.084  67.974   2.889  1.00  0.00     0.047 A 
ATOM     15  C   UNL     1      -5.142  68.492   3.785  1.00  0.00     0.115 A 
ATOM     16  C   UNL     1      -5.959  66.992   5.504  1.00  0.00     0.013 A 
ATOM     17  C   UNL     1      -5.084  68.001   5.094  1.00  0.00     0.047 A 
BRANCH  15  18
ATOM     18  O   UNL     1      -4.275  69.496   3.366  1.00  0.00    -0.508 OA
ATOM     19  H   UNL     1      -4.597  70.278   2.806  1.00  0.00     0.293 HD
ENDBRANCH  15  18
ENDBRANCH   1  12
BRANCH  11  20
ATOM     20  C   UNL     1     -10.210  60.863   5.208  1.00  0.00     0.188 C 
ATOM     21  C   UNL     1      -9.044  59.973   5.679  1.00  0.00     0.179 C 
ATOM     22  O   UNL     1     -10.080  61.155   3.828  1.00  0.00    -0.362 OA
ATOM     23  C   UNL     1      -9.079  58.634   4.926  1.00  0.00     0.177 C 
ATOM     24  C   UNL     1     -10.232  59.995   3.014  1.00  0.00     0.176 C 
ATOM     25  C   UNL     1      -9.252  58.840   3.392  1.00  0.00     0.177 C 
BRANCH  21  26
ATOM     26  O   UNL     1      -9.130  59.752   7.065  1.00  0.00    -0.387 OA
ATOM     27  H   UNL     1      -8.294  59.292   7.334  1.00  0.00     0.211 HD
ENDBRANCH  21  26
BRANCH  23  28
ATOM     28  O   UNL     1     -10.043  57.760   5.470  1.00  0.00    -0.387 OA
ATOM     29  H   UNL     1     -10.085  57.900   6.447  1.00  0.00     0.211 HD
ENDBRANCH  23  28
BRANCH  24  30
ATOM     30  C   UNL     1     -11.719  59.587   2.856  1.00  0.00     0.191 C 
BRANCH  30  31
ATOM     31  O   UNL     1     -11.881  58.198   2.989  1.00  0.00    -0.394 OA
ATOM     32  H   UNL     1     -10.983  57.789   2.857  1.00  0.00     0.210 HD
ENDBRANCH  30  31
ENDBRANCH  24  30
BRANCH  25  33
ATOM     33  O   UNL     1      -8.001  59.129   2.817  1.00  0.00    -0.388 OA
ATOM     34  H   UNL     1      -7.471  58.282   2.834  1.00  0.00     0.211 HD
ENDBRANCH  25  33
ENDBRANCH  11  20
BRANCH  10  35
ATOM     35  O   UNL     1     -12.097  61.252   7.454  1.00  0.00    -0.507 OA
ATOM     36  H   UNL     1     -12.630  61.280   8.315  1.00  0.00     0.293 HD
ENDBRANCH  10  35
TORSDOF 9
ENDMDL
MODEL 9
REMARK VINA RESULT:    -6.789      2.155      7.653
REMARK INTER + INTRA:          -9.787
REMARK INTER:                  -9.452
REMARK INTRA:                  -0.335
REMARK UNBOUND:                -0.617
REMARK SMILES O=c1c(-c2ccc(O)cc2)coc2c([C@H]3O[C@H](CO)[C@@H](O)[C@H](O)[C@@H]3O)c(O)ccc12
REMARK SMILES IDX 3 1 11 2 12 3 13 4 30 5 2 6 1 7 29 8 28 9 26 10 14 11 4 12
REMARK SMILES IDX 5 13 6 14 7 15 10 16 9 17 8 18 15 20 24 21 16 22 22 23 17 24
REMARK SMILES IDX 20 25 25 26 23 28 18 30 19 31 21 33 27 35
REMARK H PARENT 8 19 25 27 23 29 19 32 21 34 27 36
REMARK Flexibility Score: inf
ROOT
ATOM      1  C   UNL     1      -9.353  61.989   4.416  1.00  0.00     0.065 A 
ATOM      2  C   UNL     1      -8.762  62.946   5.249  1.00  0.00     0.208 A 
ATOM      3  O   UNL     1      -8.524  64.177   4.814  1.00  0.00    -0.463 OA
ATOM      4  C   UNL     1      -8.804  64.583   3.579  1.00  0.00     0.147 A 
ATOM      5  C   UNL     1      -9.359  63.668   2.655  1.00  0.00     0.066 A 
ATOM      6  C   UNL     1      -9.644  62.360   3.089  1.00  0.00     0.200 A 
ATOM      7  O   UNL     1     -10.136  61.518   2.288  1.00  0.00    -0.288 OA
ATOM      8  C   UNL     1      -9.601  64.077   1.339  1.00  0.00     0.020 A 
ATOM      9  C   UNL     1      -9.262  65.364   0.934  1.00  0.00     0.047 A 
ATOM     10  C   UNL     1      -8.720  66.285   1.840  1.00  0.00     0.125 A 
ATOM     11  C   UNL     1      -8.546  65.926   3.200  1.00  0.00     0.069 A 
ENDROOT
BRANCH   1  12
ATOM     12  C   UNL     1      -9.652  60.632   4.942  1.00  0.00    -0.011 A 
ATOM     13  C   UNL     1      -8.744  59.573   4.750  1.00  0.00     0.013 A 
ATOM     14  C   UNL     1      -9.033  58.297   5.240  1.00  0.00     0.047 A 
ATOM     15  C   UNL     1     -10.231  58.059   5.923  1.00  0.00     0.115 A 
ATOM     16  C   UNL     1     -10.843  60.388   5.652  1.00  0.00     0.013 A 
ATOM     17  C   UNL     1     -11.133  59.108   6.131  1.00  0.00     0.047 A 
BRANCH  15  18
ATOM     18  O   UNL     1     -10.510  56.780   6.396  1.00  0.00    -0.508 OA
ATOM     19  H   UNL     1     -10.211  55.951   5.894  1.00  0.00     0.293 HD
ENDBRANCH  15  18
ENDBRANCH   1  12
BRANCH  11  20
ATOM     20  C   UNL     1      -8.028  66.911   4.250  1.00  0.00     0.188 C 
ATOM     21  C   UNL     1      -6.493  66.999   4.350  1.00  0.00     0.179 C 
ATOM     22  O   UNL     1      -8.585  66.583   5.511  1.00  0.00    -0.362 OA
ATOM     23  C   UNL     1      -6.101  68.120   5.325  1.00  0.00     0.177 C 
ATOM     24  C   UNL     1      -8.399  67.621   6.469  1.00  0.00     0.176 C 
ATOM     25  C   UNL     1      -6.905  68.032   6.657  1.00  0.00     0.177 C 
BRANCH  21  26
ATOM     26  O   UNL     1      -5.936  67.244   3.082  1.00  0.00    -0.387 OA
ATOM     27  H   UNL     1      -6.561  67.848   2.606  1.00  0.00     0.211 HD
ENDBRANCH  21  26
BRANCH  23  28
ATOM     28  O   UNL     1      -6.192  69.389   4.718  1.00  0.00    -0.387 OA
ATOM     29  H   UNL     1      -5.566  70.005   5.169  1.00  0.00     0.211 HD
ENDBRANCH  23  28
BRANCH  24  30
ATOM     30  C   UNL     1      -9.394  68.792   6.259  1.00  0.00     0.191 C 
BRANCH  30  31
ATOM     31  O   UNL     1     -10.724  68.351   6.368  1.00  0.00    -0.394 OA
ATOM     32  H   UNL     1     -11.278  69.153   6.570  1.00  0.00     0.210 HD
ENDBRANCH  30  31
ENDBRANCH  24  30
BRANCH  25  33
ATOM     33  O   UNL     1      -6.299  67.085   7.504  1.00  0.00    -0.388 OA
ATOM     34  H   UNL     1      -5.710  67.593   8.132  1.00  0.00     0.211 HD
ENDBRANCH  25  33
ENDBRANCH  11  20
BRANCH  10  35
ATOM     35  O   UNL     1      -8.345  67.544   1.377  1.00  0.00    -0.507 OA
ATOM     36  H   UNL     1      -9.025  68.254   1.134  1.00  0.00     0.293 HD
ENDBRANCH  10  35
TORSDOF 9
ENDMDL
