MODEL 1
REMARK VINA RESULT:    -4.729      0.000      0.000
REMARK INTER + INTRA:          -9.448
REMARK INTER:                  -8.600
REMARK INTRA:                  -0.848
REMARK UNBOUND:                -0.848
REMARK SMILES CCCCCCCCCCCCCC[C@H](C)C(=O)[O-]
REMARK SMILES IDX 9 1 10 2 11 3 12 4 13 5 14 6 15 7 16 8 17 9 18 10 19 11 8 12
REMARK SMILES IDX 7 13 6 14 5 15 4 16 3 17 2 18 1 19
REMARK H PARENT
REMARK Flexibility Score: inf
ROOT
ATOM      1  C   UNL     1      -6.685 -40.591 -13.524  1.00  0.00     0.000 C 
ENDROOT
BRANCH   1   2
ATOM      2  C   UNL     1      -6.734 -39.826 -12.195  1.00  0.00     0.000 C 
BRANCH   2   3
ATOM      3  C   UNL     1      -6.724 -40.792 -11.004  1.00  0.00     0.000 C 
BRANCH   3   4
ATOM      4  C   UNL     1      -6.228 -40.093  -9.732  1.00  0.00     0.000 C 
BRANCH   4   5
ATOM      5  C   UNL     1      -5.416 -38.835 -10.077  1.00  0.00     0.001 C 
BRANCH   5   6
ATOM      6  C   UNL     1      -5.883 -37.586  -9.306  1.00  0.00     0.009 C 
BRANCH   6   7
ATOM      7  C   UNL     1      -5.196 -36.264  -9.724  1.00  0.00     0.032 C 
ATOM      8  C   UNL     1      -4.122 -35.820  -8.722  1.00  0.00     0.014 C 
BRANCH   7   9
ATOM      9  C   UNL     1      -6.235 -35.185  -9.863  1.00  0.00     0.044 C 
ATOM     10  O   UNL     1      -7.408 -35.478 -10.216  1.00  0.00    -0.550 OA
ATOM     11  O   UNL     1      -5.913 -33.860  -9.591  1.00  0.00    -0.550 OA
ENDBRANCH   7   9
ENDBRANCH   6   7
ENDBRANCH   5   6
ENDBRANCH   4   5
ENDBRANCH   3   4
ENDBRANCH   2   3
ENDBRANCH   1   2
BRANCH   1  12
ATOM     12  C   UNL     1      -7.589 -39.926 -14.574  1.00  0.00     0.000 C 
BRANCH  12  13
ATOM     13  C   UNL     1      -7.045 -40.071 -16.005  1.00  0.00    -0.000 C 
BRANCH  13  14
ATOM     14  C   UNL     1      -7.607 -39.006 -16.961  1.00  0.00    -0.000 C 
BRANCH  14  15
ATOM     15  C   UNL     1      -8.524 -37.997 -16.249  1.00  0.00    -0.000 C 
BRANCH  15  16
ATOM     16  C   UNL     1      -9.386 -37.183 -17.225  1.00  0.00    -0.000 C 
BRANCH  16  17
ATOM     17  C   UNL     1      -8.551 -36.705 -18.423  1.00  0.00    -0.000 C 
BRANCH  17  18
ATOM     18  C   UNL     1      -9.362 -36.662 -19.728  1.00  0.00    -0.003 C 
ATOM     19  C   UNL     1      -9.268 -37.963 -20.526  1.00  0.00     0.004 C 
ENDBRANCH  17  18
ENDBRANCH  16  17
ENDBRANCH  15  16
ENDBRANCH  14  15
ENDBRANCH  13  14
ENDBRANCH  12  13
ENDBRANCH   1  12
TORSDOF 14
ENDMDL
MODEL 2
REMARK VINA RESULT:    -4.689      2.850      7.834
REMARK INTER + INTRA:          -9.374
REMARK INTER:                  -8.285
REMARK INTRA:                  -1.089
REMARK UNBOUND:                -0.848
REMARK SMILES CCCCCCCCCCCCCC[C@H](C)C(=O)[O-]
REMARK SMILES IDX 9 1 10 2 11 3 12 4 13 5 14 6 15 7 16 8 17 9 18 10 19 11 8 12
REMARK SMILES IDX 7 13 6 14 5 15 4 16 3 17 2 18 1 19
REMARK H PARENT
REMARK Flexibility Score: inf
ROOT
ATOM      1  C   UNL     1      -7.437 -39.571 -12.370  1.00  0.00     0.000 C 
ENDROOT
BRANCH   1   2
ATOM      2  C   UNL     1      -6.691 -40.491 -13.344  1.00  0.00     0.000 C 
BRANCH   2   3
ATOM      3  C   UNL     1      -7.025 -40.141 -14.799  1.00  0.00     0.000 C 
BRANCH   3   4
ATOM      4  C   UNL     1      -6.264 -41.048 -15.773  1.00  0.00     0.000 C 
BRANCH   4   5
ATOM      5  C   UNL     1      -6.581 -40.680 -17.230  1.00  0.00     0.001 C 
BRANCH   5   6
ATOM      6  C   UNL     1      -7.899 -39.895 -17.380  1.00  0.00     0.009 C 
BRANCH   6   7
ATOM      7  C   UNL     1      -7.874 -38.774 -18.444  1.00  0.00     0.032 C 
ATOM      8  C   UNL     1      -6.515 -38.662 -19.147  1.00  0.00     0.014 C 
BRANCH   7   9
ATOM      9  C   UNL     1      -8.216 -37.461 -17.793  1.00  0.00     0.044 C 
ATOM     10  O   UNL     1      -8.678 -37.438 -16.621  1.00  0.00    -0.550 OA
ATOM     11  O   UNL     1      -8.012 -36.265 -18.472  1.00  0.00    -0.550 OA
ENDBRANCH   7   9
ENDBRANCH   6   7
ENDBRANCH   5   6
ENDBRANCH   4   5
ENDBRANCH   3   4
ENDBRANCH   2   3
ENDBRANCH   1   2
BRANCH   1  12
ATOM     12  C   UNL     1      -7.035 -39.867 -10.917  1.00  0.00     0.000 C 
BRANCH  12  13
ATOM     13  C   UNL     1      -5.619 -39.372 -10.578  1.00  0.00    -0.000 C 
BRANCH  13  14
ATOM     14  C   UNL     1      -5.629 -38.104  -9.708  1.00  0.00    -0.000 C 
BRANCH  14  15
ATOM     15  C   UNL     1      -6.956 -37.913  -8.957  1.00  0.00    -0.000 C 
BRANCH  15  16
ATOM     16  C   UNL     1      -7.311 -36.435  -8.741  1.00  0.00    -0.000 C 
BRANCH  16  17
ATOM     17  C   UNL     1      -7.775 -35.786 -10.054  1.00  0.00    -0.000 C 
BRANCH  17  18
ATOM     18  C   UNL     1      -7.231 -34.360 -10.232  1.00  0.00    -0.003 C 
ATOM     19  C   UNL     1      -6.083 -34.040  -9.273  1.00  0.00     0.004 C 
ENDBRANCH  17  18
ENDBRANCH  16  17
ENDBRANCH  15  16
ENDBRANCH  14  15
ENDBRANCH  13  14
ENDBRANCH  12  13
ENDBRANCH   1  12
TORSDOF 14
ENDMDL
MODEL 3
REMARK VINA RESULT:    -4.671      3.128      7.097
REMARK INTER + INTRA:          -9.342
REMARK INTER:                  -7.730
REMARK INTRA:                  -1.613
REMARK UNBOUND:                -0.848
REMARK SMILES CCCCCCCCCCCCCC[C@H](C)C(=O)[O-]
REMARK SMILES IDX 9 1 10 2 11 3 12 4 13 5 14 6 15 7 16 8 17 9 18 10 19 11 8 12
REMARK SMILES IDX 7 13 6 14 5 15 4 16 3 17 2 18 1 19
REMARK H PARENT
REMARK Flexibility Score: inf
ROOT
ATOM      1  C   UNL     1      -5.560 -39.274 -10.469  1.00  0.00     0.000 C 
ENDROOT
BRANCH   1   2
ATOM      2  C   UNL     1      -6.617 -39.604 -11.529  1.00  0.00     0.000 C 
BRANCH   2   3
ATOM      3  C   UNL     1      -7.096 -41.055 -11.397  1.00  0.00     0.000 C 
BRANCH   3   4
ATOM      4  C   UNL     1      -6.863 -41.832 -12.699  1.00  0.00     0.000 C 
BRANCH   4   5
ATOM      5  C   UNL     1      -6.338 -40.906 -13.806  1.00  0.00     0.001 C 
BRANCH   5   6
ATOM      6  C   UNL     1      -7.359 -40.681 -14.937  1.00  0.00     0.009 C 
BRANCH   6   7
ATOM      7  C   UNL     1      -7.832 -39.218 -15.109  1.00  0.00     0.032 C 
ATOM      8  C   UNL     1      -9.214 -38.972 -14.488  1.00  0.00     0.014 C 
BRANCH   7   9
ATOM      9  C   UNL     1      -7.867 -38.874 -16.573  1.00  0.00     0.044 C 
ATOM     10  O   UNL     1      -7.626 -39.759 -17.437  1.00  0.00    -0.550 OA
ATOM     11  O   UNL     1      -8.179 -37.583 -16.985  1.00  0.00    -0.550 OA
ENDBRANCH   7   9
ENDBRANCH   6   7
ENDBRANCH   5   6
ENDBRANCH   4   5
ENDBRANCH   3   4
ENDBRANCH   2   3
ENDBRANCH   1   2
BRANCH   1  12
ATOM     12  C   UNL     1      -6.082 -38.221  -9.480  1.00  0.00     0.000 C 
BRANCH  12  13
ATOM     13  C   UNL     1      -5.137 -37.017  -9.338  1.00  0.00    -0.000 C 
BRANCH  13  14
ATOM     14  C   UNL     1      -5.774 -35.854  -8.558  1.00  0.00    -0.000 C 
BRANCH  14  15
ATOM     15  C   UNL     1      -5.905 -34.578  -9.405  1.00  0.00    -0.000 C 
BRANCH  15  16
ATOM     16  C   UNL     1      -7.092 -34.629 -10.379  1.00  0.00    -0.000 C 
BRANCH  16  17
ATOM     17  C   UNL     1      -8.346 -35.183  -9.685  1.00  0.00    -0.000 C 
BRANCH  17  18
ATOM     18  C   UNL     1      -9.426 -35.626 -10.684  1.00  0.00    -0.003 C 
ATOM     19  C   UNL     1      -9.376 -37.124 -10.984  1.00  0.00     0.004 C 
ENDBRANCH  17  18
ENDBRANCH  16  17
ENDBRANCH  15  16
ENDBRANCH  14  15
ENDBRANCH  13  14
ENDBRANCH  12  13
ENDBRANCH   1  12
TORSDOF 14
ENDMDL
MODEL 4
REMARK VINA RESULT:    -4.660      1.795      2.347
REMARK INTER + INTRA:          -9.322
REMARK INTER:                  -8.250
REMARK INTRA:                  -1.073
REMARK UNBOUND:                -0.848
REMARK SMILES CCCCCCCCCCCCCC[C@H](C)C(=O)[O-]
REMARK SMILES IDX 9 1 10 2 11 3 12 4 13 5 14 6 15 7 16 8 17 9 18 10 19 11 8 12
REMARK SMILES IDX 7 13 6 14 5 15 4 16 3 17 2 18 1 19
REMARK H PARENT
REMARK Flexibility Score: inf
ROOT
ATOM      1  C   UNL     1      -8.386 -40.115 -12.479  1.00  0.00     0.000 C 
ENDROOT
BRANCH   1   2
ATOM      2  C   UNL     1      -8.028 -40.922 -11.225  1.00  0.00     0.000 C 
BRANCH   2   3
ATOM      3  C   UNL     1      -7.578 -39.999 -10.086  1.00  0.00     0.000 C 
BRANCH   3   4
ATOM      4  C   UNL     1      -6.066 -40.111  -9.852  1.00  0.00     0.000 C 
BRANCH   4   5
ATOM      5  C   UNL     1      -5.354 -38.800 -10.220  1.00  0.00     0.001 C 
BRANCH   5   6
ATOM      6  C   UNL     1      -5.855 -37.593  -9.402  1.00  0.00     0.009 C 
BRANCH   6   7
ATOM      7  C   UNL     1      -5.223 -36.235  -9.788  1.00  0.00     0.032 C 
ATOM      8  C   UNL     1      -4.168 -35.770  -8.776  1.00  0.00     0.014 C 
BRANCH   7   9
ATOM      9  C   UNL     1      -6.305 -35.196  -9.904  1.00  0.00     0.044 C 
ATOM     10  O   UNL     1      -7.491 -35.543 -10.148  1.00  0.00    -0.550 OA
ATOM     11  O   UNL     1      -6.009 -33.849  -9.728  1.00  0.00    -0.550 OA
ENDBRANCH   7   9
ENDBRANCH   6   7
ENDBRANCH   5   6
ENDBRANCH   4   5
ENDBRANCH   3   4
ENDBRANCH   2   3
ENDBRANCH   1   2
BRANCH   1  12
ATOM     12  C   UNL     1      -7.155 -39.918 -13.377  1.00  0.00     0.000 C 
BRANCH  12  13
ATOM     13  C   UNL     1      -6.324 -41.202 -13.536  1.00  0.00    -0.000 C 
BRANCH  13  14
ATOM     14  C   UNL     1      -5.978 -41.503 -15.004  1.00  0.00    -0.000 C 
BRANCH  14  15
ATOM     15  C   UNL     1      -6.529 -40.442 -15.971  1.00  0.00    -0.000 C 
BRANCH  15  16
ATOM     16  C   UNL     1      -6.614 -40.943 -17.420  1.00  0.00    -0.000 C 
BRANCH  16  17
ATOM     17  C   UNL     1      -7.530 -40.039 -18.259  1.00  0.00    -0.000 C 
BRANCH  17  18
ATOM     18  C   UNL     1      -6.756 -38.928 -18.987  1.00  0.00    -0.003 C 
ATOM     19  C   UNL     1      -5.683 -39.475 -19.929  1.00  0.00     0.004 C 
ENDBRANCH  17  18
ENDBRANCH  16  17
ENDBRANCH  15  16
ENDBRANCH  14  15
ENDBRANCH  13  14
ENDBRANCH  12  13
ENDBRANCH   1  12
TORSDOF 14
ENDMDL
MODEL 5
REMARK VINA RESULT:    -4.625      4.508      8.462
REMARK INTER + INTRA:          -9.258
REMARK INTER:                  -7.911
REMARK INTRA:                  -1.346
REMARK UNBOUND:                -0.848
REMARK SMILES CCCCCCCCCCCCCC[C@H](C)C(=O)[O-]
REMARK SMILES IDX 9 1 10 2 11 3 12 4 13 5 14 6 15 7 16 8 17 9 18 10 19 11 8 12
REMARK SMILES IDX 7 13 6 14 5 15 4 16 3 17 2 18 1 19
REMARK H PARENT
REMARK Flexibility Score: inf
ROOT
ATOM      1  C   UNL     1      -7.369 -41.525 -11.763  1.00  0.00     0.000 C 
ENDROOT
BRANCH   1   2
ATOM      2  C   UNL     1      -6.644 -40.330 -12.392  1.00  0.00     0.000 C 
BRANCH   2   3
ATOM      3  C   UNL     1      -7.560 -39.582 -13.370  1.00  0.00     0.000 C 
BRANCH   3   4
ATOM      4  C   UNL     1      -7.738 -40.373 -14.672  1.00  0.00     0.000 C 
BRANCH   4   5
ATOM      5  C   UNL     1      -6.393 -40.558 -15.391  1.00  0.00     0.001 C 
BRANCH   5   6
ATOM      6  C   UNL     1      -6.396 -41.741 -16.378  1.00  0.00     0.009 C 
BRANCH   6   7
ATOM      7  C   UNL     1      -5.443 -42.902 -16.009  1.00  0.00     0.032 C 
ATOM      8  C   UNL     1      -5.166 -42.978 -14.502  1.00  0.00     0.014 C 
BRANCH   7   9
ATOM      9  C   UNL     1      -4.145 -42.738 -16.753  1.00  0.00     0.044 C 
ATOM     10  O   UNL     1      -3.061 -42.641 -16.119  1.00  0.00    -0.550 OA
ATOM     11  O   UNL     1      -4.131 -42.706 -18.143  1.00  0.00    -0.550 OA
ENDBRANCH   7   9
ENDBRANCH   6   7
ENDBRANCH   5   6
ENDBRANCH   4   5
ENDBRANCH   3   4
ENDBRANCH   2   3
ENDBRANCH   1   2
BRANCH   1  12
ATOM     12  C   UNL     1      -7.194 -41.533 -10.236  1.00  0.00     0.000 C 
BRANCH  12  13
ATOM     13  C   UNL     1      -6.381 -40.332  -9.725  1.00  0.00    -0.000 C 
BRANCH  13  14
ATOM     14  C   UNL     1      -7.205 -39.406  -8.814  1.00  0.00    -0.000 C 
BRANCH  14  15
ATOM     15  C   UNL     1      -6.815 -37.926  -8.968  1.00  0.00    -0.000 C 
BRANCH  15  16
ATOM     16  C   UNL     1      -5.474 -37.737  -9.694  1.00  0.00    -0.000 C 
BRANCH  16  17
ATOM     17  C   UNL     1      -5.131 -36.246  -9.828  1.00  0.00    -0.000 C 
BRANCH  17  18
ATOM     18  C   UNL     1      -4.698 -35.617  -8.494  1.00  0.00    -0.003 C 
ATOM     19  C   UNL     1      -3.189 -35.704  -8.261  1.00  0.00     0.004 C 
ENDBRANCH  17  18
ENDBRANCH  16  17
ENDBRANCH  15  16
ENDBRANCH  14  15
ENDBRANCH  13  14
ENDBRANCH  12  13
ENDBRANCH   1  12
TORSDOF 14
ENDMDL
MODEL 6
REMARK VINA RESULT:    -4.619      3.302      8.219
REMARK INTER + INTRA:          -9.248
REMARK INTER:                  -7.985
REMARK INTRA:                  -1.263
REMARK UNBOUND:                -0.848
REMARK SMILES CCCCCCCCCCCCCC[C@H](C)C(=O)[O-]
REMARK SMILES IDX 9 1 10 2 11 3 12 4 13 5 14 6 15 7 16 8 17 9 18 10 19 11 8 12
REMARK SMILES IDX 7 13 6 14 5 15 4 16 3 17 2 18 1 19
REMARK H PARENT
REMARK Flexibility Score: inf
ROOT
ATOM      1  C   UNL     1      -7.755 -39.610 -13.330  1.00  0.00     0.000 C 
ENDROOT
BRANCH   1   2
ATOM      2  C   UNL     1      -7.787 -40.477 -14.595  1.00  0.00     0.000 C 
BRANCH   2   3
ATOM      3  C   UNL     1      -6.373 -40.705 -15.143  1.00  0.00     0.000 C 
BRANCH   3   4
ATOM      4  C   UNL     1      -6.398 -40.909 -16.663  1.00  0.00     0.000 C 
BRANCH   4   5
ATOM      5  C   UNL     1      -7.613 -40.210 -17.292  1.00  0.00     0.001 C 
BRANCH   5   6
ATOM      6  C   UNL     1      -7.221 -39.074 -18.257  1.00  0.00     0.009 C 
BRANCH   6   7
ATOM      7  C   UNL     1      -7.806 -37.686 -17.904  1.00  0.00     0.032 C 
ATOM      8  C   UNL     1      -8.708 -37.728 -16.663  1.00  0.00     0.014 C 
BRANCH   7   9
ATOM      9  C   UNL     1      -8.587 -37.161 -19.079  1.00  0.00     0.044 C 
ATOM     10  O   UNL     1      -8.958 -35.958 -19.104  1.00  0.00    -0.550 OA
ATOM     11  O   UNL     1      -8.891 -37.994 -20.149  1.00  0.00    -0.550 OA
ENDBRANCH   7   9
ENDBRANCH   6   7
ENDBRANCH   5   6
ENDBRANCH   4   5
ENDBRANCH   3   4
ENDBRANCH   2   3
ENDBRANCH   1   2
BRANCH   1  12
ATOM     12  C   UNL     1      -8.248 -40.401 -12.109  1.00  0.00     0.000 C 
BRANCH  12  13
ATOM     13  C   UNL     1      -7.386 -40.163 -10.858  1.00  0.00    -0.000 C 
BRANCH  13  14
ATOM     14  C   UNL     1      -5.957 -39.708 -11.204  1.00  0.00    -0.000 C 
BRANCH  14  15
ATOM     15  C   UNL     1      -5.354 -38.789 -10.129  1.00  0.00    -0.000 C 
BRANCH  15  16
ATOM     16  C   UNL     1      -6.418 -38.175  -9.206  1.00  0.00    -0.000 C 
BRANCH  16  17
ATOM     17  C   UNL     1      -6.145 -36.681  -8.973  1.00  0.00    -0.000 C 
BRANCH  17  18
ATOM     18  C   UNL     1      -4.822 -36.218  -9.604  1.00  0.00    -0.003 C 
ATOM     19  C   UNL     1      -3.811 -35.730  -8.566  1.00  0.00     0.004 C 
ENDBRANCH  17  18
ENDBRANCH  16  17
ENDBRANCH  15  16
ENDBRANCH  14  15
ENDBRANCH  13  14
ENDBRANCH  12  13
ENDBRANCH   1  12
TORSDOF 14
ENDMDL
MODEL 7
REMARK VINA RESULT:    -4.596      1.394      2.610
REMARK INTER + INTRA:          -9.206
REMARK INTER:                  -8.356
REMARK INTRA:                  -0.850
REMARK UNBOUND:                -0.848
REMARK SMILES CCCCCCCCCCCCCC[C@H](C)C(=O)[O-]
REMARK SMILES IDX 9 1 10 2 11 3 12 4 13 5 14 6 15 7 16 8 17 9 18 10 19 11 8 12
REMARK SMILES IDX 7 13 6 14 5 15 4 16 3 17 2 18 1 19
REMARK H PARENT
REMARK Flexibility Score: inf
ROOT
ATOM      1  C   UNL     1      -6.223 -39.739 -11.601  1.00  0.00     0.000 C 
ENDROOT
BRANCH   1   2
ATOM      2  C   UNL     1      -6.453 -39.932 -10.097  1.00  0.00     0.000 C 
BRANCH   2   3
ATOM      3  C   UNL     1      -6.425 -38.588  -9.358  1.00  0.00     0.000 C 
BRANCH   3   4
ATOM      4  C   UNL     1      -5.184 -37.773  -9.743  1.00  0.00     0.000 C 
BRANCH   4   5
ATOM      5  C   UNL     1      -5.353 -36.297  -9.353  1.00  0.00     0.001 C 
BRANCH   5   6
ATOM      6  C   UNL     1      -5.983 -35.446 -10.474  1.00  0.00     0.009 C 
BRANCH   6   7
ATOM      7  C   UNL     1      -7.136 -34.520 -10.021  1.00  0.00     0.032 C 
ATOM      8  C   UNL     1      -6.789 -33.727  -8.754  1.00  0.00     0.014 C 
BRANCH   7   9
ATOM      9  C   UNL     1      -8.372 -35.343  -9.781  1.00  0.00     0.044 C 
ATOM     10  O   UNL     1      -9.062 -35.159  -8.743  1.00  0.00    -0.550 OA
ATOM     11  O   UNL     1      -8.769 -36.302 -10.705  1.00  0.00    -0.550 OA
ENDBRANCH   7   9
ENDBRANCH   6   7
ENDBRANCH   5   6
ENDBRANCH   4   5
ENDBRANCH   3   4
ENDBRANCH   2   3
ENDBRANCH   1   2
BRANCH   1  12
ATOM     12  C   UNL     1      -7.050 -40.744 -12.417  1.00  0.00     0.000 C 
BRANCH  12  13
ATOM     13  C   UNL     1      -6.561 -40.878 -13.868  1.00  0.00    -0.000 C 
BRANCH  13  14
ATOM     14  C   UNL     1      -7.355 -39.991 -14.843  1.00  0.00    -0.000 C 
BRANCH  14  15
ATOM     15  C   UNL     1      -6.827 -40.078 -16.284  1.00  0.00    -0.000 C 
BRANCH  15  16
ATOM     16  C   UNL     1      -7.789 -39.457 -17.308  1.00  0.00    -0.000 C 
BRANCH  16  17
ATOM     17  C   UNL     1      -8.095 -37.994 -16.954  1.00  0.00    -0.000 C 
BRANCH  17  18
ATOM     18  C   UNL     1      -8.302 -37.116 -18.199  1.00  0.00    -0.003 C 
ATOM     19  C   UNL     1      -9.264 -35.954 -17.950  1.00  0.00     0.004 C 
ENDBRANCH  17  18
ENDBRANCH  16  17
ENDBRANCH  15  16
ENDBRANCH  14  15
ENDBRANCH  13  14
ENDBRANCH  12  13
ENDBRANCH   1  12
TORSDOF 14
ENDMDL
MODEL 8
REMARK VINA RESULT:    -4.592      5.743      8.164
REMARK INTER + INTRA:          -9.199
REMARK INTER:                  -7.415
REMARK INTRA:                  -1.783
REMARK UNBOUND:                -0.848
REMARK SMILES CCCCCCCCCCCCCC[C@H](C)C(=O)[O-]
REMARK SMILES IDX 9 1 10 2 11 3 12 4 13 5 14 6 15 7 16 8 17 9 18 10 19 11 8 12
REMARK SMILES IDX 7 13 6 14 5 15 4 16 3 17 2 18 1 19
REMARK H PARENT
REMARK Flexibility Score: inf
ROOT
ATOM      1  C   UNL     1      -7.335 -38.362  -8.708  1.00  0.00     0.000 C 
ENDROOT
BRANCH   1   2
ATOM      2  C   UNL     1      -6.790 -39.703  -9.215  1.00  0.00     0.000 C 
BRANCH   2   3
ATOM      3  C   UNL     1      -5.838 -39.498 -10.400  1.00  0.00     0.000 C 
BRANCH   3   4
ATOM      4  C   UNL     1      -6.402 -40.136 -11.676  1.00  0.00     0.000 C 
BRANCH   4   5
ATOM      5  C   UNL     1      -7.427 -41.229 -11.337  1.00  0.00     0.001 C 
BRANCH   5   6
ATOM      6  C   UNL     1      -7.026 -42.618 -11.872  1.00  0.00     0.009 C 
BRANCH   6   7
ATOM      7  C   UNL     1      -7.211 -43.782 -10.870  1.00  0.00     0.032 C 
ATOM      8  C   UNL     1      -6.733 -43.422  -9.458  1.00  0.00     0.014 C 
BRANCH   7   9
ATOM      9  C   UNL     1      -6.462 -44.989 -11.366  1.00  0.00     0.044 C 
ATOM     10  O   UNL     1      -5.413 -45.367 -10.779  1.00  0.00    -0.550 OA
ATOM     11  O   UNL     1      -6.927 -45.704 -12.463  1.00  0.00    -0.550 OA
ENDBRANCH   7   9
ENDBRANCH   6   7
ENDBRANCH   5   6
ENDBRANCH   4   5
ENDBRANCH   3   4
ENDBRANCH   2   3
ENDBRANCH   1   2
BRANCH   1  12
ATOM     12  C   UNL     1      -8.738 -38.090  -9.273  1.00  0.00     0.000 C 
BRANCH  12  13
ATOM     13  C   UNL     1      -8.849 -36.716  -9.954  1.00  0.00    -0.000 C 
BRANCH  13  14
ATOM     14  C   UNL     1      -7.476 -36.103 -10.274  1.00  0.00    -0.000 C 
BRANCH  14  15
ATOM     15  C   UNL     1      -7.511 -34.566 -10.314  1.00  0.00    -0.000 C 
BRANCH  15  16
ATOM     16  C   UNL     1      -6.575 -33.923  -9.280  1.00  0.00    -0.000 C 
BRANCH  16  17
ATOM     17  C   UNL     1      -6.157 -34.944  -8.210  1.00  0.00    -0.000 C 
BRANCH  17  18
ATOM     18  C   UNL     1      -4.634 -35.145  -8.149  1.00  0.00    -0.003 C 
ATOM     19  C   UNL     1      -4.160 -36.332  -8.988  1.00  0.00     0.004 C 
ENDBRANCH  17  18
ENDBRANCH  16  17
ENDBRANCH  15  16
ENDBRANCH  14  15
ENDBRANCH  13  14
ENDBRANCH  12  13
ENDBRANCH   1  12
TORSDOF 14
ENDMDL
MODEL 9
REMARK VINA RESULT:    -4.566      1.645      3.215
REMARK INTER + INTRA:          -9.150
REMARK INTER:                  -7.548
REMARK INTRA:                  -1.601
REMARK UNBOUND:                -0.848
REMARK SMILES CCCCCCCCCCCCCC[C@H](C)C(=O)[O-]
REMARK SMILES IDX 9 1 10 2 11 3 12 4 13 5 14 6 15 7 16 8 17 9 18 10 19 11 8 12
REMARK SMILES IDX 7 13 6 14 5 15 4 16 3 17 2 18 1 19
REMARK H PARENT
REMARK Flexibility Score: inf
ROOT
ATOM      1  C   UNL     1      -8.941 -40.639 -10.545  1.00  0.00     0.000 C 
ENDROOT
BRANCH   1   2
ATOM      2  C   UNL     1      -8.757 -39.437 -11.480  1.00  0.00     0.000 C 
BRANCH   2   3
ATOM      3  C   UNL     1      -7.578 -38.565 -11.030  1.00  0.00     0.000 C 
BRANCH   3   4
ATOM      4  C   UNL     1      -6.288 -39.389 -10.936  1.00  0.00     0.000 C 
BRANCH   4   5
ATOM      5  C   UNL     1      -5.215 -38.639 -10.131  1.00  0.00     0.001 C 
BRANCH   5   6
ATOM      6  C   UNL     1      -5.768 -37.403  -9.395  1.00  0.00     0.009 C 
BRANCH   6   7
ATOM      7  C   UNL     1      -5.044 -36.074  -9.716  1.00  0.00     0.032 C 
ATOM      8  C   UNL     1      -3.979 -35.718  -8.671  1.00  0.00     0.014 C 
BRANCH   7   9
ATOM      9  C   UNL     1      -6.057 -34.964  -9.805  1.00  0.00     0.044 C 
ATOM     10  O   UNL     1      -5.848 -33.870  -9.218  1.00  0.00    -0.550 OA
ATOM     11  O   UNL     1      -7.221 -35.132 -10.545  1.00  0.00    -0.550 OA
ENDBRANCH   7   9
ENDBRANCH   6   7
ENDBRANCH   5   6
ENDBRANCH   4   5
ENDBRANCH   3   4
ENDBRANCH   2   3
ENDBRANCH   1   2
BRANCH   1  12
ATOM     12  C   UNL     1      -8.885 -41.959 -11.330  1.00  0.00     0.000 C 
BRANCH  12  13
ATOM     13  C   UNL     1      -8.436 -41.767 -12.788  1.00  0.00    -0.000 C 
BRANCH  13  14
ATOM     14  C   UNL     1      -7.007 -42.278 -13.038  1.00  0.00    -0.000 C 
BRANCH  14  15
ATOM     15  C   UNL     1      -6.223 -41.383 -14.012  1.00  0.00    -0.000 C 
BRANCH  15  16
ATOM     16  C   UNL     1      -7.090 -40.281 -14.638  1.00  0.00    -0.000 C 
BRANCH  16  17
ATOM     17  C   UNL     1      -7.271 -40.516 -16.145  1.00  0.00    -0.000 C 
BRANCH  17  18
ATOM     18  C   UNL     1      -7.356 -39.205 -16.941  1.00  0.00    -0.003 C 
ATOM     19  C   UNL     1      -8.334 -38.202 -16.328  1.00  0.00     0.004 C 
ENDBRANCH  17  18
ENDBRANCH  16  17
ENDBRANCH  15  16
ENDBRANCH  14  15
ENDBRANCH  13  14
ENDBRANCH  12  13
ENDBRANCH   1  12
TORSDOF 14
ENDMDL
