MODEL 1
REMARK VINA RESULT:    -7.576      0.000      0.000
REMARK INTER + INTRA:          -8.240
REMARK INTER:                  -8.019
REMARK INTRA:                  -0.222
REMARK UNBOUND:                -0.222
REMARK SMILES O=c1cc(-c2ccccc2)oc2ccccc12
REMARK SMILES IDX 4 1 3 2 2 3 1 4 17 5 16 6 15 7 14 8 13 9 12 10 11 11 5 12
REMARK SMILES IDX 8 13 7 14 9 15 6 16 10 17
REMARK H PARENT
REMARK Flexibility Score: inf
ROOT
ATOM      1  C   UNL     1      -5.309  15.178   6.729  1.00  0.00     0.138 A 
ATOM      2  C   UNL     1      -5.695  14.207   5.781  1.00  0.00     0.100 A 
ATOM      3  C   UNL     1      -7.021  14.161   5.345  1.00  0.00     0.193 A 
ATOM      4  O   UNL     1      -7.367  13.292   4.497  1.00  0.00    -0.289 OA
ATOM      5  C   UNL     1      -7.948  15.080   5.854  1.00  0.00     0.065 A 
ATOM      6  C   UNL     1      -9.298  15.087   5.457  1.00  0.00     0.016 A 
ATOM      7  C   UNL     1     -10.182  16.027   5.997  1.00  0.00     0.001 A 
ATOM      8  C   UNL     1      -9.728  16.961   6.934  1.00  0.00     0.004 A 
ATOM      9  C   UNL     1      -8.389  16.961   7.335  1.00  0.00     0.048 A 
ATOM     10  C   UNL     1      -7.496  16.024   6.800  1.00  0.00     0.138 A 
ATOM     11  O   UNL     1      -6.226  16.032   7.187  1.00  0.00    -0.456 OA
ENDROOT
BRANCH   1  12
ATOM     12  C   UNL     1      -3.912  15.296   7.249  1.00  0.00     0.017 A 
ATOM     13  C   UNL     1      -1.292  15.444   8.291  1.00  0.00     0.000 A 
ATOM     14  C   UNL     1      -2.172  14.464   8.749  1.00  0.00     0.001 A 
ATOM     15  C   UNL     1      -1.708  16.351   7.316  1.00  0.00     0.001 A 
ATOM     16  C   UNL     1      -3.470  14.390   8.235  1.00  0.00     0.012 A 
ATOM     17  C   UNL     1      -3.005  16.283   6.797  1.00  0.00     0.012 A 
ENDBRANCH   1  12
TORSDOF 1
ENDMDL
MODEL 2
REMARK VINA RESULT:    -7.571      0.058      1.174
REMARK INTER + INTRA:          -8.235
REMARK INTER:                  -8.010
REMARK INTRA:                  -0.225
REMARK UNBOUND:                -0.222
REMARK SMILES O=c1cc(-c2ccccc2)oc2ccccc12
REMARK SMILES IDX 4 1 3 2 2 3 1 4 17 5 16 6 15 7 14 8 13 9 12 10 11 11 5 12
REMARK SMILES IDX 8 13 7 14 9 15 6 16 10 17
REMARK H PARENT
REMARK Flexibility Score: inf
ROOT
ATOM      1  C   UNL     1      -5.322  15.164   6.765  1.00  0.00     0.138 A 
ATOM      2  C   UNL     1      -5.715  14.203   5.809  1.00  0.00     0.100 A 
ATOM      3  C   UNL     1      -7.037  14.182   5.359  1.00  0.00     0.193 A 
ATOM      4  O   UNL     1      -7.389  13.323   4.504  1.00  0.00    -0.289 OA
ATOM      5  C   UNL     1      -7.953  15.115   5.863  1.00  0.00     0.065 A 
ATOM      6  C   UNL     1      -9.299  15.147   5.452  1.00  0.00     0.016 A 
ATOM      7  C   UNL     1     -10.171  16.100   5.988  1.00  0.00     0.001 A 
ATOM      8  C   UNL     1      -9.712  17.022   6.933  1.00  0.00     0.004 A 
ATOM      9  C   UNL     1      -8.377  16.998   7.347  1.00  0.00     0.048 A 
ATOM     10  C   UNL     1      -7.494  16.048   6.817  1.00  0.00     0.138 A 
ATOM     11  O   UNL     1      -6.228  16.033   7.217  1.00  0.00    -0.456 OA
ENDROOT
BRANCH   1  12
ATOM     12  C   UNL     1      -3.928  15.257   7.299  1.00  0.00     0.017 A 
ATOM     13  C   UNL     1      -1.280  15.506   8.246  1.00  0.00     0.000 A 
ATOM     14  C   UNL     1      -1.750  16.365   7.253  1.00  0.00     0.001 A 
ATOM     15  C   UNL     1      -2.120  14.524   8.772  1.00  0.00     0.001 A 
ATOM     16  C   UNL     1      -3.061  16.242   6.782  1.00  0.00     0.012 A 
ATOM     17  C   UNL     1      -3.433  14.396   8.306  1.00  0.00     0.012 A 
ENDBRANCH   1  12
TORSDOF 1
ENDMDL
MODEL 3
REMARK VINA RESULT:    -7.181      1.373      5.973
REMARK INTER + INTRA:          -7.822
REMARK INTER:                  -7.567
REMARK INTRA:                  -0.255
REMARK UNBOUND:                -0.222
REMARK SMILES O=c1cc(-c2ccccc2)oc2ccccc12
REMARK SMILES IDX 4 1 3 2 2 3 1 4 17 5 16 6 15 7 14 8 13 9 12 10 11 11 5 12
REMARK SMILES IDX 8 13 7 14 9 15 6 16 10 17
REMARK H PARENT
REMARK Flexibility Score: inf
ROOT
ATOM      1  C   UNL     1      -7.740  15.419   6.831  1.00  0.00     0.138 A 
ATOM      2  C   UNL     1      -7.189  14.594   5.827  1.00  0.00     0.100 A 
ATOM      3  C   UNL     1      -5.886  14.112   5.973  1.00  0.00     0.193 A 
ATOM      4  O   UNL     1      -5.393  13.374   5.076  1.00  0.00    -0.289 OA
ATOM      5  C   UNL     1      -5.146  14.454   7.113  1.00  0.00     0.065 A 
ATOM      6  C   UNL     1      -3.829  14.003   7.320  1.00  0.00     0.016 A 
ATOM      7  C   UNL     1      -3.136  14.375   8.476  1.00  0.00     0.001 A 
ATOM      8  C   UNL     1      -3.746  15.197   9.429  1.00  0.00     0.004 A 
ATOM      9  C   UNL     1      -5.054  15.650   9.231  1.00  0.00     0.048 A 
ATOM     10  C   UNL     1      -5.757  15.283   8.077  1.00  0.00     0.138 A 
ATOM     11  O   UNL     1      -6.999  15.719   7.899  1.00  0.00    -0.456 OA
ENDROOT
BRANCH   1  12
ATOM     12  C   UNL     1      -9.126  15.977   6.754  1.00  0.00     0.017 A 
ATOM     13  C   UNL     1     -11.711  17.108   6.661  1.00  0.00     0.000 A 
ATOM     14  C   UNL     1     -10.673  17.788   7.299  1.00  0.00     0.001 A 
ATOM     15  C   UNL     1     -11.469  15.869   6.068  1.00  0.00     0.001 A 
ATOM     16  C   UNL     1      -9.393  17.229   7.347  1.00  0.00     0.012 A 
ATOM     17  C   UNL     1     -10.190  15.303   6.111  1.00  0.00     0.012 A 
ENDBRANCH   1  12
TORSDOF 1
ENDMDL
MODEL 4
REMARK VINA RESULT:    -7.079      1.869      3.189
REMARK INTER + INTRA:          -7.715
REMARK INTER:                  -7.492
REMARK INTRA:                  -0.223
REMARK UNBOUND:                -0.222
REMARK SMILES O=c1cc(-c2ccccc2)oc2ccccc12
REMARK SMILES IDX 4 1 3 2 2 3 1 4 17 5 16 6 15 7 14 8 13 9 12 10 11 11 5 12
REMARK SMILES IDX 8 13 7 14 9 15 6 16 10 17
REMARK H PARENT
REMARK Flexibility Score: inf
ROOT
ATOM      1  C   UNL     1      -3.428  15.464   7.771  1.00  0.00     0.138 A 
ATOM      2  C   UNL     1      -4.401  16.122   8.554  1.00  0.00     0.100 A 
ATOM      3  C   UNL     1      -5.754  15.960   8.247  1.00  0.00     0.193 A 
ATOM      4  O   UNL     1      -6.625  16.548   8.947  1.00  0.00    -0.289 OA
ATOM      5  C   UNL     1      -6.126  15.147   7.168  1.00  0.00     0.065 A 
ATOM      6  C   UNL     1      -7.470  14.943   6.807  1.00  0.00     0.016 A 
ATOM      7  C   UNL     1      -7.785  14.121   5.720  1.00  0.00     0.001 A 
ATOM      8  C   UNL     1      -6.767  13.500   4.988  1.00  0.00     0.004 A 
ATOM      9  C   UNL     1      -5.429  13.698   5.341  1.00  0.00     0.048 A 
ATOM     10  C   UNL     1      -5.102  14.519   6.427  1.00  0.00     0.138 A 
ATOM     11  O   UNL     1      -3.828  14.700   6.753  1.00  0.00    -0.456 OA
ENDROOT
BRANCH   1  12
ATOM     12  C   UNL     1      -1.960  15.583   8.030  1.00  0.00     0.017 A 
ATOM     13  C   UNL     1       0.801  15.749   8.597  1.00  0.00     0.000 A 
ATOM     14  C   UNL     1      -0.032  14.972   9.402  1.00  0.00     0.001 A 
ATOM     15  C   UNL     1       0.268  16.443   7.511  1.00  0.00     0.001 A 
ATOM     16  C   UNL     1      -1.400  14.890   9.123  1.00  0.00     0.012 A 
ATOM     17  C   UNL     1      -1.099  16.365   7.226  1.00  0.00     0.012 A 
ENDBRANCH   1  12
TORSDOF 1
ENDMDL
MODEL 5
REMARK VINA RESULT:    -6.769      1.204      2.400
REMARK INTER + INTRA:          -7.387
REMARK INTER:                  -7.166
REMARK INTRA:                  -0.221
REMARK UNBOUND:                -0.222
REMARK SMILES O=c1cc(-c2ccccc2)oc2ccccc12
REMARK SMILES IDX 4 1 3 2 2 3 1 4 17 5 16 6 15 7 14 8 13 9 12 10 11 11 5 12
REMARK SMILES IDX 8 13 7 14 9 15 6 16 10 17
REMARK H PARENT
REMARK Flexibility Score: inf
ROOT
ATOM      1  C   UNL     1      -5.122  15.638   7.211  1.00  0.00     0.138 A 
ATOM      2  C   UNL     1      -6.032  16.609   7.679  1.00  0.00     0.100 A 
ATOM      3  C   UNL     1      -7.386  16.494   7.357  1.00  0.00     0.193 A 
ATOM      4  O   UNL     1      -8.201  17.363   7.776  1.00  0.00    -0.289 OA
ATOM      5  C   UNL     1      -7.822  15.415   6.576  1.00  0.00     0.065 A 
ATOM      6  C   UNL     1      -9.171  15.242   6.216  1.00  0.00     0.016 A 
ATOM      7  C   UNL     1      -9.551  14.146   5.434  1.00  0.00     0.001 A 
ATOM      8  C   UNL     1      -8.593  13.222   5.005  1.00  0.00     0.004 A 
ATOM      9  C   UNL     1      -7.251  13.387   5.357  1.00  0.00     0.048 A 
ATOM     10  C   UNL     1      -6.859  14.480   6.140  1.00  0.00     0.138 A 
ATOM     11  O   UNL     1      -5.581  14.628   6.469  1.00  0.00    -0.456 OA
ENDROOT
BRANCH   1  12
ATOM     12  C   UNL     1      -3.657  15.686   7.509  1.00  0.00     0.017 A 
ATOM     13  C   UNL     1      -0.907  15.714   8.145  1.00  0.00     0.000 A 
ATOM     14  C   UNL     1      -1.789  14.937   8.895  1.00  0.00     0.001 A 
ATOM     15  C   UNL     1      -1.385  16.477   7.079  1.00  0.00     0.001 A 
ATOM     16  C   UNL     1      -3.152  14.922   8.582  1.00  0.00     0.012 A 
ATOM     17  C   UNL     1      -2.746  16.467   6.760  1.00  0.00     0.012 A 
ENDBRANCH   1  12
TORSDOF 1
ENDMDL
MODEL 6
REMARK VINA RESULT:    -6.673      1.595      6.214
REMARK INTER + INTRA:          -7.285
REMARK INTER:                  -7.062
REMARK INTRA:                  -0.223
REMARK UNBOUND:                -0.222
REMARK SMILES O=c1cc(-c2ccccc2)oc2ccccc12
REMARK SMILES IDX 4 1 3 2 2 3 1 4 17 5 16 6 15 7 14 8 13 9 12 10 11 11 5 12
REMARK SMILES IDX 8 13 7 14 9 15 6 16 10 17
REMARK H PARENT
REMARK Flexibility Score: inf
ROOT
ATOM      1  C   UNL     1      -7.023  15.892   7.842  1.00  0.00     0.138 A 
ATOM      2  C   UNL     1      -6.832  15.211   9.063  1.00  0.00     0.100 A 
ATOM      3  C   UNL     1      -5.535  14.934   9.500  1.00  0.00     0.193 A 
ATOM      4  O   UNL     1      -5.364  14.324  10.591  1.00  0.00    -0.289 OA
ATOM      5  C   UNL     1      -4.442  15.337   8.720  1.00  0.00     0.065 A 
ATOM      6  C   UNL     1      -3.111  15.088   9.103  1.00  0.00     0.016 A 
ATOM      7  C   UNL     1      -2.058  15.512   8.287  1.00  0.00     0.001 A 
ATOM      8  C   UNL     1      -2.322  16.183   7.089  1.00  0.00     0.004 A 
ATOM      9  C   UNL     1      -3.641  16.434   6.701  1.00  0.00     0.048 A 
ATOM     10  C   UNL     1      -4.704  16.014   7.510  1.00  0.00     0.138 A 
ATOM     11  O   UNL     1      -5.954  16.257   7.133  1.00  0.00    -0.456 OA
ENDROOT
BRANCH   1  12
ATOM     12  C   UNL     1      -8.377  16.228   7.301  1.00  0.00     0.017 A 
ATOM     13  C   UNL     1     -10.924  16.786   6.220  1.00  0.00     0.000 A 
ATOM     14  C   UNL     1     -10.196  15.689   5.762  1.00  0.00     0.001 A 
ATOM     15  C   UNL     1     -10.393  17.607   7.215  1.00  0.00     0.001 A 
ATOM     16  C   UNL     1      -8.934  15.411   6.295  1.00  0.00     0.012 A 
ATOM     17  C   UNL     1      -9.131  17.336   7.754  1.00  0.00     0.012 A 
ENDBRANCH   1  12
TORSDOF 1
ENDMDL
MODEL 7
REMARK VINA RESULT:    -6.357      1.707      3.030
REMARK INTER + INTRA:          -6.950
REMARK INTER:                  -6.695
REMARK INTRA:                  -0.255
REMARK UNBOUND:                -0.222
REMARK SMILES O=c1cc(-c2ccccc2)oc2ccccc12
REMARK SMILES IDX 4 1 3 2 2 3 1 4 17 5 16 6 15 7 14 8 13 9 12 10 11 11 5 12
REMARK SMILES IDX 8 13 7 14 9 15 6 16 10 17
REMARK H PARENT
REMARK Flexibility Score: inf
ROOT
ATOM      1  C   UNL     1      -6.467  15.805   8.343  1.00  0.00     0.138 A 
ATOM      2  C   UNL     1      -7.182  16.446   9.378  1.00  0.00     0.100 A 
ATOM      3  C   UNL     1      -8.517  16.800   9.173  1.00  0.00     0.193 A 
ATOM      4  O   UNL     1      -9.156  17.374  10.098  1.00  0.00    -0.289 OA
ATOM      5  C   UNL     1      -9.128  16.515   7.945  1.00  0.00     0.065 A 
ATOM      6  C   UNL     1     -10.468  16.846   7.675  1.00  0.00     0.016 A 
ATOM      7  C   UNL     1     -11.028  16.538   6.431  1.00  0.00     0.001 A 
ATOM      8  C   UNL     1     -10.259  15.901   5.452  1.00  0.00     0.004 A 
ATOM      9  C   UNL     1      -8.927  15.569   5.711  1.00  0.00     0.048 A 
ATOM     10  C   UNL     1      -8.356  15.873   6.953  1.00  0.00     0.138 A 
ATOM     11  O   UNL     1      -7.089  15.553   7.190  1.00  0.00    -0.456 OA
ENDROOT
BRANCH   1  12
ATOM     12  C   UNL     1      -5.036  15.391   8.478  1.00  0.00     0.017 A 
ATOM     13  C   UNL     1      -2.320  14.687   8.792  1.00  0.00     0.000 A 
ATOM     14  C   UNL     1      -2.834  15.801   9.456  1.00  0.00     0.001 A 
ATOM     15  C   UNL     1      -3.150  13.921   7.974  1.00  0.00     0.001 A 
ATOM     16  C   UNL     1      -4.179  16.152   9.301  1.00  0.00     0.012 A 
ATOM     17  C   UNL     1      -4.497  14.265   7.814  1.00  0.00     0.012 A 
ENDBRANCH   1  12
TORSDOF 1
ENDMDL
MODEL 8
REMARK VINA RESULT:    -6.190      2.389      3.997
REMARK INTER + INTRA:          -6.774
REMARK INTER:                  -6.528
REMARK INTRA:                  -0.245
REMARK UNBOUND:                -0.222
REMARK SMILES O=c1cc(-c2ccccc2)oc2ccccc12
REMARK SMILES IDX 4 1 3 2 2 3 1 4 17 5 16 6 15 7 14 8 13 9 12 10 11 11 5 12
REMARK SMILES IDX 8 13 7 14 9 15 6 16 10 17
REMARK H PARENT
REMARK Flexibility Score: inf
ROOT
ATOM      1  C   UNL     1      -8.441  15.831   6.985  1.00  0.00     0.138 A 
ATOM      2  C   UNL     1      -9.542  15.914   6.105  1.00  0.00     0.100 A 
ATOM      3  C   UNL     1     -10.759  16.412   6.574  1.00  0.00     0.193 A 
ATOM      4  O   UNL     1     -11.744  16.486   5.788  1.00  0.00    -0.289 OA
ATOM      5  C   UNL     1     -10.871  16.822   7.909  1.00  0.00     0.065 A 
ATOM      6  C   UNL     1     -12.069  17.331   8.444  1.00  0.00     0.016 A 
ATOM      7  C   UNL     1     -12.124  17.725   9.785  1.00  0.00     0.001 A 
ATOM      8  C   UNL     1     -10.992  17.614  10.598  1.00  0.00     0.004 A 
ATOM      9  C   UNL     1      -9.799  17.109  10.076  1.00  0.00     0.048 A 
ATOM     10  C   UNL     1      -9.732  16.711   8.735  1.00  0.00     0.138 A 
ATOM     11  O   UNL     1      -8.592  16.232   8.248  1.00  0.00    -0.456 OA
ENDROOT
BRANCH   1  12
ATOM     12  C   UNL     1      -7.102  15.311   6.565  1.00  0.00     0.017 A 
ATOM     13  C   UNL     1      -4.621  14.256   5.728  1.00  0.00     0.000 A 
ATOM     14  C   UNL     1      -5.808  13.618   5.370  1.00  0.00     0.001 A 
ATOM     15  C   UNL     1      -4.662  15.417   6.501  1.00  0.00     0.001 A 
ATOM     16  C   UNL     1      -7.038  14.139   5.784  1.00  0.00     0.012 A 
ATOM     17  C   UNL     1      -5.888  15.944   6.919  1.00  0.00     0.012 A 
ENDBRANCH   1  12
TORSDOF 1
ENDMDL
