MODEL 1
REMARK VINA RESULT:    -6.812      0.000      0.000
REMARK INTER + INTRA:          -8.525
REMARK INTER:                  -8.205
REMARK INTRA:                  -0.320
REMARK UNBOUND:                -0.320
REMARK SMILES O=c1c(O)c(-c2ccc(O)c(O)c2)oc2cc(O)cc(O)c12
REMARK SMILES IDX 5 1 3 2 2 3 1 4 22 5 20 6 19 7 17 8 16 9 15 10 14 11 6 12
REMARK SMILES IDX 7 13 8 14 9 15 13 16 11 17 10 18 12 20 4 22 21 24 18 26
REMARK H PARENT 10 19 12 21 4 23 21 25 18 27
REMARK Flexibility Score: inf
ROOT
ATOM      1  C   UNL     1      -0.398  16.375  13.350  1.00  0.00     0.180 A 
ATOM      2  C   UNL     1      -1.001  16.287  12.081  1.00  0.00     0.208 A 
ATOM      3  C   UNL     1      -2.146  17.057  11.820  1.00  0.00     0.238 A 
ATOM      4  O   UNL     1      -2.689  16.994  10.683  1.00  0.00    -0.285 OA
ATOM      5  C   UNL     1      -2.678  17.882  12.832  1.00  0.00     0.111 A 
ATOM      6  C   UNL     1      -3.830  18.684  12.651  1.00  0.00     0.134 A 
ATOM      7  C   UNL     1      -4.302  19.472  13.712  1.00  0.00     0.093 A 
ATOM      8  C   UNL     1      -3.649  19.472  14.946  1.00  0.00     0.123 A 
ATOM      9  C   UNL     1      -2.510  18.681  15.130  1.00  0.00     0.094 A 
ATOM     10  C   UNL     1      -2.022  17.890  14.085  1.00  0.00     0.146 A 
ATOM     11  O   UNL     1      -0.936  17.153  14.285  1.00  0.00    -0.452 OA
ENDROOT
BRANCH   1  12
ATOM     12  C   UNL     1       0.821  15.610  13.696  1.00  0.00     0.025 A 
ATOM     13  C   UNL     1       0.744  14.343  14.301  1.00  0.00     0.016 A 
ATOM     14  C   UNL     1       1.909  13.629  14.597  1.00  0.00     0.051 A 
ATOM     15  C   UNL     1       3.164  14.163  14.279  1.00  0.00     0.157 A 
ATOM     16  C   UNL     1       2.083  16.131  13.362  1.00  0.00     0.062 A 
ATOM     17  C   UNL     1       3.252  15.415  13.658  1.00  0.00     0.158 A 
BRANCH  15  18
ATOM     18  O   UNL     1       4.328  13.455  14.574  1.00  0.00    -0.504 OA
ATOM     19  H   UNL     1       4.874  13.008  13.847  1.00  0.00     0.293 HD
ENDBRANCH  15  18
BRANCH  17  20
ATOM     20  O   UNL     1       4.502  15.941  13.339  1.00  0.00    -0.504 OA
ATOM     21  H   UNL     1       5.332  15.360  13.320  1.00  0.00     0.293 HD
ENDBRANCH  17  20
ENDBRANCH   1  12
BRANCH   2  22
ATOM     22  O   UNL     1      -0.484  15.425  11.112  1.00  0.00    -0.502 OA
ATOM     23  H   UNL     1       0.508  15.359  10.919  1.00  0.00     0.293 HD
ENDBRANCH   2  22
BRANCH   6  24
ATOM     24  O   UNL     1      -4.506  18.706  11.431  1.00  0.00    -0.507 OA
ATOM     25  H   UNL     1      -5.440  19.090  11.346  1.00  0.00     0.293 HD
ENDBRANCH   6  24
BRANCH   8  26
ATOM     26  O   UNL     1      -4.139  20.262  15.983  1.00  0.00    -0.508 OA
ATOM     27  H   UNL     1      -3.559  20.518  16.774  1.00  0.00     0.293 HD
ENDBRANCH   8  26
TORSDOF 6
ENDMDL
MODEL 2
REMARK VINA RESULT:    -6.497      2.694      7.623
REMARK INTER + INTRA:          -8.146
REMARK INTER:                  -7.821
REMARK INTRA:                  -0.325
REMARK UNBOUND:                -0.320
REMARK SMILES O=c1c(O)c(-c2ccc(O)c(O)c2)oc2cc(O)cc(O)c12
REMARK SMILES IDX 5 1 3 2 2 3 1 4 22 5 20 6 19 7 17 8 16 9 15 10 14 11 6 12
REMARK SMILES IDX 7 13 8 14 9 15 13 16 11 17 10 18 12 20 4 22 21 24 18 26
REMARK H PARENT 10 19 12 21 4 23 21 25 18 27
REMARK Flexibility Score: inf
ROOT
ATOM      1  C   UNL     1       2.614  16.040  13.525  1.00  0.00     0.180 A 
ATOM      2  C   UNL     1       3.195  15.307  14.577  1.00  0.00     0.208 A 
ATOM      3  C   UNL     1       4.551  15.511  14.878  1.00  0.00     0.238 A 
ATOM      4  O   UNL     1       5.079  14.867  15.826  1.00  0.00    -0.285 OA
ATOM      5  C   UNL     1       5.306  16.423  14.113  1.00  0.00     0.111 A 
ATOM      6  C   UNL     1       6.678  16.682  14.348  1.00  0.00     0.134 A 
ATOM      7  C   UNL     1       7.361  17.598  13.535  1.00  0.00     0.093 A 
ATOM      8  C   UNL     1       6.704  18.258  12.495  1.00  0.00     0.123 A 
ATOM      9  C   UNL     1       5.349  18.006  12.258  1.00  0.00     0.094 A 
ATOM     10  C   UNL     1       4.648  17.098  13.058  1.00  0.00     0.146 A 
ATOM     11  O   UNL     1       3.361  16.881  12.815  1.00  0.00    -0.452 OA
ENDROOT
BRANCH   1  12
ATOM     12  C   UNL     1       1.187  15.895  13.159  1.00  0.00     0.025 A 
ATOM     13  C   UNL     1       0.182  16.605  13.839  1.00  0.00     0.016 A 
ATOM     14  C   UNL     1      -1.157  16.471  13.461  1.00  0.00     0.051 A 
ATOM     15  C   UNL     1      -1.508  15.639  12.390  1.00  0.00     0.157 A 
ATOM     16  C   UNL     1       0.830  15.079  12.073  1.00  0.00     0.062 A 
ATOM     17  C   UNL     1      -0.512  14.944  11.692  1.00  0.00     0.158 A 
BRANCH  15  18
ATOM     18  O   UNL     1      -2.842  15.501  12.010  1.00  0.00    -0.504 OA
ATOM     19  H   UNL     1      -3.098  15.127  11.103  1.00  0.00     0.293 HD
ENDBRANCH  15  18
BRANCH  17  20
ATOM     20  O   UNL     1      -0.864  14.122  10.623  1.00  0.00    -0.504 OA
ATOM     21  H   UNL     1      -0.363  14.153   9.743  1.00  0.00     0.293 HD
ENDBRANCH  17  20
ENDBRANCH   1  12
BRANCH   2  22
ATOM     22  O   UNL     1       2.438  14.373  15.288  1.00  0.00    -0.502 OA
ATOM     23  H   UNL     1       1.518  14.587  15.656  1.00  0.00     0.293 HD
ENDBRANCH   2  22
BRANCH   6  24
ATOM     24  O   UNL     1       7.364  16.038  15.379  1.00  0.00    -0.507 OA
ATOM     25  H   UNL     1       7.148  15.085  15.648  1.00  0.00     0.293 HD
ENDBRANCH   6  24
BRANCH   8  26
ATOM     26  O   UNL     1       7.406  19.162  11.702  1.00  0.00    -0.508 OA
ATOM     27  H   UNL     1       8.363  19.421  11.913  1.00  0.00     0.293 HD
ENDBRANCH   8  26
TORSDOF 6
ENDMDL
MODEL 3
REMARK VINA RESULT:    -6.295      1.708      3.521
REMARK INTER + INTRA:          -7.903
REMARK INTER:                  -8.300
REMARK INTRA:                   0.397
REMARK UNBOUND:                -0.320
REMARK SMILES O=c1c(O)c(-c2ccc(O)c(O)c2)oc2cc(O)cc(O)c12
REMARK SMILES IDX 5 1 3 2 2 3 1 4 22 5 20 6 19 7 17 8 16 9 15 10 14 11 6 12
REMARK SMILES IDX 7 13 8 14 9 15 13 16 11 17 10 18 12 20 4 22 21 24 18 26
REMARK H PARENT 10 19 12 21 4 23 21 25 18 27
REMARK Flexibility Score: inf
ROOT
ATOM      1  C   UNL     1      -2.004  17.432  13.032  1.00  0.00     0.180 A 
ATOM      2  C   UNL     1      -2.220  18.043  14.283  1.00  0.00     0.208 A 
ATOM      3  C   UNL     1      -3.227  19.014  14.399  1.00  0.00     0.238 A 
ATOM      4  O   UNL     1      -3.436  19.560  15.517  1.00  0.00    -0.285 OA
ATOM      5  C   UNL     1      -3.985  19.372  13.265  1.00  0.00     0.111 A 
ATOM      6  C   UNL     1      -5.014  20.343  13.297  1.00  0.00     0.134 A 
ATOM      7  C   UNL     1      -5.717  20.649  12.122  1.00  0.00     0.093 A 
ATOM      8  C   UNL     1      -5.413  20.007  10.921  1.00  0.00     0.123 A 
ATOM      9  C   UNL     1      -4.397  19.046  10.883  1.00  0.00     0.094 A 
ATOM     10  C   UNL     1      -3.685  18.725  12.044  1.00  0.00     0.146 A 
ATOM     11  O   UNL     1      -2.729  17.806  11.981  1.00  0.00    -0.452 OA
ENDROOT
BRANCH   1  12
ATOM     12  C   UNL     1      -0.975  16.388  12.834  1.00  0.00     0.025 A 
ATOM     13  C   UNL     1      -1.057  15.472  11.770  1.00  0.00     0.016 A 
ATOM     14  C   UNL     1      -0.060  14.508  11.588  1.00  0.00     0.051 A 
ATOM     15  C   UNL     1       1.038  14.457  12.457  1.00  0.00     0.157 A 
ATOM     16  C   UNL     1       0.139  16.343  13.689  1.00  0.00     0.062 A 
ATOM     17  C   UNL     1       1.140  15.377  13.507  1.00  0.00     0.158 A 
BRANCH  15  18
ATOM     18  O   UNL     1       2.033  13.497  12.281  1.00  0.00    -0.504 OA
ATOM     19  H   UNL     1       3.011  13.755  12.205  1.00  0.00     0.293 HD
ENDBRANCH  15  18
BRANCH  17  20
ATOM     20  O   UNL     1       2.236  15.326  14.366  1.00  0.00    -0.504 OA
ATOM     21  H   UNL     1       3.077  14.816  14.122  1.00  0.00     0.293 HD
ENDBRANCH  17  20
ENDBRANCH   1  12
BRANCH   2  22
ATOM     22  O   UNL     1      -1.421  17.707  15.379  1.00  0.00    -0.502 OA
ATOM     23  H   UNL     1      -0.896  16.842  15.422  1.00  0.00     0.293 HD
ENDBRANCH   2  22
BRANCH   6  24
ATOM     24  O   UNL     1      -5.343  21.003  14.482  1.00  0.00    -0.507 OA
ATOM     25  H   UNL     1      -4.644  21.491  15.031  1.00  0.00     0.293 HD
ENDBRANCH   6  24
BRANCH   8  26
ATOM     26  O   UNL     1      -6.125  20.331   9.768  1.00  0.00    -0.508 OA
ATOM     27  H   UNL     1      -6.319  19.640   9.053  1.00  0.00     0.293 HD
ENDBRANCH   8  26
TORSDOF 6
ENDMDL
MODEL 4
REMARK VINA RESULT:    -6.285      6.142      7.797
REMARK INTER + INTRA:          -7.890
REMARK INTER:                  -8.351
REMARK INTRA:                   0.461
REMARK UNBOUND:                -0.320
REMARK SMILES O=c1c(O)c(-c2ccc(O)c(O)c2)oc2cc(O)cc(O)c12
REMARK SMILES IDX 5 1 3 2 2 3 1 4 22 5 20 6 19 7 17 8 16 9 15 10 14 11 6 12
REMARK SMILES IDX 7 13 8 14 9 15 13 16 11 17 10 18 12 20 4 22 21 24 18 26
REMARK H PARENT 10 19 12 21 4 23 21 25 18 27
REMARK Flexibility Score: inf
ROOT
ATOM      1  C   UNL     1       5.479  15.157  12.570  1.00  0.00     0.180 A 
ATOM      2  C   UNL     1       5.685  14.029  11.752  1.00  0.00     0.208 A 
ATOM      3  C   UNL     1       4.977  12.850  12.031  1.00  0.00     0.238 A 
ATOM      4  O   UNL     1       5.147  11.836  11.299  1.00  0.00    -0.285 OA
ATOM      5  C   UNL     1       4.094  12.809  13.130  1.00  0.00     0.111 A 
ATOM      6  C   UNL     1       3.347  11.660  13.481  1.00  0.00     0.134 A 
ATOM      7  C   UNL     1       2.495  11.698  14.595  1.00  0.00     0.093 A 
ATOM      8  C   UNL     1       2.377  12.858  15.363  1.00  0.00     0.123 A 
ATOM      9  C   UNL     1       3.113  13.997  15.020  1.00  0.00     0.094 A 
ATOM     10  C   UNL     1       3.965  13.981  13.912  1.00  0.00     0.146 A 
ATOM     11  O   UNL     1       4.648  15.077  13.606  1.00  0.00    -0.452 OA
ENDROOT
BRANCH   1  12
ATOM     12  C   UNL     1       6.173  16.441  12.329  1.00  0.00     0.025 A 
ATOM     13  C   UNL     1       7.028  16.616  11.226  1.00  0.00     0.016 A 
ATOM     14  C   UNL     1       7.654  17.846  11.005  1.00  0.00     0.051 A 
ATOM     15  C   UNL     1       7.423  18.921  11.873  1.00  0.00     0.157 A 
ATOM     16  C   UNL     1       5.930  17.530  13.183  1.00  0.00     0.062 A 
ATOM     17  C   UNL     1       6.558  18.764  12.962  1.00  0.00     0.158 A 
BRANCH  15  18
ATOM     18  O   UNL     1       8.047  20.149  11.658  1.00  0.00    -0.504 OA
ATOM     19  H   UNL     1       8.812  20.246  10.999  1.00  0.00     0.293 HD
ENDBRANCH  15  18
BRANCH  17  20
ATOM     20  O   UNL     1       6.326  19.838  13.820  1.00  0.00    -0.504 OA
ATOM     21  H   UNL     1       6.328  20.794  13.485  1.00  0.00     0.293 HD
ENDBRANCH  17  20
ENDBRANCH   1  12
BRANCH   2  22
ATOM     22  O   UNL     1       6.603  14.079  10.700  1.00  0.00    -0.502 OA
ATOM     23  H   UNL     1       6.318  14.033   9.729  1.00  0.00     0.293 HD
ENDBRANCH   2  22
BRANCH   6  24
ATOM     24  O   UNL     1       3.444  10.484  12.735  1.00  0.00    -0.507 OA
ATOM     25  H   UNL     1       3.511   9.576  13.179  1.00  0.00     0.293 HD
ENDBRANCH   6  24
BRANCH   8  26
ATOM     26  O   UNL     1       1.525  12.869  16.465  1.00  0.00    -0.508 OA
ATOM     27  H   UNL     1       0.607  13.297  16.422  1.00  0.00     0.293 HD
ENDBRANCH   8  26
TORSDOF 6
ENDMDL
MODEL 5
REMARK VINA RESULT:    -6.168      1.646      7.162
REMARK INTER + INTRA:          -7.750
REMARK INTER:                  -7.455
REMARK INTRA:                  -0.294
REMARK UNBOUND:                -0.320
REMARK SMILES O=c1c(O)c(-c2ccc(O)c(O)c2)oc2cc(O)cc(O)c12
REMARK SMILES IDX 5 1 3 2 2 3 1 4 22 5 20 6 19 7 17 8 16 9 15 10 14 11 6 12
REMARK SMILES IDX 7 13 8 14 9 15 13 16 11 17 10 18 12 20 4 22 21 24 18 26
REMARK H PARENT 10 19 12 21 4 23 21 25 18 27
REMARK Flexibility Score: inf
ROOT
ATOM      1  C   UNL     1       0.606  16.018  13.333  1.00  0.00     0.180 A 
ATOM      2  C   UNL     1       0.678  14.658  13.691  1.00  0.00     0.208 A 
ATOM      3  C   UNL     1       1.939  14.049  13.794  1.00  0.00     0.238 A 
ATOM      4  O   UNL     1       2.016  12.834  14.125  1.00  0.00    -0.285 OA
ATOM      5  C   UNL     1       3.100  14.800  13.520  1.00  0.00     0.111 A 
ATOM      6  C   UNL     1       4.407  14.261  13.597  1.00  0.00     0.134 A 
ATOM      7  C   UNL     1       5.512  15.072  13.299  1.00  0.00     0.093 A 
ATOM      8  C   UNL     1       5.338  16.406  12.926  1.00  0.00     0.123 A 
ATOM      9  C   UNL     1       4.049  16.944  12.849  1.00  0.00     0.094 A 
ATOM     10  C   UNL     1       2.935  16.153  13.143  1.00  0.00     0.146 A 
ATOM     11  O   UNL     1       1.723  16.690  13.067  1.00  0.00    -0.452 OA
ENDROOT
BRANCH   1  12
ATOM     12  C   UNL     1      -0.684  16.735  13.222  1.00  0.00     0.025 A 
ATOM     13  C   UNL     1      -1.498  16.605  12.082  1.00  0.00     0.016 A 
ATOM     14  C   UNL     1      -2.724  17.273  12.010  1.00  0.00     0.051 A 
ATOM     15  C   UNL     1      -3.159  18.067  13.078  1.00  0.00     0.157 A 
ATOM     16  C   UNL     1      -1.136  17.517  14.298  1.00  0.00     0.062 A 
ATOM     17  C   UNL     1      -2.365  18.187  14.226  1.00  0.00     0.158 A 
BRANCH  15  18
ATOM     18  O   UNL     1      -4.379  18.737  13.010  1.00  0.00    -0.504 OA
ATOM     19  H   UNL     1      -4.673  19.379  13.738  1.00  0.00     0.293 HD
ENDBRANCH  15  18
BRANCH  17  20
ATOM     20  O   UNL     1      -2.804  18.974  15.290  1.00  0.00    -0.504 OA
ATOM     21  H   UNL     1      -3.412  19.771  15.144  1.00  0.00     0.293 HD
ENDBRANCH  17  20
ENDBRANCH   1  12
BRANCH   2  22
ATOM     22  O   UNL     1      -0.490  13.923  13.909  1.00  0.00    -0.502 OA
ATOM     23  H   UNL     1      -1.245  13.892  13.234  1.00  0.00     0.293 HD
ENDBRANCH   2  22
BRANCH   6  24
ATOM     24  O   UNL     1       4.614  12.931  13.965  1.00  0.00    -0.507 OA
ATOM     25  H   UNL     1       4.908  12.232  13.293  1.00  0.00     0.293 HD
ENDBRANCH   6  24
BRANCH   8  26
ATOM     26  O   UNL     1       6.452  17.189  12.634  1.00  0.00    -0.508 OA
ATOM     27  H   UNL     1       6.379  18.023  12.063  1.00  0.00     0.293 HD
ENDBRANCH   8  26
TORSDOF 6
ENDMDL
MODEL 6
REMARK VINA RESULT:    -6.013      5.344      7.988
REMARK INTER + INTRA:          -7.564
REMARK INTER:                  -7.910
REMARK INTRA:                   0.346
REMARK UNBOUND:                -0.320
REMARK SMILES O=c1c(O)c(-c2ccc(O)c(O)c2)oc2cc(O)cc(O)c12
REMARK SMILES IDX 5 1 3 2 2 3 1 4 22 5 20 6 19 7 17 8 16 9 15 10 14 11 6 12
REMARK SMILES IDX 7 13 8 14 9 15 13 16 11 17 10 18 12 20 4 22 21 24 18 26
REMARK H PARENT 10 19 12 21 4 23 21 25 18 27
REMARK Flexibility Score: inf
ROOT
ATOM      1  C   UNL     1       4.862  15.462  12.781  1.00  0.00     0.180 A 
ATOM      2  C   UNL     1       3.607  15.614  13.400  1.00  0.00     0.208 A 
ATOM      3  C   UNL     1       2.835  14.471  13.659  1.00  0.00     0.238 A 
ATOM      4  O   UNL     1       1.713  14.594  14.223  1.00  0.00    -0.285 OA
ATOM      5  C   UNL     1       3.318  13.202  13.278  1.00  0.00     0.111 A 
ATOM      6  C   UNL     1       2.601  12.002  13.498  1.00  0.00     0.134 A 
ATOM      7  C   UNL     1       3.147  10.779  13.081  1.00  0.00     0.093 A 
ATOM      8  C   UNL     1       4.391  10.732  12.450  1.00  0.00     0.123 A 
ATOM      9  C   UNL     1       5.104  11.915  12.229  1.00  0.00     0.094 A 
ATOM     10  C   UNL     1       4.579  13.144  12.639  1.00  0.00     0.146 A 
ATOM     11  O   UNL     1       5.279  14.251  12.422  1.00  0.00    -0.452 OA
ENDROOT
BRANCH   1  12
ATOM     12  C   UNL     1       5.743  16.616  12.492  1.00  0.00     0.025 A 
ATOM     13  C   UNL     1       6.631  16.605  11.402  1.00  0.00     0.016 A 
ATOM     14  C   UNL     1       7.435  17.717  11.134  1.00  0.00     0.051 A 
ATOM     15  C   UNL     1       7.353  18.858  11.943  1.00  0.00     0.157 A 
ATOM     16  C   UNL     1       5.651  17.772  13.286  1.00  0.00     0.062 A 
ATOM     17  C   UNL     1       6.458  18.887  13.019  1.00  0.00     0.158 A 
BRANCH  15  18
ATOM     18  O   UNL     1       8.155  19.968  11.681  1.00  0.00    -0.504 OA
ATOM     19  H   UNL     1       7.920  20.887  12.040  1.00  0.00     0.293 HD
ENDBRANCH  15  18
BRANCH  17  20
ATOM     20  O   UNL     1       6.374  20.027  13.817  1.00  0.00    -0.504 OA
ATOM     21  H   UNL     1       6.341  19.964  14.828  1.00  0.00     0.293 HD
ENDBRANCH  17  20
ENDBRANCH   1  12
BRANCH   2  22
ATOM     22  O   UNL     1       3.129  16.887  13.722  1.00  0.00    -0.502 OA
ATOM     23  H   UNL     1       3.177  17.262  14.662  1.00  0.00     0.293 HD
ENDBRANCH   2  22
BRANCH   6  24
ATOM     24  O   UNL     1       1.354  12.016  14.126  1.00  0.00    -0.507 OA
ATOM     25  H   UNL     1       1.176  12.586  14.944  1.00  0.00     0.293 HD
ENDBRANCH   6  24
BRANCH   8  26
ATOM     26  O   UNL     1       4.910   9.505  12.044  1.00  0.00    -0.508 OA
ATOM     27  H   UNL     1       5.745   9.117  12.466  1.00  0.00     0.293 HD
ENDBRANCH   8  26
TORSDOF 6
ENDMDL
MODEL 7
REMARK VINA RESULT:    -5.604      1.382      6.757
REMARK INTER + INTRA:          -7.070
REMARK INTER:                  -7.614
REMARK INTRA:                   0.544
REMARK UNBOUND:                -0.320
REMARK SMILES O=c1c(O)c(-c2ccc(O)c(O)c2)oc2cc(O)cc(O)c12
REMARK SMILES IDX 5 1 3 2 2 3 1 4 22 5 20 6 19 7 17 8 16 9 15 10 14 11 6 12
REMARK SMILES IDX 7 13 8 14 9 15 13 16 11 17 10 18 12 20 4 22 21 24 18 26
REMARK H PARENT 10 19 12 21 4 23 21 25 18 27
REMARK Flexibility Score: inf
ROOT
ATOM      1  C   UNL     1      -0.756  16.378  13.334  1.00  0.00     0.180 A 
ATOM      2  C   UNL     1      -0.775  15.648  12.131  1.00  0.00     0.208 A 
ATOM      3  C   UNL     1       0.282  14.767  11.855  1.00  0.00     0.238 A 
ATOM      4  O   UNL     1       0.270  14.099  10.785  1.00  0.00    -0.285 OA
ATOM      5  C   UNL     1       1.346  14.645  12.772  1.00  0.00     0.111 A 
ATOM      6  C   UNL     1       2.450  13.784  12.568  1.00  0.00     0.134 A 
ATOM      7  C   UNL     1       3.474  13.727  13.525  1.00  0.00     0.093 A 
ATOM      8  C   UNL     1       3.417  14.512  14.678  1.00  0.00     0.123 A 
ATOM      9  C   UNL     1       2.328  15.365  14.886  1.00  0.00     0.094 A 
ATOM     10  C   UNL     1       1.296  15.435  13.945  1.00  0.00     0.146 A 
ATOM     11  O   UNL     1       0.271  16.249  14.169  1.00  0.00    -0.452 OA
ENDROOT
BRANCH   1  12
ATOM     12  C   UNL     1      -1.843  17.313  13.704  1.00  0.00     0.025 A 
ATOM     13  C   UNL     1      -1.805  18.040  14.908  1.00  0.00     0.016 A 
ATOM     14  C   UNL     1      -2.831  18.935  15.226  1.00  0.00     0.051 A 
ATOM     15  C   UNL     1      -3.900  19.126  14.340  1.00  0.00     0.157 A 
ATOM     16  C   UNL     1      -2.907  17.525  12.812  1.00  0.00     0.062 A 
ATOM     17  C   UNL     1      -3.937  18.422  13.130  1.00  0.00     0.158 A 
BRANCH  15  18
ATOM     18  O   UNL     1      -4.926  20.015  14.654  1.00  0.00    -0.504 OA
ATOM     19  H   UNL     1      -5.889  19.707  14.729  1.00  0.00     0.293 HD
ENDBRANCH  15  18
BRANCH  17  20
ATOM     20  O   UNL     1      -4.999  18.619  12.249  1.00  0.00    -0.504 OA
ATOM     21  H   UNL     1      -5.296  19.549  11.977  1.00  0.00     0.293 HD
ENDBRANCH  17  20
ENDBRANCH   1  12
BRANCH   2  22
ATOM     22  O   UNL     1      -1.816  15.823  11.215  1.00  0.00    -0.502 OA
ATOM     23  H   UNL     1      -2.109  16.739  10.896  1.00  0.00     0.293 HD
ENDBRANCH   2  22
BRANCH   6  24
ATOM     24  O   UNL     1       2.538  12.987  11.425  1.00  0.00    -0.507 OA
ATOM     25  H   UNL     1       2.992  13.315  10.581  1.00  0.00     0.293 HD
ENDBRANCH   6  24
BRANCH   8  26
ATOM     26  O   UNL     1       4.447  14.438  15.612  1.00  0.00    -0.508 OA
ATOM     27  H   UNL     1       5.248  13.833  15.472  1.00  0.00     0.293 HD
ENDBRANCH   8  26
TORSDOF 6
ENDMDL
MODEL 8
REMARK VINA RESULT:    -5.368      2.374      4.171
REMARK INTER + INTRA:          -6.786
REMARK INTER:                  -6.461
REMARK INTRA:                  -0.324
REMARK UNBOUND:                -0.320
REMARK SMILES O=c1c(O)c(-c2ccc(O)c(O)c2)oc2cc(O)cc(O)c12
REMARK SMILES IDX 5 1 3 2 2 3 1 4 22 5 20 6 19 7 17 8 16 9 15 10 14 11 6 12
REMARK SMILES IDX 7 13 8 14 9 15 13 16 11 17 10 18 12 20 4 22 21 24 18 26
REMARK H PARENT 10 19 12 21 4 23 21 25 18 27
REMARK Flexibility Score: inf
ROOT
ATOM      1  C   UNL     1       2.837  15.398  13.832  1.00  0.00     0.180 A 
ATOM      2  C   UNL     1       2.747  14.382  12.862  1.00  0.00     0.208 A 
ATOM      3  C   UNL     1       1.553  14.238  12.139  1.00  0.00     0.238 A 
ATOM      4  O   UNL     1       1.464  13.338  11.259  1.00  0.00    -0.285 OA
ATOM      5  C   UNL     1       0.465  15.092  12.412  1.00  0.00     0.111 A 
ATOM      6  C   UNL     1      -0.774  15.010  11.733  1.00  0.00     0.134 A 
ATOM      7  C   UNL     1      -1.811  15.893  12.069  1.00  0.00     0.093 A 
ATOM      8  C   UNL     1      -1.636  16.852  13.068  1.00  0.00     0.123 A 
ATOM      9  C   UNL     1      -0.413  16.938  13.742  1.00  0.00     0.094 A 
ATOM     10  C   UNL     1       0.634  16.069  13.421  1.00  0.00     0.146 A 
ATOM     11  O   UNL     1       1.786  16.176  14.073  1.00  0.00    -0.452 OA
ENDROOT
BRANCH   1  12
ATOM     12  C   UNL     1       4.069  15.625  14.621  1.00  0.00     0.025 A 
ATOM     13  C   UNL     1       4.303  14.940  15.827  1.00  0.00     0.016 A 
ATOM     14  C   UNL     1       5.485  15.154  16.543  1.00  0.00     0.051 A 
ATOM     15  C   UNL     1       6.453  16.042  16.057  1.00  0.00     0.157 A 
ATOM     16  C   UNL     1       5.053  16.499  14.130  1.00  0.00     0.062 A 
ATOM     17  C   UNL     1       6.239  16.714  14.848  1.00  0.00     0.158 A 
BRANCH  15  18
ATOM     18  O   UNL     1       7.632  16.260  16.769  1.00  0.00    -0.504 OA
ATOM     19  H   UNL     1       8.469  15.718  16.585  1.00  0.00     0.293 HD
ENDBRANCH  15  18
BRANCH  17  20
ATOM     20  O   UNL     1       7.207  17.593  14.365  1.00  0.00    -0.504 OA
ATOM     21  H   UNL     1       7.070  18.597  14.388  1.00  0.00     0.293 HD
ENDBRANCH  17  20
ENDBRANCH   1  12
BRANCH   2  22
ATOM     22  O   UNL     1       3.822  13.516  12.645  1.00  0.00    -0.502 OA
ATOM     23  H   UNL     1       4.079  13.191  11.721  1.00  0.00     0.293 HD
ENDBRANCH   2  22
BRANCH   6  24
ATOM     24  O   UNL     1      -0.982  14.061  10.730  1.00  0.00    -0.507 OA
ATOM     25  H   UNL     1      -1.465  14.293   9.870  1.00  0.00     0.293 HD
ENDBRANCH   6  24
BRANCH   8  26
ATOM     26  O   UNL     1      -2.682  17.716  13.384  1.00  0.00    -0.508 OA
ATOM     27  H   UNL     1      -2.684  18.681  13.076  1.00  0.00     0.293 HD
ENDBRANCH   8  26
TORSDOF 6
ENDMDL
MODEL 9
REMARK VINA RESULT:    -5.109      3.418      6.508
REMARK INTER + INTRA:          -6.474
REMARK INTER:                  -6.153
REMARK INTRA:                  -0.322
REMARK UNBOUND:                -0.320
REMARK SMILES O=c1c(O)c(-c2ccc(O)c(O)c2)oc2cc(O)cc(O)c12
REMARK SMILES IDX 5 1 3 2 2 3 1 4 22 5 20 6 19 7 17 8 16 9 15 10 14 11 6 12
REMARK SMILES IDX 7 13 8 14 9 15 13 16 11 17 10 18 12 20 4 22 21 24 18 26
REMARK H PARENT 10 19 12 21 4 23 21 25 18 27
REMARK Flexibility Score: inf
ROOT
ATOM      1  C   UNL     1       4.360  16.533  13.410  1.00  0.00     0.180 A 
ATOM      2  C   UNL     1       4.649  15.596  14.420  1.00  0.00     0.208 A 
ATOM      3  C   UNL     1       3.640  14.716  14.839  1.00  0.00     0.238 A 
ATOM      4  O   UNL     1       3.891  13.865  15.736  1.00  0.00    -0.285 OA
ATOM      5  C   UNL     1       2.357  14.800  14.259  1.00  0.00     0.111 A 
ATOM      6  C   UNL     1       1.284  13.954  14.628  1.00  0.00     0.134 A 
ATOM      7  C   UNL     1       0.034  14.106  14.010  1.00  0.00     0.093 A 
ATOM      8  C   UNL     1      -0.164  15.085  13.034  1.00  0.00     0.123 A 
ATOM      9  C   UNL     1       0.893  15.924  12.665  1.00  0.00     0.094 A 
ATOM     10  C   UNL     1       2.147  15.787  13.268  1.00  0.00     0.146 A 
ATOM     11  O   UNL     1       3.134  16.593  12.896  1.00  0.00    -0.452 OA
ENDROOT
BRANCH   1  12
ATOM     12  C   UNL     1       5.376  17.482  12.901  1.00  0.00     0.025 A 
ATOM     13  C   UNL     1       5.606  18.717  13.533  1.00  0.00     0.016 A 
ATOM     14  C   UNL     1       6.588  19.587  13.049  1.00  0.00     0.051 A 
ATOM     15  C   UNL     1       7.362  19.228  11.938  1.00  0.00     0.157 A 
ATOM     16  C   UNL     1       6.170  17.120  11.800  1.00  0.00     0.062 A 
ATOM     17  C   UNL     1       7.155  17.992  11.314  1.00  0.00     0.158 A 
BRANCH  15  18
ATOM     18  O   UNL     1       8.341  20.093  11.451  1.00  0.00    -0.504 OA
ATOM     19  H   UNL     1       9.217  20.232  11.942  1.00  0.00     0.293 HD
ENDBRANCH  15  18
BRANCH  17  20
ATOM     20  O   UNL     1       7.931  17.636  10.212  1.00  0.00    -0.504 OA
ATOM     21  H   UNL     1       8.794  17.116  10.318  1.00  0.00     0.293 HD
ENDBRANCH  17  20
ENDBRANCH   1  12
BRANCH   2  22
ATOM     22  O   UNL     1       5.914  15.567  15.013  1.00  0.00    -0.502 OA
ATOM     23  H   UNL     1       6.106  15.036  15.854  1.00  0.00     0.293 HD
ENDBRANCH   2  22
BRANCH   6  24
ATOM     24  O   UNL     1       1.449  12.966  15.600  1.00  0.00    -0.507 OA
ATOM     25  H   UNL     1       0.721  12.291  15.803  1.00  0.00     0.293 HD
ENDBRANCH   6  24
BRANCH   8  26
ATOM     26  O   UNL     1      -1.416  15.217  12.436  1.00  0.00    -0.508 OA
ATOM     27  H   UNL     1      -1.853  16.123  12.316  1.00  0.00     0.293 HD
ENDBRANCH   8  26
TORSDOF 6
ENDMDL
