MODEL 1
REMARK VINA RESULT:    -3.401      0.000      0.000
REMARK INTER + INTRA:          -4.445
REMARK INTER:                  -4.595
REMARK INTRA:                   0.150
REMARK UNBOUND:                 0.150
REMARK SMILES C=C1C(=O)O[C@H]2[C@@H]1CCC(C)=CCC[C@@]1(C)O[C@@H]21
REMARK SMILES IDX 6 1 7 2 2 3 1 4 3 5 4 6 5 7 8 8 9 9 10 10 11 11 12 12 18 14
REMARK SMILES IDX 15 15 17 16 16 17 14 18 13 19
REMARK H PARENT
REMARK Flexibility Score: 70.00
ROOT
ATOM      1  C   UNL     1       5.690   1.454  -5.805  1.00  0.00     0.216 C 
ATOM      2  C   UNL     1       4.865   2.813  -5.748  1.00  0.00     0.070 C 
ATOM      3  C   UNL     1       4.047   2.635  -4.498  1.00  0.00     0.037 C 
ATOM      4  C   UNL     1       3.002   3.380  -4.131  1.00  0.00     0.021 C 
ATOM      5  C   UNL     1       4.518   1.465  -3.807  1.00  0.00     0.334 C 
ATOM      6  O   UNL     1       4.107   1.057  -2.688  1.00  0.00    -0.247 OA
ATOM      7  O   UNL     1       5.491   0.830  -4.538  1.00  0.00    -0.455 OA
ENDROOT
BRANCH   2   8
ATOM      8  C   UNL     1       5.637   4.166  -5.687  1.00  0.00     0.017 C 
BRANCH   8   9
ATOM      9  C   UNL     1       5.638   4.950  -7.029  1.00  0.00     0.031 C 
BRANCH   9  10
ATOM     10  C   UNL     1       4.681   4.367  -8.047  1.00  0.00    -0.077 C 
ATOM     11  C   UNL     1       3.243   4.819  -8.013  1.00  0.00     0.039 C 
ATOM     12  C   UNL     1       5.055   3.494  -9.013  1.00  0.00    -0.028 CG0
ATOM     13  G   UNL     1       6.446   2.931  -9.219  1.00  0.00     0.000 G0
ENDBRANCH   9  10
ENDBRANCH   8   9
ENDBRANCH   2   8
BRANCH   1  14
ATOM     14  C   UNL     1       7.203   1.369  -6.145  1.00  0.00     0.192 C 
ATOM     15  C   UNL     1       7.642   1.309  -7.579  1.00  0.00     0.096 C 
ATOM     16  O   UNL     1       7.754   2.480  -6.801  1.00  0.00    -0.362 OA
ATOM     17  C   UNL     1       9.015   0.708  -7.880  1.00  0.00     0.045 C 
BRANCH  15  18
ATOM     18  C   UNL     1       6.645   1.471  -8.746  1.00  0.00     0.042 C 
BRANCH  18  19
ATOM     19  C   UNL     1       6.437   2.922  -9.228  1.00  0.00     0.030 CG0
ATOM     20  G   UNL     1       5.055   3.499  -8.999  1.00  0.00     0.000 G0
ENDBRANCH  18  19
ENDBRANCH  15  18
ENDBRANCH   1  14
TORSDOF 0
ENDMDL
MODEL 2
REMARK VINA RESULT:    -3.301      2.754      4.285
REMARK INTER + INTRA:          -4.309
REMARK INTER:                  -4.467
REMARK INTRA:                   0.157
REMARK UNBOUND:                 0.150
REMARK SMILES C=C1C(=O)O[C@H]2[C@@H]1CCC(C)=CCC[C@@]1(C)O[C@@H]21
REMARK SMILES IDX 6 1 7 2 2 3 1 4 3 5 4 6 5 7 8 8 9 9 10 10 11 11 12 12 18 14
REMARK SMILES IDX 15 15 17 16 16 17 14 18 13 19
REMARK H PARENT
REMARK Flexibility Score: 70.00
ROOT
ATOM      1  C   UNL     1       5.966   3.021  -4.989  1.00  0.00     0.216 C 
ATOM      2  C   UNL     1       5.454   1.547  -4.677  1.00  0.00     0.070 C 
ATOM      3  C   UNL     1       4.124   1.804  -4.023  1.00  0.00     0.037 C 
ATOM      4  C   UNL     1       3.399   0.913  -3.344  1.00  0.00     0.021 C 
ATOM      5  C   UNL     1       3.807   3.200  -4.167  1.00  0.00     0.334 C 
ATOM      6  O   UNL     1       2.736   3.752  -3.798  1.00  0.00    -0.247 OA
ATOM      7  O   UNL     1       4.843   3.873  -4.766  1.00  0.00    -0.455 OA
ENDROOT
BRANCH   2   8
ATOM      8  C   UNL     1       5.279   0.542  -5.855  1.00  0.00     0.017 C 
BRANCH   8   9
ATOM      9  C   UNL     1       6.323  -0.610  -5.861  1.00  0.00     0.031 C 
BRANCH   9  10
ATOM     10  C   UNL     1       7.227  -0.584  -4.646  1.00  0.00    -0.077 C 
ATOM     11  C   UNL     1       6.812  -1.376  -3.433  1.00  0.00     0.039 C 
ATOM     12  C   UNL     1       8.408   0.078  -4.605  1.00  0.00    -0.028 CG0
ATOM     13  G   UNL     1       9.002   0.917  -5.718  1.00  0.00     0.000 G0
ENDBRANCH   9  10
ENDBRANCH   8   9
ENDBRANCH   2   8
BRANCH   1  14
ATOM     14  C   UNL     1       6.628   3.447  -6.327  1.00  0.00     0.192 C 
ATOM     15  C   UNL     1       8.097   3.224  -6.535  1.00  0.00     0.096 C 
ATOM     16  O   UNL     1       7.115   2.410  -7.135  1.00  0.00    -0.362 OA
ATOM     17  C   UNL     1       8.811   4.091  -7.573  1.00  0.00     0.045 C 
BRANCH  15  18
ATOM     18  C   UNL     1       8.959   2.451  -5.514  1.00  0.00     0.042 C 
BRANCH  18  19
ATOM     19  C   UNL     1       9.010   0.924  -5.729  1.00  0.00     0.030 CG0
ATOM     20  G   UNL     1       8.410   0.084  -4.619  1.00  0.00     0.000 G0
ENDBRANCH  18  19
ENDBRANCH  15  18
ENDBRANCH   1  14
TORSDOF 0
ENDMDL
MODEL 3
REMARK VINA RESULT:    -3.257      1.594      1.705
REMARK INTER + INTRA:          -4.249
REMARK INTER:                  -4.399
REMARK INTRA:                   0.150
REMARK UNBOUND:                 0.150
REMARK SMILES C=C1C(=O)O[C@H]2[C@@H]1CCC(C)=CCC[C@@]1(C)O[C@@H]21
REMARK SMILES IDX 6 1 7 2 2 3 1 4 3 5 4 6 5 7 8 8 9 9 10 10 11 11 12 12 18 14
REMARK SMILES IDX 15 15 17 16 16 17 14 18 13 19
REMARK H PARENT
REMARK Flexibility Score: 70.00
ROOT
ATOM      1  C   UNL     1       4.936   0.121  -5.736  1.00  0.00     0.216 C 
ATOM      2  C   UNL     1       4.877   1.707  -5.626  1.00  0.00     0.070 C 
ATOM      3  C   UNL     1       4.070   1.909  -4.372  1.00  0.00     0.037 C 
ATOM      4  C   UNL     1       3.518   3.055  -3.970  1.00  0.00     0.021 C 
ATOM      5  C   UNL     1       3.908   0.634  -3.725  1.00  0.00     0.334 C 
ATOM      6  O   UNL     1       3.346   0.441  -2.614  1.00  0.00    -0.247 OA
ATOM      7  O   UNL     1       4.453  -0.369  -4.487  1.00  0.00    -0.455 OA
ENDROOT
BRANCH   2   8
ATOM      8  C   UNL     1       6.209   2.510  -5.532  1.00  0.00     0.017 C 
BRANCH   8   9
ATOM      9  C   UNL     1       6.537   3.337  -6.807  1.00  0.00     0.031 C 
BRANCH   9  10
ATOM     10  C   UNL     1       5.427   3.286  -7.837  1.00  0.00    -0.077 C 
ATOM     11  C   UNL     1       4.358   4.347  -7.784  1.00  0.00     0.039 C 
ATOM     12  C   UNL     1       5.366   2.365  -8.827  1.00  0.00    -0.028 CG0
ATOM     13  G   UNL     1       6.345   1.230  -9.054  1.00  0.00     0.000 G0
ENDBRANCH   9  10
ENDBRANCH   8   9
ENDBRANCH   2   8
BRANCH   1  14
ATOM     14  C   UNL     1       6.218  -0.678  -6.097  1.00  0.00     0.192 C 
ATOM     15  C   UNL     1       6.593  -0.873  -7.537  1.00  0.00     0.096 C 
ATOM     16  O   UNL     1       7.253   0.051  -6.701  1.00  0.00    -0.362 OA
ATOM     17  C   UNL     1       7.499  -2.054  -7.885  1.00  0.00     0.045 C 
BRANCH  15  18
ATOM     18  C   UNL     1       5.822  -0.183  -8.683  1.00  0.00     0.042 C 
BRANCH  18  19
ATOM     19  C   UNL     1       6.337   1.223  -9.060  1.00  0.00     0.030 CG0
ATOM     20  G   UNL     1       5.364   2.361  -8.832  1.00  0.00     0.000 G0
ENDBRANCH  18  19
ENDBRANCH  15  18
ENDBRANCH   1  14
TORSDOF 0
ENDMDL
MODEL 4
REMARK VINA RESULT:    -3.231      2.522      4.821
REMARK INTER + INTRA:          -4.214
REMARK INTER:                  -4.381
REMARK INTRA:                   0.167
REMARK UNBOUND:                 0.150
REMARK SMILES C=C1C(=O)O[C@H]2[C@@H]1CCC(C)=CCC[C@@]1(C)O[C@@H]21
REMARK SMILES IDX 6 1 7 2 2 3 1 4 3 5 4 6 5 7 8 8 9 9 10 10 11 11 12 12 18 14
REMARK SMILES IDX 15 15 17 16 16 17 14 18 13 19
REMARK H PARENT
REMARK Flexibility Score: 70.00
ROOT
ATOM      1  C   UNL     1       4.983   0.568  -3.207  1.00  0.00     0.216 C 
ATOM      2  C   UNL     1       6.056  -0.153  -4.134  1.00  0.00     0.070 C 
ATOM      3  C   UNL     1       6.243  -1.473  -3.436  1.00  0.00     0.037 C 
ATOM      4  C   UNL     1       7.223  -2.349  -3.665  1.00  0.00     0.021 C 
ATOM      5  C   UNL     1       5.243  -1.591  -2.409  1.00  0.00     0.334 C 
ATOM      6  O   UNL     1       5.060  -2.598  -1.675  1.00  0.00    -0.247 OA
ATOM      7  O   UNL     1       4.497  -0.441  -2.325  1.00  0.00    -0.455 OA
ENDROOT
BRANCH   2   8
ATOM      8  C   UNL     1       5.719  -0.393  -5.637  1.00  0.00     0.017 C 
BRANCH   8   9
ATOM      9  C   UNL     1       6.401   0.616  -6.603  1.00  0.00     0.031 C 
BRANCH   9  10
ATOM     10  C   UNL     1       7.502   1.412  -5.934  1.00  0.00    -0.077 C 
ATOM     11  C   UNL     1       8.871   0.791  -5.836  1.00  0.00     0.039 C 
ATOM     12  C   UNL     1       7.333   2.669  -5.458  1.00  0.00    -0.028 CG0
ATOM     13  G   UNL     1       6.045   3.465  -5.471  1.00  0.00     0.000 G0
ENDBRANCH   9  10
ENDBRANCH   8   9
ENDBRANCH   2   8
BRANCH   1  14
ATOM     14  C   UNL     1       3.759   1.358  -3.746  1.00  0.00     0.192 C 
ATOM     15  C   UNL     1       3.910   2.804  -4.115  1.00  0.00     0.096 C 
ATOM     16  O   UNL     1       3.833   1.780  -5.081  1.00  0.00    -0.362 OA
ATOM     17  C   UNL     1       2.652   3.674  -4.125  1.00  0.00     0.045 C 
BRANCH  15  18
ATOM     18  C   UNL     1       5.284   3.509  -4.113  1.00  0.00     0.042 C 
BRANCH  18  19
ATOM     19  C   UNL     1       6.038   3.469  -5.460  1.00  0.00     0.030 CG0
ATOM     20  G   UNL     1       7.338   2.693  -5.461  1.00  0.00     0.000 G0
ENDBRANCH  18  19
ENDBRANCH  15  18
ENDBRANCH   1  14
TORSDOF 0
ENDMDL
MODEL 5
REMARK VINA RESULT:    -3.184      3.285      4.566
REMARK INTER + INTRA:          -4.150
REMARK INTER:                  -4.287
REMARK INTRA:                   0.137
REMARK UNBOUND:                 0.150
REMARK SMILES C=C1C(=O)O[C@H]2[C@@H]1CCC(C)=CCC[C@@]1(C)O[C@@H]21
REMARK SMILES IDX 6 1 7 2 2 3 1 4 3 5 4 6 5 7 8 8 9 9 10 10 11 11 12 12 18 14
REMARK SMILES IDX 15 15 17 16 16 17 14 18 13 19
REMARK H PARENT
REMARK Flexibility Score: 70.00
ROOT
ATOM      1  C   UNL     1       7.271   2.308  -5.001  1.00  0.00     0.216 C 
ATOM      2  C   UNL     1       5.727   2.066  -4.701  1.00  0.00     0.070 C 
ATOM      3  C   UNL     1       5.219   3.468  -4.501  1.00  0.00     0.037 C 
ATOM      4  C   UNL     1       4.039   3.807  -3.977  1.00  0.00     0.021 C 
ATOM      5  C   UNL     1       6.258   4.388  -4.878  1.00  0.00     0.334 C 
ATOM      6  O   UNL     1       6.155   5.643  -4.903  1.00  0.00    -0.247 OA
ATOM      7  O   UNL     1       7.406   3.712  -5.212  1.00  0.00    -0.455 OA
ENDROOT
BRANCH   2   8
ATOM      8  C   UNL     1       4.854   1.335  -5.767  1.00  0.00     0.017 C 
BRANCH   8   9
ATOM      9  C   UNL     1       4.437  -0.106  -5.357  1.00  0.00     0.031 C 
BRANCH   9  10
ATOM     10  C   UNL     1       4.839  -0.448  -3.937  1.00  0.00    -0.077 C 
ATOM     11  C   UNL     1       3.865  -0.144  -2.828  1.00  0.00     0.039 C 
ATOM     12  C   UNL     1       6.008  -1.052  -3.614  1.00  0.00    -0.028 CG0
ATOM     13  G   UNL     1       7.107  -1.445  -4.580  1.00  0.00     0.000 G0
ENDBRANCH   9  10
ENDBRANCH   8   9
ENDBRANCH   2   8
BRANCH   1  14
ATOM     14  C   UNL     1       8.063   1.580  -6.121  1.00  0.00     0.192 C 
ATOM     15  C   UNL     1       8.653   0.226  -5.856  1.00  0.00     0.096 C 
ATOM     16  O   UNL     1       7.486   0.407  -6.627  1.00  0.00    -0.362 OA
ATOM     17  C   UNL     1       9.828  -0.223  -6.725  1.00  0.00     0.045 C 
BRANCH  15  18
ATOM     18  C   UNL     1       8.379  -0.543  -4.546  1.00  0.00     0.042 C 
BRANCH  18  19
ATOM     19  C   UNL     1       7.127  -1.445  -4.570  1.00  0.00     0.030 CG0
ATOM     20  G   UNL     1       6.020  -1.057  -3.611  1.00  0.00     0.000 G0
ENDBRANCH  18  19
ENDBRANCH  15  18
ENDBRANCH   1  14
TORSDOF 0
ENDMDL
MODEL 6
REMARK VINA RESULT:    -2.952      5.471      7.779
REMARK INTER + INTRA:          -3.837
REMARK INTER:                  -4.193
REMARK INTRA:                   0.356
REMARK UNBOUND:                 0.150
REMARK SMILES C=C1C(=O)O[C@H]2[C@@H]1CCC(C)=CCC[C@@]1(C)O[C@@H]21
REMARK SMILES IDX 6 1 7 2 2 3 1 4 3 5 4 6 5 7 8 8 9 9 10 10 11 11 12 12 18 14
REMARK SMILES IDX 15 15 17 16 16 17 14 18 13 19
REMARK H PARENT
REMARK Flexibility Score: 70.00
ROOT
ATOM      1  C   UNL     1       5.380  -1.527  -3.037  1.00  0.00     0.216 C 
ATOM      2  C   UNL     1       6.496  -1.609  -4.168  1.00  0.00     0.070 C 
ATOM      3  C   UNL     1       6.204  -0.385  -4.993  1.00  0.00     0.037 C 
ATOM      4  C   UNL     1       6.692  -0.123  -6.207  1.00  0.00     0.021 C 
ATOM      5  C   UNL     1       5.231   0.413  -4.295  1.00  0.00     0.334 C 
ATOM      6  O   UNL     1       4.808   1.541  -4.662  1.00  0.00    -0.247 OA
ATOM      7  O   UNL     1       4.809  -0.225  -3.155  1.00  0.00    -0.455 OA
ENDROOT
BRANCH   2   8
ATOM      8  C   UNL     1       7.998  -1.620  -3.750  1.00  0.00     0.017 C 
BRANCH   8   9
ATOM      9  C   UNL     1       8.554  -3.038  -3.440  1.00  0.00     0.031 C 
BRANCH   9  10
ATOM     10  C   UNL     1       7.894  -4.119  -4.270  1.00  0.00    -0.077 C 
ATOM     11  C   UNL     1       8.217  -4.184  -5.741  1.00  0.00     0.039 C 
ATOM     12  C   UNL     1       7.063  -5.056  -3.755  1.00  0.00    -0.028 CG0
ATOM     13  G   UNL     1       6.625  -5.165  -2.309  1.00  0.00     0.000 G0
ENDBRANCH   9  10
ENDBRANCH   8   9
ENDBRANCH   2   8
BRANCH   1  14
ATOM     14  C   UNL     1       5.647  -1.794  -1.530  1.00  0.00     0.192 C 
ATOM     15  C   UNL     1       5.552  -3.192  -0.994  1.00  0.00     0.096 C 
ATOM     16  O   UNL     1       6.787  -2.553  -1.228  1.00  0.00    -0.362 OA
ATOM     17  C   UNL     1       5.292  -3.366   0.503  1.00  0.00     0.045 C 
BRANCH  15  18
ATOM     18  C   UNL     1       5.334  -4.409  -1.918  1.00  0.00     0.042 C 
BRANCH  18  19
ATOM     19  C   UNL     1       6.619  -5.175  -2.299  1.00  0.00     0.030 CG0
ATOM     20  G   UNL     1       7.053  -5.051  -3.745  1.00  0.00     0.000 G0
ENDBRANCH  18  19
ENDBRANCH  15  18
ENDBRANCH   1  14
TORSDOF 0
ENDMDL
MODEL 7
REMARK VINA RESULT:    -2.877      7.483      9.449
REMARK INTER + INTRA:          -3.736
REMARK INTER:                  -3.894
REMARK INTRA:                   0.158
REMARK UNBOUND:                 0.150
REMARK SMILES C=C1C(=O)O[C@H]2[C@@H]1CCC(C)=CCC[C@@]1(C)O[C@@H]21
REMARK SMILES IDX 6 1 7 2 2 3 1 4 3 5 4 6 5 7 8 8 9 9 10 10 11 11 12 12 18 14
REMARK SMILES IDX 15 15 17 16 16 17 14 18 13 19
REMARK H PARENT
REMARK Flexibility Score: 70.00
ROOT
ATOM      1  C   UNL     1       7.784  -6.012  -3.086  1.00  0.00     0.216 C 
ATOM      2  C   UNL     1       7.838  -6.584  -4.570  1.00  0.00     0.070 C 
ATOM      3  C   UNL     1       7.700  -8.065  -4.345  1.00  0.00     0.037 C 
ATOM      4  C   UNL     1       7.936  -9.021  -5.246  1.00  0.00     0.021 C 
ATOM      5  C   UNL     1       7.364  -8.287  -2.965  1.00  0.00     0.334 C 
ATOM      6  O   UNL     1       7.105  -9.404  -2.442  1.00  0.00    -0.247 OA
ATOM      7  O   UNL     1       7.363  -7.103  -2.270  1.00  0.00    -0.455 OA
ENDROOT
BRANCH   2   8
ATOM      8  C   UNL     1       6.775  -6.105  -5.605  1.00  0.00     0.017 C 
BRANCH   8   9
ATOM      9  C   UNL     1       7.373  -5.303  -6.795  1.00  0.00     0.031 C 
BRANCH   9  10
ATOM     10  C   UNL     1       8.871  -5.114  -6.678  1.00  0.00    -0.077 C 
ATOM     11  C   UNL     1       9.769  -6.070  -7.420  1.00  0.00     0.039 C 
ATOM     12  C   UNL     1       9.446  -4.107  -5.978  1.00  0.00    -0.028 CG0
ATOM     13  G   UNL     1       8.719  -3.045  -5.179  1.00  0.00     0.000 G0
ENDBRANCH   9  10
ENDBRANCH   8   9
ENDBRANCH   2   8
BRANCH   1  14
ATOM     14  C   UNL     1       6.968  -4.760  -2.666  1.00  0.00     0.192 C 
ATOM     15  C   UNL     1       7.544  -3.390  -2.875  1.00  0.00     0.096 C 
ATOM     16  O   UNL     1       6.537  -3.923  -3.706  1.00  0.00    -0.362 OA
ATOM     17  C   UNL     1       7.006  -2.250  -2.011  1.00  0.00     0.045 C 
BRANCH  15  18
ATOM     18  C   UNL     1       8.873  -3.169  -3.629  1.00  0.00     0.042 C 
BRANCH  18  19
ATOM     19  C   UNL     1       8.737  -3.031  -5.161  1.00  0.00     0.030 CG0
ATOM     20  G   UNL     1       9.440  -4.095  -5.980  1.00  0.00     0.000 G0
ENDBRANCH  18  19
ENDBRANCH  15  18
ENDBRANCH   1  14
TORSDOF 0
ENDMDL
MODEL 8
REMARK VINA RESULT:    -2.848      4.003      6.716
REMARK INTER + INTRA:          -3.696
REMARK INTER:                  -3.864
REMARK INTRA:                   0.168
REMARK UNBOUND:                 0.150
REMARK SMILES C=C1C(=O)O[C@H]2[C@@H]1CCC(C)=CCC[C@@]1(C)O[C@@H]21
REMARK SMILES IDX 6 1 7 2 2 3 1 4 3 5 4 6 5 7 8 8 9 9 10 10 11 11 12 12 18 14
REMARK SMILES IDX 15 15 17 16 16 17 14 18 13 19
REMARK H PARENT
REMARK Flexibility Score: 70.00
ROOT
ATOM      1  C   UNL     1       5.283  -0.490  -6.077  1.00  0.00     0.216 C 
ATOM      2  C   UNL     1       6.488  -1.465  -5.719  1.00  0.00     0.070 C 
ATOM      3  C   UNL     1       6.905  -1.966  -7.075  1.00  0.00     0.037 C 
ATOM      4  C   UNL     1       7.710  -3.003  -7.315  1.00  0.00     0.021 C 
ATOM      5  C   UNL     1       6.212  -1.201  -8.077  1.00  0.00     0.334 C 
ATOM      6  O   UNL     1       6.374  -1.304  -9.322  1.00  0.00    -0.247 OA
ATOM      7  O   UNL     1       5.329  -0.326  -7.494  1.00  0.00    -0.455 OA
ENDROOT
BRANCH   2   8
ATOM      8  C   UNL     1       7.726  -0.894  -4.963  1.00  0.00     0.017 C 
BRANCH   8   9
ATOM      9  C   UNL     1       7.925  -1.490  -3.541  1.00  0.00     0.031 C 
BRANCH   9  10
ATOM     10  C   UNL     1       6.848  -2.488  -3.171  1.00  0.00    -0.077 C 
ATOM     11  C   UNL     1       7.139  -3.954  -3.365  1.00  0.00     0.039 C 
ATOM     12  C   UNL     1       5.654  -2.138  -2.636  1.00  0.00    -0.028 CG0
ATOM     13  G   UNL     1       5.179  -0.727  -2.357  1.00  0.00     0.000 G0
ENDBRANCH   9  10
ENDBRANCH   8   9
ENDBRANCH   2   8
BRANCH   1  14
ATOM     14  C   UNL     1       5.083   0.914  -5.443  1.00  0.00     0.192 C 
ATOM     15  C   UNL     1       4.414   1.037  -4.105  1.00  0.00     0.096 C 
ATOM     16  O   UNL     1       5.808   1.173  -4.271  1.00  0.00    -0.362 OA
ATOM     17  C   UNL     1       3.763   2.375  -3.753  1.00  0.00     0.045 C 
BRANCH  15  18
ATOM     18  C   UNL     1       4.040  -0.200  -3.261  1.00  0.00     0.042 C 
BRANCH  18  19
ATOM     19  C   UNL     1       5.161  -0.720  -2.336  1.00  0.00     0.030 CG0
ATOM     20  G   UNL     1       5.648  -2.126  -2.620  1.00  0.00     0.000 G0
ENDBRANCH  18  19
ENDBRANCH  15  18
ENDBRANCH   1  14
TORSDOF 0
ENDMDL
MODEL 9
REMARK VINA RESULT:    -2.651      7.118      8.617
REMARK INTER + INTRA:          -3.432
REMARK INTER:                  -3.576
REMARK INTRA:                   0.145
REMARK UNBOUND:                 0.150
REMARK SMILES C=C1C(=O)O[C@H]2[C@@H]1CCC(C)=CCC[C@@]1(C)O[C@@H]21
REMARK SMILES IDX 6 1 7 2 2 3 1 4 3 5 4 6 5 7 8 8 9 9 10 10 11 11 12 12 18 14
REMARK SMILES IDX 15 15 17 16 16 17 14 18 13 19
REMARK H PARENT
REMARK Flexibility Score: 70.00
ROOT
ATOM      1  C   UNL     1       6.799  -5.225  -2.861  1.00  0.00     0.216 C 
ATOM      2  C   UNL     1       7.344  -3.905  -3.562  1.00  0.00     0.070 C 
ATOM      3  C   UNL     1       6.672  -2.821  -2.764  1.00  0.00     0.037 C 
ATOM      4  C   UNL     1       6.595  -1.532  -3.101  1.00  0.00     0.021 C 
ATOM      5  C   UNL     1       6.041  -3.422  -1.620  1.00  0.00     0.334 C 
ATOM      6  O   UNL     1       5.446  -2.802  -0.698  1.00  0.00    -0.247 OA
ATOM      7  O   UNL     1       6.166  -4.789  -1.660  1.00  0.00    -0.455 OA
ENDROOT
BRANCH   2   8
ATOM      8  C   UNL     1       8.881  -3.651  -3.610  1.00  0.00     0.017 C 
BRANCH   8   9
ATOM      9  C   UNL     1       9.494  -3.765  -5.034  1.00  0.00     0.031 C 
BRANCH   9  10
ATOM     10  C   UNL     1       8.447  -4.004  -6.102  1.00  0.00    -0.077 C 
ATOM     11  C   UNL     1       7.856  -2.806  -6.800  1.00  0.00     0.039 C 
ATOM     12  C   UNL     1       8.044  -5.236  -6.494  1.00  0.00    -0.028 CG0
ATOM     13  G   UNL     1       8.524  -6.556  -5.926  1.00  0.00     0.000 G0
ENDBRANCH   9  10
ENDBRANCH   8   9
ENDBRANCH   2   8
BRANCH   1  14
ATOM     14  C   UNL     1       7.685  -6.453  -2.513  1.00  0.00     0.192 C 
ATOM     15  C   UNL     1       7.961  -7.491  -3.560  1.00  0.00     0.096 C 
ATOM     16  O   UNL     1       8.920  -6.533  -3.172  1.00  0.00    -0.362 OA
ATOM     17  C   UNL     1       8.353  -8.892  -3.089  1.00  0.00     0.045 C 
BRANCH  15  18
ATOM     18  C   UNL     1       7.511  -7.315  -5.026  1.00  0.00     0.042 C 
BRANCH  18  19
ATOM     19  C   UNL     1       8.517  -6.571  -5.930  1.00  0.00     0.030 CG0
ATOM     20  G   UNL     1       8.041  -5.245  -6.489  1.00  0.00     0.000 G0
ENDBRANCH  18  19
ENDBRANCH  15  18
ENDBRANCH   1  14
TORSDOF 0
ENDMDL
