MODEL 1
REMARK VINA RESULT:    -3.749      0.000      0.000
REMARK INTER + INTRA:          -8.300
REMARK INTER:                  -6.817
REMARK INTRA:                  -1.483
REMARK UNBOUND:                -1.483
REMARK SMILES CCCCCCCCCCCCCC[C@@H](C)C(=O)[O-]
REMARK SMILES IDX 9 1 10 2 11 3 12 4 13 5 14 6 15 7 16 8 17 9 18 10 19 11 8 12
REMARK SMILES IDX 7 13 6 14 5 15 4 16 3 17 2 18 1 19
REMARK H PARENT
REMARK Flexibility Score: inf
ROOT
ATOM      1  C   UNL     1      -1.704   2.979   9.376  1.00  0.00     0.000 C 
ENDROOT
BRANCH   1   2
ATOM      2  C   UNL     1      -1.038   4.218   9.997  1.00  0.00     0.000 C 
BRANCH   2   3
ATOM      3  C   UNL     1      -1.066   5.436   9.058  1.00  0.00     0.000 C 
BRANCH   3   4
ATOM      4  C   UNL     1      -1.708   6.669   9.715  1.00  0.00     0.000 C 
BRANCH   4   5
ATOM      5  C   UNL     1      -1.119   7.994   9.197  1.00  0.00     0.001 C 
BRANCH   5   6
ATOM      6  C   UNL     1      -0.033   7.768   8.124  1.00  0.00     0.009 C 
BRANCH   6   7
ATOM      7  C   UNL     1       1.372   8.257   8.549  1.00  0.00     0.032 C 
ATOM      8  C   UNL     1       2.216   7.146   9.186  1.00  0.00     0.014 C 
BRANCH   7   9
ATOM      9  C   UNL     1       2.099   8.831   7.363  1.00  0.00     0.044 C 
ATOM     10  O   UNL     1       2.908   9.787   7.509  1.00  0.00    -0.550 OA
ATOM     11  O   UNL     1       1.875   8.311   6.094  1.00  0.00    -0.550 OA
ENDBRANCH   7   9
ENDBRANCH   6   7
ENDBRANCH   5   6
ENDBRANCH   4   5
ENDBRANCH   3   4
ENDBRANCH   2   3
ENDBRANCH   1   2
BRANCH   1  12
ATOM     12  C   UNL     1      -3.018   2.601  10.079  1.00  0.00     0.000 C 
BRANCH  12  13
ATOM     13  C   UNL     1      -4.259   2.962   9.246  1.00  0.00    -0.000 C 
BRANCH  13  14
ATOM     14  C   UNL     1      -4.795   4.371   9.561  1.00  0.00    -0.000 C 
BRANCH  14  15
ATOM     15  C   UNL     1      -4.750   5.306   8.343  1.00  0.00    -0.000 C 
BRANCH  15  16
ATOM     16  C   UNL     1      -5.780   6.443   8.432  1.00  0.00    -0.000 C 
BRANCH  16  17
ATOM     17  C   UNL     1      -7.144   5.912   8.897  1.00  0.00    -0.000 C 
BRANCH  17  18
ATOM     18  C   UNL     1      -8.232   6.056   7.821  1.00  0.00    -0.003 C 
ATOM     19  C   UNL     1      -7.812   6.975   6.675  1.00  0.00     0.004 C 
ENDBRANCH  17  18
ENDBRANCH  16  17
ENDBRANCH  15  16
ENDBRANCH  14  15
ENDBRANCH  13  14
ENDBRANCH  12  13
ENDBRANCH   1  12
TORSDOF 14
ENDMDL
MODEL 2
REMARK VINA RESULT:    -3.666      3.163      6.909
REMARK INTER + INTRA:          -8.150
REMARK INTER:                  -6.570
REMARK INTRA:                  -1.579
REMARK UNBOUND:                -1.483
REMARK SMILES CCCCCCCCCCCCCC[C@@H](C)C(=O)[O-]
REMARK SMILES IDX 9 1 10 2 11 3 12 4 13 5 14 6 15 7 16 8 17 9 18 10 19 11 8 12
REMARK SMILES IDX 7 13 6 14 5 15 4 16 3 17 2 18 1 19
REMARK H PARENT
REMARK Flexibility Score: inf
ROOT
ATOM      1  C   UNL     1      -0.836   3.404   9.899  1.00  0.00     0.000 C 
ENDROOT
BRANCH   1   2
ATOM      2  C   UNL     1      -1.820   2.575   9.058  1.00  0.00     0.000 C 
BRANCH   2   3
ATOM      3  C   UNL     1      -3.077   2.171   9.847  1.00  0.00     0.000 C 
BRANCH   3   4
ATOM      4  C   UNL     1      -4.375   2.622   9.156  1.00  0.00     0.000 C 
BRANCH   4   5
ATOM      5  C   UNL     1      -4.932   3.934   9.736  1.00  0.00     0.001 C 
BRANCH   5   6
ATOM      6  C   UNL     1      -4.784   5.115   8.752  1.00  0.00     0.009 C 
BRANCH   6   7
ATOM      7  C   UNL     1      -5.165   6.484   9.364  1.00  0.00     0.032 C 
ATOM      8  C   UNL     1      -3.938   7.324   9.739  1.00  0.00     0.014 C 
BRANCH   7   9
ATOM      9  C   UNL     1      -6.033   7.252   8.405  1.00  0.00     0.044 C 
ATOM     10  O   UNL     1      -6.447   8.406   8.700  1.00  0.00    -0.550 OA
ATOM     11  O   UNL     1      -6.390   6.688   7.187  1.00  0.00    -0.550 OA
ENDBRANCH   7   9
ENDBRANCH   6   7
ENDBRANCH   5   6
ENDBRANCH   4   5
ENDBRANCH   3   4
ENDBRANCH   2   3
ENDBRANCH   1   2
BRANCH   1  12
ATOM     12  C   UNL     1      -1.304   4.857  10.091  1.00  0.00     0.000 C 
BRANCH  12  13
ATOM     13  C   UNL     1      -0.198   5.880   9.780  1.00  0.00    -0.000 C 
BRANCH  13  14
ATOM     14  C   UNL     1      -0.445   6.638   8.463  1.00  0.00    -0.000 C 
BRANCH  14  15
ATOM     15  C   UNL     1      -0.506   8.160   8.661  1.00  0.00    -0.000 C 
BRANCH  15  16
ATOM     16  C   UNL     1       0.883   8.818   8.622  1.00  0.00    -0.000 C 
BRANCH  16  17
ATOM     17  C   UNL     1       1.587   8.534   7.286  1.00  0.00    -0.000 C 
BRANCH  17  18
ATOM     18  C   UNL     1       3.030   8.042   7.473  1.00  0.00    -0.003 C 
ATOM     19  C   UNL     1       3.420   7.897   8.943  1.00  0.00     0.004 C 
ENDBRANCH  17  18
ENDBRANCH  16  17
ENDBRANCH  15  16
ENDBRANCH  14  15
ENDBRANCH  13  14
ENDBRANCH  12  13
ENDBRANCH   1  12
TORSDOF 14
ENDMDL
MODEL 3
REMARK VINA RESULT:    -3.641      5.181      9.323
REMARK INTER + INTRA:          -8.105
REMARK INTER:                  -7.409
REMARK INTRA:                  -0.695
REMARK UNBOUND:                -1.483
REMARK SMILES CCCCCCCCCCCCCC[C@@H](C)C(=O)[O-]
REMARK SMILES IDX 9 1 10 2 11 3 12 4 13 5 14 6 15 7 16 8 17 9 18 10 19 11 8 12
REMARK SMILES IDX 7 13 6 14 5 15 4 16 3 17 2 18 1 19
REMARK H PARENT
REMARK Flexibility Score: inf
ROOT
ATOM      1  C   UNL     1      -1.062   4.089   9.780  1.00  0.00     0.000 C 
ENDROOT
BRANCH   1   2
ATOM      2  C   UNL     1      -1.628   2.702   9.437  1.00  0.00     0.000 C 
BRANCH   2   3
ATOM      3  C   UNL     1      -3.134   2.589   9.734  1.00  0.00     0.000 C 
BRANCH   3   4
ATOM      4  C   UNL     1      -3.805   1.455   8.941  1.00  0.00     0.000 C 
BRANCH   4   5
ATOM      5  C   UNL     1      -4.863   0.699   9.765  1.00  0.00     0.001 C 
BRANCH   5   6
ATOM      6  C   UNL     1      -6.023   0.181   8.889  1.00  0.00     0.009 C 
BRANCH   6   7
ATOM      7  C   UNL     1      -7.415   0.682   9.343  1.00  0.00     0.032 C 
ATOM      8  C   UNL     1      -7.559   2.205   9.230  1.00  0.00     0.014 C 
BRANCH   7   9
ATOM      9  C   UNL     1      -8.493   0.009   8.538  1.00  0.00     0.044 C 
ATOM     10  O   UNL     1      -8.903   0.521   7.461  1.00  0.00    -0.550 OA
ATOM     11  O   UNL     1      -9.049  -1.185   8.983  1.00  0.00    -0.550 OA
ENDBRANCH   7   9
ENDBRANCH   6   7
ENDBRANCH   5   6
ENDBRANCH   4   5
ENDBRANCH   3   4
ENDBRANCH   2   3
ENDBRANCH   1   2
BRANCH   1  12
ATOM     12  C   UNL     1      -1.565   5.184   8.823  1.00  0.00     0.000 C 
BRANCH  12  13
ATOM     13  C   UNL     1      -1.137   6.594   9.262  1.00  0.00    -0.000 C 
BRANCH  13  14
ATOM     14  C   UNL     1       0.385   6.718   9.458  1.00  0.00    -0.000 C 
BRANCH  14  15
ATOM     15  C   UNL     1       0.925   8.092   9.033  1.00  0.00    -0.000 C 
BRANCH  15  16
ATOM     16  C   UNL     1       0.857   8.310   7.513  1.00  0.00    -0.000 C 
BRANCH  16  17
ATOM     17  C   UNL     1       2.248   8.621   6.941  1.00  0.00    -0.000 C 
BRANCH  17  18
ATOM     18  C   UNL     1       3.039   9.607   7.815  1.00  0.00    -0.003 C 
ATOM     19  C   UNL     1       4.438   9.100   8.161  1.00  0.00     0.004 C 
ENDBRANCH  17  18
ENDBRANCH  16  17
ENDBRANCH  15  16
ENDBRANCH  14  15
ENDBRANCH  13  14
ENDBRANCH  12  13
ENDBRANCH   1  12
TORSDOF 14
ENDMDL
MODEL 4
REMARK VINA RESULT:    -3.614      3.136      6.856
REMARK INTER + INTRA:          -8.055
REMARK INTER:                  -6.517
REMARK INTRA:                  -1.538
REMARK UNBOUND:                -1.483
REMARK SMILES CCCCCCCCCCCCCC[C@@H](C)C(=O)[O-]
REMARK SMILES IDX 9 1 10 2 11 3 12 4 13 5 14 6 15 7 16 8 17 9 18 10 19 11 8 12
REMARK SMILES IDX 7 13 6 14 5 15 4 16 3 17 2 18 1 19
REMARK H PARENT
REMARK Flexibility Score: inf
ROOT
ATOM      1  C   UNL     1      -3.040   2.308   9.989  1.00  0.00     0.000 C 
ENDROOT
BRANCH   1   2
ATOM      2  C   UNL     1      -4.338   2.727   9.279  1.00  0.00     0.000 C 
BRANCH   2   3
ATOM      3  C   UNL     1      -4.837   4.111   9.730  1.00  0.00     0.000 C 
BRANCH   3   4
ATOM      4  C   UNL     1      -4.615   5.193   8.660  1.00  0.00     0.000 C 
BRANCH   4   5
ATOM      5  C   UNL     1      -4.849   6.617   9.196  1.00  0.00     0.001 C 
BRANCH   5   6
ATOM      6  C   UNL     1      -6.321   7.060   9.048  1.00  0.00     0.009 C 
BRANCH   6   7
ATOM      7  C   UNL     1      -7.005   6.523   7.768  1.00  0.00     0.032 C 
ATOM      8  C   UNL     1      -8.327   5.805   8.064  1.00  0.00     0.014 C 
BRANCH   7   9
ATOM      9  C   UNL     1      -7.244   7.649   6.800  1.00  0.00     0.044 C 
ATOM     10  O   UNL     1      -6.991   8.840   7.127  1.00  0.00    -0.550 OA
ATOM     11  O   UNL     1      -7.754   7.381   5.535  1.00  0.00    -0.550 OA
ENDBRANCH   7   9
ENDBRANCH   6   7
ENDBRANCH   5   6
ENDBRANCH   4   5
ENDBRANCH   3   4
ENDBRANCH   2   3
ENDBRANCH   1   2
BRANCH   1  12
ATOM     12  C   UNL     1      -1.782   2.683   9.187  1.00  0.00     0.000 C 
BRANCH  12  13
ATOM     13  C   UNL     1      -0.974   3.811   9.849  1.00  0.00    -0.000 C 
BRANCH  13  14
ATOM     14  C   UNL     1      -1.080   5.144   9.084  1.00  0.00    -0.000 C 
BRANCH  14  15
ATOM     15  C   UNL     1      -0.868   6.364   9.993  1.00  0.00    -0.000 C 
BRANCH  15  16
ATOM     16  C   UNL     1      -1.067   7.696   9.252  1.00  0.00    -0.000 C 
BRANCH  16  17
ATOM     17  C   UNL     1      -0.161   7.774   8.013  1.00  0.00    -0.000 C 
BRANCH  17  18
ATOM     18  C   UNL     1       1.317   7.988   8.376  1.00  0.00    -0.003 C 
ATOM     19  C   UNL     1       2.150   8.480   7.194  1.00  0.00     0.004 C 
ENDBRANCH  17  18
ENDBRANCH  16  17
ENDBRANCH  15  16
ENDBRANCH  14  15
ENDBRANCH  13  14
ENDBRANCH  12  13
ENDBRANCH   1  12
TORSDOF 14
ENDMDL
MODEL 5
REMARK VINA RESULT:    -3.609      1.330      2.487
REMARK INTER + INTRA:          -8.046
REMARK INTER:                  -6.680
REMARK INTRA:                  -1.366
REMARK UNBOUND:                -1.483
REMARK SMILES CCCCCCCCCCCCCC[C@@H](C)C(=O)[O-]
REMARK SMILES IDX 9 1 10 2 11 3 12 4 13 5 14 6 15 7 16 8 17 9 18 10 19 11 8 12
REMARK SMILES IDX 7 13 6 14 5 15 4 16 3 17 2 18 1 19
REMARK H PARENT
REMARK Flexibility Score: inf
ROOT
ATOM      1  C   UNL     1      -4.431   2.672   9.227  1.00  0.00     0.000 C 
ENDROOT
BRANCH   1   2
ATOM      2  C   UNL     1      -3.109   2.333   9.935  1.00  0.00     0.000 C 
BRANCH   2   3
ATOM      3  C   UNL     1      -1.877   2.650   9.069  1.00  0.00     0.000 C 
BRANCH   3   4
ATOM      4  C   UNL     1      -0.828   3.484   9.823  1.00  0.00     0.000 C 
BRANCH   4   5
ATOM      5  C   UNL     1      -1.306   4.919  10.112  1.00  0.00     0.001 C 
BRANCH   5   6
ATOM      6  C   UNL     1      -0.878   5.909   9.007  1.00  0.00     0.009 C 
BRANCH   6   7
ATOM      7  C   UNL     1       0.161   6.953   9.478  1.00  0.00     0.032 C 
ATOM      8  C   UNL     1       1.542   6.337   9.735  1.00  0.00     0.014 C 
BRANCH   7   9
ATOM      9  C   UNL     1       0.279   8.057   8.462  1.00  0.00     0.044 C 
ATOM     10  O   UNL     1       1.327   8.185   7.774  1.00  0.00    -0.550 OA
ATOM     11  O   UNL     1      -0.771   8.950   8.283  1.00  0.00    -0.550 OA
ENDBRANCH   7   9
ENDBRANCH   6   7
ENDBRANCH   5   6
ENDBRANCH   4   5
ENDBRANCH   3   4
ENDBRANCH   2   3
ENDBRANCH   1   2
BRANCH   1  12
ATOM     12  C   UNL     1      -5.018   4.018   9.686  1.00  0.00     0.000 C 
BRANCH  12  13
ATOM     13  C   UNL     1      -4.744   5.154   8.686  1.00  0.00    -0.000 C 
BRANCH  13  14
ATOM     14  C   UNL     1      -4.708   6.539   9.358  1.00  0.00    -0.000 C 
BRANCH  14  15
ATOM     15  C   UNL     1      -6.059   7.267   9.282  1.00  0.00    -0.000 C 
BRANCH  15  16
ATOM     16  C   UNL     1      -6.378   7.776   7.867  1.00  0.00    -0.000 C 
BRANCH  16  17
ATOM     17  C   UNL     1      -7.495   6.941   7.223  1.00  0.00    -0.000 C 
BRANCH  17  18
ATOM     18  C   UNL     1      -7.571   7.132   5.700  1.00  0.00    -0.003 C 
ATOM     19  C   UNL     1      -7.977   8.551   5.302  1.00  0.00     0.004 C 
ENDBRANCH  17  18
ENDBRANCH  16  17
ENDBRANCH  15  16
ENDBRANCH  14  15
ENDBRANCH  13  14
ENDBRANCH  12  13
ENDBRANCH   1  12
TORSDOF 14
ENDMDL
MODEL 6
REMARK VINA RESULT:    -3.586      1.750      2.783
REMARK INTER + INTRA:          -8.004
REMARK INTER:                  -6.754
REMARK INTRA:                  -1.250
REMARK UNBOUND:                -1.483
REMARK SMILES CCCCCCCCCCCCCC[C@@H](C)C(=O)[O-]
REMARK SMILES IDX 9 1 10 2 11 3 12 4 13 5 14 6 15 7 16 8 17 9 18 10 19 11 8 12
REMARK SMILES IDX 7 13 6 14 5 15 4 16 3 17 2 18 1 19
REMARK H PARENT
REMARK Flexibility Score: inf
ROOT
ATOM      1  C   UNL     1      -3.823   5.421   9.071  1.00  0.00     0.000 C 
ENDROOT
BRANCH   1   2
ATOM      2  C   UNL     1      -2.431   5.206   9.687  1.00  0.00     0.000 C 
BRANCH   2   3
ATOM      3  C   UNL     1      -1.294   5.612   8.733  1.00  0.00     0.000 C 
BRANCH   3   4
ATOM      4  C   UNL     1      -0.318   6.611   9.375  1.00  0.00     0.000 C 
BRANCH   4   5
ATOM      5  C   UNL     1      -0.351   7.994   8.699  1.00  0.00     0.001 C 
BRANCH   5   6
ATOM      6  C   UNL     1       0.577   8.062   7.467  1.00  0.00     0.009 C 
BRANCH   6   7
ATOM      7  C   UNL     1       1.836   8.934   7.685  1.00  0.00     0.032 C 
ATOM      8  C   UNL     1       1.650   9.969   8.802  1.00  0.00     0.014 C 
BRANCH   7   9
ATOM      9  C   UNL     1       3.020   8.060   7.995  1.00  0.00     0.044 C 
ATOM     10  O   UNL     1       3.664   7.501   7.066  1.00  0.00    -0.550 OA
ATOM     11  O   UNL     1       3.408   7.858   9.314  1.00  0.00    -0.550 OA
ENDBRANCH   7   9
ENDBRANCH   6   7
ENDBRANCH   5   6
ENDBRANCH   4   5
ENDBRANCH   3   4
ENDBRANCH   2   3
ENDBRANCH   1   2
BRANCH   1  12
ATOM     12  C   UNL     1      -4.639   6.491   9.816  1.00  0.00     0.000 C 
BRANCH  12  13
ATOM     13  C   UNL     1      -3.945   7.863   9.825  1.00  0.00    -0.000 C 
BRANCH  13  14
ATOM     14  C   UNL     1      -4.834   8.981   9.248  1.00  0.00    -0.000 C 
BRANCH  14  15
ATOM     15  C   UNL     1      -6.289   8.532   9.043  1.00  0.00    -0.000 C 
BRANCH  15  16
ATOM     16  C   UNL     1      -6.720   8.579   7.568  1.00  0.00    -0.000 C 
BRANCH  16  17
ATOM     17  C   UNL     1      -6.980   7.164   7.028  1.00  0.00    -0.000 C 
BRANCH  17  18
ATOM     18  C   UNL     1      -7.666   7.175   5.653  1.00  0.00    -0.003 C 
ATOM     19  C   UNL     1      -8.232   8.546   5.285  1.00  0.00     0.004 C 
ENDBRANCH  17  18
ENDBRANCH  16  17
ENDBRANCH  15  16
ENDBRANCH  14  15
ENDBRANCH  13  14
ENDBRANCH  12  13
ENDBRANCH   1  12
TORSDOF 14
ENDMDL
MODEL 7
REMARK VINA RESULT:    -3.463      3.022      3.936
REMARK INTER + INTRA:          -7.781
REMARK INTER:                  -7.240
REMARK INTRA:                  -0.541
REMARK UNBOUND:                -1.483
REMARK SMILES CCCCCCCCCCCCCC[C@@H](C)C(=O)[O-]
REMARK SMILES IDX 9 1 10 2 11 3 12 4 13 5 14 6 15 7 16 8 17 9 18 10 19 11 8 12
REMARK SMILES IDX 7 13 6 14 5 15 4 16 3 17 2 18 1 19
REMARK H PARENT
REMARK Flexibility Score: inf
ROOT
ATOM      1  C   UNL     1      -2.105   3.576   9.347  1.00  0.00     0.000 C 
ENDROOT
BRANCH   1   2
ATOM      2  C   UNL     1      -0.744   3.769  10.036  1.00  0.00     0.000 C 
BRANCH   2   3
ATOM      3  C   UNL     1      -0.224   5.213   9.922  1.00  0.00     0.000 C 
BRANCH   3   4
ATOM      4  C   UNL     1      -0.907   5.994   8.787  1.00  0.00     0.000 C 
BRANCH   4   5
ATOM      5  C   UNL     1      -0.688   7.514   8.896  1.00  0.00     0.001 C 
BRANCH   5   6
ATOM      6  C   UNL     1       0.782   7.870   9.210  1.00  0.00     0.009 C 
BRANCH   6   7
ATOM      7  C   UNL     1       1.370   8.956   8.279  1.00  0.00     0.032 C 
ATOM      8  C   UNL     1       2.377   9.864   8.996  1.00  0.00     0.014 C 
BRANCH   7   9
ATOM      9  C   UNL     1       2.023   8.315   7.086  1.00  0.00     0.044 C 
ATOM     10  O   UNL     1       3.207   7.887   7.156  1.00  0.00    -0.550 OA
ATOM     11  O   UNL     1       1.323   8.196   5.891  1.00  0.00    -0.550 OA
ENDBRANCH   7   9
ENDBRANCH   6   7
ENDBRANCH   5   6
ENDBRANCH   4   5
ENDBRANCH   3   4
ENDBRANCH   2   3
ENDBRANCH   1   2
BRANCH   1  12
ATOM     12  C   UNL     1      -2.423   2.096   9.074  1.00  0.00     0.000 C 
BRANCH  12  13
ATOM     13  C   UNL     1      -3.592   1.576   9.926  1.00  0.00    -0.000 C 
BRANCH  13  14
ATOM     14  C   UNL     1      -4.642   0.817   9.093  1.00  0.00    -0.000 C 
BRANCH  14  15
ATOM     15  C   UNL     1      -5.948   0.579   9.866  1.00  0.00    -0.000 C 
BRANCH  15  16
ATOM     16  C   UNL     1      -7.150   0.344   8.937  1.00  0.00    -0.000 C 
BRANCH  16  17
ATOM     17  C   UNL     1      -8.247  -0.459   9.653  1.00  0.00    -0.000 C 
BRANCH  17  18
ATOM     18  C   UNL     1      -9.279  -1.048   8.678  1.00  0.00    -0.003 C 
ATOM     19  C   UNL     1      -9.333  -2.574   8.725  1.00  0.00     0.004 C 
ENDBRANCH  17  18
ENDBRANCH  16  17
ENDBRANCH  15  16
ENDBRANCH  14  15
ENDBRANCH  13  14
ENDBRANCH  12  13
ENDBRANCH   1  12
TORSDOF 14
ENDMDL
MODEL 8
REMARK VINA RESULT:    -3.449      1.513      2.234
REMARK INTER + INTRA:          -7.755
REMARK INTER:                  -6.861
REMARK INTRA:                  -0.893
REMARK UNBOUND:                -1.483
REMARK SMILES CCCCCCCCCCCCCC[C@@H](C)C(=O)[O-]
REMARK SMILES IDX 9 1 10 2 11 3 12 4 13 5 14 6 15 7 16 8 17 9 18 10 19 11 8 12
REMARK SMILES IDX 7 13 6 14 5 15 4 16 3 17 2 18 1 19
REMARK H PARENT
REMARK Flexibility Score: inf
ROOT
ATOM      1  C   UNL     1      -2.848   5.109   9.470  1.00  0.00     0.000 C 
ENDROOT
BRANCH   1   2
ATOM      2  C   UNL     1      -1.463   5.173   8.806  1.00  0.00     0.000 C 
BRANCH   2   3
ATOM      3  C   UNL     1      -0.325   5.336   9.829  1.00  0.00     0.000 C 
BRANCH   3   4
ATOM      4  C   UNL     1       0.367   6.705   9.726  1.00  0.00     0.000 C 
BRANCH   4   5
ATOM      5  C   UNL     1       0.052   7.432   8.406  1.00  0.00     0.001 C 
BRANCH   5   6
ATOM      6  C   UNL     1       0.281   8.955   8.512  1.00  0.00     0.009 C 
BRANCH   6   7
ATOM      7  C   UNL     1       1.698   9.401   8.080  1.00  0.00     0.032 C 
ATOM      8  C   UNL     1       2.675   9.485   9.260  1.00  0.00     0.014 C 
BRANCH   7   9
ATOM      9  C   UNL     1       2.239   8.461   7.038  1.00  0.00     0.044 C 
ATOM     10  O   UNL     1       3.157   7.646   7.325  1.00  0.00    -0.550 OA
ATOM     11  O   UNL     1       1.731   8.492   5.745  1.00  0.00    -0.550 OA
ENDBRANCH   7   9
ENDBRANCH   6   7
ENDBRANCH   5   6
ENDBRANCH   4   5
ENDBRANCH   3   4
ENDBRANCH   2   3
ENDBRANCH   1   2
BRANCH   1  12
ATOM     12  C   UNL     1      -3.352   6.492   9.917  1.00  0.00     0.000 C 
BRANCH  12  13
ATOM     13  C   UNL     1      -4.772   6.796   9.410  1.00  0.00    -0.000 C 
BRANCH  13  14
ATOM     14  C   UNL     1      -5.345   5.663   8.538  1.00  0.00    -0.000 C 
BRANCH  14  15
ATOM     15  C   UNL     1      -6.879   5.693   8.465  1.00  0.00    -0.000 C 
BRANCH  15  16
ATOM     16  C   UNL     1      -7.422   7.048   7.983  1.00  0.00    -0.000 C 
BRANCH  16  17
ATOM     17  C   UNL     1      -7.121   7.260   6.492  1.00  0.00    -0.000 C 
BRANCH  17  18
ATOM     18  C   UNL     1      -8.275   7.952   5.749  1.00  0.00    -0.003 C 
ATOM     19  C   UNL     1      -7.796   9.069   4.823  1.00  0.00     0.004 C 
ENDBRANCH  17  18
ENDBRANCH  16  17
ENDBRANCH  15  16
ENDBRANCH  14  15
ENDBRANCH  13  14
ENDBRANCH  12  13
ENDBRANCH   1  12
TORSDOF 14
ENDMDL
MODEL 9
REMARK VINA RESULT:    -3.392      3.448      7.468
REMARK INTER + INTRA:          -7.651
REMARK INTER:                  -6.648
REMARK INTRA:                  -1.003
REMARK UNBOUND:                -1.483
REMARK SMILES CCCCCCCCCCCCCC[C@@H](C)C(=O)[O-]
REMARK SMILES IDX 9 1 10 2 11 3 12 4 13 5 14 6 15 7 16 8 17 9 18 10 19 11 8 12
REMARK SMILES IDX 7 13 6 14 5 15 4 16 3 17 2 18 1 19
REMARK H PARENT
REMARK Flexibility Score: inf
ROOT
ATOM      1  C   UNL     1      -2.349   4.914   9.010  1.00  0.00     0.000 C 
ENDROOT
BRANCH   1   2
ATOM      2  C   UNL     1      -3.423   4.111   9.762  1.00  0.00     0.000 C 
BRANCH   2   3
ATOM      3  C   UNL     1      -4.849   4.451   9.294  1.00  0.00     0.000 C 
BRANCH   3   4
ATOM      4  C   UNL     1      -4.877   5.622   8.297  1.00  0.00     0.000 C 
BRANCH   4   5
ATOM      5  C   UNL     1      -5.917   6.694   8.669  1.00  0.00     0.001 C 
BRANCH   5   6
ATOM      6  C   UNL     1      -6.866   7.016   7.495  1.00  0.00     0.009 C 
BRANCH   6   7
ATOM      7  C   UNL     1      -7.297   8.500   7.433  1.00  0.00     0.032 C 
ATOM      8  C   UNL     1      -6.215   9.450   7.961  1.00  0.00     0.014 C 
BRANCH   7   9
ATOM      9  C   UNL     1      -7.656   8.874   6.021  1.00  0.00     0.044 C 
ATOM     10  O   UNL     1      -7.216   9.939   5.508  1.00  0.00    -0.550 OA
ATOM     11  O   UNL     1      -8.485   8.047   5.273  1.00  0.00    -0.550 OA
ENDBRANCH   7   9
ENDBRANCH   6   7
ENDBRANCH   5   6
ENDBRANCH   4   5
ENDBRANCH   3   4
ENDBRANCH   2   3
ENDBRANCH   1   2
BRANCH   1  12
ATOM     12  C   UNL     1      -0.968   4.824   9.682  1.00  0.00     0.000 C 
BRANCH  12  13
ATOM     13  C   UNL     1      -0.201   6.156   9.636  1.00  0.00    -0.000 C 
BRANCH  13  14
ATOM     14  C   UNL     1      -1.010   7.284   8.969  1.00  0.00    -0.000 C 
BRANCH  14  15
ATOM     15  C   UNL     1      -0.151   8.158   8.043  1.00  0.00    -0.000 C 
BRANCH  15  16
ATOM     16  C   UNL     1       0.487   9.349   8.776  1.00  0.00    -0.000 C 
BRANCH  16  17
ATOM     17  C   UNL     1       1.913   9.607   8.266  1.00  0.00    -0.000 C 
BRANCH  17  18
ATOM     18  C   UNL     1       2.339   8.610   7.176  1.00  0.00    -0.003 C 
ATOM     19  C   UNL     1       3.576   7.803   7.564  1.00  0.00     0.004 C 
ENDBRANCH  17  18
ENDBRANCH  16  17
ENDBRANCH  15  16
ENDBRANCH  14  15
ENDBRANCH  13  14
ENDBRANCH  12  13
ENDBRANCH   1  12
TORSDOF 14
ENDMDL
