MODEL 1
REMARK VINA RESULT:    -5.009      0.000      0.000
REMARK INTER + INTRA:          -7.294
REMARK INTER:                  -6.766
REMARK INTRA:                  -0.528
REMARK UNBOUND:                -0.528
REMARK SMILES [NH3+]CCCC[C@H]([NH3+])C(=O)[O-]
REMARK SMILES IDX 4 1 3 2 2 3 1 4 5 8 6 9 7 10 8 14 9 15 10 16
REMARK H PARENT 1 5 1 6 1 7 7 11 7 12 7 13
REMARK Flexibility Score: inf
ROOT
ATOM      1  C   UNL     1       4.164   0.781  17.050  1.00  0.00     0.012 C 
ENDROOT
BRANCH   1   2
ATOM      2  C   UNL     1       5.176   1.209  18.124  1.00  0.00     0.061 C 
BRANCH   2   3
ATOM      3  C   UNL     1       5.194   0.259  19.332  1.00  0.00     0.258 C 
BRANCH   3   4
ATOM      4  N   UNL     1       4.683  -1.061  18.965  1.00  0.00    -0.358 N 
ATOM      5  H   UNL     1       4.342  -1.548  19.825  1.00  0.00     0.344 HD
ATOM      6  H   UNL     1       5.444  -1.634  18.531  1.00  0.00     0.344 HD
ATOM      7  H   UNL     1       3.886  -0.963  18.293  1.00  0.00     0.344 HD
ENDBRANCH   3   4
ENDBRANCH   2   3
ENDBRANCH   1   2
BRANCH   1   8
ATOM      8  C   UNL     1       4.766   0.783  15.634  1.00  0.00     0.072 C 
BRANCH   8   9
ATOM      9  C   UNL     1       6.250   0.351  15.619  1.00  0.00     0.227 C 
BRANCH   9  10
ATOM     10  N   UNL     1       7.005   1.039  14.563  1.00  0.00    -0.350 N 
ATOM     11  H   UNL     1       7.907   0.543  14.385  1.00  0.00     0.345 HD
ATOM     12  H   UNL     1       6.458   1.029  13.670  1.00  0.00     0.345 HD
ATOM     13  H   UNL     1       7.201   2.031  14.831  1.00  0.00     0.345 HD
ENDBRANCH   9  10
BRANCH   9  14
ATOM     14  C   UNL     1       6.341  -1.140  15.438  1.00  0.00     0.099 C 
ATOM     15  O   UNL     1       6.250  -1.911  16.430  1.00  0.00    -0.544 OA
ATOM     16  O   UNL     1       6.548  -1.675  14.172  1.00  0.00    -0.544 OA
ENDBRANCH   9  14
ENDBRANCH   8   9
ENDBRANCH   1   8
TORSDOF 7
ENDMDL
MODEL 2
REMARK VINA RESULT:    -4.999      0.304      1.057
REMARK INTER + INTRA:          -7.281
REMARK INTER:                  -6.738
REMARK INTRA:                  -0.543
REMARK UNBOUND:                -0.528
REMARK SMILES [NH3+]CCCC[C@H]([NH3+])C(=O)[O-]
REMARK SMILES IDX 4 1 3 2 2 3 1 4 5 8 6 9 7 10 8 14 9 15 10 16
REMARK H PARENT 1 5 1 6 1 7 7 11 7 12 7 13
REMARK Flexibility Score: inf
ROOT
ATOM      1  C   UNL     1       4.205   0.768  16.940  1.00  0.00     0.012 C 
ENDROOT
BRANCH   1   2
ATOM      2  C   UNL     1       5.083   1.110  18.153  1.00  0.00     0.061 C 
BRANCH   2   3
ATOM      3  C   UNL     1       4.930   0.096  19.299  1.00  0.00     0.258 C 
BRANCH   3   4
ATOM      4  N   UNL     1       4.687  -1.248  18.776  1.00  0.00    -0.358 N 
ATOM      5  H   UNL     1       4.834  -1.945  19.542  1.00  0.00     0.344 HD
ATOM      6  H   UNL     1       5.351  -1.457  17.996  1.00  0.00     0.344 HD
ATOM      7  H   UNL     1       3.701  -1.326  18.433  1.00  0.00     0.344 HD
ENDBRANCH   3   4
ENDBRANCH   2   3
ENDBRANCH   1   2
BRANCH   1   8
ATOM      8  C   UNL     1       4.994   0.764  15.619  1.00  0.00     0.072 C 
BRANCH   8   9
ATOM      9  C   UNL     1       6.454   0.289  15.800  1.00  0.00     0.227 C 
BRANCH   9  10
ATOM     10  N   UNL     1       7.391   1.097  15.006  1.00  0.00    -0.350 N 
ATOM     11  H   UNL     1       8.135   0.487  14.599  1.00  0.00     0.345 HD
ATOM     12  H   UNL     1       6.884   1.550  14.211  1.00  0.00     0.345 HD
ATOM     13  H   UNL     1       7.834   1.838  15.596  1.00  0.00     0.345 HD
ENDBRANCH   9  10
BRANCH   9  14
ATOM     14  C   UNL     1       6.565  -1.163  15.419  1.00  0.00     0.099 C 
ATOM     15  O   UNL     1       6.844  -1.493  14.236  1.00  0.00    -0.544 OA
ATOM     16  O   UNL     1       6.339  -2.150  16.370  1.00  0.00    -0.544 OA
ENDBRANCH   9  14
ENDBRANCH   8   9
ENDBRANCH   1   8
TORSDOF 7
ENDMDL
MODEL 3
REMARK VINA RESULT:    -4.838      2.054      4.036
REMARK INTER + INTRA:          -7.064
REMARK INTER:                  -6.966
REMARK INTRA:                  -0.097
REMARK UNBOUND:                -0.528
REMARK SMILES [NH3+]CCCC[C@H]([NH3+])C(=O)[O-]
REMARK SMILES IDX 4 1 3 2 2 3 1 4 5 8 6 9 7 10 8 14 9 15 10 16
REMARK H PARENT 1 5 1 6 1 7 7 11 7 12 7 13
REMARK Flexibility Score: inf
ROOT
ATOM      1  C   UNL     1       6.211   1.135  16.039  1.00  0.00     0.012 C 
ENDROOT
BRANCH   1   2
ATOM      2  C   UNL     1       6.777   0.786  14.654  1.00  0.00     0.061 C 
BRANCH   2   3
ATOM      3  C   UNL     1       7.237  -0.678  14.554  1.00  0.00     0.258 C 
BRANCH   3   4
ATOM      4  N   UNL     1       8.515  -0.775  13.847  1.00  0.00    -0.358 N 
ATOM      5  H   UNL     1       8.989  -1.667  14.119  1.00  0.00     0.344 HD
ATOM      6  H   UNL     1       9.131   0.029  14.107  1.00  0.00     0.344 HD
ATOM      7  H   UNL     1       8.353  -0.779  12.813  1.00  0.00     0.344 HD
ENDBRANCH   3   4
ENDBRANCH   2   3
ENDBRANCH   1   2
BRANCH   1   8
ATOM      8  C   UNL     1       4.741   0.708  16.202  1.00  0.00     0.072 C 
BRANCH   8   9
ATOM      9  C   UNL     1       4.255   0.803  17.666  1.00  0.00     0.227 C 
BRANCH   9  10
ATOM     10  N   UNL     1       5.134   1.658  18.476  1.00  0.00    -0.350 N 
ATOM     11  H   UNL     1       5.480   2.461  17.905  1.00  0.00     0.345 HD
ATOM     12  H   UNL     1       4.599   2.053  19.285  1.00  0.00     0.345 HD
ATOM     13  H   UNL     1       5.950   1.114  18.841  1.00  0.00     0.345 HD
ENDBRANCH   9  10
BRANCH   9  14
ATOM     14  C   UNL     1       4.175  -0.576  18.264  1.00  0.00     0.099 C 
ATOM     15  O   UNL     1       3.297  -0.850  19.124  1.00  0.00    -0.544 OA
ATOM     16  O   UNL     1       5.087  -1.553  17.882  1.00  0.00    -0.544 OA
ENDBRANCH   9  14
ENDBRANCH   8   9
ENDBRANCH   1   8
TORSDOF 7
ENDMDL
MODEL 4
REMARK VINA RESULT:    -4.539      1.994      2.170
REMARK INTER + INTRA:          -6.659
REMARK INTER:                  -6.400
REMARK INTRA:                  -0.259
REMARK UNBOUND:                -0.528
REMARK SMILES [NH3+]CCCC[C@H]([NH3+])C(=O)[O-]
REMARK SMILES IDX 4 1 3 2 2 3 1 4 5 8 6 9 7 10 8 14 9 15 10 16
REMARK H PARENT 1 5 1 6 1 7 7 11 7 12 7 13
REMARK Flexibility Score: inf
ROOT
ATOM      1  C   UNL     1       4.720  -0.685  17.154  1.00  0.00     0.012 C 
ENDROOT
BRANCH   1   2
ATOM      2  C   UNL     1       4.370  -0.666  18.650  1.00  0.00     0.061 C 
BRANCH   2   3
ATOM      3  C   UNL     1       5.210   0.348  19.443  1.00  0.00     0.258 C 
BRANCH   3   4
ATOM      4  N   UNL     1       4.444   0.900  20.560  1.00  0.00    -0.358 N 
ATOM      5  H   UNL     1       4.545   1.941  20.563  1.00  0.00     0.344 HD
ATOM      6  H   UNL     1       4.805   0.522  21.465  1.00  0.00     0.344 HD
ATOM      7  H   UNL     1       3.431   0.659  20.454  1.00  0.00     0.344 HD
ENDBRANCH   3   4
ENDBRANCH   2   3
ENDBRANCH   1   2
BRANCH   1   8
ATOM      8  C   UNL     1       4.598   0.702  16.500  1.00  0.00     0.072 C 
BRANCH   8   9
ATOM      9  C   UNL     1       5.697   0.960  15.445  1.00  0.00     0.227 C 
BRANCH   9  10
ATOM     10  N   UNL     1       5.689  -0.063  14.389  1.00  0.00    -0.350 N 
ATOM     11  H   UNL     1       4.706  -0.337  14.162  1.00  0.00     0.345 HD
ATOM     12  H   UNL     1       6.119   0.322  13.517  1.00  0.00     0.345 HD
ATOM     13  H   UNL     1       6.225  -0.910  14.689  1.00  0.00     0.345 HD
ENDBRANCH   9  10
BRANCH   9  14
ATOM     14  C   UNL     1       7.044   1.004  16.117  1.00  0.00     0.099 C 
ATOM     15  O   UNL     1       7.305   1.896  16.967  1.00  0.00    -0.544 OA
ATOM     16  O   UNL     1       8.016   0.068  15.785  1.00  0.00    -0.544 OA
ENDBRANCH   9  14
ENDBRANCH   8   9
ENDBRANCH   1   8
TORSDOF 7
ENDMDL
MODEL 5
REMARK VINA RESULT:    -4.475      4.184      5.582
REMARK INTER + INTRA:          -6.572
REMARK INTER:                  -6.109
REMARK INTRA:                  -0.463
REMARK UNBOUND:                -0.528
REMARK SMILES [NH3+]CCCC[C@H]([NH3+])C(=O)[O-]
REMARK SMILES IDX 4 1 3 2 2 3 1 4 5 8 6 9 7 10 8 14 9 15 10 16
REMARK H PARENT 1 5 1 6 1 7 7 11 7 12 7 13
REMARK Flexibility Score: inf
ROOT
ATOM      1  C   UNL     1      10.463  -4.098  15.466  1.00  0.00     0.012 C 
ENDROOT
BRANCH   1   2
ATOM      2  C   UNL     1       9.605  -5.098  14.675  1.00  0.00     0.061 C 
BRANCH   2   3
ATOM      3  C   UNL     1       8.205  -5.286  15.282  1.00  0.00     0.258 C 
BRANCH   3   4
ATOM      4  N   UNL     1       7.166  -4.914  14.321  1.00  0.00    -0.358 N 
ATOM      5  H   UNL     1       6.642  -4.086  14.688  1.00  0.00     0.344 HD
ATOM      6  H   UNL     1       6.497  -5.707  14.190  1.00  0.00     0.344 HD
ATOM      7  H   UNL     1       7.601  -4.660  13.404  1.00  0.00     0.344 HD
ENDBRANCH   3   4
ENDBRANCH   2   3
ENDBRANCH   1   2
BRANCH   1   8
ATOM      8  C   UNL     1       9.667  -2.860  15.915  1.00  0.00     0.072 C 
BRANCH   8   9
ATOM      9  C   UNL     1       9.513  -1.812  14.790  1.00  0.00     0.227 C 
BRANCH   9  10
ATOM     10  N   UNL     1      10.320  -0.612  15.051  1.00  0.00    -0.350 N 
ATOM     11  H   UNL     1      11.104  -0.841  15.702  1.00  0.00     0.345 HD
ATOM     12  H   UNL     1      10.742  -0.266  14.158  1.00  0.00     0.345 HD
ATOM     13  H   UNL     1       9.733   0.147  15.467  1.00  0.00     0.345 HD
ENDBRANCH   9  10
BRANCH   9  14
ATOM     14  C   UNL     1       8.062  -1.441  14.638  1.00  0.00     0.099 C 
ATOM     15  O   UNL     1       7.204  -1.871  15.453  1.00  0.00    -0.544 OA
ATOM     16  O   UNL     1       7.658  -0.636  13.580  1.00  0.00    -0.544 OA
ENDBRANCH   9  14
ENDBRANCH   8   9
ENDBRANCH   1   8
TORSDOF 7
ENDMDL
MODEL 6
REMARK VINA RESULT:    -4.429      1.599      2.293
REMARK INTER + INTRA:          -6.511
REMARK INTER:                  -6.341
REMARK INTRA:                  -0.171
REMARK UNBOUND:                -0.528
REMARK SMILES [NH3+]CCCC[C@H]([NH3+])C(=O)[O-]
REMARK SMILES IDX 4 1 3 2 2 3 1 4 5 8 6 9 7 10 8 14 9 15 10 16
REMARK H PARENT 1 5 1 6 1 7 7 11 7 12 7 13
REMARK Flexibility Score: inf
ROOT
ATOM      1  C   UNL     1       6.317   0.892  16.215  1.00  0.00     0.012 C 
ENDROOT
BRANCH   1   2
ATOM      2  C   UNL     1       4.791   0.834  16.046  1.00  0.00     0.061 C 
BRANCH   2   3
ATOM      3  C   UNL     1       4.047   0.814  17.391  1.00  0.00     0.258 C 
BRANCH   3   4
ATOM      4  N   UNL     1       4.778   1.579  18.402  1.00  0.00    -0.358 N 
ATOM      5  H   UNL     1       4.097   1.972  19.092  1.00  0.00     0.344 HD
ATOM      6  H   UNL     1       5.296   2.368  17.952  1.00  0.00     0.344 HD
ATOM      7  H   UNL     1       5.450   0.955  18.907  1.00  0.00     0.344 HD
ENDBRANCH   3   4
ENDBRANCH   2   3
ENDBRANCH   1   2
BRANCH   1   8
ATOM      8  C   UNL     1       7.070   0.605  14.904  1.00  0.00     0.072 C 
BRANCH   8   9
ATOM      9  C   UNL     1       7.957  -0.658  14.992  1.00  0.00     0.227 C 
BRANCH   9  10
ATOM     10  N   UNL     1       8.902  -0.738  13.869  1.00  0.00    -0.350 N 
ATOM     11  H   UNL     1       9.732  -0.132  14.054  1.00  0.00     0.345 HD
ATOM     12  H   UNL     1       9.245  -1.721  13.763  1.00  0.00     0.345 HD
ATOM     13  H   UNL     1       8.444  -0.439  12.977  1.00  0.00     0.345 HD
ENDBRANCH   9  10
BRANCH   9  14
ATOM     14  C   UNL     1       7.088  -1.886  15.031  1.00  0.00     0.099 C 
ATOM     15  O   UNL     1       6.445  -2.246  14.009  1.00  0.00    -0.544 OA
ATOM     16  O   UNL     1       6.975  -2.621  16.205  1.00  0.00    -0.544 OA
ENDBRANCH   9  14
ENDBRANCH   8   9
ENDBRANCH   1   8
TORSDOF 7
ENDMDL
MODEL 7
REMARK VINA RESULT:    -4.378      2.540      4.372
REMARK INTER + INTRA:          -6.442
REMARK INTER:                  -6.268
REMARK INTRA:                  -0.173
REMARK UNBOUND:                -0.528
REMARK SMILES [NH3+]CCCC[C@H]([NH3+])C(=O)[O-]
REMARK SMILES IDX 4 1 3 2 2 3 1 4 5 8 6 9 7 10 8 14 9 15 10 16
REMARK H PARENT 1 5 1 6 1 7 7 11 7 12 7 13
REMARK Flexibility Score: inf
ROOT
ATOM      1  C   UNL     1       5.167   0.788  15.343  1.00  0.00     0.012 C 
ENDROOT
BRANCH   1   2
ATOM      2  C   UNL     1       6.560   0.186  15.584  1.00  0.00     0.061 C 
BRANCH   2   3
ATOM      3  C   UNL     1       6.907  -0.924  14.579  1.00  0.00     0.258 C 
BRANCH   3   4
ATOM      4  N   UNL     1       8.173  -0.639  13.904  1.00  0.00    -0.358 N 
ATOM      5  H   UNL     1       8.789  -1.482  13.961  1.00  0.00     0.344 HD
ATOM      6  H   UNL     1       8.655   0.165  14.368  1.00  0.00     0.344 HD
ATOM      7  H   UNL     1       8.000  -0.415  12.896  1.00  0.00     0.344 HD
ENDBRANCH   3   4
ENDBRANCH   2   3
ENDBRANCH   1   2
BRANCH   1   8
ATOM      8  C   UNL     1       4.307   0.822  16.619  1.00  0.00     0.072 C 
BRANCH   8   9
ATOM      9  C   UNL     1       4.849  -0.113  17.725  1.00  0.00     0.227 C 
BRANCH   9  10
ATOM     10  N   UNL     1       3.888  -1.174  18.058  1.00  0.00    -0.350 N 
ATOM     11  H   UNL     1       4.331  -2.112  17.934  1.00  0.00     0.345 HD
ATOM     12  H   UNL     1       3.600  -1.091  19.060  1.00  0.00     0.345 HD
ATOM     13  H   UNL     1       3.038  -1.109  17.452  1.00  0.00     0.345 HD
ENDBRANCH   9  10
BRANCH   9  14
ATOM     14  C   UNL     1       5.180   0.694  18.953  1.00  0.00     0.099 C 
ATOM     15  O   UNL     1       4.937   1.929  18.990  1.00  0.00    -0.544 OA
ATOM     16  O   UNL     1       5.776   0.079  20.047  1.00  0.00    -0.544 OA
ENDBRANCH   9  14
ENDBRANCH   8   9
ENDBRANCH   1   8
TORSDOF 7
ENDMDL
MODEL 8
REMARK VINA RESULT:    -4.373      3.630      5.206
REMARK INTER + INTRA:          -6.434
REMARK INTER:                  -6.280
REMARK INTRA:                  -0.154
REMARK UNBOUND:                -0.528
REMARK SMILES [NH3+]CCCC[C@H]([NH3+])C(=O)[O-]
REMARK SMILES IDX 4 1 3 2 2 3 1 4 5 8 6 9 7 10 8 14 9 15 10 16
REMARK H PARENT 1 5 1 6 1 7 7 11 7 12 7 13
REMARK Flexibility Score: inf
ROOT
ATOM      1  C   UNL     1       9.632  -2.372  15.335  1.00  0.00     0.012 C 
ENDROOT
BRANCH   1   2
ATOM      2  C   UNL     1      10.222  -3.753  15.660  1.00  0.00     0.061 C 
BRANCH   2   3
ATOM      3  C   UNL     1       9.249  -4.901  15.346  1.00  0.00     0.258 C 
BRANCH   3   4
ATOM      4  N   UNL     1       9.566  -5.516  14.057  1.00  0.00    -0.358 N 
ATOM      5  H   UNL     1       9.194  -4.912  13.289  1.00  0.00     0.344 HD
ATOM      6  H   UNL     1       9.121  -6.460  13.990  1.00  0.00     0.344 HD
ATOM      7  H   UNL     1      10.603  -5.604  13.947  1.00  0.00     0.344 HD
ENDBRANCH   3   4
ENDBRANCH   2   3
ENDBRANCH   1   2
BRANCH   1   8
ATOM      8  C   UNL     1       8.096  -2.390  15.245  1.00  0.00     0.072 C 
BRANCH   8   9
ATOM      9  C   UNL     1       7.542  -1.274  14.331  1.00  0.00     0.227 C 
BRANCH   9  10
ATOM     10  N   UNL     1       8.592  -0.698  13.479  1.00  0.00    -0.350 N 
ATOM     11  H   UNL     1       8.613   0.341  13.588  1.00  0.00     0.345 HD
ATOM     12  H   UNL     1       9.528  -1.065  13.771  1.00  0.00     0.345 HD
ATOM     13  H   UNL     1       8.429  -0.939  12.474  1.00  0.00     0.345 HD
ENDBRANCH   9  10
BRANCH   9  14
ATOM     14  C   UNL     1       6.906  -0.199  15.173  1.00  0.00     0.099 C 
ATOM     15  O   UNL     1       6.482  -0.461  16.329  1.00  0.00    -0.544 OA
ATOM     16  O   UNL     1       6.766   1.087  14.666  1.00  0.00    -0.544 OA
ENDBRANCH   9  14
ENDBRANCH   8   9
ENDBRANCH   1   8
TORSDOF 7
ENDMDL
MODEL 9
REMARK VINA RESULT:    -4.198      2.704      3.814
REMARK INTER + INTRA:          -6.198
REMARK INTER:                  -6.095
REMARK INTRA:                  -0.103
REMARK UNBOUND:                -0.528
REMARK SMILES [NH3+]CCCC[C@H]([NH3+])C(=O)[O-]
REMARK SMILES IDX 4 1 3 2 2 3 1 4 5 8 6 9 7 10 8 14 9 15 10 16
REMARK H PARENT 1 5 1 6 1 7 7 11 7 12 7 13
REMARK Flexibility Score: inf
ROOT
ATOM      1  C   UNL     1       8.024   1.197  15.956  1.00  0.00     0.012 C 
ENDROOT
BRANCH   1   2
ATOM      2  C   UNL     1       8.273   2.420  16.851  1.00  0.00     0.061 C 
BRANCH   2   3
ATOM      3  C   UNL     1       9.762   2.622  17.177  1.00  0.00     0.258 C 
BRANCH   3   4
ATOM      4  N   UNL     1      10.583   1.608  16.516  1.00  0.00    -0.358 N 
ATOM      5  H   UNL     1      10.514   0.711  17.050  1.00  0.00     0.344 HD
ATOM      6  H   UNL     1      11.583   1.912  16.494  1.00  0.00     0.344 HD
ATOM      7  H   UNL     1      10.238   1.448  15.541  1.00  0.00     0.344 HD
ENDBRANCH   3   4
ENDBRANCH   2   3
ENDBRANCH   1   2
BRANCH   1   8
ATOM      8  C   UNL     1       6.566   1.103  15.473  1.00  0.00     0.072 C 
BRANCH   8   9
ATOM      9  C   UNL     1       6.007  -0.336  15.549  1.00  0.00     0.227 C 
BRANCH   9  10
ATOM     10  N   UNL     1       5.352  -0.731  14.293  1.00  0.00    -0.350 N 
ATOM     11  H   UNL     1       4.334  -0.499  14.331  1.00  0.00     0.345 HD
ATOM     12  H   UNL     1       5.768  -0.199  13.493  1.00  0.00     0.345 HD
ATOM     13  H   UNL     1       5.469  -1.755  14.119  1.00  0.00     0.345 HD
ENDBRANCH   9  10
BRANCH   9  14
ATOM     14  C   UNL     1       5.040  -0.443  16.697  1.00  0.00     0.099 C 
ATOM     15  O   UNL     1       4.136   0.420  16.855  1.00  0.00    -0.544 OA
ATOM     16  O   UNL     1       5.153  -1.490  17.605  1.00  0.00    -0.544 OA
ENDBRANCH   9  14
ENDBRANCH   8   9
ENDBRANCH   1   8
TORSDOF 7
ENDMDL
