MODEL 1
REMARK VINA RESULT:    -5.373      0.000      0.000
REMARK INTER + INTRA:          -6.553
REMARK INTER:                  -7.572
REMARK INTRA:                   1.019
REMARK UNBOUND:                 1.019
REMARK SMILES CC1=CCC(=C(C)C)C(=O)CC(C)=CCC1
REMARK SMILES IDX 12 1 14 2 13 3 15 4 16 5 2 6 1 7 3 8 11 10 9 11 10 12 5 13
REMARK SMILES IDX 6 14 7 15 8 16 4 17
REMARK H PARENT
REMARK Flexibility Score: 60.00
ROOT
ATOM      1  C   UNL     1      -3.244  12.911 -31.139  1.00  0.00    -0.070 C 
ATOM      2  C   UNL     1      -1.957  13.244 -31.419  1.00  0.00    -0.027 C 
ATOM      3  C   UNL     1      -4.278  14.006 -31.240  1.00  0.00     0.039 C 
ENDROOT
BRANCH   2   4
ATOM      4  C   UNL     1      -0.754  12.342 -31.285  1.00  0.00     0.032 C 
BRANCH   4   5
ATOM      5  C   UNL     1      -0.569  11.782 -29.867  1.00  0.00     0.034 C 
BRANCH   5   6
ATOM      6  C   UNL     1      -0.577  12.910 -28.854  1.00  0.00    -0.077 C 
ATOM      7  C   UNL     1       0.430  14.021 -29.013  1.00  0.00     0.039 C 
ATOM      8  C   UNL     1      -1.490  13.014 -27.859  1.00  0.00    -0.023 CG0
ATOM      9  G   UNL     1      -2.560  11.997 -27.535  1.00  0.00     0.000 G0
ENDBRANCH   5   6
ENDBRANCH   4   5
ENDBRANCH   2   4
BRANCH   1  10
ATOM     10  C   UNL     1      -3.718  11.499 -30.811  1.00  0.00     0.111 C 
BRANCH  10  11
ATOM     11  C   UNL     1      -4.237  11.338 -29.404  1.00  0.00     0.163 C 
ATOM     12  O   UNL     1      -4.981  10.347 -29.166  1.00  0.00    -0.294 OA
BRANCH  11  13
ATOM     13  C   UNL     1      -3.856  12.267 -28.288  1.00  0.00    -0.002 C 
ATOM     14  C   UNL     1      -4.631  13.356 -27.990  1.00  0.00    -0.069 C 
ATOM     15  C   UNL     1      -4.218  14.361 -26.935  1.00  0.00     0.039 C 
ATOM     16  C   UNL     1      -5.965  13.593 -28.662  1.00  0.00     0.039 C 
BRANCH  13  17
ATOM     17  C   UNL     1      -2.558  12.005 -27.526  1.00  0.00     0.066 CG0
ATOM     18  G   UNL     1      -1.489  13.020 -27.855  1.00  0.00     0.000 G0
ENDBRANCH  13  17
ENDBRANCH  11  13
ENDBRANCH  10  11
ENDBRANCH   1  10
TORSDOF 0
ENDMDL
MODEL 2
REMARK VINA RESULT:    -5.282      2.051      3.087
REMARK INTER + INTRA:          -6.425
REMARK INTER:                  -6.724
REMARK INTRA:                   0.299
REMARK UNBOUND:                 1.019
REMARK SMILES CC1=CCC(=C(C)C)C(=O)CC(C)=CCC1
REMARK SMILES IDX 12 1 14 2 13 3 15 4 16 5 2 6 1 7 3 8 11 10 9 11 10 12 5 13
REMARK SMILES IDX 6 14 7 15 8 16 4 17
REMARK H PARENT
REMARK Flexibility Score: 60.00
ROOT
ATOM      1  C   UNL     1      -3.851  10.477 -29.079  1.00  0.00    -0.070 C 
ATOM      2  C   UNL     1      -3.064   9.875 -30.007  1.00  0.00    -0.027 C 
ATOM      3  C   UNL     1      -5.323  10.144 -29.102  1.00  0.00     0.039 C 
ENDROOT
BRANCH   2   4
ATOM      4  C   UNL     1      -1.594  10.136 -30.233  1.00  0.00     0.032 C 
BRANCH   4   5
ATOM      5  C   UNL     1      -1.307  10.921 -31.520  1.00  0.00     0.034 C 
BRANCH   5   6
ATOM      6  C   UNL     1      -0.795  12.308 -31.184  1.00  0.00    -0.077 C 
ATOM      7  C   UNL     1       0.696  12.528 -31.138  1.00  0.00     0.039 C 
ATOM      8  C   UNL     1      -1.604  13.378 -31.001  1.00  0.00    -0.023 CG0
ATOM      9  G   UNL     1      -3.114  13.350 -30.995  1.00  0.00     0.000 G0
ENDBRANCH   5   6
ENDBRANCH   4   5
ENDBRANCH   2   4
BRANCH   1  10
ATOM     10  C   UNL     1      -3.336  11.398 -27.976  1.00  0.00     0.111 C 
BRANCH  10  11
ATOM     11  C   UNL     1      -2.971  12.780 -28.453  1.00  0.00     0.163 C 
ATOM     12  O   UNL     1      -1.985  13.345 -27.905  1.00  0.00    -0.294 OA
BRANCH  11  13
ATOM     13  C   UNL     1      -3.689  13.468 -29.578  1.00  0.00    -0.002 C 
ATOM     14  C   UNL     1      -4.864  14.135 -29.352  1.00  0.00    -0.069 C 
ATOM     15  C   UNL     1      -5.658  14.752 -30.484  1.00  0.00     0.039 C 
ATOM     16  C   UNL     1      -5.411  14.336 -27.956  1.00  0.00     0.039 C 
BRANCH  13  17
ATOM     17  C   UNL     1      -3.115  13.362 -30.990  1.00  0.00     0.066 CG0
ATOM     18  G   UNL     1      -1.604  13.383 -30.994  1.00  0.00     0.000 G0
ENDBRANCH  13  17
ENDBRANCH  11  13
ENDBRANCH  10  11
ENDBRANCH   1  10
TORSDOF 0
ENDMDL
MODEL 3
REMARK VINA RESULT:    -5.230      1.304      3.485
REMARK INTER + INTRA:          -6.352
REMARK INTER:                  -6.902
REMARK INTRA:                   0.550
REMARK UNBOUND:                 1.019
REMARK SMILES CC1=CCC(=C(C)C)C(=O)CC(C)=CCC1
REMARK SMILES IDX 12 1 14 2 13 3 15 4 16 5 2 6 1 7 3 8 11 10 9 11 10 12 5 13
REMARK SMILES IDX 6 14 7 15 8 16 4 17
REMARK H PARENT
REMARK Flexibility Score: 60.00
ROOT
ATOM      1  C   UNL     1      -4.049  13.358 -31.105  1.00  0.00    -0.070 C 
ATOM      2  C   UNL     1      -4.738  14.162 -30.256  1.00  0.00    -0.027 C 
ATOM      3  C   UNL     1      -3.272  14.028 -32.213  1.00  0.00     0.039 C 
ENDROOT
BRANCH   2   4
ATOM      4  C   UNL     1      -5.657  13.708 -29.147  1.00  0.00     0.032 C 
BRANCH   4   5
ATOM      5  C   UNL     1      -5.009  12.688 -28.201  1.00  0.00     0.034 C 
BRANCH   5   6
ATOM      6  C   UNL     1      -3.901  13.345 -27.403  1.00  0.00    -0.077 C 
ATOM      7  C   UNL     1      -4.234  14.570 -26.590  1.00  0.00     0.039 C 
ATOM      8  C   UNL     1      -2.645  12.845 -27.317  1.00  0.00    -0.023 CG0
ATOM      9  G   UNL     1      -2.123  11.641 -28.066  1.00  0.00     0.000 G0
ENDBRANCH   5   6
ENDBRANCH   4   5
ENDBRANCH   2   4
BRANCH   1  10
ATOM     10  C   UNL     1      -3.946  11.842 -30.967  1.00  0.00     0.111 C 
BRANCH  10  11
ATOM     11  C   UNL     1      -2.564  11.350 -30.620  1.00  0.00     0.163 C 
ATOM     12  O   UNL     1      -2.077  10.427 -31.329  1.00  0.00    -0.294 OA
BRANCH  11  13
ATOM     13  C   UNL     1      -1.740  11.953 -29.519  1.00  0.00    -0.002 C 
ATOM     14  C   UNL     1      -0.649  12.730 -29.807  1.00  0.00    -0.069 C 
ATOM     15  C   UNL     1       0.253  13.268 -28.718  1.00  0.00     0.039 C 
ATOM     16  C   UNL     1      -0.312  13.136 -31.225  1.00  0.00     0.039 C 
BRANCH  13  17
ATOM     17  C   UNL     1      -2.108  11.638 -28.070  1.00  0.00     0.066 CG0
ATOM     18  G   UNL     1      -2.641  12.849 -27.341  1.00  0.00     0.000 G0
ENDBRANCH  13  17
ENDBRANCH  11  13
ENDBRANCH  10  11
ENDBRANCH   1  10
TORSDOF 0
ENDMDL
MODEL 4
REMARK VINA RESULT:    -4.901      1.903      4.444
REMARK INTER + INTRA:          -5.889
REMARK INTER:                  -6.994
REMARK INTRA:                   1.106
REMARK UNBOUND:                 1.019
REMARK SMILES CC1=CCC(=C(C)C)C(=O)CC(C)=CCC1
REMARK SMILES IDX 12 1 14 2 13 3 15 4 16 5 2 6 1 7 3 8 11 10 9 11 10 12 5 13
REMARK SMILES IDX 6 14 7 15 8 16 4 17
REMARK H PARENT
REMARK Flexibility Score: 60.00
ROOT
ATOM      1  C   UNL     1      -3.312  11.160 -27.781  1.00  0.00    -0.070 C 
ATOM      2  C   UNL     1      -3.149  12.176 -26.895  1.00  0.00    -0.027 C 
ATOM      3  C   UNL     1      -2.388   9.974 -27.650  1.00  0.00     0.039 C 
ENDROOT
BRANCH   2   4
ATOM      4  C   UNL     1      -3.888  13.492 -26.904  1.00  0.00     0.032 C 
BRANCH   4   5
ATOM      5  C   UNL     1      -3.678  14.298 -28.194  1.00  0.00     0.034 C 
BRANCH   5   6
ATOM      6  C   UNL     1      -4.937  14.271 -29.038  1.00  0.00    -0.077 C 
ATOM      7  C   UNL     1      -6.247  14.624 -28.380  1.00  0.00     0.039 C 
ATOM      8  C   UNL     1      -4.938  14.023 -30.369  1.00  0.00    -0.023 CG0
ATOM      9  G   UNL     1      -3.733  13.638 -31.195  1.00  0.00     0.000 G0
ENDBRANCH   5   6
ENDBRANCH   4   5
ENDBRANCH   2   4
BRANCH   1  10
ATOM     10  C   UNL     1      -4.410  11.105 -28.840  1.00  0.00     0.111 C 
BRANCH  10  11
ATOM     11  C   UNL     1      -3.903  11.223 -30.255  1.00  0.00     0.163 C 
ATOM     12  O   UNL     1      -4.265  10.341 -31.081  1.00  0.00    -0.294 OA
BRANCH  11  13
ATOM     13  C   UNL     1      -3.046  12.366 -30.718  1.00  0.00    -0.002 C 
ATOM     14  C   UNL     1      -1.680  12.285 -30.658  1.00  0.00    -0.069 C 
ATOM     15  C   UNL     1      -0.797  13.458 -31.026  1.00  0.00     0.039 C 
ATOM     16  C   UNL     1      -0.975  11.005 -30.268  1.00  0.00     0.039 C 
BRANCH  13  17
ATOM     17  C   UNL     1      -3.728  13.644 -31.205  1.00  0.00     0.066 CG0
ATOM     18  G   UNL     1      -4.950  13.986 -30.385  1.00  0.00     0.000 G0
ENDBRANCH  13  17
ENDBRANCH  11  13
ENDBRANCH  10  11
ENDBRANCH   1  10
TORSDOF 0
ENDMDL
MODEL 5
REMARK VINA RESULT:    -4.858      1.527      3.490
REMARK INTER + INTRA:          -5.828
REMARK INTER:                  -6.578
REMARK INTRA:                   0.751
REMARK UNBOUND:                 1.019
REMARK SMILES CC1=CCC(=C(C)C)C(=O)CC(C)=CCC1
REMARK SMILES IDX 12 1 14 2 13 3 15 4 16 5 2 6 1 7 3 8 11 10 9 11 10 12 5 13
REMARK SMILES IDX 6 14 7 15 8 16 4 17
REMARK H PARENT
REMARK Flexibility Score: 60.00
ROOT
ATOM      1  C   UNL     1      -0.209  12.864 -30.503  1.00  0.00    -0.070 C 
ATOM      2  C   UNL     1      -0.154  12.902 -29.148  1.00  0.00    -0.027 C 
ATOM      3  C   UNL     1       0.965  12.251 -31.226  1.00  0.00     0.039 C 
ENDROOT
BRANCH   2   4
ATOM      4  C   UNL     1      -1.161  13.556 -28.232  1.00  0.00     0.032 C 
BRANCH   4   5
ATOM      5  C   UNL     1      -2.142  12.560 -27.599  1.00  0.00     0.034 C 
BRANCH   5   6
ATOM      6  C   UNL     1      -3.482  13.226 -27.358  1.00  0.00    -0.077 C 
ATOM      7  C   UNL     1      -3.629  14.120 -26.153  1.00  0.00     0.039 C 
ATOM      8  C   UNL     1      -4.531  13.124 -28.208  1.00  0.00    -0.023 CG0
ATOM      9  G   UNL     1      -4.576  12.268 -29.452  1.00  0.00     0.000 G0
ENDBRANCH   5   6
ENDBRANCH   4   5
ENDBRANCH   2   4
BRANCH   1  10
ATOM     10  C   UNL     1      -1.405  13.326 -31.332  1.00  0.00     0.111 C 
BRANCH  10  11
ATOM     11  C   UNL     1      -2.630  12.461 -31.175  1.00  0.00     0.163 C 
ATOM     12  O   UNL     1      -2.517  11.234 -31.447  1.00  0.00    -0.294 OA
BRANCH  11  13
ATOM     13  C   UNL     1      -3.937  12.990 -30.659  1.00  0.00    -0.002 C 
ATOM     14  C   UNL     1      -4.508  14.104 -31.215  1.00  0.00    -0.069 C 
ATOM     15  C   UNL     1      -5.774  14.713 -30.651  1.00  0.00     0.039 C 
ATOM     16  C   UNL     1      -3.936  14.759 -32.453  1.00  0.00     0.039 C 
BRANCH  13  17
ATOM     17  C   UNL     1      -4.590  12.295 -29.466  1.00  0.00     0.066 CG0
ATOM     18  G   UNL     1      -4.530  13.137 -28.213  1.00  0.00     0.000 G0
ENDBRANCH  13  17
ENDBRANCH  11  13
ENDBRANCH  10  11
ENDBRANCH   1  10
TORSDOF 0
ENDMDL
MODEL 6
REMARK VINA RESULT:    -4.752      2.206      3.909
REMARK INTER + INTRA:          -5.679
REMARK INTER:                  -6.487
REMARK INTRA:                   0.809
REMARK UNBOUND:                 1.019
REMARK SMILES CC1=CCC(=C(C)C)C(=O)CC(C)=CCC1
REMARK SMILES IDX 12 1 14 2 13 3 15 4 16 5 2 6 1 7 3 8 11 10 9 11 10 12 5 13
REMARK SMILES IDX 6 14 7 15 8 16 4 17
REMARK H PARENT
REMARK Flexibility Score: 60.00
ROOT
ATOM      1  C   UNL     1      -2.313  11.292 -27.669  1.00  0.00    -0.070 C 
ATOM      2  C   UNL     1      -2.466  10.154 -28.393  1.00  0.00    -0.027 C 
ATOM      3  C   UNL     1      -3.089  11.401 -26.379  1.00  0.00     0.039 C 
ENDROOT
BRANCH   2   4
ATOM      4  C   UNL     1      -1.871   9.875 -29.752  1.00  0.00     0.032 C 
BRANCH   4   5
ATOM      5  C   UNL     1      -2.129  10.995 -30.769  1.00  0.00     0.034 C 
BRANCH   5   6
ATOM      6  C   UNL     1      -3.619  11.208 -30.948  1.00  0.00    -0.077 C 
ATOM      7  C   UNL     1      -4.472  10.020 -31.312  1.00  0.00     0.039 C 
ATOM      8  C   UNL     1      -4.237  12.392 -30.722  1.00  0.00    -0.023 CG0
ATOM      9  G   UNL     1      -3.551  13.690 -30.366  1.00  0.00     0.000 G0
ENDBRANCH   5   6
ENDBRANCH   4   5
ENDBRANCH   2   4
BRANCH   1  10
ATOM     10  C   UNL     1      -1.356  12.425 -28.033  1.00  0.00     0.111 C 
BRANCH  10  11
ATOM     11  C   UNL     1      -2.035  13.753 -28.254  1.00  0.00     0.163 C 
ATOM     12  O   UNL     1      -1.387  14.795 -27.961  1.00  0.00    -0.294 OA
BRANCH  11  13
ATOM     13  C   UNL     1      -3.405  13.874 -28.856  1.00  0.00    -0.002 C 
ATOM     14  C   UNL     1      -4.501  14.086 -28.062  1.00  0.00    -0.069 C 
ATOM     15  C   UNL     1      -5.902  14.114 -28.633  1.00  0.00     0.039 C 
ATOM     16  C   UNL     1      -4.370  14.351 -26.578  1.00  0.00     0.039 C 
BRANCH  13  17
ATOM     17  C   UNL     1      -3.561  13.703 -30.366  1.00  0.00     0.066 CG0
ATOM     18  G   UNL     1      -4.232  12.398 -30.725  1.00  0.00     0.000 G0
ENDBRANCH  13  17
ENDBRANCH  11  13
ENDBRANCH  10  11
ENDBRANCH   1  10
TORSDOF 0
ENDMDL
MODEL 7
REMARK VINA RESULT:    -4.697      1.705      3.178
REMARK INTER + INTRA:          -5.600
REMARK INTER:                  -6.023
REMARK INTRA:                   0.424
REMARK UNBOUND:                 1.019
REMARK SMILES CC1=CCC(=C(C)C)C(=O)CC(C)=CCC1
REMARK SMILES IDX 12 1 14 2 13 3 15 4 16 5 2 6 1 7 3 8 11 10 9 11 10 12 5 13
REMARK SMILES IDX 6 14 7 15 8 16 4 17
REMARK H PARENT
REMARK Flexibility Score: 60.00
ROOT
ATOM      1  C   UNL     1      -0.955  13.316 -28.930  1.00  0.00    -0.070 C 
ATOM      2  C   UNL     1      -0.874  13.659 -30.241  1.00  0.00    -0.027 C 
ATOM      3  C   UNL     1      -0.599  14.375 -27.915  1.00  0.00     0.039 C 
ENDROOT
BRANCH   2   4
ATOM      4  C   UNL     1      -1.084  12.737 -31.418  1.00  0.00     0.032 C 
BRANCH   4   5
ATOM      5  C   UNL     1      -2.510  12.177 -31.503  1.00  0.00     0.034 C 
BRANCH   5   6
ATOM      6  C   UNL     1      -3.522  13.301 -31.404  1.00  0.00    -0.077 C 
ATOM      7  C   UNL     1      -3.503  14.375 -32.462  1.00  0.00     0.039 C 
ATOM      8  C   UNL     1      -4.491  13.352 -30.460  1.00  0.00    -0.023 CG0
ATOM      9  G   UNL     1      -4.659  12.380 -29.316  1.00  0.00     0.000 G0
ENDBRANCH   5   6
ENDBRANCH   4   5
ENDBRANCH   2   4
BRANCH   1  10
ATOM     10  C   UNL     1      -1.455  11.967 -28.419  1.00  0.00     0.111 C 
BRANCH  10  11
ATOM     11  C   UNL     1      -2.721  12.051 -27.605  1.00  0.00     0.163 C 
ATOM     12  O   UNL     1      -2.728  11.484 -26.477  1.00  0.00    -0.294 OA
BRANCH  11  13
ATOM     13  C   UNL     1      -3.927  12.822 -28.056  1.00  0.00    -0.002 C 
ATOM     14  C   UNL     1      -4.395  13.880 -27.323  1.00  0.00    -0.069 C 
ATOM     15  C   UNL     1      -5.664  14.612 -27.703  1.00  0.00     0.039 C 
ATOM     16  C   UNL     1      -3.645  14.410 -26.120  1.00  0.00     0.039 C 
BRANCH  13  17
ATOM     17  C   UNL     1      -4.657  12.370 -29.320  1.00  0.00     0.066 CG0
ATOM     18  G   UNL     1      -4.491  13.352 -30.456  1.00  0.00     0.000 G0
ENDBRANCH  13  17
ENDBRANCH  11  13
ENDBRANCH  10  11
ENDBRANCH   1  10
TORSDOF 0
ENDMDL
MODEL 8
REMARK VINA RESULT:    -4.666      1.701      3.324
REMARK INTER + INTRA:          -5.557
REMARK INTER:                  -6.908
REMARK INTRA:                   1.351
REMARK UNBOUND:                 1.019
REMARK SMILES CC1=CCC(=C(C)C)C(=O)CC(C)=CCC1
REMARK SMILES IDX 12 1 14 2 13 3 15 4 16 5 2 6 1 7 3 8 11 10 9 11 10 12 5 13
REMARK SMILES IDX 6 14 7 15 8 16 4 17
REMARK H PARENT
REMARK Flexibility Score: 60.00
ROOT
ATOM      1  C   UNL     1      -2.805  11.640 -27.449  1.00  0.00    -0.070 C 
ATOM      2  C   UNL     1      -2.375  10.610 -28.220  1.00  0.00    -0.027 C 
ATOM      3  C   UNL     1      -2.752  11.452 -25.952  1.00  0.00     0.039 C 
ENDROOT
BRANCH   2   4
ATOM      4  C   UNL     1      -2.433  10.540 -29.727  1.00  0.00     0.032 C 
BRANCH   4   5
ATOM      5  C   UNL     1      -1.096  10.872 -30.403  1.00  0.00     0.034 C 
BRANCH   5   6
ATOM      6  C   UNL     1      -0.835  12.364 -30.345  1.00  0.00    -0.077 C 
ATOM      7  C   UNL     1       0.501  12.837 -29.831  1.00  0.00     0.039 C 
ATOM      8  C   UNL     1      -1.708  13.293 -30.802  1.00  0.00    -0.023 CG0
ATOM      9  G   UNL     1      -3.093  13.012 -31.336  1.00  0.00     0.000 G0
ENDBRANCH   5   6
ENDBRANCH   4   5
ENDBRANCH   2   4
BRANCH   1  10
ATOM     10  C   UNL     1      -3.262  12.992 -27.990  1.00  0.00     0.111 C 
BRANCH  10  11
ATOM     11  C   UNL     1      -4.336  12.900 -29.044  1.00  0.00     0.163 C 
ATOM     12  O   UNL     1      -5.407  12.308 -28.735  1.00  0.00    -0.294 OA
BRANCH  11  13
ATOM     13  C   UNL     1      -4.198  13.528 -30.400  1.00  0.00    -0.002 C 
ATOM     14  C   UNL     1      -5.068  14.503 -30.811  1.00  0.00    -0.069 C 
ATOM     15  C   UNL     1      -5.011  15.082 -32.208  1.00  0.00     0.039 C 
ATOM     16  C   UNL     1      -6.103  15.091 -29.877  1.00  0.00     0.039 C 
BRANCH  13  17
ATOM     17  C   UNL     1      -3.103  13.020 -31.337  1.00  0.00     0.066 CG0
ATOM     18  G   UNL     1      -1.718  13.303 -30.801  1.00  0.00     0.000 G0
ENDBRANCH  13  17
ENDBRANCH  11  13
ENDBRANCH  10  11
ENDBRANCH   1  10
TORSDOF 0
ENDMDL
MODEL 9
REMARK VINA RESULT:    -4.601      1.619      4.063
REMARK INTER + INTRA:          -5.464
REMARK INTER:                  -6.112
REMARK INTRA:                   0.647
REMARK UNBOUND:                 1.019
REMARK SMILES CC1=CCC(=C(C)C)C(=O)CC(C)=CCC1
REMARK SMILES IDX 12 1 14 2 13 3 15 4 16 5 2 6 1 7 3 8 11 10 9 11 10 12 5 13
REMARK SMILES IDX 6 14 7 15 8 16 4 17
REMARK H PARENT
REMARK Flexibility Score: 60.00
ROOT
ATOM      1  C   UNL     1      -3.844  11.270 -29.663  1.00  0.00    -0.070 C 
ATOM      2  C   UNL     1      -4.639  11.866 -28.737  1.00  0.00    -0.027 C 
ATOM      3  C   UNL     1      -3.271   9.918 -29.313  1.00  0.00     0.039 C 
ENDROOT
BRANCH   2   4
ATOM      4  C   UNL     1      -5.231  13.251 -28.832  1.00  0.00     0.032 C 
BRANCH   4   5
ATOM      5  C   UNL     1      -4.528  14.275 -27.930  1.00  0.00     0.034 C 
BRANCH   5   6
ATOM      6  C   UNL     1      -3.338  13.637 -27.242  1.00  0.00    -0.077 C 
ATOM      7  C   UNL     1      -3.572  12.892 -25.952  1.00  0.00     0.039 C 
ATOM      8  C   UNL     1      -2.088  13.634 -27.762  1.00  0.00    -0.023 CG0
ATOM      9  G   UNL     1      -1.659  14.335 -29.030  1.00  0.00     0.000 G0
ENDBRANCH   5   6
ENDBRANCH   4   5
ENDBRANCH   2   4
BRANCH   1  10
ATOM     10  C   UNL     1      -3.558  11.837 -31.050  1.00  0.00     0.111 C 
BRANCH  10  11
ATOM     11  C   UNL     1      -2.815  13.149 -31.035  1.00  0.00     0.163 C 
ATOM     12  O   UNL     1      -3.297  14.101 -31.708  1.00  0.00    -0.294 OA
BRANCH  11  13
ATOM     13  C   UNL     1      -1.577  13.371 -30.215  1.00  0.00    -0.002 C 
ATOM     14  C   UNL     1      -0.421  12.693 -30.498  1.00  0.00    -0.069 C 
ATOM     15  C   UNL     1       0.811  12.825 -29.628  1.00  0.00     0.039 C 
ATOM     16  C   UNL     1      -0.292  11.812 -31.722  1.00  0.00     0.039 C 
BRANCH  13  17
ATOM     17  C   UNL     1      -1.647  14.325 -29.025  1.00  0.00     0.066 CG0
ATOM     18  G   UNL     1      -2.082  13.626 -27.758  1.00  0.00     0.000 G0
ENDBRANCH  13  17
ENDBRANCH  11  13
ENDBRANCH  10  11
ENDBRANCH   1  10
TORSDOF 0
ENDMDL
