MODEL 1
REMARK VINA RESULT:    -6.826      0.000      0.000
REMARK INTER + INTRA:          -8.803
REMARK INTER:                  -8.422
REMARK INTRA:                  -0.381
REMARK UNBOUND:                -0.381
REMARK SMILES O=C1c2c(O)cc(O)cc2O[C@H](c2cc(O)c(O)c(O)c2)[C@H]1O
REMARK SMILES IDX 12 1 22 2 2 3 1 4 3 5 4 6 6 7 7 8 9 9 10 10 11 11 13 12
REMARK SMILES IDX 14 13 15 14 21 15 17 16 19 17 16 18 18 20 20 22 23 24 5 26
REMARK SMILES IDX 8 28
REMARK H PARENT 16 19 18 21 20 23 23 25 5 27 8 29
REMARK Flexibility Score: inf
ROOT
ATOM      1  C   UNL     1       4.722   9.224 -23.747  1.00  0.00     0.240 C 
ATOM      2  C   UNL     1       5.622   8.187 -23.044  1.00  0.00     0.231 C 
ATOM      3  C   UNL     1       4.792   6.994 -22.648  1.00  0.00     0.202 C 
ATOM      4  O   UNL     1       4.923   6.492 -21.500  1.00  0.00    -0.291 OA
ATOM      5  C   UNL     1       3.797   6.465 -23.616  1.00  0.00     0.105 A 
ATOM      6  C   UNL     1       3.231   5.165 -23.544  1.00  0.00     0.133 A 
ATOM      7  C   UNL     1       2.245   4.789 -24.467  1.00  0.00     0.093 A 
ATOM      8  C   UNL     1       1.858   5.654 -25.491  1.00  0.00     0.123 A 
ATOM      9  C   UNL     1       2.449   6.915 -25.597  1.00  0.00     0.093 A 
ATOM     10  C   UNL     1       3.404   7.327 -24.664  1.00  0.00     0.138 A 
ATOM     11  O   UNL     1       3.967   8.604 -24.790  1.00  0.00    -0.481 OA
ENDROOT
BRANCH   1  12
ATOM     12  C   UNL     1       5.542  10.359 -24.315  1.00  0.00     0.003 A 
ATOM     13  C   UNL     1       6.341  10.154 -25.451  1.00  0.00     0.058 A 
ATOM     14  C   UNL     1       7.082  11.210 -26.000  1.00  0.00     0.161 A 
ATOM     15  C   UNL     1       5.473  11.642 -23.747  1.00  0.00     0.058 A 
ATOM     16  C   UNL     1       7.019  12.486 -25.417  1.00  0.00     0.200 A 
ATOM     17  C   UNL     1       6.212  12.701 -24.292  1.00  0.00     0.161 A 
BRANCH  14  18
ATOM     18  O   UNL     1       7.878  10.994 -27.125  1.00  0.00    -0.504 OA
ATOM     19  H   UNL     1       8.868  10.799 -27.045  1.00  0.00     0.293 HD
ENDBRANCH  14  18
BRANCH  16  20
ATOM     20  O   UNL     1       7.748  13.553 -25.946  1.00  0.00    -0.502 OA
ATOM     21  H   UNL     1       7.483  14.517 -25.785  1.00  0.00     0.293 HD
ENDBRANCH  16  20
BRANCH  17  22
ATOM     22  O   UNL     1       6.147  13.970 -23.721  1.00  0.00    -0.504 OA
ATOM     23  H   UNL     1       5.305  14.306 -23.268  1.00  0.00     0.293 HD
ENDBRANCH  17  22
ENDBRANCH   1  12
BRANCH   2  24
ATOM     24  O   UNL     1       6.276   8.753 -21.932  1.00  0.00    -0.381 OA
ATOM     25  H   UNL     1       5.657   9.411 -21.521  1.00  0.00     0.211 HD
ENDBRANCH   2  24
BRANCH   6  26
ATOM     26  O   UNL     1       3.631   4.207 -22.610  1.00  0.00    -0.507 OA
ATOM     27  H   UNL     1       4.096   4.424 -21.740  1.00  0.00     0.293 HD
ENDBRANCH   6  26
BRANCH   8  28
ATOM     28  O   UNL     1       0.889   5.245 -26.406  1.00  0.00    -0.508 OA
ATOM     29  H   UNL     1       0.821   5.661 -27.328  1.00  0.00     0.293 HD
ENDBRANCH   8  28
TORSDOF 7
ENDMDL
MODEL 2
REMARK VINA RESULT:    -6.804      1.656      6.708
REMARK INTER + INTRA:          -8.776
REMARK INTER:                  -8.391
REMARK INTRA:                  -0.384
REMARK UNBOUND:                -0.381
REMARK SMILES O=C1c2c(O)cc(O)cc2O[C@H](c2cc(O)c(O)c(O)c2)[C@H]1O
REMARK SMILES IDX 12 1 22 2 2 3 1 4 3 5 4 6 6 7 7 8 9 9 10 10 11 11 13 12
REMARK SMILES IDX 14 13 15 14 21 15 17 16 19 17 16 18 18 20 20 22 23 24 5 26
REMARK SMILES IDX 8 28
REMARK H PARENT 16 19 18 21 20 23 23 25 5 27 8 29
REMARK Flexibility Score: inf
ROOT
ATOM      1  C   UNL     1       4.937   8.121 -24.684  1.00  0.00     0.240 C 
ATOM      2  C   UNL     1       5.281   8.455 -23.217  1.00  0.00     0.231 C 
ATOM      3  C   UNL     1       6.471   9.380 -23.183  1.00  0.00     0.202 C 
ATOM      4  O   UNL     1       7.408   9.165 -22.369  1.00  0.00    -0.291 OA
ATOM      5  C   UNL     1       6.530  10.502 -24.154  1.00  0.00     0.105 A 
ATOM      6  C   UNL     1       7.364  11.641 -24.004  1.00  0.00     0.133 A 
ATOM      7  C   UNL     1       7.397  12.611 -25.015  1.00  0.00     0.093 A 
ATOM      8  C   UNL     1       6.576  12.502 -26.138  1.00  0.00     0.123 A 
ATOM      9  C   UNL     1       5.715  11.409 -26.266  1.00  0.00     0.093 A 
ATOM     10  C   UNL     1       5.695  10.409 -25.291  1.00  0.00     0.138 A 
ATOM     11  O   UNL     1       4.830   9.319 -25.457  1.00  0.00    -0.481 OA
ENDROOT
BRANCH   1  12
ATOM     12  C   UNL     1       3.647   7.339 -24.773  1.00  0.00     0.003 A 
ATOM     13  C   UNL     1       3.637   6.057 -25.345  1.00  0.00     0.058 A 
ATOM     14  C   UNL     1       2.449   5.314 -25.405  1.00  0.00     0.161 A 
ATOM     15  C   UNL     1       2.458   7.863 -24.239  1.00  0.00     0.058 A 
ATOM     16  C   UNL     1       1.261   5.850 -24.881  1.00  0.00     0.200 A 
ATOM     17  C   UNL     1       1.268   7.124 -24.297  1.00  0.00     0.161 A 
BRANCH  14  18
ATOM     18  O   UNL     1       2.448   4.044 -25.980  1.00  0.00    -0.504 OA
ATOM     19  H   UNL     1       1.753   3.772 -26.666  1.00  0.00     0.293 HD
ENDBRANCH  14  18
BRANCH  16  20
ATOM     20  O   UNL     1       0.067   5.130 -24.930  1.00  0.00    -0.502 OA
ATOM     21  H   UNL     1      -0.031   4.220 -24.497  1.00  0.00     0.293 HD
ENDBRANCH  16  20
BRANCH  17  22
ATOM     22  O   UNL     1       0.089   7.649 -23.773  1.00  0.00    -0.504 OA
ATOM     23  H   UNL     1      -0.405   7.193 -23.014  1.00  0.00     0.293 HD
ENDBRANCH  17  22
ENDBRANCH   1  12
BRANCH   2  24
ATOM     24  O   UNL     1       5.515   7.285 -22.471  1.00  0.00    -0.381 OA
ATOM     25  H   UNL     1       6.325   6.847 -22.843  1.00  0.00     0.211 HD
ENDBRANCH   2  24
BRANCH   6  26
ATOM     26  O   UNL     1       8.144  11.874 -22.869  1.00  0.00    -0.507 OA
ATOM     27  H   UNL     1       8.593  11.146 -22.332  1.00  0.00     0.293 HD
ENDBRANCH   6  26
BRANCH   8  28
ATOM     28  O   UNL     1       6.617  13.492 -27.117  1.00  0.00    -0.508 OA
ATOM     29  H   UNL     1       6.325  13.307 -28.071  1.00  0.00     0.293 HD
ENDBRANCH   8  28
TORSDOF 7
ENDMDL
MODEL 3
REMARK VINA RESULT:    -6.753      6.027     10.930
REMARK INTER + INTRA:          -8.713
REMARK INTER:                  -8.415
REMARK INTRA:                  -0.298
REMARK UNBOUND:                -0.381
REMARK SMILES O=C1c2c(O)cc(O)cc2O[C@H](c2cc(O)c(O)c(O)c2)[C@H]1O
REMARK SMILES IDX 12 1 22 2 2 3 1 4 3 5 4 6 6 7 7 8 9 9 10 10 11 11 13 12
REMARK SMILES IDX 14 13 15 14 21 15 17 16 19 17 16 18 18 20 20 22 23 24 5 26
REMARK SMILES IDX 8 28
REMARK H PARENT 16 19 18 21 20 23 23 25 5 27 8 29
REMARK Flexibility Score: inf
ROOT
ATOM      1  C   UNL     1       4.712  -0.192 -23.227  1.00  0.00     0.240 C 
ATOM      2  C   UNL     1       4.805   0.631 -21.925  1.00  0.00     0.231 C 
ATOM      3  C   UNL     1       4.833   2.099 -22.265  1.00  0.00     0.202 C 
ATOM      4  O   UNL     1       5.660   2.858 -21.694  1.00  0.00    -0.291 OA
ATOM      5  C   UNL     1       3.906   2.606 -23.309  1.00  0.00     0.105 A 
ATOM      6  C   UNL     1       3.556   3.973 -23.466  1.00  0.00     0.133 A 
ATOM      7  C   UNL     1       2.729   4.356 -24.530  1.00  0.00     0.093 A 
ATOM      8  C   UNL     1       2.195   3.404 -25.400  1.00  0.00     0.123 A 
ATOM      9  C   UNL     1       2.496   2.052 -25.219  1.00  0.00     0.093 A 
ATOM     10  C   UNL     1       3.352   1.651 -24.191  1.00  0.00     0.138 A 
ATOM     11  O   UNL     1       3.643   0.288 -24.046  1.00  0.00    -0.481 OA
ENDROOT
BRANCH   1  12
ATOM     12  C   UNL     1       4.507  -1.659 -22.928  1.00  0.00     0.003 A 
ATOM     13  C   UNL     1       5.195  -2.634 -23.667  1.00  0.00     0.058 A 
ATOM     14  C   UNL     1       5.032  -3.996 -23.375  1.00  0.00     0.161 A 
ATOM     15  C   UNL     1       3.668  -2.061 -21.875  1.00  0.00     0.058 A 
ATOM     16  C   UNL     1       4.180  -4.391 -22.330  1.00  0.00     0.200 A 
ATOM     17  C   UNL     1       3.502  -3.422 -21.580  1.00  0.00     0.161 A 
BRANCH  14  18
ATOM     18  O   UNL     1       5.716  -4.957 -24.120  1.00  0.00    -0.504 OA
ATOM     19  H   UNL     1       6.698  -5.149 -23.964  1.00  0.00     0.293 HD
ENDBRANCH  14  18
BRANCH  16  20
ATOM     20  O   UNL     1       4.001  -5.739 -22.021  1.00  0.00    -0.502 OA
ATOM     21  H   UNL     1       4.237  -6.477 -22.674  1.00  0.00     0.293 HD
ENDBRANCH  16  20
BRANCH  17  22
ATOM     22  O   UNL     1       2.663  -3.817 -20.539  1.00  0.00    -0.504 OA
ATOM     23  H   UNL     1       2.242  -3.142 -19.911  1.00  0.00     0.293 HD
ENDBRANCH  17  22
ENDBRANCH   1  12
BRANCH   2  24
ATOM     24  O   UNL     1       5.930   0.255 -21.166  1.00  0.00    -0.381 OA
ATOM     25  H   UNL     1       6.737   0.594 -21.635  1.00  0.00     0.211 HD
ENDBRANCH   2  24
BRANCH   6  26
ATOM     26  O   UNL     1       3.969   4.974 -22.584  1.00  0.00    -0.507 OA
ATOM     27  H   UNL     1       4.562   5.748 -22.844  1.00  0.00     0.293 HD
ENDBRANCH   6  26
BRANCH   8  28
ATOM     28  O   UNL     1       1.360   3.813 -26.438  1.00  0.00    -0.508 OA
ATOM     29  H   UNL     1       1.571   4.633 -26.996  1.00  0.00     0.293 HD
ENDBRANCH   8  28
TORSDOF 7
ENDMDL
MODEL 4
REMARK VINA RESULT:    -6.686      6.337      9.519
REMARK INTER + INTRA:          -8.630
REMARK INTER:                  -8.270
REMARK INTRA:                  -0.360
REMARK UNBOUND:                -0.381
REMARK SMILES O=C1c2c(O)cc(O)cc2O[C@H](c2cc(O)c(O)c(O)c2)[C@H]1O
REMARK SMILES IDX 12 1 22 2 2 3 1 4 3 5 4 6 6 7 7 8 9 9 10 10 11 11 13 12
REMARK SMILES IDX 14 13 15 14 21 15 17 16 19 17 16 18 18 20 20 22 23 24 5 26
REMARK SMILES IDX 8 28
REMARK H PARENT 16 19 18 21 20 23 23 25 5 27 8 29
REMARK Flexibility Score: inf
ROOT
ATOM      1  C   UNL     1       5.081   0.050 -22.946  1.00  0.00     0.240 C 
ATOM      2  C   UNL     1       4.985  -0.611 -24.337  1.00  0.00     0.231 C 
ATOM      3  C   UNL     1       5.064  -2.108 -24.184  1.00  0.00     0.202 C 
ATOM      4  O   UNL     1       5.801  -2.778 -24.955  1.00  0.00    -0.291 OA
ATOM      5  C   UNL     1       4.301  -2.753 -23.086  1.00  0.00     0.105 A 
ATOM      6  C   UNL     1       3.980  -4.136 -23.046  1.00  0.00     0.133 A 
ATOM      7  C   UNL     1       3.317  -4.659 -21.927  1.00  0.00     0.093 A 
ATOM      8  C   UNL     1       2.915  -3.828 -20.881  1.00  0.00     0.123 A 
ATOM      9  C   UNL     1       3.183  -2.458 -20.939  1.00  0.00     0.093 A 
ATOM     10  C   UNL     1       3.879  -1.921 -22.024  1.00  0.00     0.138 A 
ATOM     11  O   UNL     1       4.144  -0.545 -22.045  1.00  0.00    -0.481 OA
ENDROOT
BRANCH   1  12
ATOM     12  C   UNL     1       4.832   1.537 -23.033  1.00  0.00     0.003 A 
ATOM     13  C   UNL     1       3.707   2.027 -23.716  1.00  0.00     0.058 A 
ATOM     14  C   UNL     1       3.455   3.405 -23.775  1.00  0.00     0.161 A 
ATOM     15  C   UNL     1       5.691   2.443 -22.388  1.00  0.00     0.058 A 
ATOM     16  C   UNL     1       4.327   4.305 -23.140  1.00  0.00     0.200 A 
ATOM     17  C   UNL     1       5.443   3.821 -22.445  1.00  0.00     0.161 A 
BRANCH  14  18
ATOM     18  O   UNL     1       2.338   3.881 -24.462  1.00  0.00    -0.504 OA
ATOM     19  H   UNL     1       2.119   4.869 -24.498  1.00  0.00     0.293 HD
ENDBRANCH  14  18
BRANCH  16  20
ATOM     20  O   UNL     1       4.096   5.680 -23.186  1.00  0.00    -0.502 OA
ATOM     21  H   UNL     1       3.293   6.106 -22.740  1.00  0.00     0.293 HD
ENDBRANCH  16  20
BRANCH  17  22
ATOM     22  O   UNL     1       6.302   4.717 -21.810  1.00  0.00    -0.504 OA
ATOM     23  H   UNL     1       6.127   5.715 -21.816  1.00  0.00     0.293 HD
ENDBRANCH  17  22
ENDBRANCH   1  12
BRANCH   2  24
ATOM     24  O   UNL     1       5.987  -0.126 -25.200  1.00  0.00    -0.381 OA
ATOM     25  H   UNL     1       5.691   0.760 -25.537  1.00  0.00     0.211 HD
ENDBRANCH   2  24
BRANCH   6  26
ATOM     26  O   UNL     1       4.261  -5.017 -24.092  1.00  0.00    -0.507 OA
ATOM     27  H   UNL     1       3.692  -5.112 -24.921  1.00  0.00     0.293 HD
ENDBRANCH   6  26
BRANCH   8  28
ATOM     28  O   UNL     1       2.240  -4.374 -19.790  1.00  0.00    -0.508 OA
ATOM     29  H   UNL     1       1.447  -4.993 -19.914  1.00  0.00     0.293 HD
ENDBRANCH   8  28
TORSDOF 7
ENDMDL
MODEL 5
REMARK VINA RESULT:    -6.603      2.193      7.435
REMARK INTER + INTRA:          -8.528
REMARK INTER:                  -8.201
REMARK INTRA:                  -0.326
REMARK UNBOUND:                -0.381
REMARK SMILES O=C1c2c(O)cc(O)cc2O[C@H](c2cc(O)c(O)c(O)c2)[C@H]1O
REMARK SMILES IDX 12 1 22 2 2 3 1 4 3 5 4 6 6 7 7 8 9 9 10 10 11 11 13 12
REMARK SMILES IDX 14 13 15 14 21 15 17 16 19 17 16 18 18 20 20 22 23 24 5 26
REMARK SMILES IDX 8 28
REMARK H PARENT 16 19 18 21 20 23 23 25 5 27 8 29
REMARK Flexibility Score: inf
ROOT
ATOM      1  C   UNL     1       4.348   7.722 -22.812  1.00  0.00     0.240 C 
ATOM      2  C   UNL     1       3.502   8.411 -23.903  1.00  0.00     0.231 C 
ATOM      3  C   UNL     1       3.733   9.899 -23.846  1.00  0.00     0.202 C 
ATOM      4  O   UNL     1       2.753  10.688 -23.913  1.00  0.00    -0.291 OA
ATOM      5  C   UNL     1       5.119  10.399 -23.663  1.00  0.00     0.105 A 
ATOM      6  C   UNL     1       5.533  11.725 -23.960  1.00  0.00     0.133 A 
ATOM      7  C   UNL     1       6.849  12.115 -23.682  1.00  0.00     0.093 A 
ATOM      8  C   UNL     1       7.775  11.203 -23.174  1.00  0.00     0.123 A 
ATOM      9  C   UNL     1       7.386   9.884 -22.927  1.00  0.00     0.093 A 
ATOM     10  C   UNL     1       6.068   9.482 -23.157  1.00  0.00     0.138 A 
ATOM     11  O   UNL     1       5.708   8.155 -22.886  1.00  0.00    -0.481 OA
ENDROOT
BRANCH   1  12
ATOM     12  C   UNL     1       4.283   6.218 -22.944  1.00  0.00     0.003 A 
ATOM     13  C   UNL     1       4.072   5.418 -21.810  1.00  0.00     0.058 A 
ATOM     14  C   UNL     1       3.982   4.024 -21.929  1.00  0.00     0.161 A 
ATOM     15  C   UNL     1       4.379   5.609 -24.206  1.00  0.00     0.058 A 
ATOM     16  C   UNL     1       4.093   3.421 -23.193  1.00  0.00     0.200 A 
ATOM     17  C   UNL     1       4.289   4.215 -24.330  1.00  0.00     0.161 A 
BRANCH  14  18
ATOM     18  O   UNL     1       3.779   3.237 -20.796  1.00  0.00    -0.504 OA
ATOM     19  H   UNL     1       2.848   2.997 -20.476  1.00  0.00     0.293 HD
ENDBRANCH  14  18
BRANCH  16  20
ATOM     20  O   UNL     1       4.007   2.036 -23.337  1.00  0.00    -0.502 OA
ATOM     21  H   UNL     1       4.774   1.484 -23.702  1.00  0.00     0.293 HD
ENDBRANCH  16  20
BRANCH  17  22
ATOM     22  O   UNL     1       4.392   3.614 -25.583  1.00  0.00    -0.504 OA
ATOM     23  H   UNL     1       5.193   3.773 -26.184  1.00  0.00     0.293 HD
ENDBRANCH  17  22
ENDBRANCH   1  12
BRANCH   2  24
ATOM     24  O   UNL     1       2.137   8.094 -23.764  1.00  0.00    -0.381 OA
ATOM     25  H   UNL     1       2.069   7.323 -23.141  1.00  0.00     0.211 HD
ENDBRANCH   2  24
BRANCH   6  26
ATOM     26  O   UNL     1       4.697  12.670 -24.558  1.00  0.00    -0.507 OA
ATOM     27  H   UNL     1       3.704  12.544 -24.692  1.00  0.00     0.293 HD
ENDBRANCH   6  26
BRANCH   8  28
ATOM     28  O   UNL     1       9.082  11.616 -22.926  1.00  0.00    -0.508 OA
ATOM     29  H   UNL     1       9.587  11.309 -22.102  1.00  0.00     0.293 HD
ENDBRANCH   8  28
TORSDOF 7
ENDMDL
MODEL 6
REMARK VINA RESULT:    -6.506      6.518     11.794
REMARK INTER + INTRA:          -8.408
REMARK INTER:                  -8.081
REMARK INTRA:                  -0.327
REMARK UNBOUND:                -0.381
REMARK SMILES O=C1c2c(O)cc(O)cc2O[C@H](c2cc(O)c(O)c(O)c2)[C@H]1O
REMARK SMILES IDX 12 1 22 2 2 3 1 4 3 5 4 6 6 7 7 8 9 9 10 10 11 11 13 12
REMARK SMILES IDX 14 13 15 14 21 15 17 16 19 17 16 18 18 20 20 22 23 24 5 26
REMARK SMILES IDX 8 28
REMARK H PARENT 16 19 18 21 20 23 23 25 5 27 8 29
REMARK Flexibility Score: inf
ROOT
ATOM      1  C   UNL     1       3.270  -0.729 -23.741  1.00  0.00     0.240 C 
ATOM      2  C   UNL     1       3.801  -0.580 -25.183  1.00  0.00     0.231 C 
ATOM      3  C   UNL     1       3.852   0.883 -25.545  1.00  0.00     0.202 C 
ATOM      4  O   UNL     1       3.424   1.265 -26.666  1.00  0.00    -0.291 OA
ATOM      5  C   UNL     1       4.369   1.848 -24.542  1.00  0.00     0.105 A 
ATOM      6  C   UNL     1       4.820   3.157 -24.856  1.00  0.00     0.133 A 
ATOM      7  C   UNL     1       5.221   4.015 -23.823  1.00  0.00     0.093 A 
ATOM      8  C   UNL     1       5.239   3.581 -22.497  1.00  0.00     0.123 A 
ATOM      9  C   UNL     1       4.844   2.277 -22.189  1.00  0.00     0.093 A 
ATOM     10  C   UNL     1       4.401   1.416 -23.196  1.00  0.00     0.138 A 
ATOM     11  O   UNL     1       3.998   0.119 -22.850  1.00  0.00    -0.481 OA
ENDROOT
BRANCH   1  12
ATOM     12  C   UNL     1       3.365  -2.162 -23.274  1.00  0.00     0.003 A 
ATOM     13  C   UNL     1       4.522  -2.915 -23.533  1.00  0.00     0.058 A 
ATOM     14  C   UNL     1       4.628  -4.236 -23.076  1.00  0.00     0.161 A 
ATOM     15  C   UNL     1       2.322  -2.740 -22.531  1.00  0.00     0.058 A 
ATOM     16  C   UNL     1       3.575  -4.812 -22.346  1.00  0.00     0.200 A 
ATOM     17  C   UNL     1       2.424  -4.061 -22.073  1.00  0.00     0.161 A 
BRANCH  14  18
ATOM     18  O   UNL     1       5.779  -4.978 -23.344  1.00  0.00    -0.504 OA
ATOM     19  H   UNL     1       6.533  -5.049 -22.672  1.00  0.00     0.293 HD
ENDBRANCH  14  18
BRANCH  16  20
ATOM     20  O   UNL     1       3.657  -6.125 -21.882  1.00  0.00    -0.502 OA
ATOM     21  H   UNL     1       3.311  -6.909 -22.421  1.00  0.00     0.293 HD
ENDBRANCH  16  20
BRANCH  17  22
ATOM     22  O   UNL     1       1.384  -4.633 -21.342  1.00  0.00    -0.504 OA
ATOM     23  H   UNL     1       1.377  -4.619 -20.329  1.00  0.00     0.293 HD
ENDBRANCH  17  22
ENDBRANCH   1  12
BRANCH   2  24
ATOM     24  O   UNL     1       3.013  -1.310 -26.093  1.00  0.00    -0.381 OA
ATOM     25  H   UNL     1       3.489  -2.159 -26.290  1.00  0.00     0.211 HD
ENDBRANCH   2  24
BRANCH   6  26
ATOM     26  O   UNL     1       4.924   3.637 -26.163  1.00  0.00    -0.507 OA
ATOM     27  H   UNL     1       4.165   3.631 -26.830  1.00  0.00     0.293 HD
ENDBRANCH   6  26
BRANCH   8  28
ATOM     28  O   UNL     1       5.660   4.451 -21.494  1.00  0.00    -0.508 OA
ATOM     29  H   UNL     1       6.573   4.891 -21.523  1.00  0.00     0.293 HD
ENDBRANCH   8  28
TORSDOF 7
ENDMDL
MODEL 7
REMARK VINA RESULT:    -6.473      3.397      8.552
REMARK INTER + INTRA:          -8.367
REMARK INTER:                  -8.040
REMARK INTRA:                  -0.327
REMARK UNBOUND:                -0.381
REMARK SMILES O=C1c2c(O)cc(O)cc2O[C@H](c2cc(O)c(O)c(O)c2)[C@H]1O
REMARK SMILES IDX 12 1 22 2 2 3 1 4 3 5 4 6 6 7 7 8 9 9 10 10 11 11 13 12
REMARK SMILES IDX 14 13 15 14 21 15 17 16 19 17 16 18 18 20 20 22 23 24 5 26
REMARK SMILES IDX 8 28
REMARK H PARENT 16 19 18 21 20 23 23 25 5 27 8 29
REMARK Flexibility Score: inf
ROOT
ATOM      1  C   UNL     1       4.051   3.789 -22.451  1.00  0.00     0.240 C 
ATOM      2  C   UNL     1       3.324   4.218 -23.743  1.00  0.00     0.231 C 
ATOM      3  C   UNL     1       3.089   5.706 -23.711  1.00  0.00     0.202 C 
ATOM      4  O   UNL     1       1.967   6.171 -24.044  1.00  0.00    -0.291 OA
ATOM      5  C   UNL     1       4.184   6.590 -23.237  1.00  0.00     0.105 A 
ATOM      6  C   UNL     1       4.251   7.985 -23.499  1.00  0.00     0.133 A 
ATOM      7  C   UNL     1       5.291   8.742 -22.944  1.00  0.00     0.093 A 
ATOM      8  C   UNL     1       6.295   8.135 -22.188  1.00  0.00     0.123 A 
ATOM      9  C   UNL     1       6.261   6.755 -21.970  1.00  0.00     0.093 A 
ATOM     10  C   UNL     1       5.212   5.986 -22.479  1.00  0.00     0.138 A 
ATOM     11  O   UNL     1       5.202   4.606 -22.229  1.00  0.00    -0.481 OA
ENDROOT
BRANCH   1  12
ATOM     12  C   UNL     1       4.461   2.336 -22.516  1.00  0.00     0.003 A 
ATOM     13  C   UNL     1       5.031   1.815 -23.688  1.00  0.00     0.058 A 
ATOM     14  C   UNL     1       5.441   0.475 -23.745  1.00  0.00     0.161 A 
ATOM     15  C   UNL     1       4.326   1.506 -21.390  1.00  0.00     0.058 A 
ATOM     16  C   UNL     1       5.290  -0.352 -22.620  1.00  0.00     0.200 A 
ATOM     17  C   UNL     1       4.734   0.166 -21.443  1.00  0.00     0.161 A 
BRANCH  14  18
ATOM     18  O   UNL     1       6.001  -0.035 -24.917  1.00  0.00    -0.504 OA
ATOM     19  H   UNL     1       6.250  -1.013 -25.004  1.00  0.00     0.293 HD
ENDBRANCH  14  18
BRANCH  16  20
ATOM     20  O   UNL     1       5.690  -1.688 -22.653  1.00  0.00    -0.502 OA
ATOM     21  H   UNL     1       6.049  -2.122 -23.495  1.00  0.00     0.293 HD
ENDBRANCH  16  20
BRANCH  17  22
ATOM     22  O   UNL     1       4.592  -0.656 -20.326  1.00  0.00    -0.504 OA
ATOM     23  H   UNL     1       4.129  -0.333 -19.485  1.00  0.00     0.293 HD
ENDBRANCH  17  22
ENDBRANCH   1  12
BRANCH   2  24
ATOM     24  O   UNL     1       2.119   3.508 -23.907  1.00  0.00    -0.381 OA
ATOM     25  H   UNL     1       2.282   2.788 -24.571  1.00  0.00     0.211 HD
ENDBRANCH   2  24
BRANCH   6  26
ATOM     26  O   UNL     1       3.342   8.652 -24.322  1.00  0.00    -0.507 OA
ATOM     27  H   UNL     1       2.515   9.124 -23.986  1.00  0.00     0.293 HD
ENDBRANCH   6  26
BRANCH   8  28
ATOM     28  O   UNL     1       7.326   8.911 -21.665  1.00  0.00    -0.508 OA
ATOM     29  H   UNL     1       7.852   9.555 -22.246  1.00  0.00     0.293 HD
ENDBRANCH   8  28
TORSDOF 7
ENDMDL
MODEL 8
REMARK VINA RESULT:    -6.456      1.762      3.687
REMARK INTER + INTRA:          -8.346
REMARK INTER:                  -7.966
REMARK INTRA:                  -0.379
REMARK UNBOUND:                -0.381
REMARK SMILES O=C1c2c(O)cc(O)cc2O[C@H](c2cc(O)c(O)c(O)c2)[C@H]1O
REMARK SMILES IDX 12 1 22 2 2 3 1 4 3 5 4 6 6 7 7 8 9 9 10 10 11 11 13 12
REMARK SMILES IDX 14 13 15 14 21 15 17 16 19 17 16 18 18 20 20 22 23 24 5 26
REMARK SMILES IDX 8 28
REMARK H PARENT 16 19 18 21 20 23 23 25 5 27 8 29
REMARK Flexibility Score: inf
ROOT
ATOM      1  C   UNL     1       4.748   7.618 -24.624  1.00  0.00     0.240 C 
ATOM      2  C   UNL     1       3.367   7.374 -25.268  1.00  0.00     0.231 C 
ATOM      3  C   UNL     1       3.099   5.892 -25.322  1.00  0.00     0.202 C 
ATOM      4  O   UNL     1       2.633   5.378 -26.374  1.00  0.00    -0.291 OA
ATOM      5  C   UNL     1       3.438   5.062 -24.139  1.00  0.00     0.105 A 
ATOM      6  C   UNL     1       2.913   3.764 -23.900  1.00  0.00     0.133 A 
ATOM      7  C   UNL     1       3.355   3.035 -22.787  1.00  0.00     0.093 A 
ATOM      8  C   UNL     1       4.257   3.591 -21.879  1.00  0.00     0.123 A 
ATOM      9  C   UNL     1       4.737   4.887 -22.083  1.00  0.00     0.093 A 
ATOM     10  C   UNL     1       4.344   5.617 -23.206  1.00  0.00     0.138 A 
ATOM     11  O   UNL     1       4.856   6.909 -23.388  1.00  0.00    -0.481 OA
ENDROOT
BRANCH   1  12
ATOM     12  C   UNL     1       4.985   9.092 -24.390  1.00  0.00     0.003 A 
ATOM     13  C   UNL     1       4.064   9.846 -23.647  1.00  0.00     0.058 A 
ATOM     14  C   UNL     1       4.292  11.207 -23.401  1.00  0.00     0.161 A 
ATOM     15  C   UNL     1       6.152   9.710 -24.868  1.00  0.00     0.058 A 
ATOM     16  C   UNL     1       5.455  11.822 -23.894  1.00  0.00     0.200 A 
ATOM     17  C   UNL     1       6.385  11.071 -24.625  1.00  0.00     0.161 A 
BRANCH  14  18
ATOM     18  O   UNL     1       3.368  11.949 -22.666  1.00  0.00    -0.504 OA
ATOM     19  H   UNL     1       2.433  12.127 -23.014  1.00  0.00     0.293 HD
ENDBRANCH  14  18
BRANCH  16  20
ATOM     20  O   UNL     1       5.704  13.176 -23.663  1.00  0.00    -0.502 OA
ATOM     21  H   UNL     1       5.341  13.901 -24.270  1.00  0.00     0.293 HD
ENDBRANCH  16  20
BRANCH  17  22
ATOM     22  O   UNL     1       7.541  11.683 -25.106  1.00  0.00    -0.504 OA
ATOM     23  H   UNL     1       7.938  11.435 -26.005  1.00  0.00     0.293 HD
ENDBRANCH  17  22
ENDBRANCH   1  12
BRANCH   2  24
ATOM     24  O   UNL     1       3.291   7.960 -26.546  1.00  0.00    -0.381 OA
ATOM     25  H   UNL     1       4.037   8.611 -26.623  1.00  0.00     0.211 HD
ENDBRANCH   2  24
BRANCH   6  26
ATOM     26  O   UNL     1       1.937   3.174 -24.705  1.00  0.00    -0.507 OA
ATOM     27  H   UNL     1       1.361   2.396 -24.418  1.00  0.00     0.293 HD
ENDBRANCH   6  26
BRANCH   8  28
ATOM     28  O   UNL     1       4.663   2.849 -20.772  1.00  0.00    -0.508 OA
ATOM     29  H   UNL     1       4.592   3.218 -19.831  1.00  0.00     0.293 HD
ENDBRANCH   8  28
TORSDOF 7
ENDMDL
MODEL 9
REMARK VINA RESULT:    -6.418      5.515      8.638
REMARK INTER + INTRA:          -8.300
REMARK INTER:                  -8.000
REMARK INTRA:                  -0.300
REMARK UNBOUND:                -0.381
REMARK SMILES O=C1c2c(O)cc(O)cc2O[C@H](c2cc(O)c(O)c(O)c2)[C@H]1O
REMARK SMILES IDX 12 1 22 2 2 3 1 4 3 5 4 6 6 7 7 8 9 9 10 10 11 11 13 12
REMARK SMILES IDX 14 13 15 14 21 15 17 16 19 17 16 18 18 20 20 22 23 24 5 26
REMARK SMILES IDX 8 28
REMARK H PARENT 16 19 18 21 20 23 23 25 5 27 8 29
REMARK Flexibility Score: inf
ROOT
ATOM      1  C   UNL     1       5.049   1.302 -23.973  1.00  0.00     0.240 C 
ATOM      2  C   UNL     1       4.825   0.938 -25.456  1.00  0.00     0.231 C 
ATOM      3  C   UNL     1       5.212  -0.502 -25.679  1.00  0.00     0.202 C 
ATOM      4  O   UNL     1       5.907  -0.815 -26.682  1.00  0.00    -0.291 OA
ATOM      5  C   UNL     1       4.798  -1.514 -24.674  1.00  0.00     0.105 A 
ATOM      6  C   UNL     1       4.757  -2.912 -24.924  1.00  0.00     0.133 A 
ATOM      7  C   UNL     1       4.421  -3.789 -23.885  1.00  0.00     0.093 A 
ATOM      8  C   UNL     1       4.069  -3.304 -22.624  1.00  0.00     0.123 A 
ATOM      9  C   UNL     1       4.059  -1.927 -22.388  1.00  0.00     0.093 A 
ATOM     10  C   UNL     1       4.430  -1.035 -23.397  1.00  0.00     0.138 A 
ATOM     11  O   UNL     1       4.423   0.339 -23.122  1.00  0.00    -0.481 OA
ENDROOT
BRANCH   1  12
ATOM     12  C   UNL     1       4.513   2.681 -23.666  1.00  0.00     0.003 A 
ATOM     13  C   UNL     1       5.248   3.561 -22.857  1.00  0.00     0.058 A 
ATOM     14  C   UNL     1       4.770   4.852 -22.593  1.00  0.00     0.161 A 
ATOM     15  C   UNL     1       3.301   3.115 -24.228  1.00  0.00     0.058 A 
ATOM     16  C   UNL     1       3.550   5.274 -23.146  1.00  0.00     0.200 A 
ATOM     17  C   UNL     1       2.818   4.405 -23.966  1.00  0.00     0.161 A 
BRANCH  14  18
ATOM     18  O   UNL     1       5.506   5.717 -21.783  1.00  0.00    -0.504 OA
ATOM     19  H   UNL     1       5.053   6.379 -21.164  1.00  0.00     0.293 HD
ENDBRANCH  14  18
BRANCH  16  20
ATOM     20  O   UNL     1       3.054   6.554 -22.897  1.00  0.00    -0.502 OA
ATOM     21  H   UNL     1       2.384   7.001 -23.511  1.00  0.00     0.293 HD
ENDBRANCH  16  20
BRANCH  17  22
ATOM     22  O   UNL     1       1.612   4.830 -24.519  1.00  0.00    -0.504 OA
ATOM     23  H   UNL     1       0.870   4.176 -24.740  1.00  0.00     0.293 HD
ENDBRANCH  17  22
ENDBRANCH   1  12
BRANCH   2  24
ATOM     24  O   UNL     1       5.542   1.803 -26.305  1.00  0.00    -0.381 OA
ATOM     25  H   UNL     1       5.440   2.725 -25.952  1.00  0.00     0.211 HD
ENDBRANCH   2  24
BRANCH   6  26
ATOM     26  O   UNL     1       5.002  -3.472 -26.180  1.00  0.00    -0.507 OA
ATOM     27  H   UNL     1       5.564  -4.296 -26.332  1.00  0.00     0.293 HD
ENDBRANCH   6  26
BRANCH   8  28
ATOM     28  O   UNL     1       3.721  -4.200 -21.616  1.00  0.00    -0.508 OA
ATOM     29  H   UNL     1       3.290  -5.093 -21.825  1.00  0.00     0.293 HD
ENDBRANCH   8  28
TORSDOF 7
ENDMDL
