MODEL 1
REMARK VINA RESULT:    -3.225      0.000      0.000
REMARK INTER + INTRA:          -5.510
REMARK INTER:                  -4.922
REMARK INTRA:                  -0.588
REMARK UNBOUND:                -0.588
REMARK SMILES CCCCCCCCCCC(=O)[O-]
REMARK SMILES IDX 7 1 8 2 9 3 10 4 11 5 12 6 13 7 6 8 5 9 4 10 3 11 2 12 1 13
REMARK H PARENT
REMARK Flexibility Score: inf
ROOT
ATOM      1  C   UNL     1      17.886 -15.980  13.974  1.00  0.00     0.000 C 
ENDROOT
BRANCH   1   2
ATOM      2  C   UNL     1      18.358 -15.965  15.443  1.00  0.00     0.000 C 
BRANCH   2   3
ATOM      3  C   UNL     1      19.885 -15.925  15.637  1.00  0.00     0.006 C 
BRANCH   3   4
ATOM      4  C   UNL     1      20.623 -15.324  14.434  1.00  0.00     0.053 C 
BRANCH   4   5
ATOM      5  C   UNL     1      22.027 -14.970  14.808  1.00  0.00     0.041 C 
ATOM      6  O   UNL     1      22.871 -14.697  13.915  1.00  0.00    -0.550 OA
ATOM      7  O   UNL     1      22.392 -14.895  16.146  1.00  0.00    -0.550 OA
ENDBRANCH   4   5
ENDBRANCH   3   4
ENDBRANCH   2   3
ENDBRANCH   1   2
BRANCH   1   8
ATOM      8  C   UNL     1      17.100 -17.235  13.553  1.00  0.00     0.000 C 
BRANCH   8   9
ATOM      9  C   UNL     1      17.822 -18.054  12.472  1.00  0.00    -0.000 C 
BRANCH   9  10
ATOM     10  C   UNL     1      17.005 -18.088  11.174  1.00  0.00    -0.000 C 
BRANCH  10  11
ATOM     11  C   UNL     1      17.880 -17.737   9.964  1.00  0.00    -0.000 C 
BRANCH  11  12
ATOM     12  C   UNL     1      18.683 -16.457  10.219  1.00  0.00    -0.003 C 
ATOM     13  C   UNL     1      18.510 -15.461   9.075  1.00  0.00     0.004 C 
ENDBRANCH  11  12
ENDBRANCH  10  11
ENDBRANCH   9  10
ENDBRANCH   8   9
ENDBRANCH   1   8
TORSDOF 9
ENDMDL
MODEL 2
REMARK VINA RESULT:    -3.131      2.919      5.158
REMARK INTER + INTRA:          -5.366
REMARK INTER:                  -4.106
REMARK INTRA:                  -1.259
REMARK UNBOUND:                -0.588
REMARK SMILES CCCCCCCCCCC(=O)[O-]
REMARK SMILES IDX 7 1 8 2 9 3 10 4 11 5 12 6 13 7 6 8 5 9 4 10 3 11 2 12 1 13
REMARK H PARENT
REMARK Flexibility Score: inf
ROOT
ATOM      1  C   UNL     1      17.962 -15.879  13.932  1.00  0.00     0.000 C 
ENDROOT
BRANCH   1   2
ATOM      2  C   UNL     1      17.462 -17.156  13.225  1.00  0.00     0.000 C 
BRANCH   2   3
ATOM      3  C   UNL     1      18.463 -17.791  12.242  1.00  0.00     0.006 C 
BRANCH   3   4
ATOM      4  C   UNL     1      19.189 -16.753  11.377  1.00  0.00     0.053 C 
BRANCH   4   5
ATOM      5  C   UNL     1      18.490 -16.587  10.065  1.00  0.00     0.041 C 
ATOM      6  O   UNL     1      17.737 -17.497   9.628  1.00  0.00    -0.550 OA
ATOM      7  O   UNL     1      18.631 -15.407   9.346  1.00  0.00    -0.550 OA
ENDBRANCH   4   5
ENDBRANCH   3   4
ENDBRANCH   2   3
ENDBRANCH   1   2
BRANCH   1   8
ATOM      8  C   UNL     1      17.913 -15.922  15.470  1.00  0.00     0.000 C 
BRANCH   8   9
ATOM      9  C   UNL     1      18.789 -17.036  16.063  1.00  0.00    -0.000 C 
BRANCH   9  10
ATOM     10  C   UNL     1      20.257 -16.600  16.133  1.00  0.00    -0.000 C 
BRANCH  10  11
ATOM     11  C   UNL     1      21.137 -17.480  15.238  1.00  0.00    -0.000 C 
BRANCH  11  12
ATOM     12  C   UNL     1      21.659 -16.691  14.032  1.00  0.00    -0.003 C 
ATOM     13  C   UNL     1      21.628 -15.189  14.300  1.00  0.00     0.004 C 
ENDBRANCH  11  12
ENDBRANCH  10  11
ENDBRANCH   9  10
ENDBRANCH   8   9
ENDBRANCH   1   8
TORSDOF 9
ENDMDL
MODEL 3
REMARK VINA RESULT:    -2.961      2.533      2.987
REMARK INTER + INTRA:          -5.107
REMARK INTER:                  -4.282
REMARK INTRA:                  -0.825
REMARK UNBOUND:                -0.588
REMARK SMILES CCCCCCCCCCC(=O)[O-]
REMARK SMILES IDX 7 1 8 2 9 3 10 4 11 5 12 6 13 7 6 8 5 9 4 10 3 11 2 12 1 13
REMARK H PARENT
REMARK Flexibility Score: inf
ROOT
ATOM      1  C   UNL     1      18.980 -15.582  12.907  1.00  0.00     0.000 C 
ENDROOT
BRANCH   1   2
ATOM      2  C   UNL     1      19.953 -15.233  14.052  1.00  0.00     0.000 C 
BRANCH   2   3
ATOM      3  C   UNL     1      20.132 -16.333  15.113  1.00  0.00     0.006 C 
BRANCH   3   4
ATOM      4  C   UNL     1      19.555 -15.943  16.480  1.00  0.00     0.053 C 
BRANCH   4   5
ATOM      5  C   UNL     1      18.100 -16.285  16.548  1.00  0.00     0.041 C 
ATOM      6  O   UNL     1      17.230 -15.398  16.340  1.00  0.00    -0.550 OA
ATOM      7  O   UNL     1      17.703 -17.593  16.793  1.00  0.00    -0.550 OA
ENDBRANCH   4   5
ENDBRANCH   3   4
ENDBRANCH   2   3
ENDBRANCH   1   2
BRANCH   1   8
ATOM      8  C   UNL     1      18.519 -17.050  12.866  1.00  0.00     0.000 C 
BRANCH   8   9
ATOM      9  C   UNL     1      19.451 -17.944  12.034  1.00  0.00    -0.000 C 
BRANCH   9  10
ATOM     10  C   UNL     1      19.357 -17.598  10.544  1.00  0.00    -0.000 C 
BRANCH  10  11
ATOM     11  C   UNL     1      17.901 -17.618  10.064  1.00  0.00    -0.000 C 
BRANCH  11  12
ATOM     12  C   UNL     1      17.673 -16.590   8.951  1.00  0.00    -0.003 C 
ATOM     13  C   UNL     1      18.542 -15.352   9.158  1.00  0.00     0.004 C 
ENDBRANCH  11  12
ENDBRANCH  10  11
ENDBRANCH   9  10
ENDBRANCH   8   9
ENDBRANCH   1   8
TORSDOF 9
ENDMDL
MODEL 4
REMARK VINA RESULT:    -2.930      2.921      4.688
REMARK INTER + INTRA:          -5.060
REMARK INTER:                  -4.100
REMARK INTRA:                  -0.959
REMARK UNBOUND:                -0.588
REMARK SMILES CCCCCCCCCCC(=O)[O-]
REMARK SMILES IDX 7 1 8 2 9 3 10 4 11 5 12 6 13 7 6 8 5 9 4 10 3 11 2 12 1 13
REMARK H PARENT
REMARK Flexibility Score: inf
ROOT
ATOM      1  C   UNL     1      18.707 -16.490  11.324  1.00  0.00     0.000 C 
ENDROOT
BRANCH   1   2
ATOM      2  C   UNL     1      18.937 -15.701  12.629  1.00  0.00     0.000 C 
BRANCH   2   3
ATOM      3  C   UNL     1      17.904 -15.963  13.740  1.00  0.00     0.006 C 
BRANCH   3   4
ATOM      4  C   UNL     1      18.517 -15.917  15.146  1.00  0.00     0.053 C 
BRANCH   4   5
ATOM      5  C   UNL     1      17.448 -16.042  16.185  1.00  0.00     0.041 C 
ATOM      6  O   UNL     1      17.100 -15.038  16.860  1.00  0.00    -0.550 OA
ATOM      7  O   UNL     1      16.801 -17.256  16.374  1.00  0.00    -0.550 OA
ENDBRANCH   4   5
ENDBRANCH   3   4
ENDBRANCH   2   3
ENDBRANCH   1   2
BRANCH   1   8
ATOM      8  C   UNL     1      19.860 -17.423  10.912  1.00  0.00     0.000 C 
BRANCH   8   9
ATOM      9  C   UNL     1      20.759 -17.816  12.094  1.00  0.00    -0.000 C 
BRANCH   9  10
ATOM     10  C   UNL     1      22.241 -17.715  11.714  1.00  0.00    -0.000 C 
BRANCH  10  11
ATOM     11  C   UNL     1      23.013 -16.860  12.726  1.00  0.00    -0.000 C 
BRANCH  11  12
ATOM     12  C   UNL     1      22.145 -16.535  13.946  1.00  0.00    -0.003 C 
ATOM     13  C   UNL     1      22.253 -15.060  14.323  1.00  0.00     0.004 C 
ENDBRANCH  11  12
ENDBRANCH  10  11
ENDBRANCH   9  10
ENDBRANCH   8   9
ENDBRANCH   1   8
TORSDOF 9
ENDMDL
MODEL 5
REMARK VINA RESULT:    -2.838      1.751      4.037
REMARK INTER + INTRA:          -4.919
REMARK INTER:                  -4.026
REMARK INTRA:                  -0.892
REMARK UNBOUND:                -0.588
REMARK SMILES CCCCCCCCCCC(=O)[O-]
REMARK SMILES IDX 7 1 8 2 9 3 10 4 11 5 12 6 13 7 6 8 5 9 4 10 3 11 2 12 1 13
REMARK H PARENT
REMARK Flexibility Score: inf
ROOT
ATOM      1  C   UNL     1      18.941 -16.829  11.196  1.00  0.00     0.000 C 
ENDROOT
BRANCH   1   2
ATOM      2  C   UNL     1      20.184 -17.632  10.758  1.00  0.00     0.000 C 
BRANCH   2   3
ATOM      3  C   UNL     1      21.373 -17.575  11.734  1.00  0.00     0.006 C 
BRANCH   3   4
ATOM      4  C   UNL     1      20.937 -17.469  13.201  1.00  0.00     0.053 C 
BRANCH   4   5
ATOM      5  C   UNL     1      21.524 -16.246  13.831  1.00  0.00     0.041 C 
ATOM      6  O   UNL     1      20.851 -15.185  13.904  1.00  0.00    -0.550 OA
ATOM      7  O   UNL     1      22.798 -16.291  14.383  1.00  0.00    -0.550 OA
ENDBRANCH   4   5
ENDBRANCH   3   4
ENDBRANCH   2   3
ENDBRANCH   1   2
BRANCH   1   8
ATOM      8  C   UNL     1      17.620 -17.619  11.199  1.00  0.00     0.000 C 
BRANCH   8   9
ATOM      9  C   UNL     1      16.939 -17.637  12.576  1.00  0.00    -0.000 C 
BRANCH   9  10
ATOM     10  C   UNL     1      17.477 -16.511  13.468  1.00  0.00    -0.000 C 
BRANCH  10  11
ATOM     11  C   UNL     1      17.544 -16.955  14.934  1.00  0.00    -0.000 C 
BRANCH  11  12
ATOM     12  C   UNL     1      18.026 -15.811  15.833  1.00  0.00    -0.003 C 
ATOM     13  C   UNL     1      16.955 -15.416  16.846  1.00  0.00     0.004 C 
ENDBRANCH  11  12
ENDBRANCH  10  11
ENDBRANCH   9  10
ENDBRANCH   8   9
ENDBRANCH   1   8
TORSDOF 9
ENDMDL
MODEL 6
REMARK VINA RESULT:    -2.830      2.895      5.047
REMARK INTER + INTRA:          -4.907
REMARK INTER:                  -3.835
REMARK INTRA:                  -1.072
REMARK UNBOUND:                -0.588
REMARK SMILES CCCCCCCCCCC(=O)[O-]
REMARK SMILES IDX 7 1 8 2 9 3 10 4 11 5 12 6 13 7 6 8 5 9 4 10 3 11 2 12 1 13
REMARK H PARENT
REMARK Flexibility Score: inf
ROOT
ATOM      1  C   UNL     1      21.345 -16.376  13.462  1.00  0.00     0.000 C 
ENDROOT
BRANCH   1   2
ATOM      2  C   UNL     1      20.869 -17.840  13.368  1.00  0.00     0.000 C 
BRANCH   2   3
ATOM      3  C   UNL     1      19.853 -18.125  12.246  1.00  0.00     0.006 C 
BRANCH   3   4
ATOM      4  C   UNL     1      20.147 -17.339  10.962  1.00  0.00     0.053 C 
BRANCH   4   5
ATOM      5  C   UNL     1      18.874 -17.007  10.251  1.00  0.00     0.041 C 
ATOM      6  O   UNL     1      17.989 -17.888  10.091  1.00  0.00    -0.550 OA
ATOM      7  O   UNL     1      18.642 -15.711   9.808  1.00  0.00    -0.550 OA
ENDBRANCH   4   5
ENDBRANCH   3   4
ENDBRANCH   2   3
ENDBRANCH   1   2
BRANCH   1   8
ATOM      8  C   UNL     1      20.375 -15.419  14.178  1.00  0.00     0.000 C 
BRANCH   8   9
ATOM      9  C   UNL     1      19.929 -15.940  15.553  1.00  0.00    -0.000 C 
BRANCH   9  10
ATOM     10  C   UNL     1      18.411 -15.806  15.723  1.00  0.00    -0.000 C 
BRANCH  10  11
ATOM     11  C   UNL     1      17.678 -16.152  14.422  1.00  0.00    -0.000 C 
BRANCH  11  12
ATOM     12  C   UNL     1      16.976 -17.511  14.531  1.00  0.00    -0.003 C 
ATOM     13  C   UNL     1      16.316 -17.898  13.211  1.00  0.00     0.004 C 
ENDBRANCH  11  12
ENDBRANCH  10  11
ENDBRANCH   9  10
ENDBRANCH   8   9
ENDBRANCH   1   8
TORSDOF 9
ENDMDL
MODEL 7
REMARK VINA RESULT:    -2.786      2.650      3.797
REMARK INTER + INTRA:          -4.840
REMARK INTER:                  -4.014
REMARK INTRA:                  -0.826
REMARK UNBOUND:                -0.588
REMARK SMILES CCCCCCCCCCC(=O)[O-]
REMARK SMILES IDX 7 1 8 2 9 3 10 4 11 5 12 6 13 7 6 8 5 9 4 10 3 11 2 12 1 13
REMARK H PARENT
REMARK Flexibility Score: inf
ROOT
ATOM      1  C   UNL     1      21.676 -15.668  14.079  1.00  0.00     0.000 C 
ENDROOT
BRANCH   1   2
ATOM      2  C   UNL     1      20.648 -15.295  15.167  1.00  0.00     0.000 C 
BRANCH   2   3
ATOM      3  C   UNL     1      19.590 -16.374  15.461  1.00  0.00     0.006 C 
BRANCH   3   4
ATOM      4  C   UNL     1      18.173 -15.943  15.063  1.00  0.00     0.053 C 
BRANCH   4   5
ATOM      5  C   UNL     1      17.275 -15.937  16.259  1.00  0.00     0.041 C 
ATOM      6  O   UNL     1      16.547 -16.934  16.510  1.00  0.00    -0.550 OA
ATOM      7  O   UNL     1      17.276 -14.851  17.125  1.00  0.00    -0.550 OA
ENDBRANCH   4   5
ENDBRANCH   3   4
ENDBRANCH   2   3
ENDBRANCH   1   2
BRANCH   1   8
ATOM      8  C   UNL     1      21.699 -17.156  13.684  1.00  0.00     0.000 C 
BRANCH   8   9
ATOM      9  C   UNL     1      21.363 -17.385  12.202  1.00  0.00    -0.000 C 
BRANCH   9  10
ATOM     10  C   UNL     1      19.897 -17.799  12.030  1.00  0.00    -0.000 C 
BRANCH  10  11
ATOM     11  C   UNL     1      19.031 -16.601  11.623  1.00  0.00    -0.000 C 
BRANCH  11  12
ATOM     12  C   UNL     1      18.641 -16.681  10.143  1.00  0.00    -0.003 C 
ATOM     13  C   UNL     1      17.540 -17.714   9.918  1.00  0.00     0.004 C 
ENDBRANCH  11  12
ENDBRANCH  10  11
ENDBRANCH   9  10
ENDBRANCH   8   9
ENDBRANCH   1   8
TORSDOF 9
ENDMDL
MODEL 8
REMARK VINA RESULT:    -0.949      2.519      3.578
REMARK INTER + INTRA:          -2.036
REMARK INTER:                  -1.302
REMARK INTRA:                  -0.734
REMARK UNBOUND:                -0.588
REMARK SMILES CCCCCCCCCCC(=O)[O-]
REMARK SMILES IDX 7 1 8 2 9 3 10 4 11 5 12 6 13 7 6 8 5 9 4 10 3 11 2 12 1 13
REMARK H PARENT
REMARK Flexibility Score: inf
ROOT
ATOM      1  C   UNL     1      20.761 -15.224  14.199  1.00  0.00     0.000 C 
ENDROOT
BRANCH   1   2
ATOM      2  C   UNL     1      20.776 -16.331  15.274  1.00  0.00     0.000 C 
BRANCH   2   3
ATOM      3  C   UNL     1      20.129 -15.944  16.617  1.00  0.00     0.006 C 
BRANCH   3   4
ATOM      4  C   UNL     1      18.993 -16.891  17.024  1.00  0.00     0.053 C 
BRANCH   4   5
ATOM      5  C   UNL     1      17.672 -16.333  16.596  1.00  0.00     0.041 C 
ATOM      6  O   UNL     1      17.408 -15.117  16.782  1.00  0.00    -0.550 OA
ATOM      7  O   UNL     1      16.751 -17.147  15.949  1.00  0.00    -0.550 OA
ENDBRANCH   4   5
ENDBRANCH   3   4
ENDBRANCH   2   3
ENDBRANCH   1   2
BRANCH   1   8
ATOM      8  C   UNL     1      19.461 -15.126  13.381  1.00  0.00     0.000 C 
BRANCH   8   9
ATOM      9  C   UNL     1      18.838 -16.498  13.084  1.00  0.00    -0.000 C 
BRANCH   9  10
ATOM     10  C   UNL     1      19.434 -17.105  11.808  1.00  0.00    -0.000 C 
BRANCH  10  11
ATOM     11  C   UNL     1      18.639 -16.674  10.570  1.00  0.00    -0.000 C 
BRANCH  11  12
ATOM     12  C   UNL     1      17.866 -17.855   9.973  1.00  0.00    -0.003 C 
ATOM     13  C   UNL     1      16.583 -18.125  10.753  1.00  0.00     0.004 C 
ENDBRANCH  11  12
ENDBRANCH  10  11
ENDBRANCH   9  10
ENDBRANCH   8   9
ENDBRANCH   1   8
TORSDOF 9
ENDMDL
