MODEL 1
REMARK VINA RESULT:    -5.442      0.000      0.000
REMARK INTER + INTRA:          -7.634
REMARK INTER:                  -7.351
REMARK INTRA:                  -0.284
REMARK UNBOUND:                -0.284
REMARK SMILES CCCCCCCC(=O)[O-]
REMARK SMILES IDX 5 1 6 2 7 3 8 4 9 5 10 6 4 7 3 8 2 9 1 10
REMARK H PARENT
REMARK Flexibility Score: inf
ROOT
ATOM      1  C   UNL     1      11.692  -0.838  64.723  1.00  0.00     0.000 C 
ENDROOT
BRANCH   1   2
ATOM      2  C   UNL     1      12.658   0.116  65.437  1.00  0.00     0.006 C 
BRANCH   2   3
ATOM      3  C   UNL     1      12.419   1.565  65.006  1.00  0.00     0.053 C 
BRANCH   3   4
ATOM      4  C   UNL     1      11.174   2.102  65.637  1.00  0.00     0.041 C 
ATOM      5  O   UNL     1      10.267   2.603  64.923  1.00  0.00    -0.550 OA
ATOM      6  O   UNL     1      10.992   2.001  67.011  1.00  0.00    -0.550 OA
ENDBRANCH   3   4
ENDBRANCH   2   3
ENDBRANCH   1   2
BRANCH   1   7
ATOM      7  C   UNL     1      11.578  -2.170  65.472  1.00  0.00     0.000 C 
BRANCH   7   8
ATOM      8  C   UNL     1      10.687  -3.158  64.704  1.00  0.00    -0.000 C 
BRANCH   8   9
ATOM      9  C   UNL     1       9.961  -2.501  63.519  1.00  0.00    -0.003 C 
ATOM     10  C   UNL     1      10.216  -3.221  62.196  1.00  0.00     0.004 C 
ENDBRANCH   8   9
ENDBRANCH   7   8
ENDBRANCH   1   7
TORSDOF 6
ENDMDL
MODEL 2
REMARK VINA RESULT:    -4.902      2.740      5.165
REMARK INTER + INTRA:          -6.905
REMARK INTER:                  -6.636
REMARK INTRA:                  -0.269
REMARK UNBOUND:                -0.284
REMARK SMILES CCCCCCCC(=O)[O-]
REMARK SMILES IDX 5 1 6 2 7 3 8 4 9 5 10 6 4 7 3 8 2 9 1 10
REMARK H PARENT
REMARK Flexibility Score: inf
ROOT
ATOM      1  C   UNL     1      12.691   0.547  65.489  1.00  0.00     0.000 C 
ENDROOT
BRANCH   1   2
ATOM      2  C   UNL     1      11.882  -0.530  64.755  1.00  0.00     0.006 C 
BRANCH   2   3
ATOM      3  C   UNL     1      11.677  -1.761  65.640  1.00  0.00     0.053 C 
BRANCH   3   4
ATOM      4  C   UNL     1      10.822  -2.772  64.944  1.00  0.00     0.041 C 
ATOM      5  O   UNL     1      10.526  -3.853  65.516  1.00  0.00    -0.550 OA
ATOM      6  O   UNL     1      10.309  -2.498  63.683  1.00  0.00    -0.550 OA
ENDBRANCH   3   4
ENDBRANCH   2   3
ENDBRANCH   1   2
BRANCH   1   7
ATOM      7  C   UNL     1      12.261   1.953  65.053  1.00  0.00     0.000 C 
BRANCH   7   8
ATOM      8  C   UNL     1      10.831   2.261  65.523  1.00  0.00    -0.000 C 
BRANCH   8   9
ATOM      9  C   UNL     1      10.726   2.377  67.053  1.00  0.00    -0.003 C 
ATOM     10  C   UNL     1       9.385   2.948  67.511  1.00  0.00     0.004 C 
ENDBRANCH   8   9
ENDBRANCH   7   8
ENDBRANCH   1   7
TORSDOF 6
ENDMDL
MODEL 3
REMARK VINA RESULT:    -3.674      9.825     11.561
REMARK INTER + INTRA:          -5.246
REMARK INTER:                  -5.042
REMARK INTRA:                  -0.204
REMARK UNBOUND:                -0.284
REMARK SMILES CCCCCCCC(=O)[O-]
REMARK SMILES IDX 5 1 6 2 7 3 8 4 9 5 10 6 4 7 3 8 2 9 1 10
REMARK H PARENT
REMARK Flexibility Score: inf
ROOT
ATOM      1  C   UNL     1       4.256   1.292  57.596  1.00  0.00     0.000 C 
ENDROOT
BRANCH   1   2
ATOM      2  C   UNL     1       2.986   0.651  57.023  1.00  0.00     0.006 C 
BRANCH   2   3
ATOM      3  C   UNL     1       2.536  -0.535  57.880  1.00  0.00     0.053 C 
BRANCH   3   4
ATOM      4  C   UNL     1       1.044  -0.642  57.884  1.00  0.00     0.041 C 
ATOM      5  O   UNL     1       0.347   0.252  58.430  1.00  0.00    -0.550 OA
ATOM      6  O   UNL     1       0.421  -1.704  57.241  1.00  0.00    -0.550 OA
ENDBRANCH   3   4
ENDBRANCH   2   3
ENDBRANCH   1   2
BRANCH   1   7
ATOM      7  C   UNL     1       4.737   2.449  56.712  1.00  0.00     0.000 C 
BRANCH   7   8
ATOM      8  C   UNL     1       6.212   2.778  56.990  1.00  0.00    -0.000 C 
BRANCH   8   9
ATOM      9  C   UNL     1       6.748   2.069  58.244  1.00  0.00    -0.003 C 
ATOM     10  C   UNL     1       7.932   2.800  58.876  1.00  0.00     0.004 C 
ENDBRANCH   8   9
ENDBRANCH   7   8
ENDBRANCH   1   7
TORSDOF 6
ENDMDL
MODEL 4
REMARK VINA RESULT:    -3.571      2.844      5.098
REMARK INTER + INTRA:          -5.107
REMARK INTER:                  -4.822
REMARK INTRA:                  -0.286
REMARK UNBOUND:                -0.284
REMARK SMILES CCCCCCCC(=O)[O-]
REMARK SMILES IDX 5 1 6 2 7 3 8 4 9 5 10 6 4 7 3 8 2 9 1 10
REMARK H PARENT
REMARK Flexibility Score: inf
ROOT
ATOM      1  C   UNL     1      11.848  -1.433  66.029  1.00  0.00     0.000 C 
ENDROOT
BRANCH   1   2
ATOM      2  C   UNL     1      10.961  -2.568  65.500  1.00  0.00     0.006 C 
BRANCH   2   3
ATOM      3  C   UNL     1      11.374  -2.972  64.083  1.00  0.00     0.053 C 
BRANCH   3   4
ATOM      4  C   UNL     1      10.215  -2.853  63.145  1.00  0.00     0.041 C 
ATOM      5  O   UNL     1       9.105  -2.428  63.560  1.00  0.00    -0.550 OA
ATOM      6  O   UNL     1      10.374  -3.162  61.800  1.00  0.00    -0.550 OA
ENDBRANCH   3   4
ENDBRANCH   2   3
ENDBRANCH   1   2
BRANCH   1   7
ATOM      7  C   UNL     1      11.991  -0.316  64.989  1.00  0.00     0.000 C 
BRANCH   7   8
ATOM      8  C   UNL     1      12.858   0.831  65.530  1.00  0.00    -0.000 C 
BRANCH   8   9
ATOM      9  C   UNL     1      12.514   1.197  66.983  1.00  0.00    -0.003 C 
ATOM     10  C   UNL     1      11.290   2.104  67.091  1.00  0.00     0.004 C 
ENDBRANCH   8   9
ENDBRANCH   7   8
ENDBRANCH   1   7
TORSDOF 6
ENDMDL
MODEL 5
REMARK VINA RESULT:    -3.331     18.263     19.774
REMARK INTER + INTRA:          -4.783
REMARK INTER:                  -4.268
REMARK INTRA:                  -0.515
REMARK UNBOUND:                -0.284
REMARK SMILES CCCCCCCC(=O)[O-]
REMARK SMILES IDX 5 1 6 2 7 3 8 4 9 5 10 6 4 7 3 8 2 9 1 10
REMARK H PARENT
REMARK Flexibility Score: inf
ROOT
ATOM      1  C   UNL     1      -4.028 -13.050  66.576  1.00  0.00     0.000 C 
ENDROOT
BRANCH   1   2
ATOM      2  C   UNL     1      -4.658 -11.674  66.822  1.00  0.00     0.006 C 
BRANCH   2   3
ATOM      3  C   UNL     1      -3.799 -10.560  66.219  1.00  0.00     0.053 C 
BRANCH   3   4
ATOM      4  C   UNL     1      -3.888 -10.578  64.726  1.00  0.00     0.041 C 
ATOM      5  O   UNL     1      -5.001 -10.742  64.161  1.00  0.00    -0.550 OA
ATOM      6  O   UNL     1      -2.751 -10.363  63.958  1.00  0.00    -0.550 OA
ENDBRANCH   3   4
ENDBRANCH   2   3
ENDBRANCH   1   2
BRANCH   1   7
ATOM      7  C   UNL     1      -5.105 -14.127  66.402  1.00  0.00     0.000 C 
BRANCH   7   8
ATOM      8  C   UNL     1      -5.632 -14.151  64.960  1.00  0.00    -0.000 C 
BRANCH   8   9
ATOM      9  C   UNL     1      -4.512 -14.350  63.925  1.00  0.00    -0.003 C 
ATOM     10  C   UNL     1      -4.959 -14.029  62.500  1.00  0.00     0.004 C 
ENDBRANCH   8   9
ENDBRANCH   7   8
ENDBRANCH   1   7
TORSDOF 6
ENDMDL
MODEL 6
REMARK VINA RESULT:    -3.246     18.602     20.327
REMARK INTER + INTRA:          -4.668
REMARK INTER:                  -4.205
REMARK INTRA:                  -0.462
REMARK UNBOUND:                -0.284
REMARK SMILES CCCCCCCC(=O)[O-]
REMARK SMILES IDX 5 1 6 2 7 3 8 4 9 5 10 6 4 7 3 8 2 9 1 10
REMARK H PARENT
REMARK Flexibility Score: inf
ROOT
ATOM      1  C   UNL     1      -4.215 -13.763  66.964  1.00  0.00     0.000 C 
ENDROOT
BRANCH   1   2
ATOM      2  C   UNL     1      -4.999 -14.390  65.804  1.00  0.00     0.006 C 
BRANCH   2   3
ATOM      3  C   UNL     1      -4.132 -14.488  64.546  1.00  0.00     0.053 C 
BRANCH   3   4
ATOM      4  C   UNL     1      -4.801 -13.808  63.393  1.00  0.00     0.041 C 
ATOM      5  O   UNL     1      -4.847 -14.369  62.267  1.00  0.00    -0.550 OA
ATOM      6  O   UNL     1      -5.418 -12.577  63.575  1.00  0.00    -0.550 OA
ENDBRANCH   3   4
ENDBRANCH   2   3
ENDBRANCH   1   2
BRANCH   1   7
ATOM      7  C   UNL     1      -4.524 -12.267  67.093  1.00  0.00     0.000 C 
BRANCH   7   8
ATOM      8  C   UNL     1      -3.416 -11.419  66.452  1.00  0.00    -0.000 C 
BRANCH   8   9
ATOM      9  C   UNL     1      -3.969 -10.209  65.682  1.00  0.00    -0.003 C 
ATOM     10  C   UNL     1      -3.199  -9.926  64.393  1.00  0.00     0.004 C 
ENDBRANCH   8   9
ENDBRANCH   7   8
ENDBRANCH   1   7
TORSDOF 6
ENDMDL
MODEL 7
REMARK VINA RESULT:    -3.244     17.562     19.075
REMARK INTER + INTRA:          -4.666
REMARK INTER:                  -4.267
REMARK INTRA:                  -0.399
REMARK UNBOUND:                -0.284
REMARK SMILES CCCCCCCC(=O)[O-]
REMARK SMILES IDX 5 1 6 2 7 3 8 4 9 5 10 6 4 7 3 8 2 9 1 10
REMARK H PARENT
REMARK Flexibility Score: inf
ROOT
ATOM      1  C   UNL     1      -4.611 -12.300  66.095  1.00  0.00     0.000 C 
ENDROOT
BRANCH   1   2
ATOM      2  C   UNL     1      -3.516 -11.226  66.117  1.00  0.00     0.006 C 
BRANCH   2   3
ATOM      3  C   UNL     1      -3.365 -10.568  64.743  1.00  0.00     0.053 C 
BRANCH   3   4
ATOM      4  C   UNL     1      -3.810  -9.141  64.793  1.00  0.00     0.041 C 
ATOM      5  O   UNL     1      -3.001  -8.215  64.521  1.00  0.00    -0.550 OA
ATOM      6  O   UNL     1      -5.132  -8.835  65.089  1.00  0.00    -0.550 OA
ENDBRANCH   3   4
ENDBRANCH   2   3
ENDBRANCH   1   2
BRANCH   1   7
ATOM      7  C   UNL     1      -4.005 -13.707  66.147  1.00  0.00     0.000 C 
BRANCH   7   8
ATOM      8  C   UNL     1      -4.115 -14.404  64.782  1.00  0.00    -0.000 C 
BRANCH   8   9
ATOM      9  C   UNL     1      -5.163 -13.750  63.868  1.00  0.00    -0.003 C 
ATOM     10  C   UNL     1      -4.968 -14.106  62.395  1.00  0.00     0.004 C 
ENDBRANCH   8   9
ENDBRANCH   7   8
ENDBRANCH   1   7
TORSDOF 6
ENDMDL
MODEL 8
REMARK VINA RESULT:    -3.162     18.844     20.161
REMARK INTER + INTRA:          -4.555
REMARK INTER:                  -4.065
REMARK INTRA:                  -0.490
REMARK UNBOUND:                -0.284
REMARK SMILES CCCCCCCC(=O)[O-]
REMARK SMILES IDX 5 1 6 2 7 3 8 4 9 5 10 6 4 7 3 8 2 9 1 10
REMARK H PARENT
REMARK Flexibility Score: inf
ROOT
ATOM      1  C   UNL     1      -3.717 -11.277  65.926  1.00  0.00     0.000 C 
ENDROOT
BRANCH   1   2
ATOM      2  C   UNL     1      -4.502 -12.534  65.533  1.00  0.00     0.006 C 
BRANCH   2   3
ATOM      3  C   UNL     1      -4.832 -12.530  64.038  1.00  0.00     0.053 C 
BRANCH   3   4
ATOM      4  C   UNL     1      -4.613 -13.888  63.449  1.00  0.00     0.041 C 
ATOM      5  O   UNL     1      -4.088 -14.800  64.139  1.00  0.00    -0.550 OA
ATOM      6  O   UNL     1      -5.036 -14.161  62.155  1.00  0.00    -0.550 OA
ENDBRANCH   3   4
ENDBRANCH   2   3
ENDBRANCH   1   2
BRANCH   1   7
ATOM      7  C   UNL     1      -3.729 -10.243  64.794  1.00  0.00     0.000 C 
BRANCH   7   8
ATOM      8  C   UNL     1      -4.470  -8.967  65.223  1.00  0.00    -0.000 C 
BRANCH   8   9
ATOM      9  C   UNL     1      -5.953  -8.982  64.819  1.00  0.00    -0.003 C 
ATOM     10  C   UNL     1      -6.884  -9.271  65.995  1.00  0.00     0.004 C 
ENDBRANCH   8   9
ENDBRANCH   7   8
ENDBRANCH   1   7
TORSDOF 6
ENDMDL
MODEL 9
REMARK VINA RESULT:    -3.096      7.808      8.621
REMARK INTER + INTRA:          -4.466
REMARK INTER:                  -3.853
REMARK INTRA:                  -0.613
REMARK UNBOUND:                -0.284
REMARK SMILES CCCCCCCC(=O)[O-]
REMARK SMILES IDX 5 1 6 2 7 3 8 4 9 5 10 6 4 7 3 8 2 9 1 10
REMARK H PARENT
REMARK Flexibility Score: inf
ROOT
ATOM      1  C   UNL     1       1.829  -1.578  66.579  1.00  0.00     0.000 C 
ENDROOT
BRANCH   1   2
ATOM      2  C   UNL     1       3.014  -0.807  65.985  1.00  0.00     0.006 C 
BRANCH   2   3
ATOM      3  C   UNL     1       3.138   0.582  66.618  1.00  0.00     0.053 C 
BRANCH   3   4
ATOM      4  C   UNL     1       3.649   0.476  68.020  1.00  0.00     0.041 C 
ATOM      5  O   UNL     1       2.924   0.827  68.986  1.00  0.00    -0.550 OA
ATOM      6  O   UNL     1       4.908  -0.059  68.262  1.00  0.00    -0.550 OA
ENDBRANCH   3   4
ENDBRANCH   2   3
ENDBRANCH   1   2
BRANCH   1   7
ATOM      7  C   UNL     1       2.293  -2.888  67.226  1.00  0.00     0.000 C 
BRANCH   7   8
ATOM      8  C   UNL     1       3.665  -3.314  66.684  1.00  0.00    -0.000 C 
BRANCH   8   9
ATOM      9  C   UNL     1       4.682  -3.592  67.803  1.00  0.00    -0.003 C 
ATOM     10  C   UNL     1       4.117  -3.323  69.196  1.00  0.00     0.004 C 
ENDBRANCH   8   9
ENDBRANCH   7   8
ENDBRANCH   1   7
TORSDOF 6
ENDMDL
