MODEL 1
REMARK VINA RESULT:    -2.778      0.000      0.000
REMARK INTER + INTRA:          -7.944
REMARK INTER:                  -5.377
REMARK INTRA:                  -2.567
REMARK UNBOUND:                -2.567
REMARK SMILES CCCCCCCCCCCCCCCCCC(=O)[O-]
REMARK SMILES IDX 10 1 11 2 12 3 13 4 14 5 15 6 16 7 17 8 18 9 19 10 20 11
REMARK SMILES IDX 9 12 8 13 7 14 6 15 5 16 4 17 3 18 2 19 1 20
REMARK H PARENT
REMARK Flexibility Score: inf
ROOT
ATOM      1  C   UNL     1       7.170   0.707  -2.548  1.00  0.00     0.000 C 
ENDROOT
BRANCH   1   2
ATOM      2  C   UNL     1       8.022   1.470  -1.518  1.00  0.00     0.000 C 
BRANCH   2   3
ATOM      3  C   UNL     1       8.854   0.538  -0.624  1.00  0.00     0.000 C 
BRANCH   3   4
ATOM      4  C   UNL     1       8.814   1.006   0.839  1.00  0.00     0.000 C 
BRANCH   4   5
ATOM      5  C   UNL     1       8.937  -0.155   1.839  1.00  0.00     0.000 C 
BRANCH   5   6
ATOM      6  C   UNL     1       9.444  -1.450   1.179  1.00  0.00     0.000 C 
BRANCH   6   7
ATOM      7  C   UNL     1       8.791  -2.709   1.770  1.00  0.00     0.006 C 
BRANCH   7   8
ATOM      8  C   UNL     1       8.877  -3.918   0.830  1.00  0.00     0.053 C 
BRANCH   8   9
ATOM      9  C   UNL     1       8.823  -5.192   1.613  1.00  0.00     0.041 C 
ATOM     10  O   UNL     1       9.556  -6.166   1.293  1.00  0.00    -0.550 OA
ATOM     11  O   UNL     1       7.992  -5.291   2.722  1.00  0.00    -0.550 OA
ENDBRANCH   8   9
ENDBRANCH   7   8
ENDBRANCH   6   7
ENDBRANCH   5   6
ENDBRANCH   4   5
ENDBRANCH   3   4
ENDBRANCH   2   3
ENDBRANCH   1   2
BRANCH   1  12
ATOM     12  C   UNL     1       7.366  -0.822  -2.557  1.00  0.00     0.000 C 
BRANCH  12  13
ATOM     13  C   UNL     1       6.833  -1.545  -3.807  1.00  0.00    -0.000 C 
BRANCH  13  14
ATOM     14  C   UNL     1       7.304  -3.007  -3.899  1.00  0.00    -0.000 C 
BRANCH  14  15
ATOM     15  C   UNL     1       7.992  -3.486  -2.610  1.00  0.00    -0.000 C 
BRANCH  15  16
ATOM     16  C   UNL     1       9.455  -3.905  -2.838  1.00  0.00    -0.000 C 
BRANCH  16  17
ATOM     17  C   UNL     1      10.452  -2.796  -2.466  1.00  0.00    -0.000 C 
BRANCH  17  18
ATOM     18  C   UNL     1      10.997  -2.053  -3.695  1.00  0.00    -0.000 C 
BRANCH  18  19
ATOM     19  C   UNL     1      10.956  -0.535  -3.482  1.00  0.00    -0.003 C 
ATOM     20  C   UNL     1      10.277   0.169  -4.654  1.00  0.00     0.004 C 
ENDBRANCH  18  19
ENDBRANCH  17  18
ENDBRANCH  16  17
ENDBRANCH  15  16
ENDBRANCH  14  15
ENDBRANCH  13  14
ENDBRANCH  12  13
ENDBRANCH   1  12
TORSDOF 16
ENDMDL
MODEL 2
REMARK VINA RESULT:    -2.744      1.727      4.160
REMARK INTER + INTRA:          -7.877
REMARK INTER:                  -5.813
REMARK INTRA:                  -2.064
REMARK UNBOUND:                -2.567
REMARK SMILES CCCCCCCCCCCCCCCCCC(=O)[O-]
REMARK SMILES IDX 10 1 11 2 12 3 13 4 14 5 15 6 16 7 17 8 18 9 19 10 20 11
REMARK SMILES IDX 9 12 8 13 7 14 6 15 5 16 4 17 3 18 2 19 1 20
REMARK H PARENT
REMARK Flexibility Score: inf
ROOT
ATOM      1  C   UNL     1       6.853  -0.127  -3.306  1.00  0.00     0.000 C 
ENDROOT
BRANCH   1   2
ATOM      2  C   UNL     1       7.064  -1.647  -3.418  1.00  0.00     0.000 C 
BRANCH   2   3
ATOM      3  C   UNL     1       7.942  -2.213  -2.293  1.00  0.00     0.000 C 
BRANCH   3   4
ATOM      4  C   UNL     1       8.110  -3.733  -2.444  1.00  0.00     0.000 C 
BRANCH   4   5
ATOM      5  C   UNL     1       8.902  -4.362  -1.286  1.00  0.00     0.000 C 
BRANCH   5   6
ATOM      6  C   UNL     1       9.094  -3.391  -0.107  1.00  0.00     0.000 C 
BRANCH   6   7
ATOM      7  C   UNL     1       9.776  -4.054   1.099  1.00  0.00     0.006 C 
BRANCH   7   8
ATOM      8  C   UNL     1       8.959  -3.920   2.391  1.00  0.00     0.053 C 
BRANCH   8   9
ATOM      9  C   UNL     1       8.579  -5.270   2.911  1.00  0.00     0.041 C 
ATOM     10  O   UNL     1       8.158  -6.159   2.124  1.00  0.00    -0.550 OA
ATOM     11  O   UNL     1       8.729  -5.561   4.262  1.00  0.00    -0.550 OA
ENDBRANCH   8   9
ENDBRANCH   7   8
ENDBRANCH   6   7
ENDBRANCH   5   6
ENDBRANCH   4   5
ENDBRANCH   3   4
ENDBRANCH   2   3
ENDBRANCH   1   2
BRANCH   1  12
ATOM     12  C   UNL     1       7.609   0.555  -2.147  1.00  0.00     0.000 C 
BRANCH  12  13
ATOM     13  C   UNL     1       7.713   2.088  -2.244  1.00  0.00    -0.000 C 
BRANCH  13  14
ATOM     14  C   UNL     1       7.616   2.781  -0.873  1.00  0.00    -0.000 C 
BRANCH  14  15
ATOM     15  C   UNL     1       8.873   2.568  -0.014  1.00  0.00    -0.000 C 
BRANCH  15  16
ATOM     16  C   UNL     1       8.600   1.713   1.236  1.00  0.00    -0.000 C 
BRANCH  16  17
ATOM     17  C   UNL     1       9.120   0.273   1.092  1.00  0.00    -0.000 C 
BRANCH  17  18
ATOM     18  C   UNL     1      10.603   0.139   1.469  1.00  0.00    -0.000 C 
BRANCH  18  19
ATOM     19  C   UNL     1      11.359  -0.702   0.434  1.00  0.00    -0.003 C 
ATOM     20  C   UNL     1      11.000  -0.280  -0.988  1.00  0.00     0.004 C 
ENDBRANCH  18  19
ENDBRANCH  17  18
ENDBRANCH  16  17
ENDBRANCH  15  16
ENDBRANCH  14  15
ENDBRANCH  13  14
ENDBRANCH  12  13
ENDBRANCH   1  12
TORSDOF 16
ENDMDL
MODEL 3
REMARK VINA RESULT:    -2.729      3.437      5.461
REMARK INTER + INTRA:          -7.848
REMARK INTER:                  -5.019
REMARK INTRA:                  -2.829
REMARK UNBOUND:                -2.567
REMARK SMILES CCCCCCCCCCCCCCCCCC(=O)[O-]
REMARK SMILES IDX 10 1 11 2 12 3 13 4 14 5 15 6 16 7 17 8 18 9 19 10 20 11
REMARK SMILES IDX 9 12 8 13 7 14 6 15 5 16 4 17 3 18 2 19 1 20
REMARK H PARENT
REMARK Flexibility Score: inf
ROOT
ATOM      1  C   UNL     1      11.332  -1.271  -1.590  1.00  0.00     0.000 C 
ENDROOT
BRANCH   1   2
ATOM      2  C   UNL     1      11.037  -1.458  -0.091  1.00  0.00     0.000 C 
BRANCH   2   3
ATOM      3  C   UNL     1       9.630  -2.014   0.175  1.00  0.00     0.000 C 
BRANCH   3   4
ATOM      4  C   UNL     1       8.964  -1.275   1.346  1.00  0.00     0.000 C 
BRANCH   4   5
ATOM      5  C   UNL     1       9.981  -0.738   2.366  1.00  0.00     0.000 C 
BRANCH   5   6
ATOM      6  C   UNL     1       9.668   0.703   2.807  1.00  0.00     0.000 C 
BRANCH   6   7
ATOM      7  C   UNL     1       8.324   1.210   2.260  1.00  0.00     0.006 C 
BRANCH   7   8
ATOM      8  C   UNL     1       7.429   1.814   3.349  1.00  0.00     0.053 C 
BRANCH   8   9
ATOM      9  C   UNL     1       7.215   3.274   3.100  1.00  0.00     0.041 C 
ATOM     10  O   UNL     1       7.420   4.112   4.017  1.00  0.00    -0.550 OA
ATOM     11  O   UNL     1       6.828   3.713   1.839  1.00  0.00    -0.550 OA
ENDBRANCH   8   9
ENDBRANCH   7   8
ENDBRANCH   6   7
ENDBRANCH   5   6
ENDBRANCH   4   5
ENDBRANCH   3   4
ENDBRANCH   2   3
ENDBRANCH   1   2
BRANCH   1  12
ATOM     12  C   UNL     1      10.720  -0.006  -2.225  1.00  0.00     0.000 C 
BRANCH  12  13
ATOM     13  C   UNL     1      10.635   1.219  -1.297  1.00  0.00    -0.000 C 
BRANCH  13  14
ATOM     14  C   UNL     1       9.292   1.963  -1.409  1.00  0.00    -0.000 C 
BRANCH  14  15
ATOM     15  C   UNL     1       8.087   1.010  -1.370  1.00  0.00    -0.000 C 
BRANCH  15  16
ATOM     16  C   UNL     1       7.181   1.147  -2.608  1.00  0.00    -0.000 C 
BRANCH  16  17
ATOM     17  C   UNL     1       7.117  -0.145  -3.438  1.00  0.00    -0.000 C 
BRANCH  17  18
ATOM     18  C   UNL     1       7.384  -1.402  -2.598  1.00  0.00    -0.000 C 
BRANCH  18  19
ATOM     19  C   UNL     1       8.083  -2.482  -3.433  1.00  0.00    -0.003 C 
ATOM     20  C   UNL     1       8.144  -3.808  -2.680  1.00  0.00     0.004 C 
ENDBRANCH  18  19
ENDBRANCH  17  18
ENDBRANCH  16  17
ENDBRANCH  15  16
ENDBRANCH  14  15
ENDBRANCH  13  14
ENDBRANCH  12  13
ENDBRANCH   1  12
TORSDOF 16
ENDMDL
MODEL 4
REMARK VINA RESULT:    -2.689      2.803      5.653
REMARK INTER + INTRA:          -7.770
REMARK INTER:                  -5.609
REMARK INTRA:                  -2.161
REMARK UNBOUND:                -2.567
REMARK SMILES CCCCCCCCCCCCCCCCCC(=O)[O-]
REMARK SMILES IDX 10 1 11 2 12 3 13 4 14 5 15 6 16 7 17 8 18 9 19 10 20 11
REMARK SMILES IDX 9 12 8 13 7 14 6 15 5 16 4 17 3 18 2 19 1 20
REMARK H PARENT
REMARK Flexibility Score: inf
ROOT
ATOM      1  C   UNL     1       7.433  -3.906  -3.473  1.00  0.00     0.000 C 
ENDROOT
BRANCH   1   2
ATOM      2  C   UNL     1       7.822  -2.499  -3.961  1.00  0.00     0.000 C 
BRANCH   2   3
ATOM      3  C   UNL     1       6.804  -1.423  -3.552  1.00  0.00     0.000 C 
BRANCH   3   4
ATOM      4  C   UNL     1       7.463  -0.361  -2.659  1.00  0.00     0.000 C 
BRANCH   4   5
ATOM      5  C   UNL     1       7.181   1.074  -3.134  1.00  0.00     0.000 C 
BRANCH   5   6
ATOM      6  C   UNL     1       7.414   2.118  -2.027  1.00  0.00     0.000 C 
BRANCH   6   7
ATOM      7  C   UNL     1       8.309   1.590  -0.896  1.00  0.00     0.006 C 
BRANCH   7   8
ATOM      8  C   UNL     1       8.426   2.573   0.276  1.00  0.00     0.053 C 
BRANCH   8   9
ATOM      9  C   UNL     1       8.821   1.851   1.526  1.00  0.00     0.041 C 
ATOM     10  O   UNL     1       7.957   1.583   2.404  1.00  0.00    -0.550 OA
ATOM     11  O   UNL     1      10.135   1.436   1.703  1.00  0.00    -0.550 OA
ENDBRANCH   8   9
ENDBRANCH   7   8
ENDBRANCH   6   7
ENDBRANCH   5   6
ENDBRANCH   4   5
ENDBRANCH   3   4
ENDBRANCH   2   3
ENDBRANCH   1   2
BRANCH   1  12
ATOM     12  C   UNL     1       8.460  -4.584  -2.544  1.00  0.00     0.000 C 
BRANCH  12  13
ATOM     13  C   UNL     1       8.742  -3.842  -1.226  1.00  0.00    -0.000 C 
BRANCH  13  14
ATOM     14  C   UNL     1      10.140  -3.198  -1.190  1.00  0.00    -0.000 C 
BRANCH  14  15
ATOM     15  C   UNL     1      10.243  -2.072  -0.149  1.00  0.00    -0.000 C 
BRANCH  15  16
ATOM     16  C   UNL     1       8.876  -1.675   0.437  1.00  0.00    -0.000 C 
BRANCH  16  17
ATOM     17  C   UNL     1       8.783  -1.936   1.949  1.00  0.00    -0.000 C 
BRANCH  17  18
ATOM     18  C   UNL     1       9.902  -2.856   2.460  1.00  0.00    -0.000 C 
BRANCH  18  19
ATOM     19  C   UNL     1       9.322  -4.110   3.123  1.00  0.00    -0.003 C 
ATOM     20  C   UNL     1       8.218  -4.726   2.267  1.00  0.00     0.004 C 
ENDBRANCH  18  19
ENDBRANCH  17  18
ENDBRANCH  16  17
ENDBRANCH  15  16
ENDBRANCH  14  15
ENDBRANCH  13  14
ENDBRANCH  12  13
ENDBRANCH   1  12
TORSDOF 16
ENDMDL
MODEL 5
REMARK VINA RESULT:    -2.685      3.030      4.889
REMARK INTER + INTRA:          -7.764
REMARK INTER:                  -6.472
REMARK INTRA:                  -1.292
REMARK UNBOUND:                -2.567
REMARK SMILES CCCCCCCCCCCCCCCCCC(=O)[O-]
REMARK SMILES IDX 10 1 11 2 12 3 13 4 14 5 15 6 16 7 17 8 18 9 19 10 20 11
REMARK SMILES IDX 9 12 8 13 7 14 6 15 5 16 4 17 3 18 2 19 1 20
REMARK H PARENT
REMARK Flexibility Score: inf
ROOT
ATOM      1  C   UNL     1       8.466  -3.515  -2.036  1.00  0.00     0.000 C 
ENDROOT
BRANCH   1   2
ATOM      2  C   UNL     1       7.726  -2.247  -2.497  1.00  0.00     0.000 C 
BRANCH   2   3
ATOM      3  C   UNL     1       8.158  -0.990  -1.727  1.00  0.00     0.000 C 
BRANCH   3   4
ATOM      4  C   UNL     1       9.282  -1.319  -0.733  1.00  0.00     0.000 C 
BRANCH   4   5
ATOM      5  C   UNL     1       9.094  -0.628   0.628  1.00  0.00     0.000 C 
BRANCH   5   6
ATOM      6  C   UNL     1       8.709  -1.617   1.743  1.00  0.00     0.000 C 
BRANCH   6   7
ATOM      7  C   UNL     1       9.280  -3.024   1.508  1.00  0.00     0.006 C 
BRANCH   7   8
ATOM      8  C   UNL     1       8.237  -4.130   1.713  1.00  0.00     0.053 C 
BRANCH   8   9
ATOM      9  C   UNL     1       8.643  -5.028   2.839  1.00  0.00     0.041 C 
ATOM     10  O   UNL     1       9.260  -4.562   3.834  1.00  0.00    -0.550 OA
ATOM     11  O   UNL     1       8.305  -6.376   2.808  1.00  0.00    -0.550 OA
ENDBRANCH   8   9
ENDBRANCH   7   8
ENDBRANCH   6   7
ENDBRANCH   5   6
ENDBRANCH   4   5
ENDBRANCH   3   4
ENDBRANCH   2   3
ENDBRANCH   1   2
BRANCH   1  12
ATOM     12  C   UNL     1       8.166  -4.784  -2.859  1.00  0.00     0.000 C 
BRANCH  12  13
ATOM     13  C   UNL     1       6.863  -4.743  -3.677  1.00  0.00    -0.000 C 
BRANCH  13  14
ATOM     14  C   UNL     1       6.246  -6.137  -3.889  1.00  0.00    -0.000 C 
BRANCH  14  15
ATOM     15  C   UNL     1       4.870  -6.075  -4.571  1.00  0.00    -0.000 C 
BRANCH  15  16
ATOM     16  C   UNL     1       3.719  -6.462  -3.626  1.00  0.00    -0.000 C 
BRANCH  16  17
ATOM     17  C   UNL     1       2.417  -5.708  -3.941  1.00  0.00    -0.000 C 
BRANCH  17  18
ATOM     18  C   UNL     1       2.608  -4.617  -5.006  1.00  0.00    -0.000 C 
BRANCH  18  19
ATOM     19  C   UNL     1       1.746  -3.388  -4.693  1.00  0.00    -0.003 C 
ATOM     20  C   UNL     1       2.333  -2.127  -5.322  1.00  0.00     0.004 C 
ENDBRANCH  18  19
ENDBRANCH  17  18
ENDBRANCH  16  17
ENDBRANCH  15  16
ENDBRANCH  14  15
ENDBRANCH  13  14
ENDBRANCH  12  13
ENDBRANCH   1  12
TORSDOF 16
ENDMDL
MODEL 6
REMARK VINA RESULT:    -2.682      3.761      5.942
REMARK INTER + INTRA:          -7.757
REMARK INTER:                  -6.176
REMARK INTRA:                  -1.581
REMARK UNBOUND:                -2.567
REMARK SMILES CCCCCCCCCCCCCCCCCC(=O)[O-]
REMARK SMILES IDX 10 1 11 2 12 3 13 4 14 5 15 6 16 7 17 8 18 9 19 10 20 11
REMARK SMILES IDX 9 12 8 13 7 14 6 15 5 16 4 17 3 18 2 19 1 20
REMARK H PARENT
REMARK Flexibility Score: inf
ROOT
ATOM      1  C   UNL     1       7.343  -1.567  -2.841  1.00  0.00     0.000 C 
ENDROOT
BRANCH   1   2
ATOM      2  C   UNL     1       8.337  -2.321  -1.939  1.00  0.00     0.000 C 
BRANCH   2   3
ATOM      3  C   UNL     1       9.207  -1.380  -1.093  1.00  0.00     0.000 C 
BRANCH   3   4
ATOM      4  C   UNL     1       9.001  -1.648   0.406  1.00  0.00     0.000 C 
BRANCH   4   5
ATOM      5  C   UNL     1       8.957  -0.358   1.241  1.00  0.00     0.000 C 
BRANCH   5   6
ATOM      6  C   UNL     1       9.461   0.868   0.458  1.00  0.00     0.000 C 
BRANCH   6   7
ATOM      7  C   UNL     1       8.423   1.999   0.398  1.00  0.00     0.006 C 
BRANCH   7   8
ATOM      8  C   UNL     1       8.599   3.026   1.525  1.00  0.00     0.053 C 
BRANCH   8   9
ATOM      9  C   UNL     1       7.287   3.658   1.864  1.00  0.00     0.041 C 
ATOM     10  O   UNL     1       6.512   4.046   0.949  1.00  0.00    -0.550 OA
ATOM     11  O   UNL     1       6.899   3.783   3.193  1.00  0.00    -0.550 OA
ENDBRANCH   8   9
ENDBRANCH   7   8
ENDBRANCH   6   7
ENDBRANCH   5   6
ENDBRANCH   4   5
ENDBRANCH   3   4
ENDBRANCH   2   3
ENDBRANCH   1   2
BRANCH   1  12
ATOM     12  C   UNL     1       7.305  -0.039  -2.639  1.00  0.00     0.000 C 
BRANCH  12  13
ATOM     13  C   UNL     1       6.432   0.734  -3.644  1.00  0.00    -0.000 C 
BRANCH  13  14
ATOM     14  C   UNL     1       5.867  -0.164  -4.759  1.00  0.00    -0.000 C 
BRANCH  14  15
ATOM     15  C   UNL     1       4.345  -0.020  -4.918  1.00  0.00    -0.000 C 
BRANCH  15  16
ATOM     16  C   UNL     1       3.759  -0.999  -5.950  1.00  0.00    -0.000 C 
BRANCH  16  17
ATOM     17  C   UNL     1       2.975  -2.149  -5.296  1.00  0.00    -0.000 C 
BRANCH  17  18
ATOM     18  C   UNL     1       3.437  -3.531  -5.781  1.00  0.00    -0.000 C 
BRANCH  18  19
ATOM     19  C   UNL     1       4.940  -3.532  -6.084  1.00  0.00    -0.003 C 
ATOM     20  C   UNL     1       5.734  -4.149  -4.936  1.00  0.00     0.004 C 
ENDBRANCH  18  19
ENDBRANCH  17  18
ENDBRANCH  16  17
ENDBRANCH  15  16
ENDBRANCH  14  15
ENDBRANCH  13  14
ENDBRANCH  12  13
ENDBRANCH   1  12
TORSDOF 16
ENDMDL
MODEL 7
REMARK VINA RESULT:    -2.670      3.339      5.561
REMARK INTER + INTRA:          -7.733
REMARK INTER:                  -5.877
REMARK INTRA:                  -1.857
REMARK UNBOUND:                -2.567
REMARK SMILES CCCCCCCCCCCCCCCCCC(=O)[O-]
REMARK SMILES IDX 10 1 11 2 12 3 13 4 14 5 15 6 16 7 17 8 18 9 19 10 20 11
REMARK SMILES IDX 9 12 8 13 7 14 6 15 5 16 4 17 3 18 2 19 1 20
REMARK H PARENT
REMARK Flexibility Score: inf
ROOT
ATOM      1  C   UNL     1       9.108  -3.055  -1.931  1.00  0.00     0.000 C 
ENDROOT
BRANCH   1   2
ATOM      2  C   UNL     1       8.961  -4.097  -0.808  1.00  0.00     0.000 C 
BRANCH   2   3
ATOM      3  C   UNL     1       8.847  -3.461   0.586  1.00  0.00     0.000 C 
BRANCH   3   4
ATOM      4  C   UNL     1      10.212  -2.939   1.061  1.00  0.00     0.000 C 
BRANCH   4   5
ATOM      5  C   UNL     1      10.232  -1.413   1.249  1.00  0.00     0.000 C 
BRANCH   5   6
ATOM      6  C   UNL     1       8.852  -0.848   1.628  1.00  0.00     0.000 C 
BRANCH   6   7
ATOM      7  C   UNL     1       8.793   0.684   1.527  1.00  0.00     0.006 C 
BRANCH   7   8
ATOM      8  C   UNL     1       8.169   1.338   2.767  1.00  0.00     0.053 C 
BRANCH   8   9
ATOM      9  C   UNL     1       7.966   2.803   2.539  1.00  0.00     0.041 C 
ATOM     10  O   UNL     1       8.958   3.573   2.436  1.00  0.00    -0.550 OA
ATOM     11  O   UNL     1       6.680   3.312   2.399  1.00  0.00    -0.550 OA
ENDBRANCH   8   9
ENDBRANCH   7   8
ENDBRANCH   6   7
ENDBRANCH   5   6
ENDBRANCH   4   5
ENDBRANCH   3   4
ENDBRANCH   2   3
ENDBRANCH   1   2
BRANCH   1  12
ATOM     12  C   UNL     1       7.864  -2.873  -2.823  1.00  0.00     0.000 C 
BRANCH  12  13
ATOM     13  C   UNL     1       7.269  -1.453  -2.838  1.00  0.00    -0.000 C 
BRANCH  13  14
ATOM     14  C   UNL     1       8.080  -0.456  -1.991  1.00  0.00    -0.000 C 
BRANCH  14  15
ATOM     15  C   UNL     1       7.531   0.976  -2.081  1.00  0.00    -0.000 C 
BRANCH  15  16
ATOM     16  C   UNL     1       7.127   1.370  -3.513  1.00  0.00    -0.000 C 
BRANCH  16  17
ATOM     17  C   UNL     1       5.905   2.302  -3.547  1.00  0.00    -0.000 C 
BRANCH  17  18
ATOM     18  C   UNL     1       4.783   1.773  -4.453  1.00  0.00    -0.000 C 
BRANCH  18  19
ATOM     19  C   UNL     1       5.238   0.526  -5.219  1.00  0.00    -0.003 C 
ATOM     20  C   UNL     1       4.180  -0.573  -5.164  1.00  0.00     0.004 C 
ENDBRANCH  18  19
ENDBRANCH  17  18
ENDBRANCH  16  17
ENDBRANCH  15  16
ENDBRANCH  14  15
ENDBRANCH  13  14
ENDBRANCH  12  13
ENDBRANCH   1  12
TORSDOF 16
ENDMDL
MODEL 8
REMARK VINA RESULT:    -2.632      1.659      4.758
REMARK INTER + INTRA:          -7.660
REMARK INTER:                  -6.055
REMARK INTRA:                  -1.605
REMARK UNBOUND:                -2.567
REMARK SMILES CCCCCCCCCCCCCCCCCC(=O)[O-]
REMARK SMILES IDX 10 1 11 2 12 3 13 4 14 5 15 6 16 7 17 8 18 9 19 10 20 11
REMARK SMILES IDX 9 12 8 13 7 14 6 15 5 16 4 17 3 18 2 19 1 20
REMARK H PARENT
REMARK Flexibility Score: inf
ROOT
ATOM      1  C   UNL     1       6.516  -1.132  -3.842  1.00  0.00     0.000 C 
ENDROOT
BRANCH   1   2
ATOM      2  C   UNL     1       7.806  -1.970  -3.798  1.00  0.00     0.000 C 
BRANCH   2   3
ATOM      3  C   UNL     1       7.750  -3.098  -2.756  1.00  0.00     0.000 C 
BRANCH   3   4
ATOM      4  C   UNL     1       9.108  -3.263  -2.058  1.00  0.00     0.000 C 
BRANCH   4   5
ATOM      5  C   UNL     1       8.973  -3.705  -0.591  1.00  0.00     0.000 C 
BRANCH   5   6
ATOM      6  C   UNL     1       9.483  -2.639   0.395  1.00  0.00     0.000 C 
BRANCH   6   7
ATOM      7  C   UNL     1       8.687  -2.622   1.709  1.00  0.00     0.006 C 
BRANCH   7   8
ATOM      8  C   UNL     1       9.440  -3.287   2.868  1.00  0.00     0.053 C 
BRANCH   8   9
ATOM      9  C   UNL     1       8.816  -4.603   3.209  1.00  0.00     0.041 C 
ATOM     10  O   UNL     1       9.101  -5.180   4.293  1.00  0.00    -0.550 OA
ATOM     11  O   UNL     1       7.886  -5.175   2.349  1.00  0.00    -0.550 OA
ENDBRANCH   8   9
ENDBRANCH   7   8
ENDBRANCH   6   7
ENDBRANCH   5   6
ENDBRANCH   4   5
ENDBRANCH   3   4
ENDBRANCH   2   3
ENDBRANCH   1   2
BRANCH   1  12
ATOM     12  C   UNL     1       6.680   0.345  -3.429  1.00  0.00     0.000 C 
BRANCH  12  13
ATOM     13  C   UNL     1       7.536   0.583  -2.172  1.00  0.00    -0.000 C 
BRANCH  13  14
ATOM     14  C   UNL     1       7.748   2.077  -1.867  1.00  0.00    -0.000 C 
BRANCH  14  15
ATOM     15  C   UNL     1       8.236   2.322  -0.431  1.00  0.00    -0.000 C 
BRANCH  15  16
ATOM     16  C   UNL     1       8.750   1.041   0.250  1.00  0.00    -0.000 C 
BRANCH  16  17
ATOM     17  C   UNL     1       9.246   1.292   1.683  1.00  0.00    -0.000 C 
BRANCH  17  18
ATOM     18  C   UNL     1       8.260   0.785   2.747  1.00  0.00    -0.000 C 
BRANCH  18  19
ATOM     19  C   UNL     1       7.477   1.948   3.368  1.00  0.00    -0.003 C 
ATOM     20  C   UNL     1       8.191   3.278   3.139  1.00  0.00     0.004 C 
ENDBRANCH  18  19
ENDBRANCH  17  18
ENDBRANCH  16  17
ENDBRANCH  15  16
ENDBRANCH  14  15
ENDBRANCH  13  14
ENDBRANCH  12  13
ENDBRANCH   1  12
TORSDOF 16
ENDMDL
MODEL 9
REMARK VINA RESULT:    -2.600      3.470      5.119
REMARK INTER + INTRA:          -7.599
REMARK INTER:                  -5.219
REMARK INTRA:                  -2.380
REMARK UNBOUND:                -2.567
REMARK SMILES CCCCCCCCCCCCCCCCCC(=O)[O-]
REMARK SMILES IDX 10 1 11 2 12 3 13 4 14 5 15 6 16 7 17 8 18 9 19 10 20 11
REMARK SMILES IDX 9 12 8 13 7 14 6 15 5 16 4 17 3 18 2 19 1 20
REMARK H PARENT
REMARK Flexibility Score: inf
ROOT
ATOM      1  C   UNL     1       6.526   0.056  -3.238  1.00  0.00     0.000 C 
ENDROOT
BRANCH   1   2
ATOM      2  C   UNL     1       6.995   1.500  -3.493  1.00  0.00     0.000 C 
BRANCH   2   3
ATOM      3  C   UNL     1       7.696   2.123  -2.277  1.00  0.00     0.000 C 
BRANCH   3   4
ATOM      4  C   UNL     1       9.203   1.825  -2.304  1.00  0.00     0.000 C 
BRANCH   4   5
ATOM      5  C   UNL     1       9.690   1.106  -1.035  1.00  0.00     0.000 C 
BRANCH   5   6
ATOM      6  C   UNL     1       8.637   1.114   0.088  1.00  0.00     0.000 C 
BRANCH   6   7
ATOM      7  C   UNL     1       8.966   2.122   1.200  1.00  0.00     0.006 C 
BRANCH   7   8
ATOM      8  C   UNL     1       8.069   1.958   2.433  1.00  0.00     0.053 C 
BRANCH   8   9
ATOM      9  C   UNL     1       7.217   3.173   2.624  1.00  0.00     0.041 C 
ATOM     10  O   UNL     1       6.775   3.802   1.626  1.00  0.00    -0.550 OA
ATOM     11  O   UNL     1       6.876   3.588   3.906  1.00  0.00    -0.550 OA
ENDBRANCH   8   9
ENDBRANCH   7   8
ENDBRANCH   6   7
ENDBRANCH   5   6
ENDBRANCH   4   5
ENDBRANCH   3   4
ENDBRANCH   2   3
ENDBRANCH   1   2
BRANCH   1  12
ATOM     12  C   UNL     1       7.128  -1.004  -4.182  1.00  0.00     0.000 C 
BRANCH  12  13
ATOM     13  C   UNL     1       7.383  -2.382  -3.545  1.00  0.00    -0.000 C 
BRANCH  13  14
ATOM     14  C   UNL     1       8.685  -2.430  -2.725  1.00  0.00    -0.000 C 
BRANCH  14  15
ATOM     15  C   UNL     1       8.431  -2.363  -1.211  1.00  0.00    -0.000 C 
BRANCH  15  16
ATOM     16  C   UNL     1       9.146  -3.485  -0.437  1.00  0.00    -0.000 C 
BRANCH  16  17
ATOM     17  C   UNL     1       9.740  -2.998   0.895  1.00  0.00    -0.000 C 
BRANCH  17  18
ATOM     18  C   UNL     1       8.729  -2.207   1.739  1.00  0.00    -0.000 C 
BRANCH  18  19
ATOM     19  C   UNL     1       9.437  -1.425   2.852  1.00  0.00    -0.003 C 
ATOM     20  C   UNL     1      10.815  -0.949   2.402  1.00  0.00     0.004 C 
ENDBRANCH  18  19
ENDBRANCH  17  18
ENDBRANCH  16  17
ENDBRANCH  15  16
ENDBRANCH  14  15
ENDBRANCH  13  14
ENDBRANCH  12  13
ENDBRANCH   1  12
TORSDOF 16
ENDMDL
