MODEL 1
REMARK VINA RESULT:    -5.800      0.000      0.000
REMARK INTER + INTRA:          -6.308
REMARK INTER:                  -6.308
REMARK INTRA:                   0.000
REMARK UNBOUND:                 0.000
REMARK SMILES Cc1cc(O)c2c(c1)C(=O)c1cc(O)cc(O)c1C2=O
REMARK SMILES IDX 1 1 2 2 8 3 7 4 6 5 4 6 3 7 19 8 20 9 18 10 11 11 9 12 10 13
REMARK SMILES IDX 12 14 13 15 15 16 16 17 5 18 17 20 14 22
REMARK H PARENT 5 19 17 21 14 23
REMARK Flexibility Score: inf
ROOT
ATOM      1  C   UNL     1       1.229   4.012  -9.037  1.00  0.00     0.044 C 
ATOM      2  C   UNL     1       0.465   2.729  -9.187  1.00  0.00    -0.047 A 
ATOM      3  C   UNL     1      -0.927   2.719  -9.048  1.00  0.00     0.016 A 
ATOM      4  C   UNL     1      -1.647   1.516  -9.143  1.00  0.00     0.038 A 
ATOM      5  C   UNL     1      -0.960   0.299  -9.351  1.00  0.00     0.076 A 
ATOM      6  C   UNL     1       0.446   0.322  -9.535  1.00  0.00     0.127 A 
ATOM      7  C   UNL     1       1.143   1.528  -9.417  1.00  0.00     0.050 A 
ATOM      8  C   UNL     1      -1.740  -0.964  -9.297  1.00  0.00     0.201 C 
ATOM      9  O   UNL     1      -1.186  -2.027  -8.906  1.00  0.00    -0.288 OA
ATOM     10  C   UNL     1      -3.208  -0.937  -9.520  1.00  0.00     0.076 A 
ATOM     11  C   UNL     1      -3.892   0.283  -9.310  1.00  0.00     0.041 A 
ATOM     12  C   UNL     1      -3.125   1.520  -9.027  1.00  0.00     0.194 C 
ATOM     13  O   UNL     1      -3.732   2.581  -8.713  1.00  0.00    -0.289 OA
ATOM     14  C   UNL     1      -5.295   0.318  -9.376  1.00  0.00     0.059 A 
ATOM     15  C   UNL     1      -6.020  -0.838  -9.662  1.00  0.00     0.120 A 
ATOM     16  C   UNL     1      -5.348  -2.038  -9.910  1.00  0.00     0.093 A 
ATOM     17  C   UNL     1      -3.951  -2.094  -9.870  1.00  0.00     0.131 A 
ENDROOT
BRANCH   6  18
ATOM     18  O   UNL     1       1.183  -0.818  -9.866  1.00  0.00    -0.507 OA
ATOM     19  H   UNL     1       0.763  -1.693 -10.149  1.00  0.00     0.293 HD
ENDBRANCH   6  18
BRANCH  17  20
ATOM     20  O   UNL     1      -3.346  -3.304 -10.219  1.00  0.00    -0.507 OA
ATOM     21  H   UNL     1      -3.269  -4.092  -9.590  1.00  0.00     0.293 HD
ENDBRANCH  17  20
BRANCH  15  22
ATOM     22  O   UNL     1      -7.412  -0.781  -9.709  1.00  0.00    -0.508 OA
ATOM     23  H   UNL     1      -7.971  -1.612  -9.866  1.00  0.00     0.293 HD
ENDBRANCH  15  22
TORSDOF 3
ENDMDL
MODEL 2
REMARK VINA RESULT:    -5.416     14.800     16.805
REMARK INTER + INTRA:          -5.891
REMARK INTER:                  -5.891
REMARK INTRA:                   0.000
REMARK UNBOUND:                 0.000
REMARK SMILES Cc1cc(O)c2c(c1)C(=O)c1cc(O)cc(O)c1C2=O
REMARK SMILES IDX 1 1 2 2 8 3 7 4 6 5 4 6 3 7 19 8 20 9 18 10 11 11 9 12 10 13
REMARK SMILES IDX 12 14 13 15 15 16 16 17 5 18 17 20 14 22
REMARK H PARENT 5 19 17 21 14 23
REMARK Flexibility Score: inf
ROOT
ATOM      1  C   UNL     1       4.493  -7.925 -17.670  1.00  0.00     0.044 C 
ATOM      2  C   UNL     1       5.110  -6.968 -18.649  1.00  0.00    -0.047 A 
ATOM      3  C   UNL     1       4.957  -7.173 -20.025  1.00  0.00     0.016 A 
ATOM      4  C   UNL     1       5.567  -6.309 -20.949  1.00  0.00     0.038 A 
ATOM      5  C   UNL     1       6.366  -5.238 -20.490  1.00  0.00     0.076 A 
ATOM      6  C   UNL     1       6.480  -5.008 -19.095  1.00  0.00     0.127 A 
ATOM      7  C   UNL     1       5.880  -5.894 -18.194  1.00  0.00     0.050 A 
ATOM      8  C   UNL     1       7.112  -4.438 -21.496  1.00  0.00     0.201 C 
ATOM      9  O   UNL     1       8.210  -3.905 -21.184  1.00  0.00    -0.288 OA
ATOM     10  C   UNL     1       6.661  -4.426 -22.912  1.00  0.00     0.076 A 
ATOM     11  C   UNL     1       5.862  -5.499 -23.366  1.00  0.00     0.041 A 
ATOM     12  C   UNL     1       5.372  -6.515 -22.404  1.00  0.00     0.194 C 
ATOM     13  O   UNL     1       4.769  -7.541 -22.823  1.00  0.00    -0.289 OA
ATOM     14  C   UNL     1       5.530  -5.595 -24.729  1.00  0.00     0.059 A 
ATOM     15  C   UNL     1       5.971  -4.631 -25.635  1.00  0.00     0.120 A 
ATOM     16  C   UNL     1       6.727  -3.547 -25.184  1.00  0.00     0.093 A 
ATOM     17  C   UNL     1       7.053  -3.417 -23.830  1.00  0.00     0.131 A 
ENDROOT
BRANCH   6  18
ATOM     18  O   UNL     1       7.149  -3.903 -18.564  1.00  0.00    -0.507 OA
ATOM     19  H   UNL     1       7.316  -3.050 -19.079  1.00  0.00     0.293 HD
ENDBRANCH   6  18
BRANCH  17  20
ATOM     20  O   UNL     1       7.732  -2.261 -23.439  1.00  0.00    -0.507 OA
ATOM     21  H   UNL     1       7.780  -1.938 -22.483  1.00  0.00     0.293 HD
ENDBRANCH  17  20
BRANCH  15  22
ATOM     22  O   UNL     1       5.640  -4.755 -26.983  1.00  0.00    -0.508 OA
ATOM     23  H   UNL     1       4.726  -4.487 -27.332  1.00  0.00     0.293 HD
ENDBRANCH  15  22
TORSDOF 3
ENDMDL
MODEL 3
REMARK VINA RESULT:    -5.235      1.386      3.329
REMARK INTER + INTRA:          -5.694
REMARK INTER:                  -5.694
REMARK INTRA:                   0.000
REMARK UNBOUND:                 0.000
REMARK SMILES Cc1cc(O)c2c(c1)C(=O)c1cc(O)cc(O)c1C2=O
REMARK SMILES IDX 1 1 2 2 8 3 7 4 6 5 4 6 3 7 19 8 20 9 18 10 11 11 9 12 10 13
REMARK SMILES IDX 12 14 13 15 15 16 16 17 5 18 17 20 14 22
REMARK H PARENT 5 19 17 21 14 23
REMARK Flexibility Score: inf
ROOT
ATOM      1  C   UNL     1       1.870   1.237  -8.376  1.00  0.00     0.044 C 
ATOM      2  C   UNL     1       0.393   1.388  -8.598  1.00  0.00    -0.047 A 
ATOM      3  C   UNL     1      -0.403   0.262  -8.834  1.00  0.00     0.016 A 
ATOM      4  C   UNL     1      -1.778   0.398  -9.087  1.00  0.00     0.038 A 
ATOM      5  C   UNL     1      -2.362   1.684  -9.133  1.00  0.00     0.076 A 
ATOM      6  C   UNL     1      -1.558   2.819  -8.849  1.00  0.00     0.127 A 
ATOM      7  C   UNL     1      -0.188   2.660  -8.619  1.00  0.00     0.050 A 
ATOM      8  C   UNL     1      -3.783   1.794  -9.549  1.00  0.00     0.201 C 
ATOM      9  O   UNL     1      -4.184   2.829 -10.146  1.00  0.00    -0.288 OA
ATOM     10  C   UNL     1      -4.681   0.616  -9.431  1.00  0.00     0.076 A 
ATOM     11  C   UNL     1      -4.093  -0.668  -9.385  1.00  0.00     0.041 A 
ATOM     12  C   UNL     1      -2.619  -0.803  -9.303  1.00  0.00     0.194 C 
ATOM     13  O   UNL     1      -2.084  -1.943  -9.392  1.00  0.00    -0.289 OA
ATOM     14  C   UNL     1      -4.909  -1.812  -9.413  1.00  0.00     0.059 A 
ATOM     15  C   UNL     1      -6.297  -1.691  -9.470  1.00  0.00     0.120 A 
ATOM     16  C   UNL     1      -6.885  -0.424  -9.475  1.00  0.00     0.093 A 
ATOM     17  C   UNL     1      -6.096   0.730  -9.427  1.00  0.00     0.131 A 
ENDROOT
BRANCH   6  18
ATOM     18  O   UNL     1      -2.083   4.109  -8.754  1.00  0.00    -0.507 OA
ATOM     19  H   UNL     1      -1.942   4.713  -7.956  1.00  0.00     0.293 HD
ENDBRANCH   6  18
BRANCH  17  20
ATOM     20  O   UNL     1      -6.755   1.958  -9.342  1.00  0.00    -0.507 OA
ATOM     21  H   UNL     1      -7.321   2.235  -8.551  1.00  0.00     0.293 HD
ENDBRANCH  17  20
BRANCH  15  22
ATOM     22  O   UNL     1      -7.085  -2.840  -9.510  1.00  0.00    -0.508 OA
ATOM     23  H   UNL     1      -6.827  -3.677  -8.999  1.00  0.00     0.293 HD
ENDBRANCH  15  22
TORSDOF 3
ENDMDL
MODEL 4
REMARK VINA RESULT:    -5.197     11.277     13.003
REMARK INTER + INTRA:          -5.653
REMARK INTER:                  -5.653
REMARK INTRA:                   0.000
REMARK UNBOUND:                 0.000
REMARK SMILES Cc1cc(O)c2c(c1)C(=O)c1cc(O)cc(O)c1C2=O
REMARK SMILES IDX 1 1 2 2 8 3 7 4 6 5 4 6 3 7 19 8 20 9 18 10 11 11 9 12 10 13
REMARK SMILES IDX 12 14 13 15 15 16 16 17 5 18 17 20 14 22
REMARK H PARENT 5 19 17 21 14 23
REMARK Flexibility Score: inf
ROOT
ATOM      1  C   UNL     1       6.130  -7.318 -20.722  1.00  0.00     0.044 C 
ATOM      2  C   UNL     1       5.432  -7.239 -19.395  1.00  0.00    -0.047 A 
ATOM      3  C   UNL     1       4.946  -8.400 -18.785  1.00  0.00     0.016 A 
ATOM      4  C   UNL     1       4.253  -8.330 -17.565  1.00  0.00     0.038 A 
ATOM      5  C   UNL     1       4.017  -7.076 -16.959  1.00  0.00     0.076 A 
ATOM      6  C   UNL     1       4.552  -5.907 -17.560  1.00  0.00     0.127 A 
ATOM      7  C   UNL     1       5.221  -5.998 -18.784  1.00  0.00     0.050 A 
ATOM      8  C   UNL     1       3.155  -7.032 -15.750  1.00  0.00     0.201 C 
ATOM      9  O   UNL     1       2.460  -6.008 -15.512  1.00  0.00    -0.288 OA
ATOM     10  C   UNL     1       2.969  -8.257 -14.930  1.00  0.00     0.076 A 
ATOM     11  C   UNL     1       3.206  -9.509 -15.540  1.00  0.00     0.041 A 
ATOM     12  C   UNL     1       3.770  -9.569 -16.909  1.00  0.00     0.194 C 
ATOM     13  O   UNL     1       3.863 -10.678 -17.506  1.00  0.00    -0.289 OA
ATOM     14  C   UNL     1       2.909 -10.693 -14.843  1.00  0.00     0.059 A 
ATOM     15  C   UNL     1       2.397 -10.643 -13.547  1.00  0.00     0.120 A 
ATOM     16  C   UNL     1       2.199  -9.408 -12.924  1.00  0.00     0.093 A 
ATOM     17  C   UNL     1       2.506  -8.216 -13.589  1.00  0.00     0.131 A 
ENDROOT
BRANCH   6  18
ATOM     18  O   UNL     1       4.469  -4.647 -16.963  1.00  0.00    -0.507 OA
ATOM     19  H   UNL     1       5.226  -4.223 -16.444  1.00  0.00     0.293 HD
ENDBRANCH   6  18
BRANCH  17  20
ATOM     20  O   UNL     1       2.369  -7.026 -12.872  1.00  0.00    -0.507 OA
ATOM     21  H   UNL     1       3.146  -6.424 -12.635  1.00  0.00     0.293 HD
ENDBRANCH  17  20
BRANCH  15  22
ATOM     22  O   UNL     1       2.098 -11.830 -12.881  1.00  0.00    -0.508 OA
ATOM     23  H   UNL     1       2.005 -12.709 -13.379  1.00  0.00     0.293 HD
ENDBRANCH  15  22
TORSDOF 3
ENDMDL
MODEL 5
REMARK VINA RESULT:    -5.167      2.399      4.423
REMARK INTER + INTRA:          -5.620
REMARK INTER:                  -5.620
REMARK INTRA:                   0.000
REMARK UNBOUND:                 0.000
REMARK SMILES Cc1cc(O)c2c(c1)C(=O)c1cc(O)cc(O)c1C2=O
REMARK SMILES IDX 1 1 2 2 8 3 7 4 6 5 4 6 3 7 19 8 20 9 18 10 11 11 9 12 10 13
REMARK SMILES IDX 12 14 13 15 15 16 16 17 5 18 17 20 14 22
REMARK H PARENT 5 19 17 21 14 23
REMARK Flexibility Score: inf
ROOT
ATOM      1  C   UNL     1       0.413  -3.742  -7.287  1.00  0.00     0.044 C 
ATOM      2  C   UNL     1      -0.707  -3.026  -7.984  1.00  0.00    -0.047 A 
ATOM      3  C   UNL     1      -0.885  -1.650  -7.801  1.00  0.00     0.016 A 
ATOM      4  C   UNL     1      -1.956  -0.980  -8.414  1.00  0.00     0.038 A 
ATOM      5  C   UNL     1      -2.882  -1.701  -9.200  1.00  0.00     0.076 A 
ATOM      6  C   UNL     1      -2.670  -3.087  -9.419  1.00  0.00     0.127 A 
ATOM      7  C   UNL     1      -1.608  -3.737  -8.783  1.00  0.00     0.050 A 
ATOM      8  C   UNL     1      -4.080  -0.985  -9.708  1.00  0.00     0.201 C 
ATOM      9  O   UNL     1      -5.157  -1.614  -9.888  1.00  0.00    -0.288 OA
ATOM     10  C   UNL     1      -4.062   0.496  -9.822  1.00  0.00     0.076 A 
ATOM     11  C   UNL     1      -3.135   1.215  -9.033  1.00  0.00     0.041 A 
ATOM     12  C   UNL     1      -2.118   0.484  -8.240  1.00  0.00     0.194 C 
ATOM     13  O   UNL     1      -1.373   1.112  -7.437  1.00  0.00    -0.289 OA
ATOM     14  C   UNL     1      -3.179   2.619  -9.008  1.00  0.00     0.059 A 
ATOM     15  C   UNL     1      -4.120   3.312  -9.768  1.00  0.00     0.120 A 
ATOM     16  C   UNL     1      -5.013   2.609 -10.581  1.00  0.00     0.093 A 
ATOM     17  C   UNL     1      -4.976   1.212 -10.639  1.00  0.00     0.131 A 
ENDROOT
BRANCH   6  18
ATOM     18  O   UNL     1      -3.466  -3.845 -10.280  1.00  0.00    -0.507 OA
ATOM     19  H   UNL     1      -3.481  -3.721 -11.283  1.00  0.00     0.293 HD
ENDBRANCH   6  18
BRANCH  17  20
ATOM     20  O   UNL     1      -5.836   0.582 -11.541  1.00  0.00    -0.507 OA
ATOM     21  H   UNL     1      -5.728  -0.378 -11.839  1.00  0.00     0.293 HD
ENDBRANCH  17  20
BRANCH  15  22
ATOM     22  O   UNL     1      -4.153   4.704  -9.717  1.00  0.00    -0.508 OA
ATOM     23  H   UNL     1      -3.845   5.212  -8.894  1.00  0.00     0.293 HD
ENDBRANCH  15  22
TORSDOF 3
ENDMDL
MODEL 6
REMARK VINA RESULT:    -5.138     14.447     16.024
REMARK INTER + INTRA:          -5.589
REMARK INTER:                  -5.589
REMARK INTRA:                   0.000
REMARK UNBOUND:                 0.000
REMARK SMILES Cc1cc(O)c2c(c1)C(=O)c1cc(O)cc(O)c1C2=O
REMARK SMILES IDX 1 1 2 2 8 3 7 4 6 5 4 6 3 7 19 8 20 9 18 10 11 11 9 12 10 13
REMARK SMILES IDX 12 14 13 15 15 16 16 17 5 18 17 20 14 22
REMARK H PARENT 5 19 17 21 14 23
REMARK Flexibility Score: inf
ROOT
ATOM      1  C   UNL     1       6.863  -8.056 -15.772  1.00  0.00     0.044 C 
ATOM      2  C   UNL     1       6.480  -7.710 -17.182  1.00  0.00    -0.047 A 
ATOM      3  C   UNL     1       6.901  -6.502 -17.749  1.00  0.00     0.016 A 
ATOM      4  C   UNL     1       6.511  -6.149 -19.052  1.00  0.00     0.038 A 
ATOM      5  C   UNL     1       5.663  -7.005 -19.789  1.00  0.00     0.076 A 
ATOM      6  C   UNL     1       5.276  -8.249 -19.226  1.00  0.00     0.127 A 
ATOM      7  C   UNL     1       5.661  -8.570 -17.920  1.00  0.00     0.050 A 
ATOM      8  C   UNL     1       5.154  -6.529 -21.101  1.00  0.00     0.201 C 
ATOM      9  O   UNL     1       4.029  -6.916 -21.516  1.00  0.00    -0.288 OA
ATOM     10  C   UNL     1       5.881  -5.457 -21.830  1.00  0.00     0.076 A 
ATOM     11  C   UNL     1       6.728  -4.603 -21.089  1.00  0.00     0.041 A 
ATOM     12  C   UNL     1       6.989  -4.883 -19.657  1.00  0.00     0.194 C 
ATOM     13  O   UNL     1       7.639  -4.055 -18.959  1.00  0.00    -0.289 OA
ATOM     14  C   UNL     1       7.324  -3.495 -21.714  1.00  0.00     0.059 A 
ATOM     15  C   UNL     1       7.099  -3.238 -23.066  1.00  0.00     0.120 A 
ATOM     16  C   UNL     1       6.294  -4.102 -23.814  1.00  0.00     0.093 A 
ATOM     17  C   UNL     1       5.707  -5.223 -23.219  1.00  0.00     0.131 A 
ENDROOT
BRANCH   6  18
ATOM     18  O   UNL     1       4.543  -9.203 -19.934  1.00  0.00    -0.507 OA
ATOM     19  H   UNL     1       4.151 -10.034 -19.513  1.00  0.00     0.293 HD
ENDBRANCH   6  18
BRANCH  17  20
ATOM     20  O   UNL     1       4.992  -6.091 -24.048  1.00  0.00    -0.507 OA
ATOM     21  H   UNL     1       5.292  -6.348 -24.979  1.00  0.00     0.293 HD
ENDBRANCH  17  20
BRANCH  15  22
ATOM     22  O   UNL     1       7.691  -2.125 -23.661  1.00  0.00    -0.508 OA
ATOM     23  H   UNL     1       8.033  -1.348 -23.108  1.00  0.00     0.293 HD
ENDBRANCH  15  22
TORSDOF 3
ENDMDL
MODEL 7
REMARK VINA RESULT:    -5.088     11.185     13.106
REMARK INTER + INTRA:          -5.534
REMARK INTER:                  -5.534
REMARK INTRA:                   0.000
REMARK UNBOUND:                 0.000
REMARK SMILES Cc1cc(O)c2c(c1)C(=O)c1cc(O)cc(O)c1C2=O
REMARK SMILES IDX 1 1 2 2 8 3 7 4 6 5 4 6 3 7 19 8 20 9 18 10 11 11 9 12 10 13
REMARK SMILES IDX 12 14 13 15 15 16 16 17 5 18 17 20 14 22
REMARK H PARENT 5 19 17 21 14 23
REMARK Flexibility Score: inf
ROOT
ATOM      1  C   UNL     1       9.642  -6.839 -19.164  1.00  0.00     0.044 C 
ATOM      2  C   UNL     1       8.300  -6.662 -18.514  1.00  0.00    -0.047 A 
ATOM      3  C   UNL     1       7.954  -7.425 -17.394  1.00  0.00     0.016 A 
ATOM      4  C   UNL     1       6.684  -7.298 -16.806  1.00  0.00     0.038 A 
ATOM      5  C   UNL     1       5.735  -6.412 -17.364  1.00  0.00     0.076 A 
ATOM      6  C   UNL     1       6.108  -5.608 -18.472  1.00  0.00     0.127 A 
ATOM      7  C   UNL     1       7.370  -5.766 -19.053  1.00  0.00     0.050 A 
ATOM      8  C   UNL     1       4.359  -6.415 -16.805  1.00  0.00     0.201 C 
ATOM      9  O   UNL     1       3.380  -6.134 -17.547  1.00  0.00    -0.288 OA
ATOM     10  C   UNL     1       4.121  -6.930 -15.432  1.00  0.00     0.076 A 
ATOM     11  C   UNL     1       5.072  -7.815 -14.877  1.00  0.00     0.041 A 
ATOM     12  C   UNL     1       6.338  -8.087 -15.600  1.00  0.00     0.194 C 
ATOM     13  O   UNL     1       7.131  -8.972 -15.174  1.00  0.00    -0.289 OA
ATOM     14  C   UNL     1       4.817  -8.431 -13.640  1.00  0.00     0.059 A 
ATOM     15  C   UNL     1       3.637  -8.164 -12.946  1.00  0.00     0.120 A 
ATOM     16  C   UNL     1       2.711  -7.258 -13.470  1.00  0.00     0.093 A 
ATOM     17  C   UNL     1       2.952  -6.617 -14.690  1.00  0.00     0.131 A 
ENDROOT
BRANCH   6  18
ATOM     18  O   UNL     1       5.273  -4.623 -19.004  1.00  0.00    -0.507 OA
ATOM     19  H   UNL     1       4.892  -4.658 -19.940  1.00  0.00     0.293 HD
ENDBRANCH   6  18
BRANCH  17  20
ATOM     20  O   UNL     1       2.027  -5.657 -15.106  1.00  0.00    -0.507 OA
ATOM     21  H   UNL     1       2.093  -4.677 -14.866  1.00  0.00     0.293 HD
ENDBRANCH  17  20
BRANCH  15  22
ATOM     22  O   UNL     1       3.400  -8.797 -11.727  1.00  0.00    -0.508 OA
ATOM     23  H   UNL     1       4.059  -9.463 -11.339  1.00  0.00     0.293 HD
ENDBRANCH  15  22
TORSDOF 3
ENDMDL
MODEL 8
REMARK VINA RESULT:    -5.033      2.149      4.575
REMARK INTER + INTRA:          -5.474
REMARK INTER:                  -5.474
REMARK INTRA:                   0.000
REMARK UNBOUND:                 0.000
REMARK SMILES Cc1cc(O)c2c(c1)C(=O)c1cc(O)cc(O)c1C2=O
REMARK SMILES IDX 1 1 2 2 8 3 7 4 6 5 4 6 3 7 19 8 20 9 18 10 11 11 9 12 10 13
REMARK SMILES IDX 12 14 13 15 15 16 16 17 5 18 17 20 14 22
REMARK H PARENT 5 19 17 21 14 23
REMARK Flexibility Score: inf
ROOT
ATOM      1  C   UNL     1      -1.353  -5.840  -8.592  1.00  0.00     0.044 C 
ATOM      2  C   UNL     1      -1.444  -4.341  -8.605  1.00  0.00    -0.047 A 
ATOM      3  C   UNL     1      -2.576  -3.709  -9.130  1.00  0.00     0.016 A 
ATOM      4  C   UNL     1      -2.651  -2.307  -9.187  1.00  0.00     0.038 A 
ATOM      5  C   UNL     1      -1.564  -1.525  -8.737  1.00  0.00     0.076 A 
ATOM      6  C   UNL     1      -0.438  -2.170  -8.165  1.00  0.00     0.127 A 
ATOM      7  C   UNL     1      -0.377  -3.567  -8.137  1.00  0.00     0.050 A 
ATOM      8  C   UNL     1      -1.622  -0.056  -8.950  1.00  0.00     0.201 C 
ATOM      9  O   UNL     1      -0.556   0.596  -9.119  1.00  0.00    -0.288 OA
ATOM     10  C   UNL     1      -2.934   0.611  -9.152  1.00  0.00     0.076 A 
ATOM     11  C   UNL     1      -4.019  -0.176  -9.602  1.00  0.00     0.041 A 
ATOM     12  C   UNL     1      -3.869  -1.646  -9.714  1.00  0.00     0.194 C 
ATOM     13  O   UNL     1      -4.788  -2.336 -10.236  1.00  0.00    -0.289 OA
ATOM     14  C   UNL     1      -5.237   0.440  -9.937  1.00  0.00     0.059 A 
ATOM     15  C   UNL     1      -5.391   1.821  -9.813  1.00  0.00     0.120 A 
ATOM     16  C   UNL     1      -4.334   2.598  -9.331  1.00  0.00     0.093 A 
ATOM     17  C   UNL     1      -3.119   2.006  -8.972  1.00  0.00     0.131 A 
ENDROOT
BRANCH   6  18
ATOM     18  O   UNL     1       0.622  -1.468  -7.587  1.00  0.00    -0.507 OA
ATOM     19  H   UNL     1       0.731  -1.339  -6.590  1.00  0.00     0.293 HD
ENDBRANCH   6  18
BRANCH  17  20
ATOM     20  O   UNL     1      -2.142   2.832  -8.412  1.00  0.00    -0.507 OA
ATOM     21  H   UNL     1      -2.213   3.233  -7.486  1.00  0.00     0.293 HD
ENDBRANCH  17  20
BRANCH  15  22
ATOM     22  O   UNL     1      -6.604   2.410 -10.164  1.00  0.00    -0.508 OA
ATOM     23  H   UNL     1      -6.640   3.273 -10.695  1.00  0.00     0.293 HD
ENDBRANCH  15  22
TORSDOF 3
ENDMDL
MODEL 9
REMARK VINA RESULT:    -4.871     13.521     15.543
REMARK INTER + INTRA:          -5.298
REMARK INTER:                  -5.298
REMARK INTRA:                   0.000
REMARK UNBOUND:                 0.000
REMARK SMILES Cc1cc(O)c2c(c1)C(=O)c1cc(O)cc(O)c1C2=O
REMARK SMILES IDX 1 1 2 2 8 3 7 4 6 5 4 6 3 7 19 8 20 9 18 10 11 11 9 12 10 13
REMARK SMILES IDX 12 14 13 15 15 16 16 17 5 18 17 20 14 22
REMARK H PARENT 5 19 17 21 14 23
REMARK Flexibility Score: inf
ROOT
ATOM      1  C   UNL     1       3.775  -9.125 -15.249  1.00  0.00     0.044 C 
ATOM      2  C   UNL     1       4.101  -8.210 -16.394  1.00  0.00    -0.047 A 
ATOM      3  C   UNL     1       4.491  -8.740 -17.629  1.00  0.00     0.016 A 
ATOM      4  C   UNL     1       4.841  -7.891 -18.692  1.00  0.00     0.038 A 
ATOM      5  C   UNL     1       4.826  -6.491 -18.510  1.00  0.00     0.076 A 
ATOM      6  C   UNL     1       4.386  -5.959 -17.271  1.00  0.00     0.127 A 
ATOM      7  C   UNL     1       4.062  -6.823 -16.220  1.00  0.00     0.050 A 
ATOM      8  C   UNL     1       5.343  -5.635 -19.609  1.00  0.00     0.201 C 
ATOM      9  O   UNL     1       5.882  -4.528 -19.342  1.00  0.00    -0.288 OA
ATOM     10  C   UNL     1       5.395  -6.165 -20.996  1.00  0.00     0.076 A 
ATOM     11  C   UNL     1       5.409  -7.567 -21.174  1.00  0.00     0.041 A 
ATOM     12  C   UNL     1       5.222  -8.461 -20.007  1.00  0.00     0.194 C 
ATOM     13  O   UNL     1       5.362  -9.709 -20.139  1.00  0.00    -0.289 OA
ATOM     14  C   UNL     1       5.597  -8.107 -22.458  1.00  0.00     0.059 A 
ATOM     15  C   UNL     1       5.754  -7.270 -23.563  1.00  0.00     0.120 A 
ATOM     16  C   UNL     1       5.700  -5.883 -23.398  1.00  0.00     0.093 A 
ATOM     17  C   UNL     1       5.494  -5.322 -22.134  1.00  0.00     0.131 A 
ENDROOT
BRANCH   6  18
ATOM     18  O   UNL     1       4.226  -4.589 -17.051  1.00  0.00    -0.507 OA
ATOM     19  H   UNL     1       3.326  -4.130 -17.010  1.00  0.00     0.293 HD
ENDBRANCH   6  18
BRANCH  17  20
ATOM     20  O   UNL     1       5.360  -3.934 -22.060  1.00  0.00    -0.507 OA
ATOM     21  H   UNL     1       5.173  -3.347 -22.862  1.00  0.00     0.293 HD
ENDBRANCH  17  20
BRANCH  15  22
ATOM     22  O   UNL     1       5.951  -7.829 -24.824  1.00  0.00    -0.508 OA
ATOM     23  H   UNL     1       5.279  -8.469 -25.231  1.00  0.00     0.293 HD
ENDBRANCH  15  22
TORSDOF 3
ENDMDL
