MODEL 1
REMARK VINA RESULT:    -7.281      0.000      0.000
REMARK INTER + INTRA:         -13.853
REMARK INTER:                 -11.537
REMARK INTRA:                  -2.315
REMARK UNBOUND:                -2.315
REMARK SMILES C[C@H]1O[C@H](O[C@H]2[C@H](Oc3cc(O)c4c(c3)O[C@H](c3ccc(O)cc3)CC4=O)O[C@H](CO)[C@@H](O)[C@@H]2O)[C@H](O)[C@@H](O)[C@H]1O
REMARK SMILES IDX 6 1 34 2 32 3 29 4 28 5 7 6 5 7 4 8 1 9 2 10 40 11 3 12
REMARK SMILES IDX 38 13 36 14 41 15 39 17 37 19 35 21 8 23 9 24 10 25 15 26
REMARK SMILES IDX 11 27 14 28 13 29 16 30 26 31 17 32 27 33 25 34 12 35 18 37
REMARK SMILES IDX 19 38 24 39 20 40 23 41 21 42 22 43 33 45 30 47 31 48
REMARK H PARENT 41 16 39 18 37 20 35 22 12 36 22 44 33 46 31 49
REMARK Flexibility Score: inf
ROOT
ATOM      1  C   UNL     1     135.116 105.978  93.154  1.00  0.00     0.221 C 
ATOM      2  C   UNL     1     135.488 106.569  91.785  1.00  0.00     0.181 C 
ATOM      3  C   UNL     1     136.842 107.256  91.756  1.00  0.00     0.177 C 
ATOM      4  C   UNL     1     137.933 106.751  92.764  1.00  0.00     0.179 C 
ATOM      5  O   UNL     1     137.369 106.089  93.877  1.00  0.00    -0.332 OA
ATOM      6  C   UNL     1     136.399 105.148  93.529  1.00  0.00     0.339 C 
ENDROOT
BRANCH   1   7
ATOM      7  O   UNL     1     133.937 105.232  93.089  1.00  0.00    -0.337 OA
BRANCH   7   8
ATOM      8  C   UNL     1     132.818 105.821  93.786  1.00  0.00     0.282 C 
ATOM      9  C   UNL     1     129.335 105.928  93.847  1.00  0.00     0.041 C 
ATOM     10  C   UNL     1     130.482 104.989  93.365  1.00  0.00     0.150 C 
ATOM     11  C   UNL     1     130.689 103.705  94.281  1.00  0.00     0.174 C 
ATOM     12  O   UNL     1     131.648 105.780  92.944  1.00  0.00    -0.344 OA
ATOM     13  C   UNL     1     132.204 103.586  94.535  1.00  0.00     0.179 C 
ATOM     14  C   UNL     1     132.621 104.932  95.043  1.00  0.00     0.202 C 
BRANCH  11  15
ATOM     15  O   UNL     1     129.965 103.834  95.507  1.00  0.00    -0.388 OA
ATOM     16  H   UNL     1     129.582 102.971  95.715  1.00  0.00     0.211 HD
ENDBRANCH  11  15
BRANCH  13  17
ATOM     17  O   UNL     1     132.638 102.531  95.349  1.00  0.00    -0.387 OA
ATOM     18  H   UNL     1     132.737 101.764  94.729  1.00  0.00     0.211 HD
ENDBRANCH  13  17
BRANCH  14  19
ATOM     19  O   UNL     1     133.671 104.955  95.943  1.00  0.00    -0.385 OA
ATOM     20  H   UNL     1     134.112 105.839  95.889  1.00  0.00     0.211 HD
ENDBRANCH  14  19
ENDBRANCH   7   8
ENDBRANCH   1   7
BRANCH   2  21
ATOM     21  O   UNL     1     134.496 107.448  91.298  1.00  0.00    -0.387 OA
ATOM     22  H   UNL     1     134.833 108.407  91.237  1.00  0.00     0.211 HD
ENDBRANCH   2  21
BRANCH   6  23
ATOM     23  O   UNL     1     136.167 104.131  94.495  1.00  0.00    -0.462 OA
BRANCH  23  24
ATOM     24  C   UNL     1     136.090 102.724  94.291  1.00  0.00     0.130 A 
ATOM     25  C   UNL     1     136.845 101.917  95.148  1.00  0.00     0.093 A 
ATOM     26  C   UNL     1     135.388 102.002  93.272  1.00  0.00     0.094 A 
ATOM     27  C   UNL     1     137.225 100.571  94.868  1.00  0.00     0.133 A 
ATOM     28  C   UNL     1     135.613 100.634  93.050  1.00  0.00     0.138 A 
ATOM     29  C   UNL     1     136.663  99.987  93.739  1.00  0.00     0.102 A 
ATOM     30  O   UNL     1     134.819  99.884  92.127  1.00  0.00    -0.484 OA
ATOM     31  C   UNL     1     136.909  98.556  93.432  1.00  0.00     0.174 C 
ATOM     32  C   UNL     1     135.175  98.601  91.614  1.00  0.00     0.211 C 
ATOM     33  O   UNL     1     137.957  97.929  93.751  1.00  0.00    -0.294 OA
ATOM     34  C   UNL     1     135.825  97.772  92.755  1.00  0.00     0.131 C 
BRANCH  27  35
ATOM     35  O   UNL     1     138.056  99.863  95.746  1.00  0.00    -0.507 OA
ATOM     36  H   UNL     1     138.630 100.331  96.436  1.00  0.00     0.293 HD
ENDBRANCH  27  35
BRANCH  32  37
ATOM     37  C   UNL     1     133.935  97.814  91.112  1.00  0.00    -0.007 A 
ATOM     38  C   UNL     1     133.988  96.402  91.032  1.00  0.00     0.011 A 
ATOM     39  C   UNL     1     132.635  98.410  91.133  1.00  0.00     0.011 A 
ATOM     40  C   UNL     1     132.844  95.611  90.966  1.00  0.00     0.046 A 
ATOM     41  C   UNL     1     131.489  97.611  90.944  1.00  0.00     0.046 A 
ATOM     42  C   UNL     1     131.591  96.225  90.969  1.00  0.00     0.115 A 
BRANCH  42  43
ATOM     43  O   UNL     1     130.470  95.448  91.193  1.00  0.00    -0.508 OA
ATOM     44  H   UNL     1     130.176  94.825  90.480  1.00  0.00     0.293 HD
ENDBRANCH  42  43
ENDBRANCH  32  37
ENDBRANCH  23  24
ENDBRANCH   6  23
BRANCH   3  45
ATOM     45  O   UNL     1     137.414 107.235  90.472  1.00  0.00    -0.387 OA
ATOM     46  H   UNL     1     137.266 106.377  90.012  1.00  0.00     0.211 HD
ENDBRANCH   3  45
BRANCH   4  47
ATOM     47  C   UNL     1     138.807 107.858  93.314  1.00  0.00     0.191 C 
BRANCH  47  48
ATOM     48  O   UNL     1     138.659 109.012  92.543  1.00  0.00    -0.394 OA
ATOM     49  H   UNL     1     139.343 109.007  91.807  1.00  0.00     0.210 HD
ENDBRANCH  47  48
ENDBRANCH   4  47
TORSDOF 14
ENDMDL
MODEL 2
REMARK VINA RESULT:    -6.790      2.373      6.149
REMARK INTER + INTRA:         -13.074
REMARK INTER:                 -11.344
REMARK INTRA:                  -1.730
REMARK UNBOUND:                -2.315
REMARK SMILES C[C@H]1O[C@H](O[C@H]2[C@H](Oc3cc(O)c4c(c3)O[C@H](c3ccc(O)cc3)CC4=O)O[C@H](CO)[C@@H](O)[C@@H]2O)[C@H](O)[C@@H](O)[C@H]1O
REMARK SMILES IDX 6 1 34 2 32 3 29 4 28 5 7 6 5 7 4 8 1 9 2 10 40 11 3 12
REMARK SMILES IDX 38 13 36 14 41 15 39 17 37 19 35 21 8 23 9 24 10 25 15 26
REMARK SMILES IDX 11 27 14 28 13 29 16 30 26 31 17 32 27 33 25 34 12 35 18 37
REMARK SMILES IDX 19 38 24 39 20 40 23 41 21 42 22 43 33 45 30 47 31 48
REMARK H PARENT 41 16 39 18 37 20 35 22 12 36 22 44 33 46 31 49
REMARK Flexibility Score: inf
ROOT
ATOM      1  C   UNL     1     135.726 101.137  93.159  1.00  0.00     0.221 C 
ATOM      2  C   UNL     1     137.034 101.294  93.952  1.00  0.00     0.181 C 
ATOM      3  C   UNL     1     137.620  99.982  94.442  1.00  0.00     0.177 C 
ATOM      4  C   UNL     1     137.307  98.691  93.605  1.00  0.00     0.179 C 
ATOM      5  O   UNL     1     136.142  98.831  92.820  1.00  0.00    -0.332 OA
ATOM      6  C   UNL     1     136.095 100.028  92.106  1.00  0.00     0.339 C 
ENDROOT
BRANCH   1   7
ATOM      7  O   UNL     1     135.311 102.352  92.607  1.00  0.00    -0.337 OA
BRANCH   7   8
ATOM      8  C   UNL     1     133.928 102.681  92.858  1.00  0.00     0.282 C 
ATOM      9  C   UNL     1     131.536 102.866  95.386  1.00  0.00     0.041 C 
ATOM     10  C   UNL     1     133.085 102.906  95.216  1.00  0.00     0.150 C 
ATOM     11  C   UNL     1     133.712 104.359  95.386  1.00  0.00     0.174 C 
ATOM     12  O   UNL     1     133.498 102.060  94.087  1.00  0.00    -0.344 OA
ATOM     13  C   UNL     1     134.694 104.552  94.214  1.00  0.00     0.179 C 
ATOM     14  C   UNL     1     133.903 104.227  92.985  1.00  0.00     0.202 C 
BRANCH  11  15
ATOM     15  O   UNL     1     132.690 105.357  95.378  1.00  0.00    -0.388 OA
ATOM     16  H   UNL     1     132.567 105.661  96.287  1.00  0.00     0.211 HD
ENDBRANCH  11  15
BRANCH  13  17
ATOM     17  O   UNL     1     135.361 105.782  94.131  1.00  0.00    -0.387 OA
ATOM     18  H   UNL     1     135.800 105.887  95.014  1.00  0.00     0.211 HD
ENDBRANCH  13  17
BRANCH  14  19
ATOM     19  O   UNL     1     134.243 104.911  91.832  1.00  0.00    -0.385 OA
ATOM     20  H   UNL     1     135.029 104.469  91.424  1.00  0.00     0.211 HD
ENDBRANCH  14  19
ENDBRANCH   7   8
ENDBRANCH   1   7
BRANCH   2  21
ATOM     21  O   UNL     1     136.894 102.189  95.036  1.00  0.00    -0.387 OA
ATOM     22  H   UNL     1     137.105 103.148  94.768  1.00  0.00     0.211 HD
ENDBRANCH   2  21
BRANCH   6  23
ATOM     23  O   UNL     1     135.253 100.018  90.960  1.00  0.00    -0.462 OA
BRANCH  23  24
ATOM     24  C   UNL     1     134.051  99.283  90.758  1.00  0.00     0.130 A 
ATOM     25  C   UNL     1     132.875 100.023  90.596  1.00  0.00     0.093 A 
ATOM     26  C   UNL     1     133.855  97.863  90.762  1.00  0.00     0.094 A 
ATOM     27  C   UNL     1     131.560  99.507  90.792  1.00  0.00     0.133 A 
ATOM     28  C   UNL     1     132.571  97.296  90.801  1.00  0.00     0.138 A 
ATOM     29  C   UNL     1     131.452  98.136  90.997  1.00  0.00     0.102 A 
ATOM     30  O   UNL     1     132.370  95.887  90.670  1.00  0.00    -0.484 OA
ATOM     31  C   UNL     1     130.117  97.493  91.094  1.00  0.00     0.174 C 
ATOM     32  C   UNL     1     131.161  95.209  91.011  1.00  0.00     0.211 C 
ATOM     33  O   UNL     1     129.082  98.066  91.533  1.00  0.00    -0.294 OA
ATOM     34  C   UNL     1     129.958  96.093  90.583  1.00  0.00     0.131 C 
BRANCH  27  35
ATOM     35  O   UNL     1     130.439 100.342  90.692  1.00  0.00    -0.507 OA
ATOM     36  H   UNL     1     129.881 100.391  89.848  1.00  0.00     0.293 HD
ENDBRANCH  27  35
BRANCH  32  37
ATOM     37  C   UNL     1     131.030  93.851  90.271  1.00  0.00    -0.007 A 
ATOM     38  C   UNL     1     132.005  93.478  89.316  1.00  0.00     0.011 A 
ATOM     39  C   UNL     1     130.220  92.803  90.809  1.00  0.00     0.011 A 
ATOM     40  C   UNL     1     132.178  92.161  88.897  1.00  0.00     0.046 A 
ATOM     41  C   UNL     1     130.322  91.495  90.291  1.00  0.00     0.046 A 
ATOM     42  C   UNL     1     131.359  91.164  89.427  1.00  0.00     0.115 A 
BRANCH  42  43
ATOM     43  O   UNL     1     131.713  89.842  89.238  1.00  0.00    -0.508 OA
ATOM     44  H   UNL     1     131.164  89.139  89.670  1.00  0.00     0.293 HD
ENDBRANCH  42  43
ENDBRANCH  32  37
ENDBRANCH  23  24
ENDBRANCH   6  23
BRANCH   3  45
ATOM     45  O   UNL     1     139.015 100.055  94.596  1.00  0.00    -0.387 OA
ATOM     46  H   UNL     1     139.462  99.213  94.347  1.00  0.00     0.211 HD
ENDBRANCH   3  45
BRANCH   4  47
ATOM     47  C   UNL     1     137.114  97.453  94.454  1.00  0.00     0.191 C 
BRANCH  47  48
ATOM     48  O   UNL     1     138.235  96.627  94.357  1.00  0.00    -0.394 OA
ATOM     49  H   UNL     1     137.936  95.682  94.189  1.00  0.00     0.210 HD
ENDBRANCH  47  48
ENDBRANCH   4  47
TORSDOF 14
ENDMDL
MODEL 3
REMARK VINA RESULT:    -6.695      1.598      5.013
REMARK INTER + INTRA:         -12.923
REMARK INTER:                 -11.046
REMARK INTRA:                  -1.878
REMARK UNBOUND:                -2.315
REMARK SMILES C[C@H]1O[C@H](O[C@H]2[C@H](Oc3cc(O)c4c(c3)O[C@H](c3ccc(O)cc3)CC4=O)O[C@H](CO)[C@@H](O)[C@@H]2O)[C@H](O)[C@@H](O)[C@H]1O
REMARK SMILES IDX 6 1 34 2 32 3 29 4 28 5 7 6 5 7 4 8 1 9 2 10 40 11 3 12
REMARK SMILES IDX 38 13 36 14 41 15 39 17 37 19 35 21 8 23 9 24 10 25 15 26
REMARK SMILES IDX 11 27 14 28 13 29 16 30 26 31 17 32 27 33 25 34 12 35 18 37
REMARK SMILES IDX 19 38 24 39 20 40 23 41 21 42 22 43 33 45 30 47 31 48
REMARK H PARENT 41 16 39 18 37 20 35 22 12 36 22 44 33 46 31 49
REMARK Flexibility Score: inf
ROOT
ATOM      1  C   UNL     1     132.413 106.122  93.198  1.00  0.00     0.221 C 
ATOM      2  C   UNL     1     131.227 107.101  93.209  1.00  0.00     0.181 C 
ATOM      3  C   UNL     1     129.895 106.452  93.539  1.00  0.00     0.177 C 
ATOM      4  C   UNL     1     129.917 105.167  94.439  1.00  0.00     0.179 C 
ATOM      5  O   UNL     1     131.166 104.510  94.405  1.00  0.00    -0.332 OA
ATOM      6  C   UNL     1     132.250 105.372  94.572  1.00  0.00     0.339 C 
ENDROOT
BRANCH   1   7
ATOM      7  O   UNL     1     133.629 106.791  93.038  1.00  0.00    -0.337 OA
BRANCH   7   8
ATOM      8  C   UNL     1     134.230 106.634  91.735  1.00  0.00     0.282 C 
ATOM      9  C   UNL     1     135.208 108.412  88.901  1.00  0.00     0.041 C 
ATOM     10  C   UNL     1     134.949 108.653  90.420  1.00  0.00     0.150 C 
ATOM     11  C   UNL     1     136.276 108.838  91.276  1.00  0.00     0.174 C 
ATOM     12  O   UNL     1     133.885 107.762  90.905  1.00  0.00    -0.344 OA
ATOM     13  C   UNL     1     136.118 107.953  92.527  1.00  0.00     0.179 C 
ATOM     14  C   UNL     1     135.758 106.597  92.003  1.00  0.00     0.202 C 
BRANCH  11  15
ATOM     15  O   UNL     1     137.427 108.462  90.517  1.00  0.00    -0.388 OA
ATOM     16  H   UNL     1     138.209 108.639  91.058  1.00  0.00     0.211 HD
ENDBRANCH  11  15
BRANCH  13  17
ATOM     17  O   UNL     1     137.184 107.927  93.437  1.00  0.00    -0.387 OA
ATOM     18  H   UNL     1     136.809 108.309  94.271  1.00  0.00     0.211 HD
ENDBRANCH  13  17
BRANCH  14  19
ATOM     19  O   UNL     1     136.193 105.513  92.744  1.00  0.00    -0.385 OA
ATOM     20  H   UNL     1     136.793 105.841  93.459  1.00  0.00     0.211 HD
ENDBRANCH  14  19
ENDBRANCH   7   8
ENDBRANCH   1   7
BRANCH   2  21
ATOM     21  O   UNL     1     131.121 107.821  91.999  1.00  0.00    -0.387 OA
ATOM     22  H   UNL     1     130.456 108.588  92.069  1.00  0.00     0.211 HD
ENDBRANCH   2  21
BRANCH   6  23
ATOM     23  O   UNL     1     133.446 104.760  95.040  1.00  0.00    -0.462 OA
BRANCH  23  24
ATOM     24  C   UNL     1     134.036 103.538  94.608  1.00  0.00     0.130 A 
ATOM     25  C   UNL     1     135.275 103.202  95.162  1.00  0.00     0.093 A 
ATOM     26  C   UNL     1     133.565 102.614  93.618  1.00  0.00     0.094 A 
ATOM     27  C   UNL     1     136.196 102.278  94.585  1.00  0.00     0.133 A 
ATOM     28  C   UNL     1     134.382 101.586  93.122  1.00  0.00     0.138 A 
ATOM     29  C   UNL     1     135.746 101.551  93.489  1.00  0.00     0.102 A 
ATOM     30  O   UNL     1     133.873 100.586  92.237  1.00  0.00    -0.484 OA
ATOM     31  C   UNL     1     136.591 100.485  92.896  1.00  0.00     0.174 C 
ATOM     32  C   UNL     1     134.685  99.715  91.451  1.00  0.00     0.211 C 
ATOM     33  O   UNL     1     137.853 100.487  92.909  1.00  0.00    -0.294 OA
ATOM     34  C   UNL     1     135.918  99.288  92.294  1.00  0.00     0.131 C 
BRANCH  27  35
ATOM     35  O   UNL     1     137.454 102.064  95.164  1.00  0.00    -0.507 OA
ATOM     36  H   UNL     1     138.176 102.773  95.154  1.00  0.00     0.293 HD
ENDBRANCH  27  35
BRANCH  32  37
ATOM     37  C   UNL     1     133.926  98.423  91.046  1.00  0.00    -0.007 A 
ATOM     38  C   UNL     1     134.622  97.192  90.989  1.00  0.00     0.011 A 
ATOM     39  C   UNL     1     132.501  98.354  91.141  1.00  0.00     0.011 A 
ATOM     40  C   UNL     1     133.970  95.961  91.012  1.00  0.00     0.046 A 
ATOM     41  C   UNL     1     131.846  97.110  91.042  1.00  0.00     0.046 A 
ATOM     42  C   UNL     1     132.578  95.929  91.086  1.00  0.00     0.115 A 
BRANCH  42  43
ATOM     43  O   UNL     1     131.956  94.735  91.397  1.00  0.00    -0.508 OA
ATOM     44  H   UNL     1     131.714  94.559  92.342  1.00  0.00     0.293 HD
ENDBRANCH  42  43
ENDBRANCH  32  37
ENDBRANCH  23  24
ENDBRANCH   6  23
BRANCH   3  45
ATOM     45  O   UNL     1     128.999 107.361  94.128  1.00  0.00    -0.387 OA
ATOM     46  H   UNL     1     129.260 108.298  93.969  1.00  0.00     0.211 HD
ENDBRANCH   3  45
BRANCH   4  47
ATOM     47  C   UNL     1     128.875 104.139  94.052  1.00  0.00     0.191 C 
BRANCH  47  48
ATOM     48  O   UNL     1     129.486 102.910  93.800  1.00  0.00    -0.394 OA
ATOM     49  H   UNL     1     129.147 102.230  94.458  1.00  0.00     0.210 HD
ENDBRANCH  47  48
ENDBRANCH   4  47
TORSDOF 14
ENDMDL
MODEL 4
REMARK VINA RESULT:    -6.625      2.468      5.881
REMARK INTER + INTRA:         -12.813
REMARK INTER:                 -10.662
REMARK INTRA:                  -2.151
REMARK UNBOUND:                -2.315
REMARK SMILES C[C@H]1O[C@H](O[C@H]2[C@H](Oc3cc(O)c4c(c3)O[C@H](c3ccc(O)cc3)CC4=O)O[C@H](CO)[C@@H](O)[C@@H]2O)[C@H](O)[C@@H](O)[C@H]1O
REMARK SMILES IDX 6 1 34 2 32 3 29 4 28 5 7 6 5 7 4 8 1 9 2 10 40 11 3 12
REMARK SMILES IDX 38 13 36 14 41 15 39 17 37 19 35 21 8 23 9 24 10 25 15 26
REMARK SMILES IDX 11 27 14 28 13 29 16 30 26 31 17 32 27 33 25 34 12 35 18 37
REMARK SMILES IDX 19 38 24 39 20 40 23 41 21 42 22 43 33 45 30 47 31 48
REMARK H PARENT 41 16 39 18 37 20 35 22 12 36 22 44 33 46 31 49
REMARK Flexibility Score: inf
ROOT
ATOM      1  C   UNL     1     135.192 103.715  93.873  1.00  0.00     0.221 C 
ATOM      2  C   UNL     1     135.004 103.818  95.395  1.00  0.00     0.181 C 
ATOM      3  C   UNL     1     133.625 104.292  95.816  1.00  0.00     0.177 C 
ATOM      4  C   UNL     1     132.425 103.981  94.852  1.00  0.00     0.179 C 
ATOM      5  O   UNL     1     132.850 103.757  93.524  1.00  0.00    -0.332 OA
ATOM      6  C   UNL     1     133.933 102.883  93.428  1.00  0.00     0.339 C 
ENDROOT
BRANCH   1   7
ATOM      7  O   UNL     1     136.420 103.136  93.545  1.00  0.00    -0.337 OA
BRANCH   7   8
ATOM      8  C   UNL     1     137.338 104.023  92.870  1.00  0.00     0.282 C 
ATOM      9  C   UNL     1     140.606 105.230  92.972  1.00  0.00     0.041 C 
ATOM     10  C   UNL     1     139.785 103.993  93.450  1.00  0.00     0.150 C 
ATOM     11  C   UNL     1     140.053 102.677  92.598  1.00  0.00     0.174 C 
ATOM     12  O   UNL     1     138.406 104.388  93.769  1.00  0.00    -0.344 OA
ATOM     13  C   UNL     1     138.672 102.073  92.277  1.00  0.00     0.179 C 
ATOM     14  C   UNL     1     137.885 103.196  91.676  1.00  0.00     0.202 C 
BRANCH  11  15
ATOM     15  O   UNL     1     140.776 102.983  91.403  1.00  0.00    -0.388 OA
ATOM     16  H   UNL     1     140.254 103.622  90.899  1.00  0.00     0.211 HD
ENDBRANCH  11  15
BRANCH  13  17
ATOM     17  O   UNL     1     138.645 100.905  91.504  1.00  0.00    -0.387 OA
ATOM     18  H   UNL     1     139.032 101.174  90.633  1.00  0.00     0.211 HD
ENDBRANCH  13  17
BRANCH  14  19
ATOM     19  O   UNL     1     136.941 102.850  90.727  1.00  0.00    -0.385 OA
ATOM     20  H   UNL     1     136.687 103.664  90.224  1.00  0.00     0.211 HD
ENDBRANCH  14  19
ENDBRANCH   7   8
ENDBRANCH   1   7
BRANCH   2  21
ATOM     21  O   UNL     1     135.992 104.627  95.999  1.00  0.00    -0.387 OA
ATOM     22  H   UNL     1     136.269 104.273  96.912  1.00  0.00     0.211 HD
ENDBRANCH   2  21
BRANCH   6  23
ATOM     23  O   UNL     1     134.082 102.239  92.169  1.00  0.00    -0.462 OA
BRANCH  23  24
ATOM     24  C   UNL     1     134.079 100.843  91.888  1.00  0.00     0.130 A 
ATOM     25  C   UNL     1     135.302 100.172  91.998  1.00  0.00     0.093 A 
ATOM     26  C   UNL     1     132.996 100.020  91.437  1.00  0.00     0.094 A 
ATOM     27  C   UNL     1     135.595  98.918  91.385  1.00  0.00     0.133 A 
ATOM     28  C   UNL     1     133.210  98.716  90.962  1.00  0.00     0.138 A 
ATOM     29  C   UNL     1     134.533  98.257  90.778  1.00  0.00     0.102 A 
ATOM     30  O   UNL     1     132.120  97.849  90.639  1.00  0.00    -0.484 OA
ATOM     31  C   UNL     1     134.717  96.895  90.217  1.00  0.00     0.174 C 
ATOM     32  C   UNL     1     132.241  96.655  89.866  1.00  0.00     0.211 C 
ATOM     33  O   UNL     1     135.806  96.460  89.749  1.00  0.00    -0.294 OA
ATOM     34  C   UNL     1     133.563  95.940  90.260  1.00  0.00     0.131 C 
BRANCH  27  35
ATOM     35  O   UNL     1     136.876  98.357  91.476  1.00  0.00    -0.507 OA
ATOM     36  H   UNL     1     137.610  98.587  90.818  1.00  0.00     0.293 HD
ENDBRANCH  27  35
BRANCH  32  37
ATOM     37  C   UNL     1     131.076  95.667  90.141  1.00  0.00    -0.007 A 
ATOM     38  C   UNL     1     131.172  94.329  89.690  1.00  0.00     0.011 A 
ATOM     39  C   UNL     1     130.124  95.932  91.175  1.00  0.00     0.011 A 
ATOM     40  C   UNL     1     130.381  93.306  90.205  1.00  0.00     0.046 A 
ATOM     41  C   UNL     1     129.246  94.915  91.603  1.00  0.00     0.046 A 
ATOM     42  C   UNL     1     129.448  93.600  91.199  1.00  0.00     0.115 A 
BRANCH  42  43
ATOM     43  O   UNL     1     128.876  92.559  91.905  1.00  0.00    -0.508 OA
ATOM     44  H   UNL     1     129.118  92.445  92.860  1.00  0.00     0.293 HD
ENDBRANCH  42  43
ENDBRANCH  32  37
ENDBRANCH  23  24
ENDBRANCH   6  23
BRANCH   3  45
ATOM     45  O   UNL     1     133.272 103.817  97.091  1.00  0.00    -0.387 OA
ATOM     46  H   UNL     1     133.253 104.535  97.764  1.00  0.00     0.211 HD
ENDBRANCH   3  45
BRANCH   4  47
ATOM     47  C   UNL     1     131.391 105.085  94.798  1.00  0.00     0.191 C 
BRANCH  47  48
ATOM     48  O   UNL     1     130.328 104.786  95.652  1.00  0.00    -0.394 OA
ATOM     49  H   UNL     1     130.686 104.584  96.569  1.00  0.00     0.210 HD
ENDBRANCH  47  48
ENDBRANCH   4  47
TORSDOF 14
ENDMDL
MODEL 5
REMARK VINA RESULT:    -6.268      5.092      7.145
REMARK INTER + INTRA:         -12.248
REMARK INTER:                 -10.505
REMARK INTRA:                  -1.743
REMARK UNBOUND:                -2.315
REMARK SMILES C[C@H]1O[C@H](O[C@H]2[C@H](Oc3cc(O)c4c(c3)O[C@H](c3ccc(O)cc3)CC4=O)O[C@H](CO)[C@@H](O)[C@@H]2O)[C@H](O)[C@@H](O)[C@H]1O
REMARK SMILES IDX 6 1 34 2 32 3 29 4 28 5 7 6 5 7 4 8 1 9 2 10 40 11 3 12
REMARK SMILES IDX 38 13 36 14 41 15 39 17 37 19 35 21 8 23 9 24 10 25 15 26
REMARK SMILES IDX 11 27 14 28 13 29 16 30 26 31 17 32 27 33 25 34 12 35 18 37
REMARK SMILES IDX 19 38 24 39 20 40 23 41 21 42 22 43 33 45 30 47 31 48
REMARK H PARENT 41 16 39 18 37 20 35 22 12 36 22 44 33 46 31 49
REMARK Flexibility Score: inf
ROOT
ATOM      1  C   UNL     1     138.077 105.274  93.700  1.00  0.00     0.221 C 
ATOM      2  C   UNL     1     137.551 106.228  92.615  1.00  0.00     0.181 C 
ATOM      3  C   UNL     1     138.638 106.828  91.741  1.00  0.00     0.177 C 
ATOM      4  C   UNL     1     139.954 105.994  91.545  1.00  0.00     0.179 C 
ATOM      5  O   UNL     1     140.154 105.058  92.583  1.00  0.00    -0.332 OA
ATOM      6  C   UNL     1     139.015 104.311  92.883  1.00  0.00     0.339 C 
ENDROOT
BRANCH   1   7
ATOM      7  O   UNL     1     137.032 104.639  94.375  1.00  0.00    -0.337 OA
BRANCH   7   8
ATOM      8  C   UNL     1     135.989 104.128  93.516  1.00  0.00     0.282 C 
ATOM      9  C   UNL     1     134.099 101.277  92.846  1.00  0.00     0.041 C 
ATOM     10  C   UNL     1     134.906 101.915  94.018  1.00  0.00     0.150 C 
ATOM     11  C   UNL     1     133.992 102.531  95.165  1.00  0.00     0.174 C 
ATOM     12  O   UNL     1     136.043 102.686  93.496  1.00  0.00    -0.344 OA
ATOM     13  C   UNL     1     134.570 103.924  95.485  1.00  0.00     0.179 C 
ATOM     14  C   UNL     1     134.666 104.619  94.162  1.00  0.00     0.202 C 
BRANCH  11  15
ATOM     15  O   UNL     1     132.631 102.619  94.738  1.00  0.00    -0.388 OA
ATOM     16  H   UNL     1     132.625 102.996  93.848  1.00  0.00     0.211 HD
ENDBRANCH  11  15
BRANCH  13  17
ATOM     17  O   UNL     1     133.911 104.684  96.461  1.00  0.00    -0.387 OA
ATOM     18  H   UNL     1     133.778 105.571  96.038  1.00  0.00     0.211 HD
ENDBRANCH  13  17
BRANCH  14  19
ATOM     19  O   UNL     1     134.498 105.991  94.172  1.00  0.00    -0.385 OA
ATOM     20  H   UNL     1     134.555 106.309  95.108  1.00  0.00     0.211 HD
ENDBRANCH  14  19
ENDBRANCH   7   8
ENDBRANCH   1   7
BRANCH   2  21
ATOM     21  O   UNL     1     136.751 107.259  93.156  1.00  0.00    -0.387 OA
ATOM     22  H   UNL     1     135.758 107.050  93.080  1.00  0.00     0.211 HD
ENDBRANCH   2  21
BRANCH   6  23
ATOM     23  O   UNL     1     139.259 103.064  93.523  1.00  0.00    -0.462 OA
BRANCH  23  24
ATOM     24  C   UNL     1     140.511 102.486  93.875  1.00  0.00     0.130 A 
ATOM     25  C   UNL     1     141.153 103.003  95.005  1.00  0.00     0.093 A 
ATOM     26  C   UNL     1     141.258 101.474  93.188  1.00  0.00     0.094 A 
ATOM     27  C   UNL     1     142.546 102.864  95.280  1.00  0.00     0.133 A 
ATOM     28  C   UNL     1     142.592 101.189  93.519  1.00  0.00     0.138 A 
ATOM     29  C   UNL     1     143.265 102.019  94.444  1.00  0.00     0.102 A 
ATOM     30  O   UNL     1     143.293 100.092  92.928  1.00  0.00    -0.484 OA
ATOM     31  C   UNL     1     144.693 101.722  94.722  1.00  0.00     0.174 C 
ATOM     32  C   UNL     1     144.710  99.928  92.964  1.00  0.00     0.211 C 
ATOM     33  O   UNL     1     145.485 102.517  95.298  1.00  0.00    -0.294 OA
ATOM     34  C   UNL     1     145.227 100.369  94.360  1.00  0.00     0.131 C 
BRANCH  27  35
ATOM     35  O   UNL     1     143.122 103.488  96.394  1.00  0.00    -0.507 OA
ATOM     36  H   UNL     1     143.140 104.495  96.495  1.00  0.00     0.293 HD
ENDBRANCH  27  35
BRANCH  32  37
ATOM     37  C   UNL     1     145.126  98.446  92.758  1.00  0.00    -0.007 A 
ATOM     38  C   UNL     1     145.669  97.716  93.842  1.00  0.00     0.011 A 
ATOM     39  C   UNL     1     144.602  97.686  91.666  1.00  0.00     0.011 A 
ATOM     40  C   UNL     1     145.711  96.324  93.861  1.00  0.00     0.046 A 
ATOM     41  C   UNL     1     144.759  96.285  91.642  1.00  0.00     0.046 A 
ATOM     42  C   UNL     1     145.209  95.612  92.772  1.00  0.00     0.115 A 
BRANCH  42  43
ATOM     43  O   UNL     1     144.987  94.255  92.909  1.00  0.00    -0.508 OA
ATOM     44  H   UNL     1     144.164  93.955  93.373  1.00  0.00     0.293 HD
ENDBRANCH  42  43
ENDBRANCH  32  37
ENDBRANCH  23  24
ENDBRANCH   6  23
BRANCH   3  45
ATOM     45  O   UNL     1     138.160 107.163  90.463  1.00  0.00    -0.387 OA
ATOM     46  H   UNL     1     138.254 106.421  89.823  1.00  0.00     0.211 HD
ENDBRANCH   3  45
BRANCH   4  47
ATOM     47  C   UNL     1     141.204 106.844  91.479  1.00  0.00     0.191 C 
BRANCH  47  48
ATOM     48  O   UNL     1     140.869 108.167  91.184  1.00  0.00    -0.394 OA
ATOM     49  H   UNL     1     141.650 108.762  91.397  1.00  0.00     0.210 HD
ENDBRANCH  47  48
ENDBRANCH   4  47
TORSDOF 14
ENDMDL
MODEL 6
REMARK VINA RESULT:    -6.242      2.238      3.008
REMARK INTER + INTRA:         -12.206
REMARK INTER:                 -10.516
REMARK INTRA:                  -1.690
REMARK UNBOUND:                -2.315
REMARK SMILES C[C@H]1O[C@H](O[C@H]2[C@H](Oc3cc(O)c4c(c3)O[C@H](c3ccc(O)cc3)CC4=O)O[C@H](CO)[C@@H](O)[C@@H]2O)[C@H](O)[C@@H](O)[C@H]1O
REMARK SMILES IDX 6 1 34 2 32 3 29 4 28 5 7 6 5 7 4 8 1 9 2 10 40 11 3 12
REMARK SMILES IDX 38 13 36 14 41 15 39 17 37 19 35 21 8 23 9 24 10 25 15 26
REMARK SMILES IDX 11 27 14 28 13 29 16 30 26 31 17 32 27 33 25 34 12 35 18 37
REMARK SMILES IDX 19 38 24 39 20 40 23 41 21 42 22 43 33 45 30 47 31 48
REMARK H PARENT 41 16 39 18 37 20 35 22 12 36 22 44 33 46 31 49
REMARK Flexibility Score: inf
ROOT
ATOM      1  C   UNL     1     135.785 103.662  93.850  1.00  0.00     0.221 C 
ATOM      2  C   UNL     1     136.191 104.902  94.662  1.00  0.00     0.181 C 
ATOM      3  C   UNL     1     137.595 105.401  94.366  1.00  0.00     0.177 C 
ATOM      4  C   UNL     1     138.178 105.119  92.936  1.00  0.00     0.179 C 
ATOM      5  O   UNL     1     137.540 104.030  92.303  1.00  0.00    -0.332 OA
ATOM      6  C   UNL     1     136.148 104.083  92.378  1.00  0.00     0.339 C 
ENDROOT
BRANCH   1   7
ATOM      7  O   UNL     1     134.441 103.336  94.050  1.00  0.00    -0.337 OA
BRANCH   7   8
ATOM      8  C   UNL     1     133.583 104.468  94.308  1.00  0.00     0.282 C 
ATOM      9  C   UNL     1     130.654 106.027  93.241  1.00  0.00     0.041 C 
ATOM     10  C   UNL     1     131.320 104.617  93.221  1.00  0.00     0.150 C 
ATOM     11  C   UNL     1     130.672 103.586  94.244  1.00  0.00     0.174 C 
ATOM     12  O   UNL     1     132.783 104.744  93.140  1.00  0.00    -0.344 OA
ATOM     13  C   UNL     1     131.842 102.903  94.978  1.00  0.00     0.179 C 
ATOM     14  C   UNL     1     132.687 104.025  95.495  1.00  0.00     0.202 C 
BRANCH  11  15
ATOM     15  O   UNL     1     129.804 104.256  95.160  1.00  0.00    -0.388 OA
ATOM     16  H   UNL     1     129.672 103.674  95.920  1.00  0.00     0.211 HD
ENDBRANCH  11  15
BRANCH  13  17
ATOM     17  O   UNL     1     131.520 101.957  95.961  1.00  0.00    -0.387 OA
ATOM     18  H   UNL     1     130.540 101.834  95.876  1.00  0.00     0.211 HD
ENDBRANCH  13  17
BRANCH  14  19
ATOM     19  O   UNL     1     133.362 103.795  96.680  1.00  0.00    -0.385 OA
ATOM     20  H   UNL     1     133.801 104.637  96.961  1.00  0.00     0.211 HD
ENDBRANCH  14  19
ENDBRANCH   7   8
ENDBRANCH   1   7
BRANCH   2  21
ATOM     21  O   UNL     1     136.041 104.700  96.052  1.00  0.00    -0.387 OA
ATOM     22  H   UNL     1     135.080 104.845  96.357  1.00  0.00     0.211 HD
ENDBRANCH   2  21
BRANCH   6  23
ATOM     23  O   UNL     1     135.458 103.342  91.379  1.00  0.00    -0.462 OA
BRANCH  23  24
ATOM     24  C   UNL     1     135.376 101.928  91.232  1.00  0.00     0.130 A 
ATOM     25  C   UNL     1     136.578 101.241  91.032  1.00  0.00     0.093 A 
ATOM     26  C   UNL     1     134.210 101.096  91.192  1.00  0.00     0.094 A 
ATOM     27  C   UNL     1     136.680  99.935  90.468  1.00  0.00     0.133 A 
ATOM     28  C   UNL     1     134.277  99.753  90.787  1.00  0.00     0.138 A 
ATOM     29  C   UNL     1     135.488  99.251  90.261  1.00  0.00     0.102 A 
ATOM     30  O   UNL     1     133.143  98.887  90.875  1.00  0.00    -0.484 OA
ATOM     31  C   UNL     1     135.501  97.843  89.788  1.00  0.00     0.174 C 
ATOM     32  C   UNL     1     133.033  97.632  90.205  1.00  0.00     0.211 C 
ATOM     33  O   UNL     1     136.403  97.347  89.058  1.00  0.00    -0.294 OA
ATOM     34  C   UNL     1     134.413  96.921  90.250  1.00  0.00     0.131 C 
BRANCH  27  35
ATOM     35  O   UNL     1     137.932  99.354  90.225  1.00  0.00    -0.507 OA
ATOM     36  H   UNL     1     138.791  99.778  90.552  1.00  0.00     0.293 HD
ENDBRANCH  27  35
BRANCH  32  37
ATOM     37  C   UNL     1     132.004  96.696  90.895  1.00  0.00    -0.007 A 
ATOM     38  C   UNL     1     130.651  97.098  90.996  1.00  0.00     0.011 A 
ATOM     39  C   UNL     1     132.275  95.300  91.046  1.00  0.00     0.011 A 
ATOM     40  C   UNL     1     129.618  96.197  91.242  1.00  0.00     0.046 A 
ATOM     41  C   UNL     1     131.240  94.415  91.413  1.00  0.00     0.046 A 
ATOM     42  C   UNL     1     129.918  94.844  91.404  1.00  0.00     0.115 A 
BRANCH  42  43
ATOM     43  O   UNL     1     128.887  93.924  91.358  1.00  0.00    -0.508 OA
ATOM     44  H   UNL     1     128.088  94.080  91.923  1.00  0.00     0.293 HD
ENDBRANCH  42  43
ENDBRANCH  32  37
ENDBRANCH  23  24
ENDBRANCH   6  23
BRANCH   3  45
ATOM     45  O   UNL     1     137.724 106.780  94.607  1.00  0.00    -0.387 OA
ATOM     46  H   UNL     1     137.297 107.052  95.452  1.00  0.00     0.211 HD
ENDBRANCH   3  45
BRANCH   4  47
ATOM     47  C   UNL     1     139.660 104.814  92.937  1.00  0.00     0.191 C 
BRANCH  47  48
ATOM     48  O   UNL     1     140.370 105.890  93.473  1.00  0.00    -0.394 OA
ATOM     49  H   UNL     1     140.142 105.985  94.447  1.00  0.00     0.210 HD
ENDBRANCH  47  48
ENDBRANCH   4  47
TORSDOF 14
ENDMDL
MODEL 7
REMARK VINA RESULT:    -6.163      1.655      4.843
REMARK INTER + INTRA:         -12.082
REMARK INTER:                 -10.134
REMARK INTRA:                  -1.948
REMARK UNBOUND:                -2.315
REMARK SMILES C[C@H]1O[C@H](O[C@H]2[C@H](Oc3cc(O)c4c(c3)O[C@H](c3ccc(O)cc3)CC4=O)O[C@H](CO)[C@@H](O)[C@@H]2O)[C@H](O)[C@@H](O)[C@H]1O
REMARK SMILES IDX 6 1 34 2 32 3 29 4 28 5 7 6 5 7 4 8 1 9 2 10 40 11 3 12
REMARK SMILES IDX 38 13 36 14 41 15 39 17 37 19 35 21 8 23 9 24 10 25 15 26
REMARK SMILES IDX 11 27 14 28 13 29 16 30 26 31 17 32 27 33 25 34 12 35 18 37
REMARK SMILES IDX 19 38 24 39 20 40 23 41 21 42 22 43 33 45 30 47 31 48
REMARK H PARENT 41 16 39 18 37 20 35 22 12 36 22 44 33 46 31 49
REMARK Flexibility Score: inf
ROOT
ATOM      1  C   UNL     1     133.653 106.491  92.830  1.00  0.00     0.221 C 
ATOM      2  C   UNL     1     132.969 107.811  92.439  1.00  0.00     0.181 C 
ATOM      3  C   UNL     1     131.528 107.650  91.990  1.00  0.00     0.177 C 
ATOM      4  C   UNL     1     130.718 106.437  92.570  1.00  0.00     0.179 C 
ATOM      5  O   UNL     1     131.560 105.398  93.024  1.00  0.00    -0.332 OA
ATOM      6  C   UNL     1     132.614 105.847  93.820  1.00  0.00     0.339 C 
ENDROOT
BRANCH   1   7
ATOM      7  O   UNL     1     134.920 106.710  93.374  1.00  0.00    -0.337 OA
BRANCH   7   8
ATOM      8  C   UNL     1     135.933 107.066  92.408  1.00  0.00     0.282 C 
ATOM      9  C   UNL     1     138.711 109.115  91.930  1.00  0.00     0.041 C 
ATOM     10  C   UNL     1     137.906 108.465  93.096  1.00  0.00     0.150 C 
ATOM     11  C   UNL     1     138.645 107.231  93.776  1.00  0.00     0.174 C 
ATOM     12  O   UNL     1     136.484 108.357  92.738  1.00  0.00    -0.344 OA
ATOM     13  C   UNL     1     137.596 106.110  93.908  1.00  0.00     0.179 C 
ATOM     14  C   UNL     1     137.012 105.958  92.538  1.00  0.00     0.202 C 
BRANCH  11  15
ATOM     15  O   UNL     1     139.760 106.809  92.988  1.00  0.00    -0.388 OA
ATOM     16  H   UNL     1     140.556 107.205  93.368  1.00  0.00     0.211 HD
ENDBRANCH  11  15
BRANCH  13  17
ATOM     17  O   UNL     1     138.020 104.895  94.465  1.00  0.00    -0.387 OA
ATOM     18  H   UNL     1     137.188 104.367  94.572  1.00  0.00     0.211 HD
ENDBRANCH  13  17
BRANCH  14  19
ATOM     19  O   UNL     1     136.591 104.690  92.183  1.00  0.00    -0.385 OA
ATOM     20  H   UNL     1     137.253 104.303  91.557  1.00  0.00     0.211 HD
ENDBRANCH  14  19
ENDBRANCH   7   8
ENDBRANCH   1   7
BRANCH   2  21
ATOM     21  O   UNL     1     133.698 108.518  91.458  1.00  0.00    -0.387 OA
ATOM     22  H   UNL     1     133.375 109.478  91.361  1.00  0.00     0.211 HD
ENDBRANCH   2  21
BRANCH   6  23
ATOM     23  O   UNL     1     133.174 104.871  94.690  1.00  0.00    -0.462 OA
BRANCH  23  24
ATOM     24  C   UNL     1     133.759 103.619  94.347  1.00  0.00     0.130 A 
ATOM     25  C   UNL     1     134.956 103.282  94.988  1.00  0.00     0.093 A 
ATOM     26  C   UNL     1     133.327 102.663  93.372  1.00  0.00     0.094 A 
ATOM     27  C   UNL     1     135.887 102.314  94.509  1.00  0.00     0.133 A 
ATOM     28  C   UNL     1     134.147 101.596  92.970  1.00  0.00     0.138 A 
ATOM     29  C   UNL     1     135.485 101.549  93.419  1.00  0.00     0.102 A 
ATOM     30  O   UNL     1     133.667 100.569  92.100  1.00  0.00    -0.484 OA
ATOM     31  C   UNL     1     136.339 100.440  92.924  1.00  0.00     0.174 C 
ATOM     32  C   UNL     1     134.504  99.647  91.402  1.00  0.00     0.211 C 
ATOM     33  O   UNL     1     137.597 100.417  93.013  1.00  0.00    -0.294 OA
ATOM     34  C   UNL     1     135.674  99.232  92.335  1.00  0.00     0.131 C 
BRANCH  27  35
ATOM     35  O   UNL     1     137.103 102.099  95.170  1.00  0.00    -0.507 OA
ATOM     36  H   UNL     1     137.206 102.253  96.165  1.00  0.00     0.293 HD
ENDBRANCH  27  35
BRANCH  32  37
ATOM     37  C   UNL     1     133.739  98.355  91.008  1.00  0.00    -0.007 A 
ATOM     38  C   UNL     1     134.422  97.115  90.994  1.00  0.00     0.011 A 
ATOM     39  C   UNL     1     132.312  98.304  91.072  1.00  0.00     0.011 A 
ATOM     40  C   UNL     1     133.756  95.893  91.029  1.00  0.00     0.046 A 
ATOM     41  C   UNL     1     131.645  97.064  90.986  1.00  0.00     0.046 A 
ATOM     42  C   UNL     1     132.363  95.877  91.072  1.00  0.00     0.115 A 
BRANCH  42  43
ATOM     43  O   UNL     1     131.720  94.697  91.394  1.00  0.00    -0.508 OA
ATOM     44  H   UNL     1     130.743  94.632  91.240  1.00  0.00     0.293 HD
ENDBRANCH  42  43
ENDBRANCH  32  37
ENDBRANCH  23  24
ENDBRANCH   6  23
BRANCH   3  45
ATOM     45  O   UNL     1     130.771 108.811  92.225  1.00  0.00    -0.387 OA
ATOM     46  H   UNL     1     131.215 109.621  91.884  1.00  0.00     0.211 HD
ENDBRANCH   3  45
BRANCH   4  47
ATOM     47  C   UNL     1     129.760 105.818  91.575  1.00  0.00     0.191 C 
BRANCH  47  48
ATOM     48  O   UNL     1     129.702 106.597  90.418  1.00  0.00    -0.394 OA
ATOM     49  H   UNL     1     128.896 106.331  89.881  1.00  0.00     0.210 HD
ENDBRANCH  47  48
ENDBRANCH   4  47
TORSDOF 14
ENDMDL
MODEL 8
REMARK VINA RESULT:    -6.128      5.240      8.318
REMARK INTER + INTRA:         -12.025
REMARK INTER:                 -10.255
REMARK INTRA:                  -1.770
REMARK UNBOUND:                -2.315
REMARK SMILES C[C@H]1O[C@H](O[C@H]2[C@H](Oc3cc(O)c4c(c3)O[C@H](c3ccc(O)cc3)CC4=O)O[C@H](CO)[C@@H](O)[C@@H]2O)[C@H](O)[C@@H](O)[C@H]1O
REMARK SMILES IDX 6 1 34 2 32 3 29 4 28 5 7 6 5 7 4 8 1 9 2 10 40 11 3 12
REMARK SMILES IDX 38 13 36 14 41 15 39 17 37 19 35 21 8 23 9 24 10 25 15 26
REMARK SMILES IDX 11 27 14 28 13 29 16 30 26 31 17 32 27 33 25 34 12 35 18 37
REMARK SMILES IDX 19 38 24 39 20 40 23 41 21 42 22 43 33 45 30 47 31 48
REMARK H PARENT 41 16 39 18 37 20 35 22 12 36 22 44 33 46 31 49
REMARK Flexibility Score: inf
ROOT
ATOM      1  C   UNL     1     136.010 101.688  93.128  1.00  0.00     0.221 C 
ATOM      2  C   UNL     1     135.127 100.477  92.788  1.00  0.00     0.181 C 
ATOM      3  C   UNL     1     135.740  99.532  91.770  1.00  0.00     0.177 C 
ATOM      4  C   UNL     1     137.307  99.462  91.697  1.00  0.00     0.179 C 
ATOM      5  O   UNL     1     137.920 100.623  92.217  1.00  0.00    -0.332 OA
ATOM      6  C   UNL     1     137.398 101.021  93.449  1.00  0.00     0.339 C 
ENDROOT
BRANCH   1   7
ATOM      7  O   UNL     1     135.469 102.441  94.172  1.00  0.00    -0.337 OA
BRANCH   7   8
ATOM      8  C   UNL     1     135.130 103.799  93.817  1.00  0.00     0.282 C 
ATOM      9  C   UNL     1     132.566 105.765  92.508  1.00  0.00     0.041 C 
ATOM     10  C   UNL     1     132.757 104.405  93.248  1.00  0.00     0.150 C 
ATOM     11  C   UNL     1     132.315 104.438  94.776  1.00  0.00     0.174 C 
ATOM     12  O   UNL     1     134.040 103.794  92.873  1.00  0.00    -0.344 OA
ATOM     13  C   UNL     1     133.444 103.760  95.574  1.00  0.00     0.179 C 
ATOM     14  C   UNL     1     134.697 104.463  95.152  1.00  0.00     0.202 C 
BRANCH  11  15
ATOM     15  O   UNL     1     132.102 105.782  95.214  1.00  0.00    -0.388 OA
ATOM     16  H   UNL     1     132.316 106.370  94.477  1.00  0.00     0.211 HD
ENDBRANCH  11  15
BRANCH  13  17
ATOM     17  O   UNL     1     133.295 103.689  96.966  1.00  0.00    -0.387 OA
ATOM     18  H   UNL     1     132.848 104.539  97.212  1.00  0.00     0.211 HD
ENDBRANCH  13  17
BRANCH  14  19
ATOM     19  O   UNL     1     135.697 104.568  96.101  1.00  0.00    -0.385 OA
ATOM     20  H   UNL     1     136.488 104.066  95.781  1.00  0.00     0.211 HD
ENDBRANCH  14  19
ENDBRANCH   7   8
ENDBRANCH   1   7
BRANCH   2  21
ATOM     21  O   UNL     1     133.836 100.862  92.364  1.00  0.00    -0.387 OA
ATOM     22  H   UNL     1     133.227 101.086  93.149  1.00  0.00     0.211 HD
ENDBRANCH   2  21
BRANCH   6  23
ATOM     23  O   UNL     1     138.260 101.831  94.238  1.00  0.00    -0.462 OA
BRANCH  23  24
ATOM     24  C   UNL     1     139.670 101.988  94.124  1.00  0.00     0.130 A 
ATOM     25  C   UNL     1     140.151 103.288  93.942  1.00  0.00     0.093 A 
ATOM     26  C   UNL     1     140.687 100.977  94.101  1.00  0.00     0.094 A 
ATOM     27  C   UNL     1     141.435 103.610  93.409  1.00  0.00     0.133 A 
ATOM     28  C   UNL     1     142.008 101.269  93.729  1.00  0.00     0.138 A 
ATOM     29  C   UNL     1     142.313 102.550  93.216  1.00  0.00     0.102 A 
ATOM     30  O   UNL     1     143.049 100.295  93.835  1.00  0.00    -0.484 OA
ATOM     31  C   UNL     1     143.709 102.800  92.776  1.00  0.00     0.174 C 
ATOM     32  C   UNL     1     144.320 100.400  93.195  1.00  0.00     0.211 C 
ATOM     33  O   UNL     1     144.064 103.776  92.059  1.00  0.00    -0.294 OA
ATOM     34  C   UNL     1     144.789 101.879  93.258  1.00  0.00     0.131 C 
BRANCH  27  35
ATOM     35  O   UNL     1     141.804 104.942  93.181  1.00  0.00    -0.507 OA
ATOM     36  H   UNL     1     141.173 105.606  92.749  1.00  0.00     0.293 HD
ENDBRANCH  27  35
BRANCH  32  37
ATOM     37  C   UNL     1     145.399  99.538  93.905  1.00  0.00    -0.007 A 
ATOM     38  C   UNL     1     145.196  98.145  94.051  1.00  0.00     0.011 A 
ATOM     39  C   UNL     1     146.742 100.011  94.032  1.00  0.00     0.011 A 
ATOM     40  C   UNL     1     146.238  97.260  94.318  1.00  0.00     0.046 A 
ATOM     41  C   UNL     1     147.769  99.125  94.420  1.00  0.00     0.046 A 
ATOM     42  C   UNL     1     147.534  97.755  94.455  1.00  0.00     0.115 A 
BRANCH  42  43
ATOM     43  O   UNL     1     148.593  96.867  94.430  1.00  0.00    -0.508 OA
ATOM     44  H   UNL     1     149.100  96.758  93.586  1.00  0.00     0.293 HD
ENDBRANCH  42  43
ENDBRANCH  32  37
ENDBRANCH  23  24
ENDBRANCH   6  23
BRANCH   3  45
ATOM     45  O   UNL     1     135.269  98.217  91.923  1.00  0.00    -0.387 OA
ATOM     46  H   UNL     1     135.747  97.729  92.632  1.00  0.00     0.211 HD
ENDBRANCH   3  45
BRANCH   4  47
ATOM     47  C   UNL     1     137.839  99.283  90.291  1.00  0.00     0.191 C 
BRANCH  47  48
ATOM     48  O   UNL     1     137.310  98.122  89.724  1.00  0.00    -0.394 OA
ATOM     49  H   UNL     1     137.793  97.923  88.866  1.00  0.00     0.210 HD
ENDBRANCH  47  48
ENDBRANCH   4  47
TORSDOF 14
ENDMDL
MODEL 9
REMARK VINA RESULT:    -6.048      1.884      2.757
REMARK INTER + INTRA:         -11.899
REMARK INTER:                 -10.119
REMARK INTRA:                  -1.780
REMARK UNBOUND:                -2.315
REMARK SMILES C[C@H]1O[C@H](O[C@H]2[C@H](Oc3cc(O)c4c(c3)O[C@H](c3ccc(O)cc3)CC4=O)O[C@H](CO)[C@@H](O)[C@@H]2O)[C@H](O)[C@@H](O)[C@H]1O
REMARK SMILES IDX 6 1 34 2 32 3 29 4 28 5 7 6 5 7 4 8 1 9 2 10 40 11 3 12
REMARK SMILES IDX 38 13 36 14 41 15 39 17 37 19 35 21 8 23 9 24 10 25 15 26
REMARK SMILES IDX 11 27 14 28 13 29 16 30 26 31 17 32 27 33 25 34 12 35 18 37
REMARK SMILES IDX 19 38 24 39 20 40 23 41 21 42 22 43 33 45 30 47 31 48
REMARK H PARENT 41 16 39 18 37 20 35 22 12 36 22 44 33 46 31 49
REMARK Flexibility Score: inf
ROOT
ATOM      1  C   UNL     1     134.083 105.507  92.021  1.00  0.00     0.221 C 
ATOM      2  C   UNL     1     134.119 107.021  92.289  1.00  0.00     0.181 C 
ATOM      3  C   UNL     1     135.518 107.581  92.475  1.00  0.00     0.177 C 
ATOM      4  C   UNL     1     136.699 106.838  91.755  1.00  0.00     0.179 C 
ATOM      5  O   UNL     1     136.382 105.495  91.454  1.00  0.00    -0.332 OA
ATOM      6  C   UNL     1     135.130 105.340  90.859  1.00  0.00     0.339 C 
ENDROOT
BRANCH   1   7
ATOM      7  O   UNL     1     132.792 105.072  91.711  1.00  0.00    -0.337 OA
BRANCH   7   8
ATOM      8  C   UNL     1     132.365 103.902  92.441  1.00  0.00     0.282 C 
ATOM      9  C   UNL     1     132.203 102.538  95.644  1.00  0.00     0.041 C 
ATOM     10  C   UNL     1     132.287 103.934  94.954  1.00  0.00     0.150 C 
ATOM     11  C   UNL     1     130.920 104.747  94.981  1.00  0.00     0.174 C 
ATOM     12  O   UNL     1     133.057 103.841  93.705  1.00  0.00    -0.344 OA
ATOM     13  C   UNL     1     130.706 105.293  93.556  1.00  0.00     0.179 C 
ATOM     14  C   UNL     1     130.841 104.103  92.658  1.00  0.00     0.202 C 
BRANCH  11  15
ATOM     15  O   UNL     1     129.837 103.906  95.383  1.00  0.00    -0.388 OA
ATOM     16  H   UNL     1     130.214 103.094  95.749  1.00  0.00     0.211 HD
ENDBRANCH  11  15
BRANCH  13  17
ATOM     17  O   UNL     1     129.540 106.033  93.320  1.00  0.00    -0.387 OA
ATOM     18  H   UNL     1     129.633 106.835  93.895  1.00  0.00     0.211 HD
ENDBRANCH  13  17
BRANCH  14  19
ATOM     19  O   UNL     1     130.085 104.113  91.500  1.00  0.00    -0.385 OA
ATOM     20  H   UNL     1     130.699 104.139  90.724  1.00  0.00     0.211 HD
ENDBRANCH  14  19
ENDBRANCH   7   8
ENDBRANCH   1   7
BRANCH   2  21
ATOM     21  O   UNL     1     133.310 107.386  93.387  1.00  0.00    -0.387 OA
ATOM     22  H   UNL     1     132.498 106.779  93.481  1.00  0.00     0.211 HD
ENDBRANCH   2  21
BRANCH   6  23
ATOM     23  O   UNL     1     134.964 104.150  90.099  1.00  0.00    -0.462 OA
BRANCH  23  24
ATOM     24  C   UNL     1     134.895 102.808  90.569  1.00  0.00     0.130 A 
ATOM     25  C   UNL     1     135.822 102.430  91.546  1.00  0.00     0.093 A 
ATOM     26  C   UNL     1     134.039 101.745  90.131  1.00  0.00     0.094 A 
ATOM     27  C   UNL     1     136.187 101.083  91.839  1.00  0.00     0.133 A 
ATOM     28  C   UNL     1     134.262 100.413  90.513  1.00  0.00     0.138 A 
ATOM     29  C   UNL     1     135.443 100.087  91.217  1.00  0.00     0.102 A 
ATOM     30  O   UNL     1     133.336  99.374  90.187  1.00  0.00    -0.484 OA
ATOM     31  C   UNL     1     135.673  98.658  91.550  1.00  0.00     0.174 C 
ATOM     32  C   UNL     1     133.631  97.980  90.253  1.00  0.00     0.211 C 
ATOM     33  O   UNL     1     136.781  98.184  91.923  1.00  0.00    -0.294 OA
ATOM     34  C   UNL     1     134.508  97.716  91.508  1.00  0.00     0.131 C 
BRANCH  27  35
ATOM     35  O   UNL     1     137.189 100.799  92.777  1.00  0.00    -0.507 OA
ATOM     36  H   UNL     1     137.582  99.871  92.876  1.00  0.00     0.293 HD
ENDBRANCH  27  35
BRANCH  32  37
ATOM     37  C   UNL     1     132.345  97.122  90.394  1.00  0.00    -0.007 A 
ATOM     38  C   UNL     1     132.454  95.732  90.638  1.00  0.00     0.011 A 
ATOM     39  C   UNL     1     131.090  97.734  90.703  1.00  0.00     0.011 A 
ATOM     40  C   UNL     1     131.401  94.975  91.145  1.00  0.00     0.046 A 
ATOM     41  C   UNL     1     129.995  96.939  91.101  1.00  0.00     0.046 A 
ATOM     42  C   UNL     1     130.183  95.599  91.418  1.00  0.00     0.115 A 
BRANCH  42  43
ATOM     43  O   UNL     1     129.247  94.925  92.179  1.00  0.00    -0.508 OA
ATOM     44  H   UNL     1     128.539  94.411  91.712  1.00  0.00     0.293 HD
ENDBRANCH  42  43
ENDBRANCH  32  37
ENDBRANCH  23  24
ENDBRANCH   6  23
BRANCH   3  45
ATOM     45  O   UNL     1     135.594 108.937  92.113  1.00  0.00    -0.387 OA
ATOM     46  H   UNL     1     136.518 109.224  91.932  1.00  0.00     0.211 HD
ENDBRANCH   3  45
BRANCH   4  47
ATOM     47  C   UNL     1     137.979 106.813  92.561  1.00  0.00     0.191 C 
BRANCH  47  48
ATOM     48  O   UNL     1     137.857 107.642  93.678  1.00  0.00    -0.394 OA
ATOM     49  H   UNL     1     138.773 107.845  94.041  1.00  0.00     0.210 HD
ENDBRANCH  47  48
ENDBRANCH   4  47
TORSDOF 14
ENDMDL
