MODEL 1
REMARK VINA RESULT:    -4.635      0.000      0.000
REMARK INTER + INTRA:          -8.230
REMARK INTER:                  -7.074
REMARK INTRA:                  -1.156
REMARK UNBOUND:                -1.156
REMARK SMILES O=C([O-])CCCCCCCCC(=O)[O-]
REMARK SMILES IDX 7 1 6 2 5 3 4 4 2 5 1 6 3 7 8 8 9 9 10 10 11 11 12 12 13 13
REMARK SMILES IDX 14 14
REMARK H PARENT
REMARK Flexibility Score: inf
ROOT
ATOM      1  C   UNL     1      12.147  16.507  71.637  1.00  0.00     0.000 C 
ENDROOT
BRANCH   1   2
ATOM      2  C   UNL     1      10.829  16.762  70.880  1.00  0.00     0.000 C 
BRANCH   2   3
ATOM      3  C   UNL     1      10.962  17.637  69.620  1.00  0.00     0.006 C 
BRANCH   3   4
ATOM      4  C   UNL     1      10.546  16.902  68.340  1.00  0.00     0.053 C 
BRANCH   4   5
ATOM      5  C   UNL     1      11.588  17.073  67.279  1.00  0.00     0.041 C 
ATOM      6  O   UNL     1      12.447  16.174  67.085  1.00  0.00    -0.550 OA
ATOM      7  O   UNL     1      11.581  18.204  66.473  1.00  0.00    -0.550 OA
ENDBRANCH   4   5
ENDBRANCH   3   4
ENDBRANCH   2   3
ENDBRANCH   1   2
BRANCH   1   8
ATOM      8  C   UNL     1      13.429  16.896  70.872  1.00  0.00     0.000 C 
BRANCH   8   9
ATOM      9  C   UNL     1      14.182  15.722  70.222  1.00  0.00     0.000 C 
BRANCH   9  10
ATOM     10  C   UNL     1      13.583  14.353  70.591  1.00  0.00     0.006 C 
BRANCH  10  11
ATOM     11  C   UNL     1      13.124  13.570  69.353  1.00  0.00     0.053 C 
BRANCH  11  12
ATOM     12  C   UNL     1      11.639  13.384  69.332  1.00  0.00     0.041 C 
ATOM     13  O   UNL     1      11.024  13.309  68.235  1.00  0.00    -0.550 OA
ATOM     14  O   UNL     1      10.935  13.263  70.525  1.00  0.00    -0.550 OA
ENDBRANCH  11  12
ENDBRANCH  10  11
ENDBRANCH   9  10
ENDBRANCH   8   9
ENDBRANCH   1   8
TORSDOF 9
ENDMDL
MODEL 2
REMARK VINA RESULT:    -4.616      0.162      4.143
REMARK INTER + INTRA:          -8.200
REMARK INTER:                  -7.083
REMARK INTRA:                  -1.117
REMARK UNBOUND:                -1.156
REMARK SMILES O=C([O-])CCCCCCCCC(=O)[O-]
REMARK SMILES IDX 7 1 6 2 5 3 4 4 2 5 1 6 3 7 8 8 9 9 10 10 11 11 12 12 13 13
REMARK SMILES IDX 14 14
REMARK H PARENT
REMARK Flexibility Score: inf
ROOT
ATOM      1  C   UNL     1      13.308  16.873  70.938  1.00  0.00     0.000 C 
ENDROOT
BRANCH   1   2
ATOM      2  C   UNL     1      14.030  15.699  70.249  1.00  0.00     0.000 C 
BRANCH   2   3
ATOM      3  C   UNL     1      13.431  14.310  70.536  1.00  0.00     0.006 C 
BRANCH   3   4
ATOM      4  C   UNL     1      13.094  13.532  69.257  1.00  0.00     0.053 C 
BRANCH   4   5
ATOM      5  C   UNL     1      11.617  13.330  69.145  1.00  0.00     0.041 C 
ATOM      6  O   UNL     1      11.090  13.119  68.020  1.00  0.00    -0.550 OA
ATOM      7  O   UNL     1      10.825  13.325  70.286  1.00  0.00    -0.550 OA
ENDBRANCH   4   5
ENDBRANCH   3   4
ENDBRANCH   2   3
ENDBRANCH   1   2
BRANCH   1   8
ATOM      8  C   UNL     1      11.995  16.505  71.659  1.00  0.00     0.000 C 
BRANCH   8   9
ATOM      9  C   UNL     1      10.711  16.800  70.863  1.00  0.00     0.000 C 
BRANCH   9  10
ATOM     10  C   UNL     1      10.974  17.630  69.594  1.00  0.00     0.006 C 
BRANCH  10  11
ATOM     11  C   UNL     1      10.586  16.872  68.318  1.00  0.00     0.053 C 
BRANCH  11  12
ATOM     12  C   UNL     1      11.586  17.079  67.222  1.00  0.00     0.041 C 
ATOM     13  O   UNL     1      11.571  18.138  66.541  1.00  0.00    -0.550 OA
ATOM     14  O   UNL     1      12.555  16.114  66.973  1.00  0.00    -0.550 OA
ENDBRANCH  11  12
ENDBRANCH  10  11
ENDBRANCH   9  10
ENDBRANCH   8   9
ENDBRANCH   1   8
TORSDOF 9
ENDMDL
MODEL 3
REMARK VINA RESULT:    -4.557      1.074      4.094
REMARK INTER + INTRA:          -8.110
REMARK INTER:                  -6.979
REMARK INTRA:                  -1.130
REMARK UNBOUND:                -1.156
REMARK SMILES O=C([O-])CCCCCCCCC(=O)[O-]
REMARK SMILES IDX 7 1 6 2 5 3 4 4 2 5 1 6 3 7 8 8 9 9 10 10 11 11 12 12 13 13
REMARK SMILES IDX 14 14
REMARK H PARENT
REMARK Flexibility Score: inf
ROOT
ATOM      1  C   UNL     1      14.221  15.843  70.448  1.00  0.00     0.000 C 
ENDROOT
BRANCH   1   2
ATOM      2  C   UNL     1      13.890  15.017  69.189  1.00  0.00     0.000 C 
BRANCH   2   3
ATOM      3  C   UNL     1      13.289  13.626  69.465  1.00  0.00     0.006 C 
BRANCH   3   4
ATOM      4  C   UNL     1      12.011  13.360  68.659  1.00  0.00     0.053 C 
BRANCH   4   5
ATOM      5  C   UNL     1      10.820  13.334  69.564  1.00  0.00     0.041 C 
ATOM      6  O   UNL     1       9.658  13.378  69.083  1.00  0.00    -0.550 OA
ATOM      7  O   UNL     1      10.992  13.214  70.937  1.00  0.00    -0.550 OA
ENDBRANCH   4   5
ENDBRANCH   3   4
ENDBRANCH   2   3
ENDBRANCH   1   2
BRANCH   1   8
ATOM      8  C   UNL     1      13.258  17.012  70.738  1.00  0.00     0.000 C 
BRANCH   8   9
ATOM      9  C   UNL     1      11.857  16.597  71.221  1.00  0.00     0.000 C 
BRANCH   9  10
ATOM     10  C   UNL     1      10.732  17.143  70.326  1.00  0.00     0.006 C 
BRANCH  10  11
ATOM     11  C   UNL     1      11.273  17.765  69.031  1.00  0.00     0.053 C 
BRANCH  11  12
ATOM     12  C   UNL     1      10.957  16.922  67.835  1.00  0.00     0.041 C 
ATOM     13  O   UNL     1      11.829  16.728  66.946  1.00  0.00    -0.550 OA
ATOM     14  O   UNL     1       9.708  16.326  67.714  1.00  0.00    -0.550 OA
ENDBRANCH  11  12
ENDBRANCH  10  11
ENDBRANCH   9  10
ENDBRANCH   8   9
ENDBRANCH   1   8
TORSDOF 9
ENDMDL
MODEL 4
REMARK VINA RESULT:    -4.534      2.021      4.273
REMARK INTER + INTRA:          -8.075
REMARK INTER:                  -7.083
REMARK INTRA:                  -0.992
REMARK UNBOUND:                -1.156
REMARK SMILES O=C([O-])CCCCCCCCC(=O)[O-]
REMARK SMILES IDX 7 1 6 2 5 3 4 4 2 5 1 6 3 7 8 8 9 9 10 10 11 11 12 12 13 13
REMARK SMILES IDX 14 14
REMARK H PARENT
REMARK Flexibility Score: inf
ROOT
ATOM      1  C   UNL     1       9.750  13.827  68.726  1.00  0.00     0.000 C 
ENDROOT
BRANCH   1   2
ATOM      2  C   UNL     1      10.921  13.453  69.654  1.00  0.00     0.000 C 
BRANCH   2   3
ATOM      3  C   UNL     1      12.245  13.134  68.933  1.00  0.00     0.006 C 
BRANCH   3   4
ATOM      4  C   UNL     1      13.477  13.591  69.724  1.00  0.00     0.053 C 
BRANCH   4   5
ATOM      5  C   UNL     1      13.957  14.915  69.221  1.00  0.00     0.041 C 
ATOM      6  O   UNL     1      14.691  15.639  69.945  1.00  0.00    -0.550 OA
ATOM      7  O   UNL     1      13.635  15.331  67.936  1.00  0.00    -0.550 OA
ENDBRANCH   4   5
ENDBRANCH   3   4
ENDBRANCH   2   3
ENDBRANCH   1   2
BRANCH   1   8
ATOM      8  C   UNL     1       9.238  15.276  68.866  1.00  0.00     0.000 C 
BRANCH   8   9
ATOM      9  C   UNL     1      10.188  16.358  68.322  1.00  0.00     0.000 C 
BRANCH   9  10
ATOM     10  C   UNL     1      10.917  17.126  69.438  1.00  0.00     0.006 C 
BRANCH  10  11
ATOM     11  C   UNL     1      10.226  16.964  70.798  1.00  0.00     0.053 C 
BRANCH  11  12
ATOM     12  C   UNL     1      11.162  16.429  71.838  1.00  0.00     0.041 C 
ATOM     13  O   UNL     1      12.357  16.824  71.879  1.00  0.00    -0.550 OA
ATOM     14  O   UNL     1      10.706  15.515  72.781  1.00  0.00    -0.550 OA
ENDBRANCH  11  12
ENDBRANCH  10  11
ENDBRANCH   9  10
ENDBRANCH   8   9
ENDBRANCH   1   8
TORSDOF 9
ENDMDL
MODEL 5
REMARK VINA RESULT:    -4.524      1.195      1.750
REMARK INTER + INTRA:          -8.060
REMARK INTER:                  -6.959
REMARK INTRA:                  -1.101
REMARK UNBOUND:                -1.156
REMARK SMILES O=C([O-])CCCCCCCCC(=O)[O-]
REMARK SMILES IDX 7 1 6 2 5 3 4 4 2 5 1 6 3 7 8 8 9 9 10 10 11 11 12 12 13 13
REMARK SMILES IDX 14 14
REMARK H PARENT
REMARK Flexibility Score: inf
ROOT
ATOM      1  C   UNL     1      13.313  16.936  70.713  1.00  0.00     0.000 C 
ENDROOT
BRANCH   1   2
ATOM      2  C   UNL     1      12.092  16.464  71.527  1.00  0.00     0.000 C 
BRANCH   2   3
ATOM      3  C   UNL     1      10.726  16.779  70.888  1.00  0.00     0.006 C 
BRANCH   3   4
ATOM      4  C   UNL     1      10.852  17.492  69.536  1.00  0.00     0.053 C 
BRANCH   4   5
ATOM      5  C   UNL     1      10.099  16.745  68.481  1.00  0.00     0.041 C 
ATOM      6  O   UNL     1      10.543  16.692  67.304  1.00  0.00    -0.550 OA
ATOM      7  O   UNL     1       8.933  16.065  68.807  1.00  0.00    -0.550 OA
ENDBRANCH   4   5
ENDBRANCH   3   4
ENDBRANCH   2   3
ENDBRANCH   1   2
BRANCH   1   8
ATOM      8  C   UNL     1      14.200  15.808  70.147  1.00  0.00     0.000 C 
BRANCH   8   9
ATOM      9  C   UNL     1      13.879  14.399  70.677  1.00  0.00     0.000 C 
BRANCH   9  10
ATOM     10  C   UNL     1      13.558  13.398  69.553  1.00  0.00     0.006 C 
BRANCH  10  11
ATOM     11  C   UNL     1      12.545  13.964  68.548  1.00  0.00     0.053 C 
BRANCH  11  12
ATOM     12  C   UNL     1      11.208  13.301  68.673  1.00  0.00     0.041 C 
ATOM     13  O   UNL     1      10.673  12.755  67.672  1.00  0.00    -0.550 OA
ATOM     14  O   UNL     1      10.564  13.261  69.905  1.00  0.00    -0.550 OA
ENDBRANCH  11  12
ENDBRANCH  10  11
ENDBRANCH   9  10
ENDBRANCH   8   9
ENDBRANCH   1   8
TORSDOF 9
ENDMDL
MODEL 6
REMARK VINA RESULT:    -4.522      1.951      4.002
REMARK INTER + INTRA:          -8.056
REMARK INTER:                  -6.930
REMARK INTRA:                  -1.126
REMARK UNBOUND:                -1.156
REMARK SMILES O=C([O-])CCCCCCCCC(=O)[O-]
REMARK SMILES IDX 7 1 6 2 5 3 4 4 2 5 1 6 3 7 8 8 9 9 10 10 11 11 12 12 13 13
REMARK SMILES IDX 14 14
REMARK H PARENT
REMARK Flexibility Score: inf
ROOT
ATOM      1  C   UNL     1       9.270  15.347  68.768  1.00  0.00     0.000 C 
ENDROOT
BRANCH   1   2
ATOM      2  C   UNL     1      10.047  16.642  68.463  1.00  0.00     0.000 C 
BRANCH   2   3
ATOM      3  C   UNL     1      10.923  17.161  69.619  1.00  0.00     0.006 C 
BRANCH   3   4
ATOM      4  C   UNL     1      10.301  16.905  70.997  1.00  0.00     0.053 C 
BRANCH   4   5
ATOM      5  C   UNL     1      11.295  16.249  71.903  1.00  0.00     0.041 C 
ATOM      6  O   UNL     1      12.426  16.771  72.088  1.00  0.00    -0.550 OA
ATOM      7  O   UNL     1      10.955  15.086  72.583  1.00  0.00    -0.550 OA
ENDBRANCH   4   5
ENDBRANCH   3   4
ENDBRANCH   2   3
ENDBRANCH   1   2
BRANCH   1   8
ATOM      8  C   UNL     1       9.986  14.041  68.364  1.00  0.00     0.000 C 
BRANCH   8   9
ATOM      9  C   UNL     1      10.876  13.422  69.456  1.00  0.00     0.000 C 
BRANCH   9  10
ATOM     10  C   UNL     1      12.307  13.136  68.968  1.00  0.00     0.006 C 
BRANCH  10  11
ATOM     11  C   UNL     1      13.365  13.801  69.858  1.00  0.00     0.053 C 
BRANCH  11  12
ATOM     12  C   UNL     1      13.904  15.054  69.240  1.00  0.00     0.041 C 
ATOM     13  O   UNL     1      14.690  15.795  69.888  1.00  0.00    -0.550 OA
ATOM     14  O   UNL     1      13.561  15.390  67.935  1.00  0.00    -0.550 OA
ENDBRANCH  11  12
ENDBRANCH  10  11
ENDBRANCH   9  10
ENDBRANCH   8   9
ENDBRANCH   1   8
TORSDOF 9
ENDMDL
MODEL 7
REMARK VINA RESULT:    -4.481      1.801      2.770
REMARK INTER + INTRA:          -7.995
REMARK INTER:                  -6.860
REMARK INTRA:                  -1.134
REMARK UNBOUND:                -1.156
REMARK SMILES O=C([O-])CCCCCCCCC(=O)[O-]
REMARK SMILES IDX 7 1 6 2 5 3 4 4 2 5 1 6 3 7 8 8 9 9 10 10 11 11 12 12 13 13
REMARK SMILES IDX 14 14
REMARK H PARENT
REMARK Flexibility Score: inf
ROOT
ATOM      1  C   UNL     1      11.040  14.995  72.237  1.00  0.00     0.000 C 
ENDROOT
BRANCH   1   2
ATOM      2  C   UNL     1      11.589  16.290  71.607  1.00  0.00     0.000 C 
BRANCH   2   3
ATOM      3  C   UNL     1      10.555  17.118  70.821  1.00  0.00     0.006 C 
BRANCH   3   4
ATOM      4  C   UNL     1      10.999  17.411  69.382  1.00  0.00     0.053 C 
BRANCH   4   5
ATOM      5  C   UNL     1      10.167  16.635  68.411  1.00  0.00     0.041 C 
ATOM      6  O   UNL     1      10.573  16.452  67.234  1.00  0.00    -0.550 OA
ATOM      7  O   UNL     1       8.966  16.071  68.820  1.00  0.00    -0.550 OA
ENDBRANCH   4   5
ENDBRANCH   3   4
ENDBRANCH   2   3
ENDBRANCH   1   2
BRANCH   1   8
ATOM      8  C   UNL     1      11.476  13.690  71.539  1.00  0.00     0.000 C 
BRANCH   8   9
ATOM      9  C   UNL     1      10.822  13.434  70.170  1.00  0.00     0.000 C 
BRANCH   9  10
ATOM     10  C   UNL     1      11.847  13.351  69.026  1.00  0.00     0.006 C 
BRANCH  10  11
ATOM     11  C   UNL     1      13.281  13.588  69.517  1.00  0.00     0.053 C 
BRANCH  11  12
ATOM     12  C   UNL     1      13.813  14.912  69.063  1.00  0.00     0.041 C 
ATOM     13  O   UNL     1      13.560  15.335  67.904  1.00  0.00    -0.550 OA
ATOM     14  O   UNL     1      14.565  15.695  69.932  1.00  0.00    -0.550 OA
ENDBRANCH  11  12
ENDBRANCH  10  11
ENDBRANCH   9  10
ENDBRANCH   8   9
ENDBRANCH   1   8
TORSDOF 9
ENDMDL
MODEL 8
REMARK VINA RESULT:    -4.475      2.117      4.536
REMARK INTER + INTRA:          -7.986
REMARK INTER:                  -6.837
REMARK INTRA:                  -1.149
REMARK UNBOUND:                -1.156
REMARK SMILES O=C([O-])CCCCCCCCC(=O)[O-]
REMARK SMILES IDX 7 1 6 2 5 3 4 4 2 5 1 6 3 7 8 8 9 9 10 10 11 11 12 12 13 13
REMARK SMILES IDX 14 14
REMARK H PARENT
REMARK Flexibility Score: inf
ROOT
ATOM      1  C   UNL     1      13.041  15.372  67.350  1.00  0.00     0.000 C 
ENDROOT
BRANCH   1   2
ATOM      2  C   UNL     1      13.779  15.152  68.684  1.00  0.00     0.000 C 
BRANCH   2   3
ATOM      3  C   UNL     1      13.299  13.936  69.499  1.00  0.00     0.006 C 
BRANCH   3   4
ATOM      4  C   UNL     1      12.172  13.163  68.804  1.00  0.00     0.053 C 
BRANCH   4   5
ATOM      5  C   UNL     1      10.925  13.206  69.629  1.00  0.00     0.041 C 
ATOM      6  O   UNL     1       9.796  13.143  69.075  1.00  0.00    -0.550 OA
ATOM      7  O   UNL     1      11.008  13.267  71.015  1.00  0.00    -0.550 OA
ENDBRANCH   4   5
ENDBRANCH   3   4
ENDBRANCH   2   3
ENDBRANCH   1   2
BRANCH   1   8
ATOM      8  C   UNL     1      12.101  16.595  67.313  1.00  0.00     0.000 C 
BRANCH   8   9
ATOM      9  C   UNL     1      10.621  16.287  67.608  1.00  0.00     0.000 C 
BRANCH   9  10
ATOM     10  C   UNL     1      10.112  16.976  68.886  1.00  0.00     0.006 C 
BRANCH  10  11
ATOM     11  C   UNL     1      11.253  17.606  69.696  1.00  0.00     0.053 C 
BRANCH  11  12
ATOM     12  C   UNL     1      11.436  16.929  71.019  1.00  0.00     0.041 C 
ATOM     13  O   UNL     1      12.584  16.831  71.529  1.00  0.00    -0.550 OA
ATOM     14  O   UNL     1      10.335  16.430  71.704  1.00  0.00    -0.550 OA
ENDBRANCH  11  12
ENDBRANCH  10  11
ENDBRANCH   9  10
ENDBRANCH   8   9
ENDBRANCH   1   8
TORSDOF 9
ENDMDL
MODEL 9
REMARK VINA RESULT:    -4.459      1.823      3.769
REMARK INTER + INTRA:          -7.960
REMARK INTER:                  -6.955
REMARK INTRA:                  -1.005
REMARK UNBOUND:                -1.156
REMARK SMILES O=C([O-])CCCCCCCCC(=O)[O-]
REMARK SMILES IDX 7 1 6 2 5 3 4 4 2 5 1 6 3 7 8 8 9 9 10 10 11 11 12 12 13 13
REMARK SMILES IDX 14 14
REMARK H PARENT
REMARK Flexibility Score: inf
ROOT
ATOM      1  C   UNL     1      11.390  13.788  71.574  1.00  0.00     0.000 C 
ENDROOT
BRANCH   1   2
ATOM      2  C   UNL     1      10.904  13.539  70.132  1.00  0.00     0.000 C 
BRANCH   2   3
ATOM      3  C   UNL     1      12.025  13.323  69.098  1.00  0.00     0.006 C 
BRANCH   3   4
ATOM      4  C   UNL     1      13.415  13.668  69.646  1.00  0.00     0.053 C 
BRANCH   4   5
ATOM      5  C   UNL     1      13.881  14.979  69.098  1.00  0.00     0.041 C 
ATOM      6  O   UNL     1      14.595  15.742  69.802  1.00  0.00    -0.550 OA
ATOM      7  O   UNL     1      13.569  15.339  67.794  1.00  0.00    -0.550 OA
ENDBRANCH   4   5
ENDBRANCH   3   4
ENDBRANCH   2   3
ENDBRANCH   1   2
BRANCH   1   8
ATOM      8  C   UNL     1      10.984  15.148  72.178  1.00  0.00     0.000 C 
BRANCH   8   9
ATOM      9  C   UNL     1      11.483  16.380  71.401  1.00  0.00     0.000 C 
BRANCH   9  10
ATOM     10  C   UNL     1      10.340  17.172  70.744  1.00  0.00     0.006 C 
BRANCH  10  11
ATOM     11  C   UNL     1      10.657  17.544  69.289  1.00  0.00     0.053 C 
BRANCH  11  12
ATOM     12  C   UNL     1       9.992  16.617  68.320  1.00  0.00     0.041 C 
ATOM     13  O   UNL     1      10.494  16.421  67.181  1.00  0.00    -0.550 OA
ATOM     14  O   UNL     1       8.831  15.944  68.685  1.00  0.00    -0.550 OA
ENDBRANCH  11  12
ENDBRANCH  10  11
ENDBRANCH   9  10
ENDBRANCH   8   9
ENDBRANCH   1   8
TORSDOF 9
ENDMDL
