MODEL 1
REMARK VINA RESULT:    -5.467      0.000      0.000
REMARK INTER + INTRA:          -6.191
REMARK INTER:                  -6.106
REMARK INTRA:                  -0.085
REMARK UNBOUND:                -0.085
REMARK SMILES CCc1ccc(O)cc1O
REMARK SMILES IDX 3 1 9 2 8 3 6 4 5 5 4 6 2 7 1 8 10 9 7 11
REMARK H PARENT 10 10 7 12
REMARK Flexibility Score: inf
ROOT
ATOM      1  C   UNL     1      41.162  16.642  51.133  1.00  0.00    -0.006 A 
ATOM      2  C   UNL     1      41.888  15.686  50.380  1.00  0.00     0.122 A 
ATOM      3  C   UNL     1      41.735  14.322  50.658  1.00  0.00     0.092 A 
ATOM      4  C   UNL     1      40.885  13.893  51.681  1.00  0.00     0.119 A 
ATOM      5  C   UNL     1      40.180  14.834  52.438  1.00  0.00     0.047 A 
ATOM      6  C   UNL     1      40.321  16.198  52.170  1.00  0.00     0.011 A 
ENDROOT
BRANCH   1   7
ATOM      7  C   UNL     1      41.292  18.126  50.890  1.00  0.00     0.036 C 
ATOM      8  C   UNL     1      40.960  18.918  52.152  1.00  0.00     0.009 C 
ENDBRANCH   1   7
BRANCH   2   9
ATOM      9  O   UNL     1      42.770  16.050  49.360  1.00  0.00    -0.508 OA
ATOM     10  H   UNL     1      43.207  15.387  48.734  1.00  0.00     0.293 HD
ENDBRANCH   2   9
BRANCH   4  11
ATOM     11  O   UNL     1      40.751  12.531  51.938  1.00  0.00    -0.508 OA
ATOM     12  H   UNL     1      39.941  12.161  52.424  1.00  0.00     0.293 HD
ENDBRANCH   4  11
TORSDOF 3
ENDMDL
MODEL 2
REMARK VINA RESULT:    -5.194      1.057      3.445
REMARK INTER + INTRA:          -5.887
REMARK INTER:                  -5.787
REMARK INTRA:                  -0.100
REMARK UNBOUND:                -0.085
REMARK SMILES CCc1ccc(O)cc1O
REMARK SMILES IDX 3 1 9 2 8 3 6 4 5 5 4 6 2 7 1 8 10 9 7 11
REMARK H PARENT 10 10 7 12
REMARK Flexibility Score: inf
ROOT
ATOM      1  C   UNL     1      40.366  15.106  52.060  1.00  0.00    -0.006 A 
ATOM      2  C   UNL     1      41.068  14.027  51.466  1.00  0.00     0.122 A 
ATOM      3  C   UNL     1      41.984  14.279  50.437  1.00  0.00     0.092 A 
ATOM      4  C   UNL     1      42.203  15.580  49.978  1.00  0.00     0.119 A 
ATOM      5  C   UNL     1      41.500  16.645  50.550  1.00  0.00     0.047 A 
ATOM      6  C   UNL     1      40.585  16.410  51.579  1.00  0.00     0.011 A 
ENDROOT
BRANCH   1   7
ATOM      7  C   UNL     1      39.357  14.899  53.165  1.00  0.00     0.036 C 
ATOM      8  C   UNL     1      37.981  14.572  52.593  1.00  0.00     0.009 C 
ENDBRANCH   1   7
BRANCH   2   9
ATOM      9  O   UNL     1      40.878  12.702  51.863  1.00  0.00    -0.508 OA
ATOM     10  H   UNL     1      41.449  12.237  52.556  1.00  0.00     0.293 HD
ENDBRANCH   2   9
BRANCH   4  11
ATOM     11  O   UNL     1      43.119  15.803  48.953  1.00  0.00    -0.508 OA
ATOM     12  H   UNL     1      43.380  16.741  48.671  1.00  0.00     0.293 HD
ENDBRANCH   4  11
TORSDOF 3
ENDMDL
MODEL 3
REMARK VINA RESULT:    -4.991      1.982      3.267
REMARK INTER + INTRA:          -5.660
REMARK INTER:                  -5.575
REMARK INTRA:                  -0.084
REMARK UNBOUND:                -0.085
REMARK SMILES CCc1ccc(O)cc1O
REMARK SMILES IDX 3 1 9 2 8 3 6 4 5 5 4 6 2 7 1 8 10 9 7 11
REMARK H PARENT 10 10 7 12
REMARK Flexibility Score: inf
ROOT
ATOM      1  C   UNL     1      41.059  14.905  51.464  1.00  0.00    -0.006 A 
ATOM      2  C   UNL     1      40.382  13.781  52.000  1.00  0.00     0.122 A 
ATOM      3  C   UNL     1      39.321  13.971  52.894  1.00  0.00     0.092 A 
ATOM      4  C   UNL     1      38.933  15.258  53.277  1.00  0.00     0.119 A 
ATOM      5  C   UNL     1      39.610  16.369  52.764  1.00  0.00     0.047 A 
ATOM      6  C   UNL     1      40.667  16.194  51.869  1.00  0.00     0.011 A 
ENDROOT
BRANCH   1   7
ATOM      7  C   UNL     1      42.217  14.765  50.505  1.00  0.00     0.036 C 
ATOM      8  C   UNL     1      42.364  16.015  49.642  1.00  0.00     0.009 C 
ENDBRANCH   1   7
BRANCH   2   9
ATOM      9  O   UNL     1      40.736  12.469  51.676  1.00  0.00    -0.508 OA
ATOM     10  H   UNL     1      41.274  12.220  50.857  1.00  0.00     0.293 HD
ENDBRANCH   2   9
BRANCH   4  11
ATOM     11  O   UNL     1      37.875  15.420  54.169  1.00  0.00    -0.508 OA
ATOM     12  H   UNL     1      37.965  15.171  55.147  1.00  0.00     0.293 HD
ENDBRANCH   4  11
TORSDOF 3
ENDMDL
MODEL 4
REMARK VINA RESULT:    -4.964      1.705      2.413
REMARK INTER + INTRA:          -5.630
REMARK INTER:                  -5.527
REMARK INTRA:                  -0.103
REMARK UNBOUND:                -0.085
REMARK SMILES CCc1ccc(O)cc1O
REMARK SMILES IDX 3 1 9 2 8 3 6 4 5 5 4 6 2 7 1 8 10 9 7 11
REMARK H PARENT 10 10 7 12
REMARK Flexibility Score: inf
ROOT
ATOM      1  C   UNL     1      40.851  17.324  51.429  1.00  0.00    -0.006 A 
ATOM      2  C   UNL     1      40.257  16.474  52.395  1.00  0.00     0.122 A 
ATOM      3  C   UNL     1      40.523  15.099  52.366  1.00  0.00     0.092 A 
ATOM      4  C   UNL     1      41.356  14.553  51.386  1.00  0.00     0.119 A 
ATOM      5  C   UNL     1      41.930  15.386  50.420  1.00  0.00     0.047 A 
ATOM      6  C   UNL     1      41.677  16.760  50.439  1.00  0.00     0.011 A 
ENDROOT
BRANCH   1   7
ATOM      7  C   UNL     1      40.596  18.812  51.399  1.00  0.00     0.036 C 
ATOM      8  C   UNL     1      41.612  19.558  52.258  1.00  0.00     0.009 C 
ENDBRANCH   1   7
BRANCH   2   9
ATOM      9  O   UNL     1      39.398  16.953  53.386  1.00  0.00    -0.508 OA
ATOM     10  H   UNL     1      39.689  17.142  54.336  1.00  0.00     0.293 HD
ENDBRANCH   2   9
BRANCH   4  11
ATOM     11  O   UNL     1      41.604  13.183  51.379  1.00  0.00    -0.508 OA
ATOM     12  H   UNL     1      41.755  12.668  52.239  1.00  0.00     0.293 HD
ENDBRANCH   4  11
TORSDOF 3
ENDMDL
MODEL 5
REMARK VINA RESULT:    -4.915     12.660     13.921
REMARK INTER + INTRA:          -5.575
REMARK INTER:                  -5.483
REMARK INTRA:                  -0.091
REMARK UNBOUND:                -0.085
REMARK SMILES CCc1ccc(O)cc1O
REMARK SMILES IDX 3 1 9 2 8 3 6 4 5 5 4 6 2 7 1 8 10 9 7 11
REMARK H PARENT 10 10 7 12
REMARK Flexibility Score: inf
ROOT
ATOM      1  C   UNL     1      40.733  22.550  62.677  1.00  0.00    -0.006 A 
ATOM      2  C   UNL     1      41.403  23.420  63.574  1.00  0.00     0.122 A 
ATOM      3  C   UNL     1      42.634  23.038  64.120  1.00  0.00     0.092 A 
ATOM      4  C   UNL     1      43.204  21.802  63.803  1.00  0.00     0.119 A 
ATOM      5  C   UNL     1      42.539  20.934  62.932  1.00  0.00     0.047 A 
ATOM      6  C   UNL     1      41.311  21.303  62.376  1.00  0.00     0.011 A 
ENDROOT
BRANCH   1   7
ATOM      7  C   UNL     1      39.398  22.898  62.063  1.00  0.00     0.036 C 
ATOM      8  C   UNL     1      39.511  23.030  60.547  1.00  0.00     0.009 C 
ENDBRANCH   1   7
BRANCH   2   9
ATOM      9  O   UNL     1      40.876  24.657  63.949  1.00  0.00    -0.508 OA
ATOM     10  H   UNL     1      41.346  25.538  63.791  1.00  0.00     0.293 HD
ENDBRANCH   2   9
BRANCH   4  11
ATOM     11  O   UNL     1      44.430  21.447  64.361  1.00  0.00    -0.508 OA
ATOM     12  H   UNL     1      44.666  20.478  64.545  1.00  0.00     0.293 HD
ENDBRANCH   4  11
TORSDOF 3
ENDMDL
MODEL 6
REMARK VINA RESULT:    -4.868      1.928      3.763
REMARK INTER + INTRA:          -5.523
REMARK INTER:                  -5.437
REMARK INTRA:                  -0.086
REMARK UNBOUND:                -0.085
REMARK SMILES CCc1ccc(O)cc1O
REMARK SMILES IDX 3 1 9 2 8 3 6 4 5 5 4 6 2 7 1 8 10 9 7 11
REMARK H PARENT 10 10 7 12
REMARK Flexibility Score: inf
ROOT
ATOM      1  C   UNL     1      41.191  15.683  51.464  1.00  0.00    -0.006 A 
ATOM      2  C   UNL     1      41.354  16.776  50.577  1.00  0.00     0.122 A 
ATOM      3  C   UNL     1      40.895  18.046  50.950  1.00  0.00     0.092 A 
ATOM      4  C   UNL     1      40.265  18.244  52.182  1.00  0.00     0.119 A 
ATOM      5  C   UNL     1      40.087  17.164  53.052  1.00  0.00     0.047 A 
ATOM      6  C   UNL     1      40.542  15.893  52.695  1.00  0.00     0.011 A 
ENDROOT
BRANCH   1   7
ATOM      7  C   UNL     1      41.653  14.287  51.116  1.00  0.00     0.036 C 
ATOM      8  C   UNL     1      40.631  13.246  51.565  1.00  0.00     0.009 C 
ENDBRANCH   1   7
BRANCH   2   9
ATOM      9  O   UNL     1      41.954  16.640  49.324  1.00  0.00    -0.508 OA
ATOM     10  H   UNL     1      42.185  15.748  48.907  1.00  0.00     0.293 HD
ENDBRANCH   2   9
BRANCH   4  11
ATOM     11  O   UNL     1      39.818  19.516  52.528  1.00  0.00    -0.508 OA
ATOM     12  H   UNL     1      39.357  20.117  51.854  1.00  0.00     0.293 HD
ENDBRANCH   4  11
TORSDOF 3
ENDMDL
MODEL 7
REMARK VINA RESULT:    -4.666     13.188     14.066
REMARK INTER + INTRA:          -5.297
REMARK INTER:                  -5.212
REMARK INTRA:                  -0.084
REMARK UNBOUND:                -0.085
REMARK SMILES CCc1ccc(O)cc1O
REMARK SMILES IDX 3 1 9 2 8 3 6 4 5 5 4 6 2 7 1 8 10 9 7 11
REMARK H PARENT 10 10 7 12
REMARK Flexibility Score: inf
ROOT
ATOM      1  C   UNL     1      53.528  20.504  57.143  1.00  0.00    -0.006 A 
ATOM      2  C   UNL     1      53.702  19.169  56.698  1.00  0.00     0.122 A 
ATOM      3  C   UNL     1      53.181  18.777  55.459  1.00  0.00     0.092 A 
ATOM      4  C   UNL     1      52.476  19.683  54.662  1.00  0.00     0.119 A 
ATOM      5  C   UNL     1      52.287  20.996  55.105  1.00  0.00     0.047 A 
ATOM      6  C   UNL     1      52.805  21.402  56.337  1.00  0.00     0.011 A 
ENDROOT
BRANCH   1   7
ATOM      7  C   UNL     1      54.056  20.985  58.473  1.00  0.00     0.036 C 
ATOM      8  C   UNL     1      54.432  22.463  58.410  1.00  0.00     0.009 C 
ENDBRANCH   1   7
BRANCH   2   9
ATOM      9  O   UNL     1      54.376  18.210  57.457  1.00  0.00    -0.508 OA
ATOM     10  H   UNL     1      55.150  18.423  58.071  1.00  0.00     0.293 HD
ENDBRANCH   2   9
BRANCH   4  11
ATOM     11  O   UNL     1      51.967  19.268  53.434  1.00  0.00    -0.508 OA
ATOM     12  H   UNL     1      50.984  19.369  53.207  1.00  0.00     0.293 HD
ENDBRANCH   4  11
TORSDOF 3
ENDMDL
MODEL 8
REMARK VINA RESULT:    -4.606     13.272     14.287
REMARK INTER + INTRA:          -5.230
REMARK INTER:                  -5.216
REMARK INTRA:                  -0.014
REMARK UNBOUND:                -0.085
REMARK SMILES CCc1ccc(O)cc1O
REMARK SMILES IDX 3 1 9 2 8 3 6 4 5 5 4 6 2 7 1 8 10 9 7 11
REMARK H PARENT 10 10 7 12
REMARK Flexibility Score: inf
ROOT
ATOM      1  C   UNL     1      53.245  21.120  57.516  1.00  0.00    -0.006 A 
ATOM      2  C   UNL     1      52.359  21.814  56.656  1.00  0.00     0.122 A 
ATOM      3  C   UNL     1      52.087  21.303  55.381  1.00  0.00     0.092 A 
ATOM      4  C   UNL     1      52.693  20.123  54.941  1.00  0.00     0.119 A 
ATOM      5  C   UNL     1      53.581  19.444  55.781  1.00  0.00     0.047 A 
ATOM      6  C   UNL     1      53.859  19.940  57.056  1.00  0.00     0.011 A 
ENDROOT
BRANCH   1   7
ATOM      7  C   UNL     1      53.588  21.625  58.898  1.00  0.00     0.036 C 
ATOM      8  C   UNL     1      54.493  22.851  58.822  1.00  0.00     0.009 C 
ENDBRANCH   1   7
BRANCH   2   9
ATOM      9  O   UNL     1      51.739  23.010  57.026  1.00  0.00    -0.508 OA
ATOM     10  H   UNL     1      52.242  23.825  57.349  1.00  0.00     0.293 HD
ENDBRANCH   2   9
BRANCH   4  11
ATOM     11  O   UNL     1      52.406  19.636  53.668  1.00  0.00    -0.508 OA
ATOM     12  H   UNL     1      52.442  18.644  53.460  1.00  0.00     0.293 HD
ENDBRANCH   4  11
TORSDOF 3
ENDMDL
MODEL 9
REMARK VINA RESULT:    -4.546     15.106     15.746
REMARK INTER + INTRA:          -5.163
REMARK INTER:                  -5.060
REMARK INTRA:                  -0.103
REMARK UNBOUND:                -0.085
REMARK SMILES CCc1ccc(O)cc1O
REMARK SMILES IDX 3 1 9 2 8 3 6 4 5 5 4 6 2 7 1 8 10 9 7 11
REMARK H PARENT 10 10 7 12
REMARK Flexibility Score: inf
ROOT
ATOM      1  C   UNL     1      51.438  19.100  61.649  1.00  0.00    -0.006 A 
ATOM      2  C   UNL     1      51.474  20.432  62.132  1.00  0.00     0.122 A 
ATOM      3  C   UNL     1      50.739  20.777  63.272  1.00  0.00     0.092 A 
ATOM      4  C   UNL     1      49.955  19.826  63.931  1.00  0.00     0.119 A 
ATOM      5  C   UNL     1      49.903  18.514  63.448  1.00  0.00     0.047 A 
ATOM      6  C   UNL     1      50.635  18.155  62.314  1.00  0.00     0.011 A 
ENDROOT
BRANCH   1   7
ATOM      7  C   UNL     1      52.200  18.667  60.419  1.00  0.00     0.036 C 
ATOM      8  C   UNL     1      53.555  18.076  60.795  1.00  0.00     0.009 C 
ENDBRANCH   1   7
BRANCH   2   9
ATOM      9  O   UNL     1      52.219  21.434  61.506  1.00  0.00    -0.508 OA
ATOM     10  H   UNL     1      51.846  22.049  60.795  1.00  0.00     0.293 HD
ENDBRANCH   2   9
BRANCH   4  11
ATOM     11  O   UNL     1      49.232  20.195  65.063  1.00  0.00    -0.508 OA
ATOM     12  H   UNL     1      48.252  20.447  65.005  1.00  0.00     0.293 HD
ENDBRANCH   4  11
TORSDOF 3
ENDMDL
