MODEL 1
REMARK VINA RESULT:    -5.719      0.000      0.000
REMARK INTER + INTRA:          -9.897
REMARK INTER:                  -9.062
REMARK INTRA:                  -0.835
REMARK UNBOUND:                -0.835
REMARK SMILES CCCCCCCCCCCC(=O)[O-]
REMARK SMILES IDX 7 1 8 2 9 3 10 4 11 5 12 6 13 7 14 8 6 9 5 10 4 11 3 12 2 13
REMARK SMILES IDX 1 14
REMARK H PARENT
REMARK Flexibility Score: inf
ROOT
ATOM      1  C   UNL     1     -13.965  -0.251 -11.120  1.00  0.00     0.000 C 
ENDROOT
BRANCH   1   2
ATOM      2  C   UNL     1     -12.687  -1.110 -11.099  1.00  0.00     0.000 C 
BRANCH   2   3
ATOM      3  C   UNL     1     -11.388  -0.350 -10.758  1.00  0.00     0.000 C 
BRANCH   3   4
ATOM      4  C   UNL     1     -10.479  -1.040  -9.726  1.00  0.00     0.006 C 
BRANCH   4   5
ATOM      5  C   UNL     1     -10.745  -2.546  -9.612  1.00  0.00     0.053 C 
BRANCH   5   6
ATOM      6  C   UNL     1      -9.760  -3.183  -8.684  1.00  0.00     0.041 C 
ATOM      7  O   UNL     1      -8.540  -3.235  -8.993  1.00  0.00    -0.550 OA
ATOM      8  O   UNL     1     -10.194  -3.764  -7.499  1.00  0.00    -0.550 OA
ENDBRANCH   5   6
ENDBRANCH   4   5
ENDBRANCH   3   4
ENDBRANCH   2   3
ENDBRANCH   1   2
BRANCH   1   9
ATOM      9  C   UNL     1     -14.696  -0.237  -9.767  1.00  0.00     0.000 C 
BRANCH   9  10
ATOM     10  C   UNL     1     -14.904   1.186  -9.225  1.00  0.00    -0.000 C 
BRANCH  10  11
ATOM     11  C   UNL     1     -14.017   2.226  -9.932  1.00  0.00    -0.000 C 
BRANCH  11  12
ATOM     12  C   UNL     1     -13.263   3.135  -8.944  1.00  0.00    -0.000 C 
BRANCH  12  13
ATOM     13  C   UNL     1     -11.898   3.640  -9.447  1.00  0.00    -0.003 C 
ATOM     14  C   UNL     1     -10.834   3.674  -8.351  1.00  0.00     0.004 C 
ENDBRANCH  12  13
ENDBRANCH  11  12
ENDBRANCH  10  11
ENDBRANCH   9  10
ENDBRANCH   1   9
TORSDOF 10
ENDMDL
MODEL 2
REMARK VINA RESULT:    -5.574      3.159      5.672
REMARK INTER + INTRA:          -9.667
REMARK INTER:                  -8.817
REMARK INTRA:                  -0.850
REMARK UNBOUND:                -0.835
REMARK SMILES CCCCCCCCCCCC(=O)[O-]
REMARK SMILES IDX 7 1 8 2 9 3 10 4 11 5 12 6 13 7 14 8 6 9 5 10 4 11 3 12 2 13
REMARK SMILES IDX 1 14
REMARK H PARENT
REMARK Flexibility Score: inf
ROOT
ATOM      1  C   UNL     1     -14.032  -0.226 -11.060  1.00  0.00     0.000 C 
ENDROOT
BRANCH   1   2
ATOM      2  C   UNL     1     -14.484   0.073  -9.619  1.00  0.00     0.000 C 
BRANCH   2   3
ATOM      3  C   UNL     1     -14.576   1.571  -9.256  1.00  0.00     0.000 C 
BRANCH   3   4
ATOM      4  C   UNL     1     -13.491   2.463  -9.882  1.00  0.00     0.006 C 
BRANCH   4   5
ATOM      5  C   UNL     1     -12.141   2.352  -9.164  1.00  0.00     0.053 C 
BRANCH   5   6
ATOM      6  C   UNL     1     -11.780   3.656  -8.526  1.00  0.00     0.041 C 
ATOM      7  O   UNL     1     -10.695   3.775  -7.897  1.00  0.00    -0.550 OA
ATOM      8  O   UNL     1     -12.663   4.727  -8.582  1.00  0.00    -0.550 OA
ENDBRANCH   5   6
ENDBRANCH   4   5
ENDBRANCH   3   4
ENDBRANCH   2   3
ENDBRANCH   1   2
BRANCH   1   9
ATOM      9  C   UNL     1     -12.868  -1.229 -11.124  1.00  0.00     0.000 C 
BRANCH   9  10
ATOM     10  C   UNL     1     -11.495  -0.537 -11.125  1.00  0.00    -0.000 C 
BRANCH  10  11
ATOM     11  C   UNL     1     -10.623  -0.948  -9.926  1.00  0.00    -0.000 C 
BRANCH  11  12
ATOM     12  C   UNL     1     -10.781  -2.434  -9.555  1.00  0.00    -0.000 C 
BRANCH  12  13
ATOM     13  C   UNL     1      -9.847  -2.922  -8.433  1.00  0.00    -0.003 C 
ATOM     14  C   UNL     1      -8.862  -3.993  -8.900  1.00  0.00     0.004 C 
ENDBRANCH  12  13
ENDBRANCH  11  12
ENDBRANCH  10  11
ENDBRANCH   9  10
ENDBRANCH   1   9
TORSDOF 10
ENDMDL
MODEL 3
REMARK VINA RESULT:    -4.480      1.205      2.017
REMARK INTER + INTRA:          -7.933
REMARK INTER:                  -7.579
REMARK INTRA:                  -0.354
REMARK UNBOUND:                -0.835
REMARK SMILES CCCCCCCCCCCC(=O)[O-]
REMARK SMILES IDX 7 1 8 2 9 3 10 4 11 5 12 6 13 7 14 8 6 9 5 10 4 11 3 12 2 13
REMARK SMILES IDX 1 14
REMARK H PARENT
REMARK Flexibility Score: inf
ROOT
ATOM      1  C   UNL     1     -11.394   0.691  -9.930  1.00  0.00     0.000 C 
ENDROOT
BRANCH   1   2
ATOM      2  C   UNL     1     -11.017  -0.563 -10.740  1.00  0.00     0.000 C 
BRANCH   2   3
ATOM      3  C   UNL     1     -12.039  -1.718 -10.679  1.00  0.00     0.000 C 
BRANCH   3   4
ATOM      4  C   UNL     1     -11.516  -3.021 -10.049  1.00  0.00     0.006 C 
BRANCH   4   5
ATOM      5  C   UNL     1      -9.988  -3.135 -10.101  1.00  0.00     0.053 C 
BRANCH   5   6
ATOM      6  C   UNL     1      -9.439  -3.420  -8.739  1.00  0.00     0.041 C 
ATOM      7  O   UNL     1     -10.219  -3.615  -7.770  1.00  0.00    -0.550 OA
ATOM      8  O   UNL     1      -8.066  -3.422  -8.528  1.00  0.00    -0.550 OA
ENDBRANCH   5   6
ENDBRANCH   4   5
ENDBRANCH   3   4
ENDBRANCH   2   3
ENDBRANCH   1   2
BRANCH   1   9
ATOM      9  C   UNL     1     -12.912   0.931  -9.874  1.00  0.00     0.000 C 
BRANCH   9  10
ATOM     10  C   UNL     1     -13.268   2.325  -9.332  1.00  0.00    -0.000 C 
BRANCH  10  11
ATOM     11  C   UNL     1     -12.577   3.459 -10.110  1.00  0.00    -0.000 C 
BRANCH  11  12
ATOM     12  C   UNL     1     -11.536   4.214  -9.264  1.00  0.00    -0.000 C 
BRANCH  12  13
ATOM     13  C   UNL     1     -11.619   3.947  -7.751  1.00  0.00    -0.003 C 
ATOM     14  C   UNL     1     -12.855   4.568  -7.102  1.00  0.00     0.004 C 
ENDBRANCH  12  13
ENDBRANCH  11  12
ENDBRANCH  10  11
ENDBRANCH   9  10
ENDBRANCH   1   9
TORSDOF 10
ENDMDL
MODEL 4
REMARK VINA RESULT:    -4.403      3.656      5.639
REMARK INTER + INTRA:          -7.811
REMARK INTER:                  -7.023
REMARK INTRA:                  -0.789
REMARK UNBOUND:                -0.835
REMARK SMILES CCCCCCCCCCCC(=O)[O-]
REMARK SMILES IDX 7 1 8 2 9 3 10 4 11 5 12 6 13 7 14 8 6 9 5 10 4 11 3 12 2 13
REMARK SMILES IDX 1 14
REMARK H PARENT
REMARK Flexibility Score: inf
ROOT
ATOM      1  C   UNL     1     -14.722  -0.864 -10.026  1.00  0.00     0.000 C 
ENDROOT
BRANCH   1   2
ATOM      2  C   UNL     1     -14.070   0.388 -10.641  1.00  0.00     0.000 C 
BRANCH   2   3
ATOM      3  C   UNL     1     -13.996   1.617  -9.709  1.00  0.00     0.000 C 
BRANCH   3   4
ATOM      4  C   UNL     1     -12.583   1.980  -9.218  1.00  0.00     0.006 C 
BRANCH   4   5
ATOM      5  C   UNL     1     -12.171   3.409  -9.594  1.00  0.00     0.053 C 
BRANCH   5   6
ATOM      6  C   UNL     1     -12.450   4.347  -8.464  1.00  0.00     0.041 C 
ATOM      7  O   UNL     1     -13.317   5.251  -8.590  1.00  0.00    -0.550 OA
ATOM      8  O   UNL     1     -11.716   4.257  -7.287  1.00  0.00    -0.550 OA
ENDBRANCH   5   6
ENDBRANCH   4   5
ENDBRANCH   3   4
ENDBRANCH   2   3
ENDBRANCH   1   2
BRANCH   1   9
ATOM      9  C   UNL     1     -15.091  -1.923 -11.079  1.00  0.00     0.000 C 
BRANCH   9  10
ATOM     10  C   UNL     1     -14.502  -3.305 -10.754  1.00  0.00    -0.000 C 
BRANCH  10  11
ATOM     11  C   UNL     1     -13.218  -3.220  -9.910  1.00  0.00    -0.000 C 
BRANCH  11  12
ATOM     12  C   UNL     1     -12.017  -2.676 -10.706  1.00  0.00    -0.000 C 
BRANCH  12  13
ATOM     13  C   UNL     1     -11.091  -1.737  -9.913  1.00  0.00    -0.003 C 
ATOM     14  C   UNL     1     -10.540  -0.588 -10.757  1.00  0.00     0.004 C 
ENDBRANCH  12  13
ENDBRANCH  11  12
ENDBRANCH  10  11
ENDBRANCH   9  10
ENDBRANCH   1   9
TORSDOF 10
ENDMDL
MODEL 5
REMARK VINA RESULT:    -4.344     17.231     18.885
REMARK INTER + INTRA:          -7.718
REMARK INTER:                  -7.022
REMARK INTRA:                  -0.697
REMARK UNBOUND:                -0.835
REMARK SMILES CCCCCCCCCCCC(=O)[O-]
REMARK SMILES IDX 7 1 8 2 9 3 10 4 11 5 12 6 13 7 14 8 6 9 5 10 4 11 3 12 2 13
REMARK SMILES IDX 1 14
REMARK H PARENT
REMARK Flexibility Score: inf
ROOT
ATOM      1  C   UNL     1      -9.457   6.571   5.784  1.00  0.00     0.000 C 
ENDROOT
BRANCH   1   2
ATOM      2  C   UNL     1      -8.571   7.763   6.191  1.00  0.00     0.000 C 
BRANCH   2   3
ATOM      3  C   UNL     1      -8.202   8.729   5.045  1.00  0.00     0.000 C 
BRANCH   3   4
ATOM      4  C   UNL     1      -8.067  10.206   5.454  1.00  0.00     0.006 C 
BRANCH   4   5
ATOM      5  C   UNL     1      -6.631  10.730   5.329  1.00  0.00     0.053 C 
BRANCH   5   6
ATOM      6  C   UNL     1      -5.920  10.623   6.640  1.00  0.00     0.041 C 
ATOM      7  O   UNL     1      -6.572  10.626   7.717  1.00  0.00    -0.550 OA
ATOM      8  O   UNL     1      -4.532  10.571   6.677  1.00  0.00    -0.550 OA
ENDBRANCH   5   6
ENDBRANCH   4   5
ENDBRANCH   3   4
ENDBRANCH   2   3
ENDBRANCH   1   2
BRANCH   1   9
ATOM      9  C   UNL     1     -10.957   6.847   5.981  1.00  0.00     0.000 C 
BRANCH   9  10
ATOM     10  C   UNL     1     -11.829   5.625   5.650  1.00  0.00    -0.000 C 
BRANCH  10  11
ATOM     11  C   UNL     1     -11.378   4.355   6.393  1.00  0.00    -0.000 C 
BRANCH  11  12
ATOM     12  C   UNL     1     -12.040   4.208   7.776  1.00  0.00    -0.000 C 
BRANCH  12  13
ATOM     13  C   UNL     1     -11.055   4.076   8.951  1.00  0.00    -0.003 C 
ATOM     14  C   UNL     1     -10.157   5.302   9.118  1.00  0.00     0.004 C 
ENDBRANCH  12  13
ENDBRANCH  11  12
ENDBRANCH  10  11
ENDBRANCH   9  10
ENDBRANCH   1   9
TORSDOF 10
ENDMDL
MODEL 6
REMARK VINA RESULT:    -4.336     16.864     18.570
REMARK INTER + INTRA:          -7.705
REMARK INTER:                  -6.921
REMARK INTRA:                  -0.784
REMARK UNBOUND:                -0.835
REMARK SMILES CCCCCCCCCCCC(=O)[O-]
REMARK SMILES IDX 7 1 8 2 9 3 10 4 11 5 12 6 13 7 14 8 6 9 5 10 4 11 3 12 2 13
REMARK SMILES IDX 1 14
REMARK H PARENT
REMARK Flexibility Score: inf
ROOT
ATOM      1  C   UNL     1      -9.174   5.873   6.816  1.00  0.00     0.000 C 
ENDROOT
BRANCH   1   2
ATOM      2  C   UNL     1      -9.574   7.140   6.038  1.00  0.00     0.000 C 
BRANCH   2   3
ATOM      3  C   UNL     1      -8.414   7.871   5.328  1.00  0.00     0.000 C 
BRANCH   3   4
ATOM      4  C   UNL     1      -8.480   9.408   5.382  1.00  0.00     0.006 C 
BRANCH   4   5
ATOM      5  C   UNL     1      -7.110  10.069   5.194  1.00  0.00     0.053 C 
BRANCH   5   6
ATOM      6  C   UNL     1      -6.545  10.485   6.515  1.00  0.00     0.041 C 
ATOM      7  O   UNL     1      -5.355  10.202   6.813  1.00  0.00    -0.550 OA
ATOM      8  O   UNL     1      -7.347  11.142   7.440  1.00  0.00    -0.550 OA
ENDBRANCH   5   6
ENDBRANCH   4   5
ENDBRANCH   3   4
ENDBRANCH   2   3
ENDBRANCH   1   2
BRANCH   1   9
ATOM      9  C   UNL     1      -9.947   5.715   8.136  1.00  0.00     0.000 C 
BRANCH   9  10
ATOM     10  C   UNL     1     -10.624   4.340   8.260  1.00  0.00    -0.000 C 
BRANCH  10  11
ATOM     11  C   UNL     1     -11.354   3.920   6.973  1.00  0.00    -0.000 C 
BRANCH  11  12
ATOM     12  C   UNL     1     -12.660   4.703   6.746  1.00  0.00    -0.000 C 
BRANCH  12  13
ATOM     13  C   UNL     1     -12.803   5.327   5.346  1.00  0.00    -0.003 C 
ATOM     14  C   UNL     1     -13.154   6.814   5.388  1.00  0.00     0.004 C 
ENDBRANCH  12  13
ENDBRANCH  11  12
ENDBRANCH  10  11
ENDBRANCH   9  10
ENDBRANCH   1   9
TORSDOF 10
ENDMDL
MODEL 7
REMARK VINA RESULT:    -4.296     16.362     17.963
REMARK INTER + INTRA:          -7.642
REMARK INTER:                  -7.015
REMARK INTRA:                  -0.627
REMARK UNBOUND:                -0.835
REMARK SMILES CCCCCCCCCCCC(=O)[O-]
REMARK SMILES IDX 7 1 8 2 9 3 10 4 11 5 12 6 13 7 14 8 6 9 5 10 4 11 3 12 2 13
REMARK SMILES IDX 1 14
REMARK H PARENT
REMARK Flexibility Score: inf
ROOT
ATOM      1  C   UNL     1      -9.096   6.021   6.591  1.00  0.00     0.000 C 
ENDROOT
BRANCH   1   2
ATOM      2  C   UNL     1      -9.898   5.703   7.867  1.00  0.00     0.000 C 
BRANCH   2   3
ATOM      3  C   UNL     1     -10.437   4.260   7.962  1.00  0.00     0.000 C 
BRANCH   3   4
ATOM      4  C   UNL     1     -11.404   3.848   6.838  1.00  0.00     0.006 C 
BRANCH   4   5
ATOM      5  C   UNL     1     -12.744   4.590   6.903  1.00  0.00     0.053 C 
BRANCH   5   6
ATOM      6  C   UNL     1     -12.973   5.367   5.646  1.00  0.00     0.041 C 
ATOM      7  O   UNL     1     -12.085   5.403   4.753  1.00  0.00    -0.550 OA
ATOM      8  O   UNL     1     -14.146   6.092   5.479  1.00  0.00    -0.550 OA
ENDBRANCH   5   6
ENDBRANCH   4   5
ENDBRANCH   3   4
ENDBRANCH   2   3
ENDBRANCH   1   2
BRANCH   1   9
ATOM      9  C   UNL     1      -9.518   7.348   5.937  1.00  0.00     0.000 C 
BRANCH   9  10
ATOM     10  C   UNL     1      -8.317   8.256   5.623  1.00  0.00    -0.000 C 
BRANCH  10  11
ATOM     11  C   UNL     1      -8.727   9.719   5.381  1.00  0.00    -0.000 C 
BRANCH  11  12
ATOM     12  C   UNL     1      -7.763  10.724   6.038  1.00  0.00    -0.000 C 
BRANCH  12  13
ATOM     13  C   UNL     1      -6.321  10.680   5.500  1.00  0.00    -0.003 C 
ATOM     14  C   UNL     1      -5.277  10.522   6.605  1.00  0.00     0.004 C 
ENDBRANCH  12  13
ENDBRANCH  11  12
ENDBRANCH  10  11
ENDBRANCH   9  10
ENDBRANCH   1   9
TORSDOF 10
ENDMDL
MODEL 8
REMARK VINA RESULT:    -4.258     15.772     17.965
REMARK INTER + INTRA:          -7.582
REMARK INTER:                  -6.964
REMARK INTRA:                  -0.618
REMARK UNBOUND:                -0.835
REMARK SMILES CCCCCCCCCCCC(=O)[O-]
REMARK SMILES IDX 7 1 8 2 9 3 10 4 11 5 12 6 13 7 14 8 6 9 5 10 4 11 3 12 2 13
REMARK SMILES IDX 1 14
REMARK H PARENT
REMARK Flexibility Score: inf
ROOT
ATOM      1  C   UNL     1      -9.820   5.624   7.822  1.00  0.00     0.000 C 
ENDROOT
BRANCH   1   2
ATOM      2  C   UNL     1      -9.206   5.720   6.413  1.00  0.00     0.000 C 
BRANCH   2   3
ATOM      3  C   UNL     1      -9.329   7.101   5.735  1.00  0.00     0.000 C 
BRANCH   3   4
ATOM      4  C   UNL     1      -8.357   8.173   6.257  1.00  0.00     0.006 C 
BRANCH   4   5
ATOM      5  C   UNL     1      -7.853   9.109   5.151  1.00  0.00     0.053 C 
BRANCH   5   6
ATOM      6  C   UNL     1      -7.062  10.234   5.738  1.00  0.00     0.041 C 
ATOM      7  O   UNL     1      -6.657  10.170   6.929  1.00  0.00    -0.550 OA
ATOM      8  O   UNL     1      -6.816  11.377   4.989  1.00  0.00    -0.550 OA
ENDBRANCH   5   6
ENDBRANCH   4   5
ENDBRANCH   3   4
ENDBRANCH   2   3
ENDBRANCH   1   2
BRANCH   1   9
ATOM      9  C   UNL     1     -10.743   4.405   7.989  1.00  0.00     0.000 C 
BRANCH   9  10
ATOM     10  C   UNL     1     -11.436   4.008   6.676  1.00  0.00    -0.000 C 
BRANCH  10  11
ATOM     11  C   UNL     1     -12.775   4.736   6.467  1.00  0.00    -0.000 C 
BRANCH  11  12
ATOM     12  C   UNL     1     -12.747   5.703   5.270  1.00  0.00    -0.000 C 
BRANCH  12  13
ATOM     13  C   UNL     1     -14.133   6.120   4.745  1.00  0.00    -0.003 C 
ATOM     14  C   UNL     1     -14.299   5.886   3.244  1.00  0.00     0.004 C 
ENDBRANCH  12  13
ENDBRANCH  11  12
ENDBRANCH  10  11
ENDBRANCH   9  10
ENDBRANCH   1   9
TORSDOF 10
ENDMDL
MODEL 9
REMARK VINA RESULT:    -4.233      3.955      6.452
REMARK INTER + INTRA:          -7.542
REMARK INTER:                  -7.104
REMARK INTRA:                  -0.439
REMARK UNBOUND:                -0.835
REMARK SMILES CCCCCCCCCCCC(=O)[O-]
REMARK SMILES IDX 7 1 8 2 9 3 10 4 11 5 12 6 13 7 14 8 6 9 5 10 4 11 3 12 2 13
REMARK SMILES IDX 1 14
REMARK H PARENT
REMARK Flexibility Score: inf
ROOT
ATOM      1  C   UNL     1     -10.600  -0.647  -9.572  1.00  0.00     0.000 C 
ENDROOT
BRANCH   1   2
ATOM      2  C   UNL     1     -11.359   0.496 -10.271  1.00  0.00     0.000 C 
BRANCH   2   3
ATOM      3  C   UNL     1     -12.027   1.517  -9.326  1.00  0.00     0.000 C 
BRANCH   3   4
ATOM      4  C   UNL     1     -11.640   2.986  -9.573  1.00  0.00     0.006 C 
BRANCH   4   5
ATOM      5  C   UNL     1     -11.221   3.715  -8.291  1.00  0.00     0.053 C 
BRANCH   5   6
ATOM      6  C   UNL     1     -12.403   4.375  -7.655  1.00  0.00     0.041 C 
ATOM      7  O   UNL     1     -13.367   4.767  -8.364  1.00  0.00    -0.550 OA
ATOM      8  O   UNL     1     -12.420   4.604  -6.285  1.00  0.00    -0.550 OA
ENDBRANCH   5   6
ENDBRANCH   4   5
ENDBRANCH   3   4
ENDBRANCH   2   3
ENDBRANCH   1   2
BRANCH   1   9
ATOM      9  C   UNL     1     -10.660  -1.969 -10.356  1.00  0.00     0.000 C 
BRANCH   9  10
ATOM     10  C   UNL     1     -11.907  -2.801 -10.013  1.00  0.00    -0.000 C 
BRANCH  10  11
ATOM     11  C   UNL     1     -13.111  -2.461 -10.909  1.00  0.00    -0.000 C 
BRANCH  11  12
ATOM     12  C   UNL     1     -14.457  -2.851 -10.271  1.00  0.00    -0.000 C 
BRANCH  12  13
ATOM     13  C   UNL     1     -14.726  -4.365 -10.210  1.00  0.00    -0.003 C 
ATOM     14  C   UNL     1     -14.773  -4.906  -8.781  1.00  0.00     0.004 C 
ENDBRANCH  12  13
ENDBRANCH  11  12
ENDBRANCH  10  11
ENDBRANCH   9  10
ENDBRANCH   1   9
TORSDOF 10
ENDMDL
