MODEL 1
REMARK VINA RESULT:    -4.256      0.000      0.000
REMARK INTER + INTRA:          -5.611
REMARK INTER:                  -5.500
REMARK INTRA:                  -0.111
REMARK UNBOUND:                -0.111
REMARK SMILES CCCCCCC(=O)[O-]
REMARK SMILES IDX 5 1 6 2 7 3 8 4 9 5 4 6 3 7 2 8 1 9
REMARK H PARENT
REMARK Flexibility Score: inf
ROOT
ATOM      1  C   UNL     1     -29.999  -8.981  34.246  1.00  0.00     0.006 C 
ENDROOT
BRANCH   1   2
ATOM      2  C   UNL     1     -28.517  -9.036  33.851  1.00  0.00     0.053 C 
BRANCH   2   3
ATOM      3  C   UNL     1     -27.934 -10.369  34.196  1.00  0.00     0.041 C 
ATOM      4  O   UNL     1     -27.500 -11.126  33.287  1.00  0.00    -0.550 OA
ATOM      5  O   UNL     1     -27.914 -10.798  35.517  1.00  0.00    -0.550 OA
ENDBRANCH   2   3
ENDBRANCH   1   2
BRANCH   1   6
ATOM      6  C   UNL     1     -30.828  -8.080  33.318  1.00  0.00     0.000 C 
BRANCH   6   7
ATOM      7  C   UNL     1     -31.922  -7.303  34.071  1.00  0.00    -0.000 C 
BRANCH   7   8
ATOM      8  C   UNL     1     -32.256  -5.961  33.401  1.00  0.00    -0.003 C 
ATOM      9  C   UNL     1     -32.263  -6.044  31.875  1.00  0.00     0.004 C 
ENDBRANCH   7   8
ENDBRANCH   6   7
ENDBRANCH   1   6
TORSDOF 5
ENDMDL
MODEL 2
REMARK VINA RESULT:    -4.048      3.114      5.334
REMARK INTER + INTRA:          -5.343
REMARK INTER:                  -5.194
REMARK INTRA:                  -0.148
REMARK UNBOUND:                -0.111
REMARK SMILES CCCCCCC(=O)[O-]
REMARK SMILES IDX 5 1 6 2 7 3 8 4 9 5 4 6 3 7 2 8 1 9
REMARK H PARENT
REMARK Flexibility Score: inf
ROOT
ATOM      1  C   UNL     1     -30.310  -8.924  34.096  1.00  0.00     0.006 C 
ENDROOT
BRANCH   1   2
ATOM      2  C   UNL     1     -30.878  -7.916  33.087  1.00  0.00     0.053 C 
BRANCH   2   3
ATOM      3  C   UNL     1     -31.962  -7.101  33.718  1.00  0.00     0.041 C 
ATOM      4  O   UNL     1     -32.790  -7.643  34.497  1.00  0.00    -0.550 OA
ATOM      5  O   UNL     1     -32.089  -5.753  33.407  1.00  0.00    -0.550 OA
ENDBRANCH   2   3
ENDBRANCH   1   2
BRANCH   1   6
ATOM      6  C   UNL     1     -28.786  -9.082  33.982  1.00  0.00     0.000 C 
BRANCH   6   7
ATOM      7  C   UNL     1     -28.180  -9.838  35.177  1.00  0.00    -0.000 C 
BRANCH   7   8
ATOM      8  C   UNL     1     -27.799 -11.285  34.824  1.00  0.00    -0.003 C 
ATOM      9  C   UNL     1     -27.417 -11.457  33.354  1.00  0.00     0.004 C 
ENDBRANCH   7   8
ENDBRANCH   6   7
ENDBRANCH   1   6
TORSDOF 5
ENDMDL
MODEL 3
REMARK VINA RESULT:    -3.965      1.241      2.078
REMARK INTER + INTRA:          -5.236
REMARK INTER:                  -5.049
REMARK INTRA:                  -0.187
REMARK UNBOUND:                -0.111
REMARK SMILES CCCCCCC(=O)[O-]
REMARK SMILES IDX 5 1 6 2 7 3 8 4 9 5 4 6 3 7 2 8 1 9
REMARK H PARENT
REMARK Flexibility Score: inf
ROOT
ATOM      1  C   UNL     1     -28.670  -8.990  34.104  1.00  0.00     0.006 C 
ENDROOT
BRANCH   1   2
ATOM      2  C   UNL     1     -28.219  -9.964  35.201  1.00  0.00     0.053 C 
BRANCH   2   3
ATOM      3  C   UNL     1     -27.743 -11.246  34.596  1.00  0.00     0.041 C 
ATOM      4  O   UNL     1     -27.876 -12.331  35.223  1.00  0.00    -0.550 OA
ATOM      5  O   UNL     1     -27.107 -11.239  33.361  1.00  0.00    -0.550 OA
ENDBRANCH   2   3
ENDBRANCH   1   2
BRANCH   1   6
ATOM      6  C   UNL     1     -30.165  -9.121  33.772  1.00  0.00     0.000 C 
BRANCH   6   7
ATOM      7  C   UNL     1     -30.798  -7.781  33.359  1.00  0.00    -0.000 C 
BRANCH   7   8
ATOM      8  C   UNL     1     -32.202  -7.586  33.955  1.00  0.00    -0.003 C 
ATOM      9  C   UNL     1     -32.720  -8.832  34.673  1.00  0.00     0.004 C 
ENDBRANCH   7   8
ENDBRANCH   6   7
ENDBRANCH   1   6
TORSDOF 5
ENDMDL
MODEL 4
REMARK VINA RESULT:    -3.488      8.804      9.494
REMARK INTER + INTRA:          -4.618
REMARK INTER:                  -4.384
REMARK INTRA:                  -0.234
REMARK UNBOUND:                -0.111
REMARK SMILES CCCCCCC(=O)[O-]
REMARK SMILES IDX 5 1 6 2 7 3 8 4 9 5 4 6 3 7 2 8 1 9
REMARK H PARENT
REMARK Flexibility Score: inf
ROOT
ATOM      1  C   UNL     1     -23.042 -12.088  37.869  1.00  0.00     0.006 C 
ENDROOT
BRANCH   1   2
ATOM      2  C   UNL     1     -23.974 -13.163  38.444  1.00  0.00     0.053 C 
BRANCH   2   3
ATOM      3  C   UNL     1     -23.178 -14.274  39.051  1.00  0.00     0.041 C 
ATOM      4  O   UNL     1     -22.598 -15.115  38.313  1.00  0.00    -0.550 OA
ATOM      5  O   UNL     1     -23.114 -14.411  40.432  1.00  0.00    -0.550 OA
ENDBRANCH   2   3
ENDBRANCH   1   2
BRANCH   1   6
ATOM      6  C   UNL     1     -22.366 -11.243  38.959  1.00  0.00     0.000 C 
BRANCH   6   7
ATOM      7  C   UNL     1     -23.322 -10.888  40.111  1.00  0.00    -0.000 C 
BRANCH   7   8
ATOM      8  C   UNL     1     -24.027  -9.540  39.895  1.00  0.00    -0.003 C 
ATOM      9  C   UNL     1     -25.388  -9.463  40.588  1.00  0.00     0.004 C 
ENDBRANCH   7   8
ENDBRANCH   6   7
ENDBRANCH   1   6
TORSDOF 5
ENDMDL
MODEL 5
REMARK VINA RESULT:    -3.432      3.967      5.605
REMARK INTER + INTRA:          -4.546
REMARK INTER:                  -4.411
REMARK INTRA:                  -0.135
REMARK UNBOUND:                -0.111
REMARK SMILES CCCCCCC(=O)[O-]
REMARK SMILES IDX 5 1 6 2 7 3 8 4 9 5 4 6 3 7 2 8 1 9
REMARK H PARENT
REMARK Flexibility Score: inf
ROOT
ATOM      1  C   UNL     1     -31.868  -8.288  32.121  1.00  0.00     0.006 C 
ENDROOT
BRANCH   1   2
ATOM      2  C   UNL     1     -32.996  -8.834  33.008  1.00  0.00     0.053 C 
BRANCH   2   3
ATOM      3  C   UNL     1     -34.179  -7.920  32.969  1.00  0.00     0.041 C 
ATOM      4  O   UNL     1     -34.429  -7.164  33.945  1.00  0.00    -0.550 OA
ATOM      5  O   UNL     1     -35.035  -7.937  31.875  1.00  0.00    -0.550 OA
ENDBRANCH   2   3
ENDBRANCH   1   2
BRANCH   1   6
ATOM      6  C   UNL     1     -30.626  -7.875  32.926  1.00  0.00     0.000 C 
BRANCH   6   7
ATOM      7  C   UNL     1     -30.220  -8.931  33.969  1.00  0.00    -0.000 C 
BRANCH   7   8
ATOM      8  C   UNL     1     -28.699  -8.994  34.180  1.00  0.00    -0.003 C 
ATOM      9  C   UNL     1     -28.204 -10.400  34.518  1.00  0.00     0.004 C 
ENDBRANCH   7   8
ENDBRANCH   6   7
ENDBRANCH   1   6
TORSDOF 5
ENDMDL
MODEL 6
REMARK VINA RESULT:    -3.283      9.593     10.866
REMARK INTER + INTRA:          -4.354
REMARK INTER:                  -3.907
REMARK INTRA:                  -0.447
REMARK UNBOUND:                -0.111
REMARK SMILES CCCCCCC(=O)[O-]
REMARK SMILES IDX 5 1 6 2 7 3 8 4 9 5 4 6 3 7 2 8 1 9
REMARK H PARENT
REMARK Flexibility Score: inf
ROOT
ATOM      1  C   UNL     1     -22.645 -10.999  39.355  1.00  0.00     0.006 C 
ENDROOT
BRANCH   1   2
ATOM      2  C   UNL     1     -21.287 -11.062  40.068  1.00  0.00     0.053 C 
BRANCH   2   3
ATOM      3  C   UNL     1     -21.066 -12.423  40.648  1.00  0.00     0.041 C 
ATOM      4  O   UNL     1     -21.853 -12.875  41.522  1.00  0.00    -0.550 OA
ATOM      5  O   UNL     1     -19.963 -13.173  40.260  1.00  0.00    -0.550 OA
ENDBRANCH   2   3
ENDBRANCH   1   2
BRANCH   1   6
ATOM      6  C   UNL     1     -22.763 -12.019  38.211  1.00  0.00     0.000 C 
BRANCH   6   7
ATOM      7  C   UNL     1     -24.083 -12.807  38.257  1.00  0.00    -0.000 C 
BRANCH   7   8
ATOM      8  C   UNL     1     -23.939 -14.154  38.984  1.00  0.00    -0.003 C 
ATOM      9  C   UNL     1     -22.705 -14.939  38.540  1.00  0.00     0.004 C 
ENDBRANCH   7   8
ENDBRANCH   6   7
ENDBRANCH   1   6
TORSDOF 5
ENDMDL
MODEL 7
REMARK VINA RESULT:    -3.247      9.570     10.716
REMARK INTER + INTRA:          -4.307
REMARK INTER:                  -3.896
REMARK INTRA:                  -0.411
REMARK UNBOUND:                -0.111
REMARK SMILES CCCCCCC(=O)[O-]
REMARK SMILES IDX 5 1 6 2 7 3 8 4 9 5 4 6 3 7 2 8 1 9
REMARK H PARENT
REMARK Flexibility Score: inf
ROOT
ATOM      1  C   UNL     1     -23.769 -14.114  38.953  1.00  0.00     0.006 C 
ENDROOT
BRANCH   1   2
ATOM      2  C   UNL     1     -22.414 -14.696  38.528  1.00  0.00     0.053 C 
BRANCH   2   3
ATOM      3  C   UNL     1     -21.551 -14.939  39.725  1.00  0.00     0.041 C 
ATOM      4  O   UNL     1     -20.447 -15.533  39.600  1.00  0.00    -0.550 OA
ATOM      5  O   UNL     1     -21.988 -14.555  40.986  1.00  0.00    -0.550 OA
ENDBRANCH   2   3
ENDBRANCH   1   2
BRANCH   1   6
ATOM      6  C   UNL     1     -24.110 -12.807  38.222  1.00  0.00     0.000 C 
BRANCH   6   7
ATOM      7  C   UNL     1     -22.911 -11.847  38.137  1.00  0.00    -0.000 C 
BRANCH   7   8
ATOM      8  C   UNL     1     -22.724 -11.024  39.422  1.00  0.00    -0.003 C 
ATOM      9  C   UNL     1     -21.318 -11.149  40.008  1.00  0.00     0.004 C 
ENDBRANCH   7   8
ENDBRANCH   6   7
ENDBRANCH   1   6
TORSDOF 5
ENDMDL
MODEL 8
REMARK VINA RESULT:    -3.243      9.092     10.972
REMARK INTER + INTRA:          -4.302
REMARK INTER:                  -3.867
REMARK INTRA:                  -0.434
REMARK UNBOUND:                -0.111
REMARK SMILES CCCCCCC(=O)[O-]
REMARK SMILES IDX 5 1 6 2 7 3 8 4 9 5 4 6 3 7 2 8 1 9
REMARK H PARENT
REMARK Flexibility Score: inf
ROOT
ATOM      1  C   UNL     1     -24.012 -12.664  38.254  1.00  0.00     0.006 C 
ENDROOT
BRANCH   1   2
ATOM      2  C   UNL     1     -22.759 -11.781  38.178  1.00  0.00     0.053 C 
BRANCH   2   3
ATOM      3  C   UNL     1     -22.580 -11.020  39.453  1.00  0.00     0.041 C 
ATOM      4  O   UNL     1     -23.478 -10.232  39.853  1.00  0.00    -0.550 OA
ATOM      5  O   UNL     1     -21.400 -11.142  40.176  1.00  0.00    -0.550 OA
ENDBRANCH   2   3
ENDBRANCH   1   2
BRANCH   1   6
ATOM      6  C   UNL     1     -23.753 -14.002  38.965  1.00  0.00     0.000 C 
BRANCH   6   7
ATOM      7  C   UNL     1     -22.463 -14.687  38.483  1.00  0.00    -0.000 C 
BRANCH   7   8
ATOM      8  C   UNL     1     -21.514 -15.034  39.641  1.00  0.00    -0.003 C 
ATOM      9  C   UNL     1     -22.036 -14.562  40.998  1.00  0.00     0.004 C 
ENDBRANCH   7   8
ENDBRANCH   6   7
ENDBRANCH   1   6
TORSDOF 5
ENDMDL
