MODEL 1
REMARK VINA RESULT:    -4.096      0.000      0.000
REMARK INTER + INTRA:          -5.667
REMARK INTER:                  -5.054
REMARK INTRA:                  -0.612
REMARK UNBOUND:                -0.612
REMARK SMILES CCCCC=CC(C)=O
REMARK SMILES IDX 4 1 3 2 2 3 1 4 5 5 6 6 7 7 9 8 8 9
REMARK H PARENT
REMARK Flexibility Score: inf
ROOT
ATOM      1  C   UNL     1      -4.110 -12.821  31.118  1.00  0.00     0.027 C 
ENDROOT
BRANCH   1   2
ATOM      2  C   UNL     1      -4.667 -13.603  29.918  1.00  0.00     0.004 C 
BRANCH   2   3
ATOM      3  C   UNL     1      -4.560 -12.806  28.610  1.00  0.00    -0.003 C 
ATOM      4  C   UNL     1      -4.466 -11.307  28.885  1.00  0.00     0.004 C 
ENDBRANCH   2   3
ENDBRANCH   1   2
BRANCH   1   5
ATOM      5  C   UNL     1      -2.937 -13.515  31.762  1.00  0.00    -0.023 C 
ATOM      6  C   UNL     1      -1.643 -13.318  31.461  1.00  0.00     0.042 C 
BRANCH   6   7
ATOM      7  C   UNL     1      -1.109 -12.426  30.406  1.00  0.00     0.152 C 
ATOM      8  O   UNL     1      -1.038 -11.178  30.568  1.00  0.00    -0.295 OA
ATOM      9  C   UNL     1      -0.712 -13.009  29.088  1.00  0.00     0.093 C 
ENDBRANCH   6   7
ENDBRANCH   1   5
TORSDOF 4
ENDMDL
MODEL 2
REMARK VINA RESULT:    -4.080      1.819      2.587
REMARK INTER + INTRA:          -5.646
REMARK INTER:                  -5.332
REMARK INTRA:                  -0.315
REMARK UNBOUND:                -0.612
REMARK SMILES CCCCC=CC(C)=O
REMARK SMILES IDX 4 1 3 2 2 3 1 4 5 5 6 6 7 7 9 8 8 9
REMARK H PARENT
REMARK Flexibility Score: inf
ROOT
ATOM      1  C   UNL     1      -2.128 -13.698  31.826  1.00  0.00     0.027 C 
ENDROOT
BRANCH   1   2
ATOM      2  C   UNL     1      -3.505 -13.015  31.834  1.00  0.00     0.004 C 
BRANCH   2   3
ATOM      3  C   UNL     1      -4.556 -13.829  31.065  1.00  0.00    -0.003 C 
ATOM      4  C   UNL     1      -5.297 -14.787  31.993  1.00  0.00     0.004 C 
ENDBRANCH   2   3
ENDBRANCH   1   2
BRANCH   1   5
ATOM      5  C   UNL     1      -1.008 -12.731  31.542  1.00  0.00    -0.023 C 
ATOM      6  C   UNL     1      -0.485 -12.462  30.334  1.00  0.00     0.042 C 
BRANCH   6   7
ATOM      7  C   UNL     1      -0.863 -13.096  29.050  1.00  0.00     0.152 C 
ATOM      8  O   UNL     1      -1.862 -12.705  28.388  1.00  0.00    -0.295 OA
ATOM      9  C   UNL     1      -0.087 -14.276  28.561  1.00  0.00     0.093 C 
ENDBRANCH   6   7
ENDBRANCH   1   5
TORSDOF 4
ENDMDL
MODEL 3
REMARK VINA RESULT:    -4.051      1.597      3.645
REMARK INTER + INTRA:          -5.611
REMARK INTER:                  -5.117
REMARK INTRA:                  -0.494
REMARK UNBOUND:                -0.612
REMARK SMILES CCCCC=CC(C)=O
REMARK SMILES IDX 4 1 3 2 2 3 1 4 5 5 6 6 7 7 9 8 8 9
REMARK H PARENT
REMARK Flexibility Score: inf
ROOT
ATOM      1  C   UNL     1      -1.946 -12.552  31.391  1.00  0.00     0.027 C 
ENDROOT
BRANCH   1   2
ATOM      2  C   UNL     1      -0.768 -13.422  30.925  1.00  0.00     0.004 C 
BRANCH   2   3
ATOM      3  C   UNL     1      -0.297 -13.045  29.513  1.00  0.00    -0.003 C 
ATOM      4  C   UNL     1      -0.131 -14.285  28.638  1.00  0.00     0.004 C 
ENDBRANCH   2   3
ENDBRANCH   1   2
BRANCH   1   5
ATOM      5  C   UNL     1      -3.243 -13.318  31.441  1.00  0.00    -0.023 C 
ATOM      6  C   UNL     1      -4.119 -13.452  30.432  1.00  0.00     0.042 C 
BRANCH   6   7
ATOM      7  C   UNL     1      -4.018 -12.835  29.089  1.00  0.00     0.152 C 
ATOM      8  O   UNL     1      -3.512 -13.452  28.114  1.00  0.00    -0.295 OA
ATOM      9  C   UNL     1      -4.458 -11.419  28.901  1.00  0.00     0.093 C 
ENDBRANCH   6   7
ENDBRANCH   1   5
TORSDOF 4
ENDMDL
MODEL 4
REMARK VINA RESULT:    -4.031      2.266      3.907
REMARK INTER + INTRA:          -5.585
REMARK INTER:                  -5.105
REMARK INTRA:                  -0.480
REMARK UNBOUND:                -0.612
REMARK SMILES CCCCC=CC(C)=O
REMARK SMILES IDX 4 1 3 2 2 3 1 4 5 5 6 6 7 7 9 8 8 9
REMARK H PARENT
REMARK Flexibility Score: inf
ROOT
ATOM      1  C   UNL     1      -3.211 -12.274  30.932  1.00  0.00     0.027 C 
ENDROOT
BRANCH   1   2
ATOM      2  C   UNL     1      -4.122 -12.808  32.049  1.00  0.00     0.004 C 
BRANCH   2   3
ATOM      3  C   UNL     1      -4.076 -14.340  32.147  1.00  0.00    -0.003 C 
ATOM      4  C   UNL     1      -5.483 -14.931  32.196  1.00  0.00     0.004 C 
ENDBRANCH   2   3
ENDBRANCH   1   2
BRANCH   1   5
ATOM      5  C   UNL     1      -3.942 -11.361  29.981  1.00  0.00    -0.023 C 
ATOM      6  C   UNL     1      -4.519 -11.726  28.825  1.00  0.00     0.042 C 
BRANCH   6   7
ATOM      7  C   UNL     1      -4.509 -13.080  28.223  1.00  0.00     0.152 C 
ATOM      8  O   UNL     1      -3.558 -13.474  27.496  1.00  0.00    -0.295 OA
ATOM      9  C   UNL     1      -5.688 -13.976  28.422  1.00  0.00     0.093 C 
ENDBRANCH   6   7
ENDBRANCH   1   5
TORSDOF 4
ENDMDL
MODEL 5
REMARK VINA RESULT:    -4.019      1.220      1.528
REMARK INTER + INTRA:          -5.571
REMARK INTER:                  -4.974
REMARK INTRA:                  -0.597
REMARK UNBOUND:                -0.612
REMARK SMILES CCCCC=CC(C)=O
REMARK SMILES IDX 4 1 3 2 2 3 1 4 5 5 6 6 7 7 9 8 8 9
REMARK H PARENT
REMARK Flexibility Score: inf
ROOT
ATOM      1  C   UNL     1      -4.308 -12.444  29.266  1.00  0.00     0.027 C 
ENDROOT
BRANCH   1   2
ATOM      2  C   UNL     1      -4.675 -13.334  28.067  1.00  0.00     0.004 C 
BRANCH   2   3
ATOM      3  C   UNL     1      -3.693 -13.161  26.900  1.00  0.00    -0.003 C 
ATOM      4  C   UNL     1      -3.114 -11.749  26.871  1.00  0.00     0.004 C 
ENDBRANCH   2   3
ENDBRANCH   1   2
BRANCH   1   5
ATOM      5  C   UNL     1      -3.720 -13.232  30.409  1.00  0.00    -0.023 C 
ATOM      6  C   UNL     1      -2.427 -13.250  30.771  1.00  0.00     0.042 C 
BRANCH   6   7
ATOM      7  C   UNL     1      -1.313 -12.547  30.095  1.00  0.00     0.152 C 
ATOM      8  O   UNL     1      -1.089 -11.322  30.287  1.00  0.00    -0.295 OA
ATOM      9  C   UNL     1      -0.476 -13.289  29.102  1.00  0.00     0.093 C 
ENDBRANCH   6   7
ENDBRANCH   1   5
TORSDOF 4
ENDMDL
MODEL 6
REMARK VINA RESULT:    -3.975      1.183      2.359
REMARK INTER + INTRA:          -5.517
REMARK INTER:                  -5.131
REMARK INTRA:                  -0.387
REMARK UNBOUND:                -0.612
REMARK SMILES CCCCC=CC(C)=O
REMARK SMILES IDX 4 1 3 2 2 3 1 4 5 5 6 6 7 7 9 8 8 9
REMARK H PARENT
REMARK Flexibility Score: inf
ROOT
ATOM      1  C   UNL     1      -1.979 -12.519  28.375  1.00  0.00     0.027 C 
ENDROOT
BRANCH   1   2
ATOM      2  C   UNL     1      -3.188 -13.330  27.883  1.00  0.00     0.004 C 
BRANCH   2   3
ATOM      3  C   UNL     1      -4.506 -12.825  28.488  1.00  0.00    -0.003 C 
ATOM      4  C   UNL     1      -4.411 -11.348  28.862  1.00  0.00     0.004 C 
ENDBRANCH   2   3
ENDBRANCH   1   2
BRANCH   1   5
ATOM      5  C   UNL     1      -0.824 -13.397  28.784  1.00  0.00    -0.023 C 
ATOM      6  C   UNL     1      -0.415 -13.628  30.042  1.00  0.00     0.042 C 
BRANCH   6   7
ATOM      7  C   UNL     1      -0.976 -13.028  31.275  1.00  0.00     0.152 C 
ATOM      8  O   UNL     1      -0.330 -12.185  31.954  1.00  0.00    -0.295 OA
ATOM      9  C   UNL     1      -2.310 -13.486  31.769  1.00  0.00     0.093 C 
ENDBRANCH   6   7
ENDBRANCH   1   5
TORSDOF 4
ENDMDL
MODEL 7
REMARK VINA RESULT:    -3.965      1.651      3.502
REMARK INTER + INTRA:          -5.504
REMARK INTER:                  -4.983
REMARK INTRA:                  -0.521
REMARK UNBOUND:                -0.612
REMARK SMILES CCCCC=CC(C)=O
REMARK SMILES IDX 4 1 3 2 2 3 1 4 5 5 6 6 7 7 9 8 8 9
REMARK H PARENT
REMARK Flexibility Score: inf
ROOT
ATOM      1  C   UNL     1      -2.788 -12.700  31.365  1.00  0.00     0.027 C 
ENDROOT
BRANCH   1   2
ATOM      2  C   UNL     1      -1.464 -13.471  31.479  1.00  0.00     0.004 C 
BRANCH   2   3
ATOM      3  C   UNL     1      -0.405 -12.945  30.499  1.00  0.00    -0.003 C 
ATOM      4  C   UNL     1      -0.319 -13.825  29.255  1.00  0.00     0.004 C 
ENDBRANCH   2   3
ENDBRANCH   1   2
BRANCH   1   5
ATOM      5  C   UNL     1      -3.829 -13.458  30.582  1.00  0.00    -0.023 C 
ATOM      6  C   UNL     1      -4.355 -13.087  29.403  1.00  0.00     0.042 C 
BRANCH   6   7
ATOM      7  C   UNL     1      -4.062 -11.839  28.662  1.00  0.00     0.152 C 
ATOM      8  O   UNL     1      -4.667 -10.762  28.914  1.00  0.00    -0.295 OA
ATOM      9  C   UNL     1      -3.079 -11.871  27.537  1.00  0.00     0.093 C 
ENDBRANCH   6   7
ENDBRANCH   1   5
TORSDOF 4
ENDMDL
MODEL 8
REMARK VINA RESULT:    -3.926      1.894      3.337
REMARK INTER + INTRA:          -5.456
REMARK INTER:                  -5.005
REMARK INTRA:                  -0.451
REMARK UNBOUND:                -0.612
REMARK SMILES CCCCC=CC(C)=O
REMARK SMILES IDX 4 1 3 2 2 3 1 4 5 5 6 6 7 7 9 8 8 9
REMARK H PARENT
REMARK Flexibility Score: inf
ROOT
ATOM      1  C   UNL     1      -2.894 -12.308  31.371  1.00  0.00     0.027 C 
ENDROOT
BRANCH   1   2
ATOM      2  C   UNL     1      -4.176 -12.890  31.987  1.00  0.00     0.004 C 
BRANCH   2   3
ATOM      3  C   UNL     1      -4.028 -14.380  32.326  1.00  0.00    -0.003 C 
ATOM      4  C   UNL     1      -5.389 -15.068  32.394  1.00  0.00     0.004 C 
ENDBRANCH   2   3
ENDBRANCH   1   2
BRANCH   1   5
ATOM      5  C   UNL     1      -2.200 -13.286  30.457  1.00  0.00    -0.023 C 
ATOM      6  C   UNL     1      -2.448 -13.454  29.148  1.00  0.00     0.042 C 
BRANCH   6   7
ATOM      7  C   UNL     1      -3.483 -12.757  28.350  1.00  0.00     0.152 C 
ATOM      8  O   UNL     1      -3.228 -11.698  27.716  1.00  0.00    -0.295 OA
ATOM      9  C   UNL     1      -4.883 -13.278  28.356  1.00  0.00     0.093 C 
ENDBRANCH   6   7
ENDBRANCH   1   5
TORSDOF 4
ENDMDL
MODEL 9
REMARK VINA RESULT:    -3.899      1.907      3.142
REMARK INTER + INTRA:          -5.424
REMARK INTER:                  -5.112
REMARK INTRA:                  -0.312
REMARK UNBOUND:                -0.612
REMARK SMILES CCCCC=CC(C)=O
REMARK SMILES IDX 4 1 3 2 2 3 1 4 5 5 6 6 7 7 9 8 8 9
REMARK H PARENT
REMARK Flexibility Score: inf
ROOT
ATOM      1  C   UNL     1      -4.672 -13.201  28.424  1.00  0.00     0.027 C 
ENDROOT
BRANCH   1   2
ATOM      2  C   UNL     1      -3.477 -13.398  27.478  1.00  0.00     0.004 C 
BRANCH   2   3
ATOM      3  C   UNL     1      -3.679 -12.677  26.137  1.00  0.00    -0.003 C 
ATOM      4  C   UNL     1      -2.918 -11.355  26.103  1.00  0.00     0.004 C 
ENDBRANCH   2   3
ENDBRANCH   1   2
BRANCH   1   5
ATOM      5  C   UNL     1      -4.501 -12.005  29.325  1.00  0.00    -0.023 C 
ATOM      6  C   UNL     1      -3.958 -12.014  30.554  1.00  0.00     0.042 C 
BRANCH   6   7
ATOM      7  C   UNL     1      -3.469 -13.201  31.292  1.00  0.00     0.152 C 
ATOM      8  O   UNL     1      -2.253 -13.534  31.278  1.00  0.00    -0.295 OA
ATOM      9  C   UNL     1      -4.449 -14.070  32.011  1.00  0.00     0.093 C 
ENDBRANCH   6   7
ENDBRANCH   1   5
TORSDOF 4
ENDMDL
