MODEL 1
REMARK VINA RESULT:    -5.336      0.000      0.000
REMARK INTER + INTRA:          -9.041
REMARK INTER:                  -7.676
REMARK INTRA:                  -1.365
REMARK UNBOUND:                -1.365
REMARK SMILES O=C(CO)[C@@H](O)[C@@H](O)[C@H](O)CO
REMARK SMILES IDX 7 1 9 2 11 3 12 4 10 6 5 8 2 9 1 10 3 11 4 12 6 14 8 16
REMARK H PARENT 12 5 10 7 4 13 6 15 8 17
REMARK Flexibility Score: inf
ROOT
ATOM      1  C   UNL     1     -42.342  40.383  10.810  1.00  0.00     0.181 C 
ENDROOT
BRANCH   1   2
ATOM      2  C   UNL     1     -43.829  40.203  10.374  1.00  0.00     0.171 C 
BRANCH   2   3
ATOM      3  C   UNL     1     -44.795  39.877  11.529  1.00  0.00     0.190 C 
BRANCH   3   4
ATOM      4  O   UNL     1     -44.824  40.906  12.482  1.00  0.00    -0.394 OA
ATOM      5  H   UNL     1     -43.928  41.329  12.476  1.00  0.00     0.210 HD
ENDBRANCH   3   4
ENDBRANCH   2   3
BRANCH   2   6
ATOM      6  O   UNL     1     -44.279  41.344   9.685  1.00  0.00    -0.388 OA
ATOM      7  H   UNL     1     -44.941  41.805  10.262  1.00  0.00     0.211 HD
ENDBRANCH   2   6
ENDBRANCH   1   2
BRANCH   1   8
ATOM      8  C   UNL     1     -41.778  41.829  10.661  1.00  0.00     0.214 C 
BRANCH   8   9
ATOM      9  C   UNL     1     -41.987  42.664  11.906  1.00  0.00     0.189 C 
ATOM     10  O   UNL     1     -43.112  43.020  12.223  1.00  0.00    -0.294 OA
BRANCH   9  11
ATOM     11  C   UNL     1     -40.825  43.054  12.777  1.00  0.00     0.234 C 
BRANCH  11  12
ATOM     12  O   UNL     1     -40.184  41.910  13.270  1.00  0.00    -0.388 OA
ATOM     13  H   UNL     1     -39.244  42.168  13.462  1.00  0.00     0.211 HD
ENDBRANCH  11  12
ENDBRANCH   9  11
ENDBRANCH   8   9
BRANCH   8  14
ATOM     14  O   UNL     1     -40.413  41.809  10.319  1.00  0.00    -0.382 OA
ATOM     15  H   UNL     1     -39.968  41.169  10.932  1.00  0.00     0.211 HD
ENDBRANCH   8  14
ENDBRANCH   1   8
BRANCH   1  16
ATOM     16  O   UNL     1     -42.186  39.957  12.143  1.00  0.00    -0.387 OA
ATOM     17  H   UNL     1     -41.491  39.249  12.153  1.00  0.00     0.211 HD
ENDBRANCH   1  16
TORSDOF 10
ENDMDL
MODEL 2
REMARK VINA RESULT:    -4.667      1.261      3.994
REMARK INTER + INTRA:          -8.078
REMARK INTER:                  -7.522
REMARK INTRA:                  -0.556
REMARK UNBOUND:                -1.365
REMARK SMILES O=C(CO)[C@@H](O)[C@@H](O)[C@H](O)CO
REMARK SMILES IDX 7 1 9 2 11 3 12 4 10 6 5 8 2 9 1 10 3 11 4 12 6 14 8 16
REMARK H PARENT 12 5 10 7 4 13 6 15 8 17
REMARK Flexibility Score: inf
ROOT
ATOM      1  C   UNL     1     -42.262  41.000  11.595  1.00  0.00     0.181 C 
ENDROOT
BRANCH   1   2
ATOM      2  C   UNL     1     -41.450  42.300  11.302  1.00  0.00     0.171 C 
BRANCH   2   3
ATOM      3  C   UNL     1     -40.898  43.001  12.559  1.00  0.00     0.190 C 
BRANCH   3   4
ATOM      4  O   UNL     1     -40.291  42.086  13.434  1.00  0.00    -0.394 OA
ATOM      5  H   UNL     1     -40.166  41.242  12.928  1.00  0.00     0.210 HD
ENDBRANCH   3   4
ENDBRANCH   2   3
BRANCH   2   6
ATOM      6  O   UNL     1     -40.399  42.029  10.408  1.00  0.00    -0.388 OA
ATOM      7  H   UNL     1     -40.553  41.127  10.024  1.00  0.00     0.211 HD
ENDBRANCH   2   6
ENDBRANCH   1   2
BRANCH   1   8
ATOM      8  C   UNL     1     -43.093  40.453  10.394  1.00  0.00     0.214 C 
BRANCH   8   9
ATOM      9  C   UNL     1     -44.529  40.158  10.770  1.00  0.00     0.189 C 
ATOM     10  O   UNL     1     -45.345  39.876   9.905  1.00  0.00    -0.294 OA
BRANCH   9  11
ATOM     11  C   UNL     1     -44.972  40.190  12.208  1.00  0.00     0.234 C 
BRANCH  11  12
ATOM     12  O   UNL     1     -46.370  40.244  12.283  1.00  0.00    -0.388 OA
ATOM     13  H   UNL     1     -46.610  40.143  13.242  1.00  0.00     0.211 HD
ENDBRANCH  11  12
ENDBRANCH   9  11
ENDBRANCH   8   9
BRANCH   8  14
ATOM     14  O   UNL     1     -43.054  41.340   9.303  1.00  0.00    -0.382 OA
ATOM     15  H   UNL     1     -42.830  42.237   9.664  1.00  0.00     0.211 HD
ENDBRANCH   8  14
ENDBRANCH   1   8
BRANCH   1  16
ATOM     16  O   UNL     1     -41.394  39.995  12.058  1.00  0.00    -0.387 OA
ATOM     17  H   UNL     1     -41.416  39.251  11.402  1.00  0.00     0.211 HD
ENDBRANCH   1  16
TORSDOF 10
ENDMDL
MODEL 3
REMARK VINA RESULT:    -4.661      1.058      4.072
REMARK INTER + INTRA:          -8.069
REMARK INTER:                  -7.318
REMARK INTRA:                  -0.752
REMARK UNBOUND:                -1.365
REMARK SMILES O=C(CO)[C@@H](O)[C@@H](O)[C@H](O)CO
REMARK SMILES IDX 7 1 9 2 11 3 12 4 10 6 5 8 2 9 1 10 3 11 4 12 6 14 8 16
REMARK H PARENT 12 5 10 7 4 13 6 15 8 17
REMARK Flexibility Score: inf
ROOT
ATOM      1  C   UNL     1     -42.634  42.061  11.502  1.00  0.00     0.181 C 
ENDROOT
BRANCH   1   2
ATOM      2  C   UNL     1     -41.130  42.459  11.617  1.00  0.00     0.171 C 
BRANCH   2   3
ATOM      3  C   UNL     1     -40.429  41.933  12.885  1.00  0.00     0.190 C 
BRANCH   3   4
ATOM      4  O   UNL     1     -39.999  40.607  12.723  1.00  0.00    -0.394 OA
ATOM      5  H   UNL     1     -39.223  40.480  13.327  1.00  0.00     0.210 HD
ENDBRANCH   3   4
ENDBRANCH   2   3
BRANCH   2   6
ATOM      6  O   UNL     1     -40.424  42.042  10.475  1.00  0.00    -0.388 OA
ATOM      7  H   UNL     1     -39.521  42.453  10.509  1.00  0.00     0.211 HD
ENDBRANCH   2   6
ENDBRANCH   1   2
BRANCH   1   8
ATOM      8  C   UNL     1     -42.906  40.532  11.363  1.00  0.00     0.214 C 
BRANCH   8   9
ATOM      9  C   UNL     1     -44.377  40.218  11.192  1.00  0.00     0.189 C 
ATOM     10  O   UNL     1     -45.128  40.254  12.155  1.00  0.00    -0.294 OA
BRANCH   9  11
ATOM     11  C   UNL     1     -44.941  39.875   9.839  1.00  0.00     0.234 C 
BRANCH  11  12
ATOM     12  O   UNL     1     -44.538  40.826   8.892  1.00  0.00    -0.388 OA
ATOM     13  H   UNL     1     -43.751  41.296   9.274  1.00  0.00     0.211 HD
ENDBRANCH  11  12
ENDBRANCH   9  11
ENDBRANCH   8   9
BRANCH   8  14
ATOM     14  O   UNL     1     -42.170  39.979  10.299  1.00  0.00    -0.382 OA
ATOM     15  H   UNL     1     -41.955  39.043  10.548  1.00  0.00     0.211 HD
ENDBRANCH   8  14
ENDBRANCH   1   8
BRANCH   1  16
ATOM     16  O   UNL     1     -43.341  42.561  12.611  1.00  0.00    -0.387 OA
ATOM     17  H   UNL     1     -43.484  43.532  12.465  1.00  0.00     0.211 HD
ENDBRANCH   1  16
TORSDOF 10
ENDMDL
MODEL 4
REMARK VINA RESULT:    -4.594      1.184      3.846
REMARK INTER + INTRA:          -7.973
REMARK INTER:                  -7.325
REMARK INTRA:                  -0.649
REMARK UNBOUND:                -1.365
REMARK SMILES O=C(CO)[C@@H](O)[C@@H](O)[C@H](O)CO
REMARK SMILES IDX 7 1 9 2 11 3 12 4 10 6 5 8 2 9 1 10 3 11 4 12 6 14 8 16
REMARK H PARENT 12 5 10 7 4 13 6 15 8 17
REMARK Flexibility Score: inf
ROOT
ATOM      1  C   UNL     1     -41.624  41.105  11.964  1.00  0.00     0.181 C 
ENDROOT
BRANCH   1   2
ATOM      2  C   UNL     1     -41.137  42.581  12.097  1.00  0.00     0.171 C 
BRANCH   2   3
ATOM      3  C   UNL     1     -42.245  43.583  12.481  1.00  0.00     0.190 C 
BRANCH   3   4
ATOM      4  O   UNL     1     -43.070  43.075  13.496  1.00  0.00    -0.394 OA
ATOM      5  H   UNL     1     -42.858  43.583  14.321  1.00  0.00     0.210 HD
ENDBRANCH   3   4
ENDBRANCH   2   3
BRANCH   2   6
ATOM      6  O   UNL     1     -40.079  42.666  13.020  1.00  0.00    -0.388 OA
ATOM      7  H   UNL     1     -39.404  41.982  12.771  1.00  0.00     0.211 HD
ENDBRANCH   2   6
ENDBRANCH   1   2
BRANCH   1   8
ATOM      8  C   UNL     1     -42.374  40.771  10.638  1.00  0.00     0.214 C 
BRANCH   8   9
ATOM      9  C   UNL     1     -43.861  40.583  10.847  1.00  0.00     0.189 C 
ATOM     10  O   UNL     1     -44.378  40.900  11.908  1.00  0.00    -0.294 OA
BRANCH   9  11
ATOM     11  C   UNL     1     -44.728  40.020   9.753  1.00  0.00     0.234 C 
BRANCH  11  12
ATOM     12  O   UNL     1     -44.498  40.705   8.553  1.00  0.00    -0.388 OA
ATOM     13  H   UNL     1     -44.815  41.637   8.689  1.00  0.00     0.211 HD
ENDBRANCH  11  12
ENDBRANCH   9  11
ENDBRANCH   8   9
BRANCH   8  14
ATOM     14  O   UNL     1     -42.146  41.759   9.663  1.00  0.00    -0.382 OA
ATOM     15  H   UNL     1     -42.739  41.552   8.894  1.00  0.00     0.211 HD
ENDBRANCH   8  14
ENDBRANCH   1   8
BRANCH   1  16
ATOM     16  O   UNL     1     -40.530  40.232  12.113  1.00  0.00    -0.387 OA
ATOM     17  H   UNL     1     -40.773  39.369  11.691  1.00  0.00     0.211 HD
ENDBRANCH   1  16
TORSDOF 10
ENDMDL
MODEL 5
REMARK VINA RESULT:    -4.233      1.531      4.322
REMARK INTER + INTRA:          -7.454
REMARK INTER:                  -7.013
REMARK INTRA:                  -0.440
REMARK UNBOUND:                -1.365
REMARK SMILES O=C(CO)[C@@H](O)[C@@H](O)[C@H](O)CO
REMARK SMILES IDX 7 1 9 2 11 3 12 4 10 6 5 8 2 9 1 10 3 11 4 12 6 14 8 16
REMARK H PARENT 12 5 10 7 4 13 6 15 8 17
REMARK Flexibility Score: inf
ROOT
ATOM      1  C   UNL     1     -43.295  42.439  12.063  1.00  0.00     0.181 C 
ENDROOT
BRANCH   1   2
ATOM      2  C   UNL     1     -41.895  43.117  12.185  1.00  0.00     0.171 C 
BRANCH   2   3
ATOM      3  C   UNL     1     -41.944  44.636  12.444  1.00  0.00     0.190 C 
BRANCH   3   4
ATOM      4  O   UNL     1     -43.265  45.100  12.532  1.00  0.00    -0.394 OA
ATOM      5  H   UNL     1     -43.269  45.833  13.201  1.00  0.00     0.210 HD
ENDBRANCH   3   4
ENDBRANCH   2   3
BRANCH   2   6
ATOM      6  O   UNL     1     -41.132  42.489  13.186  1.00  0.00    -0.388 OA
ATOM      7  H   UNL     1     -41.706  42.395  13.990  1.00  0.00     0.211 HD
ENDBRANCH   2   6
ENDBRANCH   1   2
BRANCH   1   8
ATOM      8  C   UNL     1     -43.273  40.950  11.602  1.00  0.00     0.214 C 
BRANCH   8   9
ATOM      9  C   UNL     1     -43.441  40.806  10.105  1.00  0.00     0.189 C 
ATOM     10  O   UNL     1     -42.564  41.195   9.347  1.00  0.00    -0.294 OA
BRANCH   9  11
ATOM     11  C   UNL     1     -44.676  40.170   9.525  1.00  0.00     0.234 C 
BRANCH  11  12
ATOM     12  O   UNL     1     -44.815  40.524   8.177  1.00  0.00    -0.388 OA
ATOM     13  H   UNL     1     -45.023  41.495   8.155  1.00  0.00     0.211 HD
ENDBRANCH  11  12
ENDBRANCH   9  11
ENDBRANCH   8   9
BRANCH   8  14
ATOM     14  O   UNL     1     -42.093  40.307  12.018  1.00  0.00    -0.382 OA
ATOM     15  H   UNL     1     -42.354  39.416  12.368  1.00  0.00     0.211 HD
ENDBRANCH   8  14
ENDBRANCH   1   8
BRANCH   1  16
ATOM     16  O   UNL     1     -43.975  42.537  13.292  1.00  0.00    -0.387 OA
ATOM     17  H   UNL     1     -43.312  42.395  14.015  1.00  0.00     0.211 HD
ENDBRANCH   1  16
TORSDOF 10
ENDMDL
MODEL 6
REMARK VINA RESULT:    -4.083      1.588      4.318
REMARK INTER + INTRA:          -7.237
REMARK INTER:                  -7.015
REMARK INTRA:                  -0.222
REMARK UNBOUND:                -1.365
REMARK SMILES O=C(CO)[C@@H](O)[C@@H](O)[C@H](O)CO
REMARK SMILES IDX 7 1 9 2 11 3 12 4 10 6 5 8 2 9 1 10 3 11 4 12 6 14 8 16
REMARK H PARENT 12 5 10 7 4 13 6 15 8 17
REMARK Flexibility Score: inf
ROOT
ATOM      1  C   UNL     1     -41.540  42.772  11.998  1.00  0.00     0.181 C 
ENDROOT
BRANCH   1   2
ATOM      2  C   UNL     1     -40.831  41.711  12.897  1.00  0.00     0.171 C 
BRANCH   2   3
ATOM      3  C   UNL     1     -40.082  40.614  12.115  1.00  0.00     0.190 C 
BRANCH   3   4
ATOM      4  O   UNL     1     -39.231  39.875  12.952  1.00  0.00    -0.394 OA
ATOM      5  H   UNL     1     -38.350  40.330  12.941  1.00  0.00     0.210 HD
ENDBRANCH   3   4
ENDBRANCH   2   3
BRANCH   2   6
ATOM      6  O   UNL     1     -39.951  42.341  13.796  1.00  0.00    -0.388 OA
ATOM      7  H   UNL     1     -40.079  41.924  14.687  1.00  0.00     0.211 HD
ENDBRANCH   2   6
ENDBRANCH   1   2
BRANCH   1   8
ATOM      8  C   UNL     1     -43.096  42.686  11.973  1.00  0.00     0.214 C 
BRANCH   8   9
ATOM      9  C   UNL     1     -43.597  41.437  11.280  1.00  0.00     0.189 C 
ATOM     10  O   UNL     1     -44.428  40.725  11.822  1.00  0.00    -0.294 OA
BRANCH   9  11
ATOM     11  C   UNL     1     -43.094  41.061   9.912  1.00  0.00     0.234 C 
BRANCH  11  12
ATOM     12  O   UNL     1     -44.167  40.940   9.019  1.00  0.00    -0.388 OA
ATOM     13  H   UNL     1     -44.171  39.999   8.701  1.00  0.00     0.211 HD
ENDBRANCH  11  12
ENDBRANCH   9  11
ENDBRANCH   8   9
BRANCH   8  14
ATOM     14  O   UNL     1     -43.630  42.761  13.273  1.00  0.00    -0.382 OA
ATOM     15  H   UNL     1     -42.868  42.695  13.905  1.00  0.00     0.211 HD
ENDBRANCH   8  14
ENDBRANCH   1   8
BRANCH   1  16
ATOM     16  O   UNL     1     -41.149  44.064  12.395  1.00  0.00    -0.387 OA
ATOM     17  H   UNL     1     -40.244  43.995  12.795  1.00  0.00     0.211 HD
ENDBRANCH   1  16
TORSDOF 10
ENDMDL
MODEL 7
REMARK VINA RESULT:    -3.945      1.577      2.778
REMARK INTER + INTRA:          -7.040
REMARK INTER:                  -7.536
REMARK INTRA:                   0.496
REMARK UNBOUND:                -1.365
REMARK SMILES O=C(CO)[C@@H](O)[C@@H](O)[C@H](O)CO
REMARK SMILES IDX 7 1 9 2 11 3 12 4 10 6 5 8 2 9 1 10 3 11 4 12 6 14 8 16
REMARK H PARENT 12 5 10 7 4 13 6 15 8 17
REMARK Flexibility Score: inf
ROOT
ATOM      1  C   UNL     1     -40.726  41.348  11.606  1.00  0.00     0.181 C 
ENDROOT
BRANCH   1   2
ATOM      2  C   UNL     1     -42.234  41.071  11.317  1.00  0.00     0.171 C 
BRANCH   2   3
ATOM      3  C   UNL     1     -42.594  41.011   9.820  1.00  0.00     0.190 C 
BRANCH   3   4
ATOM      4  O   UNL     1     -43.968  41.206   9.612  1.00  0.00    -0.394 OA
ATOM      5  H   UNL     1     -44.234  40.613   8.863  1.00  0.00     0.210 HD
ENDBRANCH   3   4
ENDBRANCH   2   3
BRANCH   2   6
ATOM      6  O   UNL     1     -42.645  39.885  11.953  1.00  0.00    -0.388 OA
ATOM      7  H   UNL     1     -42.394  39.125  11.367  1.00  0.00     0.211 HD
ENDBRANCH   2   6
ENDBRANCH   1   2
BRANCH   1   8
ATOM      8  C   UNL     1     -40.444  42.543  12.566  1.00  0.00     0.214 C 
BRANCH   8   9
ATOM      9  C   UNL     1     -41.459  43.656  12.420  1.00  0.00     0.189 C 
ATOM     10  O   UNL     1     -41.111  44.757  12.021  1.00  0.00    -0.294 OA
BRANCH   9  11
ATOM     11  C   UNL     1     -42.910  43.424  12.746  1.00  0.00     0.234 C 
BRANCH  11  12
ATOM     12  O   UNL     1     -43.689  44.487  12.270  1.00  0.00    -0.388 OA
ATOM     13  H   UNL     1     -43.060  45.213  12.017  1.00  0.00     0.211 HD
ENDBRANCH  11  12
ENDBRANCH   9  11
ENDBRANCH   8   9
BRANCH   8  14
ATOM     14  O   UNL     1     -40.387  42.117  13.906  1.00  0.00    -0.382 OA
ATOM     15  H   UNL     1     -39.477  42.328  14.241  1.00  0.00     0.211 HD
ENDBRANCH   8  14
ENDBRANCH   1   8
BRANCH   1  16
ATOM     16  O   UNL     1     -40.122  40.185  12.117  1.00  0.00    -0.387 OA
ATOM     17  H   UNL     1     -39.219  40.433  12.444  1.00  0.00     0.211 HD
ENDBRANCH   1  16
TORSDOF 10
ENDMDL
