MODEL 1
REMARK VINA RESULT:    -4.268      0.000      0.000
REMARK INTER + INTRA:          -4.416
REMARK INTER:                  -5.266
REMARK INTRA:                   0.850
REMARK UNBOUND:                 0.850
REMARK SMILES CC1=CC=CC(C)(C)CC1=O
REMARK SMILES IDX 1 1 2 2 3 3 10 4 11 5 9 6 4 8 5 9 6 10 7 11 8 12
REMARK H PARENT
REMARK Flexibility Score: 80.00
ROOT
ATOM      1  C   UNL     1      13.920 -16.273 -26.537  1.00  0.00     0.048 C 
ATOM      2  C   UNL     1      13.122 -16.637 -27.769  1.00  0.00    -0.008 C 
ATOM      3  C   UNL     1      13.630 -16.297 -28.973  1.00  0.00     0.007 C 
ENDROOT
BRANCH   2   4
ATOM      4  C   UNL     1      11.808 -17.298 -27.542  1.00  0.00     0.159 C 
ATOM      5  O   UNL     1      11.477 -17.593 -26.361  1.00  0.00    -0.295 OA
BRANCH   4   6
ATOM      6  C   UNL     1      10.822 -17.604 -28.630  1.00  0.00     0.091 CG0
ATOM      7  G   UNL     1      11.425 -18.382 -29.822  1.00  0.00     0.000 G0
ENDBRANCH   4   6
ENDBRANCH   2   4
BRANCH   3   8
ATOM      8  C   UNL     1      13.085 -16.530 -30.329  1.00  0.00    -0.003 C 
ATOM      9  C   UNL     1      12.171 -17.426 -30.719  1.00  0.00    -0.020 C 
BRANCH   9  10
ATOM     10  C   UNL     1      11.421 -18.381 -29.823  1.00  0.00    -0.010 CG0
ATOM     11  C   UNL     1      10.247 -18.982 -30.630  1.00  0.00     0.016 C 
ATOM     12  C   UNL     1      12.342 -19.544 -29.387  1.00  0.00     0.016 C 
ATOM     13  G   UNL     1      10.831 -17.605 -28.624  1.00  0.00     0.000 G0
ENDBRANCH   9  10
ENDBRANCH   3   8
TORSDOF 0
ENDMDL
MODEL 2
REMARK VINA RESULT:    -4.245      1.732      2.609
REMARK INTER + INTRA:          -4.388
REMARK INTER:                  -5.232
REMARK INTRA:                   0.845
REMARK UNBOUND:                 0.850
REMARK SMILES CC1=CC=CC(C)(C)CC1=O
REMARK SMILES IDX 1 1 2 2 3 3 10 4 11 5 9 6 4 8 5 9 6 10 7 11 8 12
REMARK H PARENT
REMARK Flexibility Score: 80.00
ROOT
ATOM      1  C   UNL     1      14.215 -14.872 -28.065  1.00  0.00     0.048 C 
ATOM      2  C   UNL     1      13.329 -16.071 -28.316  1.00  0.00    -0.008 C 
ATOM      3  C   UNL     1      12.582 -16.530 -27.289  1.00  0.00     0.007 C 
ENDROOT
BRANCH   2   4
ATOM      4  C   UNL     1      13.399 -16.681 -29.671  1.00  0.00     0.159 C 
ATOM      5  O   UNL     1      14.116 -16.123 -30.547  1.00  0.00    -0.295 OA
BRANCH   4   6
ATOM      6  C   UNL     1      12.700 -17.950 -30.059  1.00  0.00     0.091 CG0
ATOM      7  G   UNL     1      11.188 -17.955 -29.738  1.00  0.00     0.000 G0
ENDBRANCH   4   6
ENDBRANCH   2   4
BRANCH   3   8
ATOM      8  C   UNL     1      11.629 -17.661 -27.243  1.00  0.00    -0.003 C 
ATOM      9  C   UNL     1      11.004 -18.267 -28.259  1.00  0.00    -0.020 C 
BRANCH   9  10
ATOM     10  C   UNL     1      11.189 -17.965 -29.727  1.00  0.00    -0.010 CG0
ATOM     11  C   UNL     1      10.539 -19.106 -30.542  1.00  0.00     0.016 C 
ATOM     12  C   UNL     1      10.473 -16.647 -30.099  1.00  0.00     0.016 C 
ATOM     13  G   UNL     1      12.699 -17.939 -30.059  1.00  0.00     0.000 G0
ENDBRANCH   9  10
ENDBRANCH   3   8
TORSDOF 0
ENDMDL
MODEL 3
REMARK VINA RESULT:    -4.197      2.033      3.745
REMARK INTER + INTRA:          -4.328
REMARK INTER:                  -5.186
REMARK INTRA:                   0.857
REMARK UNBOUND:                 0.850
REMARK SMILES CC1=CC=CC(C)(C)CC1=O
REMARK SMILES IDX 1 1 2 2 3 3 10 4 11 5 9 6 4 8 5 9 6 10 7 11 8 12
REMARK H PARENT
REMARK Flexibility Score: 80.00
ROOT
ATOM      1  C   UNL     1      12.584 -20.606 -31.460  1.00  0.00     0.048 C 
ATOM      2  C   UNL     1      13.033 -19.428 -30.626  1.00  0.00    -0.008 C 
ATOM      3  C   UNL     1      13.042 -18.210 -31.209  1.00  0.00     0.007 C 
ENDROOT
BRANCH   2   4
ATOM      4  C   UNL     1      13.482 -19.724 -29.239  1.00  0.00     0.159 C 
ATOM      5  O   UNL     1      13.365 -20.903 -28.806  1.00  0.00    -0.295 OA
BRANCH   4   6
ATOM      6  C   UNL     1      14.106 -18.712 -28.324  1.00  0.00     0.091 CG0
ATOM      7  G   UNL     1      13.283 -17.413 -28.170  1.00  0.00     0.000 G0
ENDBRANCH   4   6
ENDBRANCH   2   4
BRANCH   3   8
ATOM      8  C   UNL     1      13.416 -16.894 -30.645  1.00  0.00    -0.003 C 
ATOM      9  C   UNL     1      13.494 -16.528 -29.360  1.00  0.00    -0.020 C 
BRANCH   9  10
ATOM     10  C   UNL     1      13.277 -17.424 -28.164  1.00  0.00    -0.010 CG0
ATOM     11  C   UNL     1      13.789 -16.685 -26.907  1.00  0.00     0.016 C 
ATOM     12  C   UNL     1      11.770 -17.704 -27.970  1.00  0.00     0.016 C 
ATOM     13  G   UNL     1      14.108 -18.716 -28.333  1.00  0.00     0.000 G0
ENDBRANCH   9  10
ENDBRANCH   3   8
TORSDOF 0
ENDMDL
MODEL 4
REMARK VINA RESULT:    -4.125      1.849      3.226
REMARK INTER + INTRA:          -4.239
REMARK INTER:                  -5.092
REMARK INTRA:                   0.853
REMARK UNBOUND:                 0.850
REMARK SMILES CC1=CC=CC(C)(C)CC1=O
REMARK SMILES IDX 1 1 2 2 3 3 10 4 11 5 9 6 4 8 5 9 6 10 7 11 8 12
REMARK H PARENT
REMARK Flexibility Score: 80.00
ROOT
ATOM      1  C   UNL     1      13.708 -17.909 -32.214  1.00  0.00     0.048 C 
ATOM      2  C   UNL     1      13.371 -17.699 -30.756  1.00  0.00    -0.008 C 
ATOM      3  C   UNL     1      13.703 -16.516 -30.195  1.00  0.00     0.007 C 
ENDROOT
BRANCH   2   4
ATOM      4  C   UNL     1      12.744 -18.845 -30.043  1.00  0.00     0.159 C 
ATOM      5  O   UNL     1      12.449 -19.878 -30.705  1.00  0.00    -0.295 OA
BRANCH   4   6
ATOM      6  C   UNL     1      12.473 -18.871 -28.568  1.00  0.00     0.091 CG0
ATOM      7  G   UNL     1      11.671 -17.653 -28.056  1.00  0.00     0.000 G0
ENDBRANCH   4   6
ENDBRANCH   2   4
BRANCH   3   8
ATOM      8  C   UNL     1      13.491 -16.031 -28.813  1.00  0.00    -0.003 C 
ATOM      9  C   UNL     1      12.622 -16.474 -27.898  1.00  0.00    -0.020 C 
BRANCH   9  10
ATOM     10  C   UNL     1      11.683 -17.646 -28.054  1.00  0.00    -0.010 CG0
ATOM     11  C   UNL     1      11.115 -18.000 -26.660  1.00  0.00     0.016 C 
ATOM     12  C   UNL     1      10.497 -17.265 -28.968  1.00  0.00     0.016 C 
ATOM     13  G   UNL     1      12.471 -18.869 -28.575  1.00  0.00     0.000 G0
ENDBRANCH   9  10
ENDBRANCH   3   8
TORSDOF 0
ENDMDL
MODEL 5
REMARK VINA RESULT:    -3.963      1.694      2.198
REMARK INTER + INTRA:          -4.040
REMARK INTER:                  -4.883
REMARK INTRA:                   0.843
REMARK UNBOUND:                 0.850
REMARK SMILES CC1=CC=CC(C)(C)CC1=O
REMARK SMILES IDX 1 1 2 2 3 3 10 4 11 5 9 6 4 8 5 9 6 10 7 11 8 12
REMARK H PARENT
REMARK Flexibility Score: 80.00
ROOT
ATOM      1  C   UNL     1      13.972 -16.776 -26.953  1.00  0.00     0.048 C 
ATOM      2  C   UNL     1      13.046 -17.134 -28.094  1.00  0.00    -0.008 C 
ATOM      3  C   UNL     1      12.003 -16.312 -28.340  1.00  0.00     0.007 C 
ENDROOT
BRANCH   2   4
ATOM      4  C   UNL     1      13.336 -18.401 -28.818  1.00  0.00     0.159 C 
ATOM      5  O   UNL     1      14.365 -19.057 -28.496  1.00  0.00    -0.295 OA
BRANCH   4   6
ATOM      6  C   UNL     1      12.458 -18.977 -29.888  1.00  0.00     0.091 CG0
ATOM      7  G   UNL     1      12.078 -17.970 -30.997  1.00  0.00     0.000 G0
ENDBRANCH   4   6
ENDBRANCH   2   4
BRANCH   3   8
ATOM      8  C   UNL     1      10.954 -16.401 -29.381  1.00  0.00    -0.003 C 
ATOM      9  C   UNL     1      10.979 -17.078 -30.535  1.00  0.00    -0.020 C 
BRANCH   9  10
ATOM     10  C   UNL     1      12.089 -17.982 -31.014  1.00  0.00    -0.010 CG0
ATOM     11  C   UNL     1      11.560 -18.806 -32.210  1.00  0.00     0.016 C 
ATOM     12  C   UNL     1      13.289 -17.142 -31.510  1.00  0.00     0.016 C 
ATOM     13  G   UNL     1      12.474 -18.965 -29.886  1.00  0.00     0.000 G0
ENDBRANCH   9  10
ENDBRANCH   3   8
TORSDOF 0
ENDMDL
MODEL 6
REMARK VINA RESULT:    -3.887      1.501      2.084
REMARK INTER + INTRA:          -3.945
REMARK INTER:                  -4.790
REMARK INTRA:                   0.845
REMARK UNBOUND:                 0.850
REMARK SMILES CC1=CC=CC(C)(C)CC1=O
REMARK SMILES IDX 1 1 2 2 3 3 10 4 11 5 9 6 4 8 5 9 6 10 7 11 8 12
REMARK H PARENT
REMARK Flexibility Score: 80.00
ROOT
ATOM      1  C   UNL     1      11.520 -17.494 -26.597  1.00  0.00     0.048 C 
ATOM      2  C   UNL     1      11.933 -17.114 -28.000  1.00  0.00    -0.008 C 
ATOM      3  C   UNL     1      13.118 -16.486 -28.161  1.00  0.00     0.007 C 
ENDROOT
BRANCH   2   4
ATOM      4  C   UNL     1      10.964 -17.418 -29.088  1.00  0.00     0.159 C 
ATOM      5  O   UNL     1       9.909 -18.045 -28.797  1.00  0.00    -0.295 OA
BRANCH   4   6
ATOM      6  C   UNL     1      11.140 -16.991 -30.515  1.00  0.00     0.091 CG0
ATOM      7  G   UNL     1      12.510 -17.376 -31.119  1.00  0.00     0.000 G0
ENDBRANCH   4   6
ENDBRANCH   2   4
BRANCH   3   8
ATOM      8  C   UNL     1      13.777 -16.012 -29.398  1.00  0.00    -0.003 C 
ATOM      9  C   UNL     1      13.554 -16.392 -30.661  1.00  0.00    -0.020 C 
BRANCH   9  10
ATOM     10  C   UNL     1      12.502 -17.371 -31.125  1.00  0.00    -0.010 CG0
ATOM     11  C   UNL     1      12.374 -17.253 -32.660  1.00  0.00     0.016 C 
ATOM     12  C   UNL     1      12.932 -18.818 -30.793  1.00  0.00     0.016 C 
ATOM     13  G   UNL     1      11.139 -16.994 -30.499  1.00  0.00     0.000 G0
ENDBRANCH   9  10
ENDBRANCH   3   8
TORSDOF 0
ENDMDL
MODEL 7
REMARK VINA RESULT:    -3.881      1.933      2.903
REMARK INTER + INTRA:          -3.938
REMARK INTER:                  -4.798
REMARK INTRA:                   0.859
REMARK UNBOUND:                 0.850
REMARK SMILES CC1=CC=CC(C)(C)CC1=O
REMARK SMILES IDX 1 1 2 2 3 3 10 4 11 5 9 6 4 8 5 9 6 10 7 11 8 12
REMARK H PARENT
REMARK Flexibility Score: 80.00
ROOT
ATOM      1  C   UNL     1      14.165 -20.243 -28.781  1.00  0.00     0.048 C 
ATOM      2  C   UNL     1      13.344 -19.460 -29.781  1.00  0.00    -0.008 C 
ATOM      3  C   UNL     1      13.014 -20.067 -30.940  1.00  0.00     0.007 C 
ENDROOT
BRANCH   2   4
ATOM      4  C   UNL     1      13.015 -18.054 -29.418  1.00  0.00     0.159 C 
ATOM      5  O   UNL     1      13.372 -17.624 -28.288  1.00  0.00    -0.295 OA
BRANCH   4   6
ATOM      6  C   UNL     1      12.315 -17.093 -30.332  1.00  0.00     0.091 CG0
ATOM      7  G   UNL     1      11.003 -17.644 -30.935  1.00  0.00     0.000 G0
ENDBRANCH   4   6
ENDBRANCH   2   4
BRANCH   3   8
ATOM      8  C   UNL     1      12.222 -19.559 -32.083  1.00  0.00    -0.003 C 
ATOM      9  C   UNL     1      11.340 -18.553 -32.104  1.00  0.00    -0.020 C 
BRANCH   9  10
ATOM     10  C   UNL     1      10.996 -17.644 -30.949  1.00  0.00    -0.010 CG0
ATOM     11  C   UNL     1      10.187 -16.447 -31.499  1.00  0.00     0.016 C 
ATOM     12  C   UNL     1      10.108 -18.388 -29.926  1.00  0.00     0.016 C 
ATOM     13  G   UNL     1      12.298 -17.096 -30.322  1.00  0.00     0.000 G0
ENDBRANCH   9  10
ENDBRANCH   3   8
TORSDOF 0
ENDMDL
MODEL 8
REMARK VINA RESULT:    -3.708      2.188      3.283
REMARK INTER + INTRA:          -3.725
REMARK INTER:                  -4.591
REMARK INTRA:                   0.866
REMARK UNBOUND:                 0.850
REMARK SMILES CC1=CC=CC(C)(C)CC1=O
REMARK SMILES IDX 1 1 2 2 3 3 10 4 11 5 9 6 4 8 5 9 6 10 7 11 8 12
REMARK H PARENT
REMARK Flexibility Score: 80.00
ROOT
ATOM      1  C   UNL     1       9.563 -15.257 -29.923  1.00  0.00     0.048 C 
ATOM      2  C   UNL     1      10.727 -16.206 -29.746  1.00  0.00    -0.008 C 
ATOM      3  C   UNL     1      11.209 -16.387 -28.497  1.00  0.00     0.007 C 
ENDROOT
BRANCH   2   4
ATOM      4  C   UNL     1      11.282 -16.821 -30.982  1.00  0.00     0.159 C 
ATOM      5  O   UNL     1      10.689 -16.615 -32.076  1.00  0.00    -0.295 OA
BRANCH   4   6
ATOM      6  C   UNL     1      12.533 -17.647 -31.021  1.00  0.00     0.091 CG0
ATOM      7  G   UNL     1      12.543 -18.820 -30.015  1.00  0.00     0.000 G0
ENDBRANCH   4   6
ENDBRANCH   2   4
BRANCH   3   8
ATOM      8  C   UNL     1      12.316 -17.249 -28.026  1.00  0.00    -0.003 C 
ATOM      9  C   UNL     1      12.873 -18.300 -28.638  1.00  0.00    -0.020 C 
BRANCH   9  10
ATOM     10  C   UNL     1      12.531 -18.814 -30.016  1.00  0.00    -0.010 CG0
ATOM     11  C   UNL     1      13.626 -19.818 -30.443  1.00  0.00     0.016 C 
ATOM     12  C   UNL     1      11.181 -19.566 -29.988  1.00  0.00     0.016 C 
ATOM     13  G   UNL     1      12.540 -17.638 -31.019  1.00  0.00     0.000 G0
ENDBRANCH   9  10
ENDBRANCH   3   8
TORSDOF 0
ENDMDL
MODEL 9
REMARK VINA RESULT:    -3.702      2.112      3.035
REMARK INTER + INTRA:          -3.718
REMARK INTER:                  -4.563
REMARK INTRA:                   0.845
REMARK UNBOUND:                 0.850
REMARK SMILES CC1=CC=CC(C)(C)CC1=O
REMARK SMILES IDX 1 1 2 2 3 3 10 4 11 5 9 6 4 8 5 9 6 10 7 11 8 12
REMARK H PARENT
REMARK Flexibility Score: 80.00
ROOT
ATOM      1  C   UNL     1      14.090 -20.200 -28.934  1.00  0.00     0.048 C 
ATOM      2  C   UNL     1      13.003 -19.183 -29.199  1.00  0.00    -0.008 C 
ATOM      3  C   UNL     1      12.938 -18.103 -28.390  1.00  0.00     0.007 C 
ENDROOT
BRANCH   2   4
ATOM      4  C   UNL     1      12.056 -19.491 -30.305  1.00  0.00     0.159 C 
ATOM      5  O   UNL     1      12.259 -20.521 -31.004  1.00  0.00    -0.295 OA
BRANCH   4   6
ATOM      6  C   UNL     1      10.841 -18.671 -30.624  1.00  0.00     0.091 CG0
ATOM      7  G   UNL     1      11.128 -17.160 -30.780  1.00  0.00     0.000 G0
ENDBRANCH   4   6
ENDBRANCH   2   4
BRANCH   3   8
ATOM      8  C   UNL     1      12.002 -16.957 -28.416  1.00  0.00    -0.003 C 
ATOM      9  C   UNL     1      11.244 -16.522 -29.429  1.00  0.00    -0.020 C 
BRANCH   9  10
ATOM     10  C   UNL     1      11.120 -17.163 -30.790  1.00  0.00    -0.010 CG0
ATOM     11  C   UNL     1       9.903 -16.539 -31.510  1.00  0.00     0.016 C 
ATOM     12  C   UNL     1      12.378 -16.869 -31.638  1.00  0.00     0.016 C 
ATOM     13  G   UNL     1      10.853 -18.677 -30.621  1.00  0.00     0.000 G0
ENDBRANCH   9  10
ENDBRANCH   3   8
TORSDOF 0
ENDMDL
