MODEL 1
REMARK VINA RESULT:    -7.375      0.000      0.000
REMARK INTER + INTRA:         -10.684
REMARK INTER:                  -9.746
REMARK INTRA:                  -0.938
REMARK UNBOUND:                -0.938
REMARK SMILES CC[C@@H](C=C[C@@H](C)[C@@H]1CC[C@H]2C3=CC[C@@H]4C[C@H](O)CC[C@]4(C)[C@@H]3CC[C@]21C)C(C)C
REMARK SMILES IDX 6 1 7 2 5 3 4 4 3 5 2 6 1 7 28 8 29 9 30 10 8 11 9 12 26 13
REMARK SMILES IDX 10 14 11 15 25 16 27 17 12 18 24 19 23 20 13 21 21 22 14 23
REMARK SMILES IDX 15 24 20 25 22 26 16 27 19 28 17 29 18 30
REMARK H PARENT 18 31
REMARK Flexibility Score: inf
ROOT
ATOM      1  C   UNL     1      11.062  -9.617  25.878  1.00  0.00     0.012 C 
ATOM      2  C   UNL     1      10.936  -8.406  24.934  1.00  0.00     0.012 C 
ENDROOT
BRANCH   1   3
ATOM      3  C   UNL     1      10.597  -9.231  27.269  1.00  0.00    -0.028 C 
ATOM      4  C   UNL     1       9.541  -8.431  27.496  1.00  0.00    -0.027 C 
BRANCH   4   5
ATOM      5  C   UNL     1       9.083  -8.115  28.907  1.00  0.00     0.014 C 
BRANCH   5   6
ATOM      6  C   UNL     1       9.473  -9.238  29.914  1.00  0.00     0.004 C 
ATOM      7  C   UNL     1       9.841  -8.772  31.332  1.00  0.00     0.004 C 
ENDBRANCH   5   6
BRANCH   5   8
ATOM      8  C   UNL     1       7.592  -7.657  28.941  1.00  0.00    -0.011 C 
ATOM      9  C   UNL     1       7.183  -6.720  27.792  1.00  0.00     0.008 C 
ATOM     10  C   UNL     1       6.620  -8.847  29.024  1.00  0.00     0.008 C 
ENDBRANCH   5   8
ENDBRANCH   4   5
ENDBRANCH   1   3
BRANCH   1  11
ATOM     11  C   UNL     1      12.471 -10.312  25.907  1.00  0.00     0.002 C 
ATOM     12  C   UNL     1      13.641  -9.496  25.371  1.00  0.00     0.005 C 
ATOM     13  C   UNL     1      12.604 -11.713  25.214  1.00  0.00    -0.023 C 
ATOM     14  C   UNL     1      14.771 -10.503  25.303  1.00  0.00     0.009 C 
ATOM     15  C   UNL     1      14.127 -11.823  24.845  1.00  0.00     0.021 C 
ATOM     16  C   UNL     1      12.135 -12.818  26.202  1.00  0.00     0.008 C 
ATOM     17  C   UNL     1      11.778 -11.802  23.901  1.00  0.00     0.012 C 
ATOM     18  C   UNL     1      14.883 -13.050  25.368  1.00  0.00    -0.067 C 
ATOM     19  C   UNL     1      12.651 -14.197  25.808  1.00  0.00     0.009 C 
ATOM     20  C   UNL     1      14.185 -14.271  25.954  1.00  0.00     0.021 C 
ATOM     21  C   UNL     1      16.220 -13.106  25.199  1.00  0.00    -0.027 C 
ATOM     22  C   UNL     1      14.815 -15.599  25.377  1.00  0.00    -0.023 C 
ATOM     23  C   UNL     1      17.054 -14.233  25.738  1.00  0.00     0.031 C 
ATOM     24  C   UNL     1      16.344 -15.621  25.764  1.00  0.00     0.002 C 
ATOM     25  C   UNL     1      14.620 -15.677  23.826  1.00  0.00     0.010 C 
ATOM     26  C   UNL     1      14.114 -16.820  26.035  1.00  0.00     0.012 C 
ATOM     27  C   UNL     1      17.160 -16.705  25.013  1.00  0.00     0.036 C 
ATOM     28  C   UNL     1      15.424 -16.802  23.158  1.00  0.00     0.032 C 
ATOM     29  C   UNL     1      16.922 -16.744  23.496  1.00  0.00     0.114 C 
BRANCH  29  30
ATOM     30  O   UNL     1      17.578 -15.693  22.830  1.00  0.00    -0.393 OA
ATOM     31  H   UNL     1      16.937 -15.258  22.215  1.00  0.00     0.210 HD
ENDBRANCH  29  30
ENDBRANCH   1  11
TORSDOF 6
ENDMDL
MODEL 2
REMARK VINA RESULT:    -6.877      2.861      4.795
REMARK INTER + INTRA:         -10.026
REMARK INTER:                  -9.120
REMARK INTRA:                  -0.906
REMARK UNBOUND:                -0.938
REMARK SMILES CC[C@@H](C=C[C@@H](C)[C@@H]1CC[C@H]2C3=CC[C@@H]4C[C@H](O)CC[C@]4(C)[C@@H]3CC[C@]21C)C(C)C
REMARK SMILES IDX 6 1 7 2 5 3 4 4 3 5 2 6 1 7 28 8 29 9 30 10 8 11 9 12 26 13
REMARK SMILES IDX 10 14 11 15 25 16 27 17 12 18 24 19 23 20 13 21 21 22 14 23
REMARK SMILES IDX 15 24 20 25 22 26 16 27 19 28 17 29 18 30
REMARK H PARENT 18 31
REMARK Flexibility Score: inf
ROOT
ATOM      1  C   UNL     1      10.155  -6.991  25.324  1.00  0.00     0.012 C 
ATOM      2  C   UNL     1       9.908  -5.891  26.374  1.00  0.00     0.012 C 
ENDROOT
BRANCH   1   3
ATOM      3  C   UNL     1       9.020  -7.002  24.319  1.00  0.00    -0.028 C 
ATOM      4  C   UNL     1       8.257  -5.927  24.059  1.00  0.00    -0.027 C 
BRANCH   4   5
ATOM      5  C   UNL     1       7.165  -5.973  23.007  1.00  0.00     0.014 C 
BRANCH   5   6
ATOM      6  C   UNL     1       7.730  -5.769  21.569  1.00  0.00     0.004 C 
ATOM      7  C   UNL     1       7.979  -7.050  20.756  1.00  0.00     0.004 C 
ENDBRANCH   5   6
BRANCH   5   8
ATOM      8  C   UNL     1       5.950  -5.075  23.396  1.00  0.00    -0.011 C 
ATOM      9  C   UNL     1       5.412  -4.196  22.255  1.00  0.00     0.008 C 
ATOM     10  C   UNL     1       4.804  -5.888  24.023  1.00  0.00     0.008 C 
ENDBRANCH   5   8
ENDBRANCH   4   5
ENDBRANCH   1   3
BRANCH   1  11
ATOM     11  C   UNL     1      10.439  -8.426  25.898  1.00  0.00     0.002 C 
ATOM     12  C   UNL     1      10.585  -8.535  27.412  1.00  0.00     0.005 C 
ATOM     13  C   UNL     1      11.666  -9.211  25.317  1.00  0.00    -0.023 C 
ATOM     14  C   UNL     1      11.087  -9.949  27.616  1.00  0.00     0.009 C 
ATOM     15  C   UNL     1      12.061 -10.219  26.456  1.00  0.00     0.021 C 
ATOM     16  C   UNL     1      11.242  -9.917  23.998  1.00  0.00     0.008 C 
ATOM     17  C   UNL     1      12.883  -8.285  25.045  1.00  0.00     0.012 C 
ATOM     18  C   UNL     1      12.120 -11.704  26.081  1.00  0.00    -0.067 C 
ATOM     19  C   UNL     1      12.193 -11.047  23.620  1.00  0.00     0.009 C 
ATOM     20  C   UNL     1      12.106 -12.202  24.641  1.00  0.00     0.021 C 
ATOM     21  C   UNL     1      12.308 -12.611  27.062  1.00  0.00    -0.027 C 
ATOM     22  C   UNL     1      13.201 -13.319  24.430  1.00  0.00    -0.023 C 
ATOM     23  C   UNL     1      12.310 -14.091  26.802  1.00  0.00     0.031 C 
ATOM     24  C   UNL     1      12.874 -14.512  25.409  1.00  0.00     0.002 C 
ATOM     25  C   UNL     1      14.635 -12.747  24.691  1.00  0.00     0.010 C 
ATOM     26  C   UNL     1      13.123 -13.836  22.968  1.00  0.00     0.012 C 
ATOM     27  C   UNL     1      14.024 -15.545  25.537  1.00  0.00     0.036 C 
ATOM     28  C   UNL     1      15.727 -13.824  24.760  1.00  0.00     0.032 C 
ATOM     29  C   UNL     1      15.411 -14.927  25.781  1.00  0.00     0.114 C 
BRANCH  29  30
ATOM     30  O   UNL     1      15.569 -14.487  27.107  1.00  0.00    -0.393 OA
ATOM     31  H   UNL     1      14.748 -14.009  27.383  1.00  0.00     0.210 HD
ENDBRANCH  29  30
ENDBRANCH   1  11
TORSDOF 6
ENDMDL
MODEL 3
REMARK VINA RESULT:    -6.578      3.261      5.134
REMARK INTER + INTRA:          -9.631
REMARK INTER:                  -9.804
REMARK INTRA:                   0.173
REMARK UNBOUND:                -0.938
REMARK SMILES CC[C@@H](C=C[C@@H](C)[C@@H]1CC[C@H]2C3=CC[C@@H]4C[C@H](O)CC[C@]4(C)[C@@H]3CC[C@]21C)C(C)C
REMARK SMILES IDX 6 1 7 2 5 3 4 4 3 5 2 6 1 7 28 8 29 9 30 10 8 11 9 12 26 13
REMARK SMILES IDX 10 14 11 15 25 16 27 17 12 18 24 19 23 20 13 21 21 22 14 23
REMARK SMILES IDX 15 24 20 25 22 26 16 27 19 28 17 29 18 30
REMARK H PARENT 18 31
REMARK Flexibility Score: inf
ROOT
ATOM      1  C   UNL     1       9.955  -6.417  26.152  1.00  0.00     0.012 C 
ATOM      2  C   UNL     1       9.041  -6.190  24.933  1.00  0.00     0.012 C 
ENDROOT
BRANCH   1   3
ATOM      3  C   UNL     1      11.239  -5.629  25.982  1.00  0.00    -0.028 C 
ATOM      4  C   UNL     1      11.264  -4.330  25.637  1.00  0.00    -0.027 C 
BRANCH   4   5
ATOM      5  C   UNL     1      12.573  -3.571  25.529  1.00  0.00     0.014 C 
BRANCH   5   6
ATOM      6  C   UNL     1      13.752  -4.337  26.201  1.00  0.00     0.004 C 
ATOM      7  C   UNL     1      15.162  -3.953  25.724  1.00  0.00     0.004 C 
ENDBRANCH   5   6
BRANCH   5   8
ATOM      8  C   UNL     1      12.408  -2.075  25.943  1.00  0.00    -0.011 C 
ATOM      9  C   UNL     1      11.025  -1.475  25.641  1.00  0.00     0.008 C 
ATOM     10  C   UNL     1      12.779  -1.837  27.417  1.00  0.00     0.008 C 
ENDBRANCH   5   8
ENDBRANCH   4   5
ENDBRANCH   1   3
BRANCH   1  11
ATOM     11  C   UNL     1      10.238  -7.919  26.518  1.00  0.00     0.002 C 
ATOM     12  C   UNL     1      10.408  -8.237  27.999  1.00  0.00     0.005 C 
ATOM     13  C   UNL     1      11.448  -8.623  25.813  1.00  0.00    -0.023 C 
ATOM     14  C   UNL     1      10.903  -9.668  27.998  1.00  0.00     0.009 C 
ATOM     15  C   UNL     1      11.854  -9.781  26.794  1.00  0.00     0.021 C 
ATOM     16  C   UNL     1      10.996  -9.138  24.417  1.00  0.00     0.008 C 
ATOM     17  C   UNL     1      12.668  -7.675  25.649  1.00  0.00     0.012 C 
ATOM     18  C   UNL     1      11.895 -11.200  26.217  1.00  0.00    -0.067 C 
ATOM     19  C   UNL     1      11.932 -10.211  23.870  1.00  0.00     0.009 C 
ATOM     20  C   UNL     1      11.853 -11.494  24.723  1.00  0.00     0.021 C 
ATOM     21  C   UNL     1      12.093 -12.234  27.060  1.00  0.00    -0.027 C 
ATOM     22  C   UNL     1      12.936 -12.577  24.341  1.00  0.00    -0.023 C 
ATOM     23  C   UNL     1      12.080 -13.665  26.598  1.00  0.00     0.031 C 
ATOM     24  C   UNL     1      12.617 -13.892  25.151  1.00  0.00     0.002 C 
ATOM     25  C   UNL     1      14.379 -12.055  24.651  1.00  0.00     0.010 C 
ATOM     26  C   UNL     1      12.829 -12.888  22.822  1.00  0.00     0.012 C 
ATOM     27  C   UNL     1      13.760 -14.939  25.115  1.00  0.00     0.036 C 
ATOM     28  C   UNL     1      15.463 -13.137  24.552  1.00  0.00     0.032 C 
ATOM     29  C   UNL     1      15.155 -14.369  25.416  1.00  0.00     0.114 C 
BRANCH  29  30
ATOM     30  O   UNL     1      15.339 -14.117  26.788  1.00  0.00    -0.393 OA
ATOM     31  H   UNL     1      14.843 -14.798  27.305  1.00  0.00     0.210 HD
ENDBRANCH  29  30
ENDBRANCH   1  11
TORSDOF 6
ENDMDL
MODEL 4
REMARK VINA RESULT:    -6.254      4.618      8.577
REMARK INTER + INTRA:          -9.204
REMARK INTER:                  -7.699
REMARK INTRA:                  -1.505
REMARK UNBOUND:                -0.938
REMARK SMILES CC[C@@H](C=C[C@@H](C)[C@@H]1CC[C@H]2C3=CC[C@@H]4C[C@H](O)CC[C@]4(C)[C@@H]3CC[C@]21C)C(C)C
REMARK SMILES IDX 6 1 7 2 5 3 4 4 3 5 2 6 1 7 28 8 29 9 30 10 8 11 9 12 26 13
REMARK SMILES IDX 10 14 11 15 25 16 27 17 12 18 24 19 23 20 13 21 21 22 14 23
REMARK SMILES IDX 15 24 20 25 22 26 16 27 19 28 17 29 18 30
REMARK H PARENT 18 31
REMARK Flexibility Score: inf
ROOT
ATOM      1  C   UNL     1      19.361  -9.010  22.663  1.00  0.00     0.012 C 
ATOM      2  C   UNL     1      19.996  -7.693  23.148  1.00  0.00     0.012 C 
ENDROOT
BRANCH   1   3
ATOM      3  C   UNL     1      19.535  -9.138  21.162  1.00  0.00    -0.028 C 
ATOM      4  C   UNL     1      18.503  -9.224  20.306  1.00  0.00    -0.027 C 
BRANCH   4   5
ATOM      5  C   UNL     1      18.727  -9.298  18.808  1.00  0.00     0.014 C 
BRANCH   5   6
ATOM      6  C   UNL     1      18.036  -8.123  18.054  1.00  0.00     0.004 C 
ATOM      7  C   UNL     1      17.212  -7.158  18.922  1.00  0.00     0.004 C 
ENDBRANCH   5   6
BRANCH   5   8
ATOM      8  C   UNL     1      18.440 -10.728  18.252  1.00  0.00    -0.011 C 
ATOM      9  C   UNL     1      19.566 -11.747  18.490  1.00  0.00     0.008 C 
ATOM     10  C   UNL     1      17.101 -11.291  18.760  1.00  0.00     0.008 C 
ENDBRANCH   5   8
ENDBRANCH   4   5
ENDBRANCH   1   3
BRANCH   1  11
ATOM     11  C   UNL     1      17.871  -9.247  23.099  1.00  0.00     0.002 C 
ATOM     12  C   UNL     1      17.302  -8.278  24.129  1.00  0.00     0.005 C 
ATOM     13  C   UNL     1      17.487 -10.672  23.630  1.00  0.00    -0.023 C 
ATOM     14  C   UNL     1      15.979  -8.907  24.512  1.00  0.00     0.009 C 
ATOM     15  C   UNL     1      16.229 -10.425  24.540  1.00  0.00     0.021 C 
ATOM     16  C   UNL     1      17.191 -11.605  22.422  1.00  0.00     0.008 C 
ATOM     17  C   UNL     1      18.606 -11.295  24.508  1.00  0.00     0.012 C 
ATOM     18  C   UNL     1      14.966 -11.228  24.213  1.00  0.00    -0.067 C 
ATOM     19  C   UNL     1      16.381 -12.831  22.828  1.00  0.00     0.009 C 
ATOM     20  C   UNL     1      14.959 -12.427  23.273  1.00  0.00     0.021 C 
ATOM     21  C   UNL     1      13.826 -10.936  24.874  1.00  0.00    -0.027 C 
ATOM     22  C   UNL     1      14.128 -13.615  23.896  1.00  0.00    -0.023 C 
ATOM     23  C   UNL     1      12.523 -11.621  24.574  1.00  0.00     0.031 C 
ATOM     24  C   UNL     1      12.651 -13.109  24.124  1.00  0.00     0.002 C 
ATOM     25  C   UNL     1      14.774 -14.103  25.236  1.00  0.00     0.010 C 
ATOM     26  C   UNL     1      14.101 -14.798  22.889  1.00  0.00     0.012 C 
ATOM     27  C   UNL     1      11.797 -14.057  25.005  1.00  0.00     0.036 C 
ATOM     28  C   UNL     1      13.890 -15.073  26.031  1.00  0.00     0.032 C 
ATOM     29  C   UNL     1      12.485 -14.513  26.301  1.00  0.00     0.114 C 
BRANCH  29  30
ATOM     30  O   UNL     1      12.493 -13.503  27.280  1.00  0.00    -0.393 OA
ATOM     31  H   UNL     1      13.415 -13.401  27.623  1.00  0.00     0.210 HD
ENDBRANCH  29  30
ENDBRANCH   1  11
TORSDOF 6
ENDMDL
MODEL 5
REMARK VINA RESULT:    -6.211      8.733     11.810
REMARK INTER + INTRA:          -9.146
REMARK INTER:                  -8.227
REMARK INTRA:                  -0.919
REMARK UNBOUND:                -0.938
REMARK SMILES CC[C@@H](C=C[C@@H](C)[C@@H]1CC[C@H]2C3=CC[C@@H]4C[C@H](O)CC[C@]4(C)[C@@H]3CC[C@]21C)C(C)C
REMARK SMILES IDX 6 1 7 2 5 3 4 4 3 5 2 6 1 7 28 8 29 9 30 10 8 11 9 12 26 13
REMARK SMILES IDX 10 14 11 15 25 16 27 17 12 18 24 19 23 20 13 21 21 22 14 23
REMARK SMILES IDX 15 24 20 25 22 26 16 27 19 28 17 29 18 30
REMARK H PARENT 18 31
REMARK Flexibility Score: inf
ROOT
ATOM      1  C   UNL     1      12.186  -2.198  25.565  1.00  0.00     0.012 C 
ATOM      2  C   UNL     1      11.000  -1.215  25.603  1.00  0.00     0.012 C 
ENDROOT
BRANCH   1   3
ATOM      3  C   UNL     1      11.667  -3.622  25.502  1.00  0.00    -0.028 C 
ATOM      4  C   UNL     1      10.395  -3.928  25.198  1.00  0.00    -0.027 C 
BRANCH   4   5
ATOM      5  C   UNL     1       9.935  -5.370  25.098  1.00  0.00     0.014 C 
BRANCH   5   6
ATOM      6  C   UNL     1       8.432  -5.480  24.702  1.00  0.00     0.004 C 
ATOM      7  C   UNL     1       8.129  -6.281  23.425  1.00  0.00     0.004 C 
ENDBRANCH   5   6
BRANCH   5   8
ATOM      8  C   UNL     1      10.375  -6.204  26.341  1.00  0.00    -0.011 C 
ATOM      9  C   UNL     1       9.238  -6.977  27.029  1.00  0.00     0.008 C 
ATOM     10  C   UNL     1      11.542  -7.155  26.020  1.00  0.00     0.008 C 
ENDBRANCH   5   8
ENDBRANCH   4   5
ENDBRANCH   1   3
BRANCH   1  11
ATOM     11  C   UNL     1      13.255  -2.017  26.702  1.00  0.00     0.002 C 
ATOM     12  C   UNL     1      12.834  -1.180  27.904  1.00  0.00     0.005 C 
ATOM     13  C   UNL     1      14.662  -1.457  26.293  1.00  0.00    -0.023 C 
ATOM     14  C   UNL     1      14.125  -0.993  28.672  1.00  0.00     0.009 C 
ATOM     15  C   UNL     1      15.221  -0.807  27.610  1.00  0.00     0.021 C 
ATOM     16  C   UNL     1      15.544  -2.625  25.768  1.00  0.00     0.008 C 
ATOM     17  C   UNL     1      14.564  -0.350  25.208  1.00  0.00     0.012 C 
ATOM     18  C   UNL     1      16.591  -1.291  28.098  1.00  0.00    -0.067 C 
ATOM     19  C   UNL     1      17.028  -2.279  25.790  1.00  0.00     0.009 C 
ATOM     20  C   UNL     1      17.535  -2.125  27.240  1.00  0.00     0.021 C 
ATOM     21  C   UNL     1      17.036  -0.867  29.298  1.00  0.00    -0.027 C 
ATOM     22  C   UNL     1      19.010  -1.572  27.342  1.00  0.00    -0.023 C 
ATOM     23  C   UNL     1      18.333  -1.342  29.891  1.00  0.00     0.031 C 
ATOM     24  C   UNL     1      19.456  -1.649  28.853  1.00  0.00     0.002 C 
ATOM     25  C   UNL     1      19.093  -0.106  26.799  1.00  0.00     0.010 C 
ATOM     26  C   UNL     1      19.950  -2.476  26.497  1.00  0.00     0.012 C 
ATOM     27  C   UNL     1      20.758  -0.865  29.158  1.00  0.00     0.036 C 
ATOM     28  C   UNL     1      20.427   0.590  27.099  1.00  0.00     0.032 C 
ATOM     29  C   UNL     1      20.789   0.564  28.592  1.00  0.00     0.114 C 
BRANCH  29  30
ATOM     30  O   UNL     1      20.000   1.450  29.348  1.00  0.00    -0.393 OA
ATOM     31  H   UNL     1      20.512   2.283  29.497  1.00  0.00     0.210 HD
ENDBRANCH  29  30
ENDBRANCH   1  11
TORSDOF 6
ENDMDL
MODEL 6
REMARK VINA RESULT:    -6.155      3.536      5.467
REMARK INTER + INTRA:          -9.072
REMARK INTER:                  -8.002
REMARK INTRA:                  -1.070
REMARK UNBOUND:                -0.938
REMARK SMILES CC[C@@H](C=C[C@@H](C)[C@@H]1CC[C@H]2C3=CC[C@@H]4C[C@H](O)CC[C@]4(C)[C@@H]3CC[C@]21C)C(C)C
REMARK SMILES IDX 6 1 7 2 5 3 4 4 3 5 2 6 1 7 28 8 29 9 30 10 8 11 9 12 26 13
REMARK SMILES IDX 10 14 11 15 25 16 27 17 12 18 24 19 23 20 13 21 21 22 14 23
REMARK SMILES IDX 15 24 20 25 22 26 16 27 19 28 17 29 18 30
REMARK H PARENT 18 31
REMARK Flexibility Score: inf
ROOT
ATOM      1  C   UNL     1      13.150 -12.861  25.999  1.00  0.00     0.012 C 
ATOM      2  C   UNL     1      12.500 -14.245  26.194  1.00  0.00     0.012 C 
ENDROOT
BRANCH   1   3
ATOM      3  C   UNL     1      12.170 -11.776  26.400  1.00  0.00    -0.028 C 
ATOM      4  C   UNL     1      12.503 -10.476  26.477  1.00  0.00    -0.027 C 
BRANCH   4   5
ATOM      5  C   UNL     1      11.474  -9.421  26.833  1.00  0.00     0.014 C 
BRANCH   5   6
ATOM      6  C   UNL     1      10.532  -9.886  27.984  1.00  0.00     0.004 C 
ATOM      7  C   UNL     1       9.602  -8.810  28.568  1.00  0.00     0.004 C 
ENDBRANCH   5   6
BRANCH   5   8
ATOM      8  C   UNL     1      10.768  -8.851  25.563  1.00  0.00    -0.011 C 
ATOM      9  C   UNL     1      10.657  -7.318  25.524  1.00  0.00     0.008 C 
ATOM     10  C   UNL     1      11.407  -9.368  24.262  1.00  0.00     0.008 C 
ENDBRANCH   5   8
ENDBRANCH   4   5
ENDBRANCH   1   3
BRANCH   1  11
ATOM     11  C   UNL     1      13.765 -12.595  24.577  1.00  0.00     0.002 C 
ATOM     12  C   UNL     1      13.424 -13.606  23.489  1.00  0.00     0.005 C 
ATOM     13  C   UNL     1      15.320 -12.410  24.482  1.00  0.00    -0.023 C 
ATOM     14  C   UNL     1      14.342 -13.219  22.349  1.00  0.00     0.009 C 
ATOM     15  C   UNL     1      15.671 -12.807  23.003  1.00  0.00     0.021 C 
ATOM     16  C   UNL     1      15.680 -10.936  24.820  1.00  0.00     0.008 C 
ATOM     17  C   UNL     1      16.087 -13.366  25.437  1.00  0.00     0.012 C 
ATOM     18  C   UNL     1      16.434 -11.773  22.168  1.00  0.00    -0.067 C 
ATOM     19  C   UNL     1      17.066 -10.553  24.313  1.00  0.00     0.009 C 
ATOM     20  C   UNL     1      17.104 -10.544  22.770  1.00  0.00     0.021 C 
ATOM     21  C   UNL     1      16.623 -12.016  20.855  1.00  0.00    -0.027 C 
ATOM     22  C   UNL     1      18.551 -10.353  22.172  1.00  0.00    -0.023 C 
ATOM     23  C   UNL     1      17.296 -11.031  19.941  1.00  0.00     0.031 C 
ATOM     24  C   UNL     1      18.413 -10.172  20.611  1.00  0.00     0.002 C 
ATOM     25  C   UNL     1      19.464 -11.575  22.524  1.00  0.00     0.010 C 
ATOM     26  C   UNL     1      19.182  -9.065  22.770  1.00  0.00     0.012 C 
ATOM     27  C   UNL     1      19.761 -10.278  19.850  1.00  0.00     0.036 C 
ATOM     28  C   UNL     1      20.799 -11.588  21.766  1.00  0.00     0.032 C 
ATOM     29  C   UNL     1      20.620 -11.490  20.243  1.00  0.00     0.114 C 
BRANCH  29  30
ATOM     30  O   UNL     1      20.135 -12.687  19.686  1.00  0.00    -0.393 OA
ATOM     31  H   UNL     1      19.608 -12.469  18.877  1.00  0.00     0.210 HD
ENDBRANCH  29  30
ENDBRANCH   1  11
TORSDOF 6
ENDMDL
MODEL 7
REMARK VINA RESULT:    -6.101      3.969      6.824
REMARK INTER + INTRA:          -9.001
REMARK INTER:                  -7.908
REMARK INTRA:                  -1.092
REMARK UNBOUND:                -0.938
REMARK SMILES CC[C@@H](C=C[C@@H](C)[C@@H]1CC[C@H]2C3=CC[C@@H]4C[C@H](O)CC[C@]4(C)[C@@H]3CC[C@]21C)C(C)C
REMARK SMILES IDX 6 1 7 2 5 3 4 4 3 5 2 6 1 7 28 8 29 9 30 10 8 11 9 12 26 13
REMARK SMILES IDX 10 14 11 15 25 16 27 17 12 18 24 19 23 20 13 21 21 22 14 23
REMARK SMILES IDX 15 24 20 25 22 26 16 27 19 28 17 29 18 30
REMARK H PARENT 18 31
REMARK Flexibility Score: inf
ROOT
ATOM      1  C   UNL     1      15.748 -13.315  25.000  1.00  0.00     0.012 C 
ATOM      2  C   UNL     1      16.418 -13.872  26.270  1.00  0.00     0.012 C 
ENDROOT
BRANCH   1   3
ATOM      3  C   UNL     1      14.477 -12.578  25.375  1.00  0.00    -0.028 C 
ATOM      4  C   UNL     1      13.576 -12.157  24.471  1.00  0.00    -0.027 C 
BRANCH   4   5
ATOM      5  C   UNL     1      12.294 -11.469  24.899  1.00  0.00     0.014 C 
BRANCH   5   6
ATOM      6  C   UNL     1      11.377 -11.133  23.685  1.00  0.00     0.004 C 
ATOM      7  C   UNL     1      11.262 -12.222  22.606  1.00  0.00     0.004 C 
ENDBRANCH   5   6
BRANCH   5   8
ATOM      8  C   UNL     1      12.572 -10.295  25.889  1.00  0.00    -0.011 C 
ATOM      9  C   UNL     1      12.596  -8.902  25.240  1.00  0.00     0.008 C 
ATOM     10  C   UNL     1      11.606 -10.304  27.087  1.00  0.00     0.008 C 
ENDBRANCH   5   8
ENDBRANCH   4   5
ENDBRANCH   1   3
BRANCH   1  11
ATOM     11  C   UNL     1      15.500 -14.357  23.850  1.00  0.00     0.002 C 
ATOM     12  C   UNL     1      16.050 -15.760  24.074  1.00  0.00     0.005 C 
ATOM     13  C   UNL     1      15.967 -13.967  22.404  1.00  0.00    -0.023 C 
ATOM     14  C   UNL     1      15.874 -16.427  22.726  1.00  0.00     0.009 C 
ATOM     15  C   UNL     1      16.187 -15.344  21.679  1.00  0.00     0.021 C 
ATOM     16  C   UNL     1      14.870 -13.093  21.731  1.00  0.00     0.008 C 
ATOM     17  C   UNL     1      17.317 -13.199  22.407  1.00  0.00     0.012 C 
ATOM     18  C   UNL     1      15.428 -15.569  20.367  1.00  0.00    -0.067 C 
ATOM     19  C   UNL     1      15.013 -13.060  20.214  1.00  0.00     0.009 C 
ATOM     20  C   UNL     1      14.729 -14.449  19.605  1.00  0.00     0.021 C 
ATOM     21  C   UNL     1      15.475 -16.789  19.795  1.00  0.00    -0.027 C 
ATOM     22  C   UNL     1      15.051 -14.544  18.063  1.00  0.00    -0.023 C 
ATOM     23  C   UNL     1      14.708 -17.125  18.547  1.00  0.00     0.031 C 
ATOM     24  C   UNL     1      14.538 -15.942  17.543  1.00  0.00     0.002 C 
ATOM     25  C   UNL     1      16.585 -14.370  17.803  1.00  0.00     0.010 C 
ATOM     26  C   UNL     1      14.282 -13.420  17.314  1.00  0.00     0.012 C 
ATOM     27  C   UNL     1      15.051 -16.306  16.126  1.00  0.00     0.036 C 
ATOM     28  C   UNL     1      17.011 -14.704  16.367  1.00  0.00     0.032 C 
ATOM     29  C   UNL     1      16.561 -16.105  15.924  1.00  0.00     0.114 C 
BRANCH  29  30
ATOM     30  O   UNL     1      17.317 -17.124  16.532  1.00  0.00    -0.393 OA
ATOM     31  H   UNL     1      18.213 -16.768  16.751  1.00  0.00     0.210 HD
ENDBRANCH  29  30
ENDBRANCH   1  11
TORSDOF 6
ENDMDL
MODEL 8
REMARK VINA RESULT:    -6.037      3.984      6.800
REMARK INTER + INTRA:          -8.917
REMARK INTER:                  -7.727
REMARK INTRA:                  -1.190
REMARK UNBOUND:                -0.938
REMARK SMILES CC[C@@H](C=C[C@@H](C)[C@@H]1CC[C@H]2C3=CC[C@@H]4C[C@H](O)CC[C@]4(C)[C@@H]3CC[C@]21C)C(C)C
REMARK SMILES IDX 6 1 7 2 5 3 4 4 3 5 2 6 1 7 28 8 29 9 30 10 8 11 9 12 26 13
REMARK SMILES IDX 10 14 11 15 25 16 27 17 12 18 24 19 23 20 13 21 21 22 14 23
REMARK SMILES IDX 15 24 20 25 22 26 16 27 19 28 17 29 18 30
REMARK H PARENT 18 31
REMARK Flexibility Score: inf
ROOT
ATOM      1  C   UNL     1      16.008 -12.984  25.064  1.00  0.00     0.012 C 
ATOM      2  C   UNL     1      16.773 -13.270  26.370  1.00  0.00     0.012 C 
ENDROOT
BRANCH   1   3
ATOM      3  C   UNL     1      14.560 -12.663  25.381  1.00  0.00    -0.028 C 
ATOM      4  C   UNL     1      13.778 -11.922  24.577  1.00  0.00    -0.027 C 
BRANCH   4   5
ATOM      5  C   UNL     1      12.321 -11.671  24.912  1.00  0.00     0.014 C 
BRANCH   5   6
ATOM      6  C   UNL     1      12.042 -11.790  26.441  1.00  0.00     0.004 C 
ATOM      7  C   UNL     1      11.698 -10.479  27.166  1.00  0.00     0.004 C 
ENDBRANCH   5   6
BRANCH   5   8
ATOM      8  C   UNL     1      11.366 -12.482  23.981  1.00  0.00    -0.011 C 
ATOM      9  C   UNL     1      11.043 -11.798  22.642  1.00  0.00     0.008 C 
ATOM     10  C   UNL     1      11.874 -13.914  23.735  1.00  0.00     0.008 C 
ENDBRANCH   5   8
ENDBRANCH   4   5
ENDBRANCH   1   3
BRANCH   1  11
ATOM     11  C   UNL     1      16.131 -14.085  23.950  1.00  0.00     0.002 C 
ATOM     12  C   UNL     1      17.109 -15.221  24.223  1.00  0.00     0.005 C 
ATOM     13  C   UNL     1      16.462 -13.609  22.492  1.00  0.00    -0.023 C 
ATOM     14  C   UNL     1      17.179 -15.951  22.898  1.00  0.00     0.009 C 
ATOM     15  C   UNL     1      17.131 -14.859  21.815  1.00  0.00     0.021 C 
ATOM     16  C   UNL     1      15.148 -13.166  21.789  1.00  0.00     0.008 C 
ATOM     17  C   UNL     1      17.484 -12.440  22.471  1.00  0.00     0.012 C 
ATOM     18  C   UNL     1      16.506 -15.362  20.510  1.00  0.00    -0.067 C 
ATOM     19  C   UNL     1      15.290 -13.136  20.272  1.00  0.00     0.009 C 
ATOM     20  C   UNL     1      15.487 -14.559  19.710  1.00  0.00     0.021 C 
ATOM     21  C   UNL     1      16.958 -16.517  19.980  1.00  0.00    -0.027 C 
ATOM     22  C   UNL     1      15.841 -14.592  18.172  1.00  0.00    -0.023 C 
ATOM     23  C   UNL     1      16.360 -17.125  18.743  1.00  0.00     0.031 C 
ATOM     24  C   UNL     1      15.824 -16.096  17.699  1.00  0.00     0.002 C 
ATOM     25  C   UNL     1      17.236 -13.930  17.909  1.00  0.00     0.010 C 
ATOM     26  C   UNL     1      14.756 -13.807  17.385  1.00  0.00     0.012 C 
ATOM     27  C   UNL     1      16.446 -16.316  16.296  1.00  0.00     0.036 C 
ATOM     28  C   UNL     1      17.766 -14.151  16.486  1.00  0.00     0.032 C 
ATOM     29  C   UNL     1      17.808 -15.635  16.090  1.00  0.00     0.114 C 
BRANCH  29  30
ATOM     30  O   UNL     1      18.849 -16.329  16.733  1.00  0.00    -0.393 OA
ATOM     31  H   UNL     1      19.702 -15.862  16.551  1.00  0.00     0.210 HD
ENDBRANCH  29  30
ENDBRANCH   1  11
TORSDOF 6
ENDMDL
MODEL 9
REMARK VINA RESULT:    -5.943     11.906     15.055
REMARK INTER + INTRA:          -8.792
REMARK INTER:                  -7.429
REMARK INTRA:                  -1.363
REMARK UNBOUND:                -0.938
REMARK SMILES CC[C@@H](C=C[C@@H](C)[C@@H]1CC[C@H]2C3=CC[C@@H]4C[C@H](O)CC[C@]4(C)[C@@H]3CC[C@]21C)C(C)C
REMARK SMILES IDX 6 1 7 2 5 3 4 4 3 5 2 6 1 7 28 8 29 9 30 10 8 11 9 12 26 13
REMARK SMILES IDX 10 14 11 15 25 16 27 17 12 18 24 19 23 20 13 21 21 22 14 23
REMARK SMILES IDX 15 24 20 25 22 26 16 27 19 28 17 29 18 30
REMARK H PARENT 18 31
REMARK Flexibility Score: inf
ROOT
ATOM      1  C   UNL     1      16.996  -1.127  24.868  1.00  0.00     0.012 C 
ATOM      2  C   UNL     1      17.740  -1.687  23.641  1.00  0.00     0.012 C 
ENDROOT
BRANCH   1   3
ATOM      3  C   UNL     1      15.729  -0.425  24.420  1.00  0.00    -0.028 C 
ATOM      4  C   UNL     1      14.527  -0.652  24.976  1.00  0.00    -0.027 C 
BRANCH   4   5
ATOM      5  C   UNL     1      13.296   0.112  24.528  1.00  0.00     0.014 C 
BRANCH   5   6
ATOM      6  C   UNL     1      13.665   1.424  23.770  1.00  0.00     0.004 C 
ATOM      7  C   UNL     1      12.808   2.656  24.103  1.00  0.00     0.004 C 
ENDBRANCH   5   6
BRANCH   5   8
ATOM      8  C   UNL     1      12.257   0.262  25.682  1.00  0.00    -0.011 C 
ATOM      9  C   UNL     1      11.092  -0.740  25.629  1.00  0.00     0.008 C 
ATOM     10  C   UNL     1      12.921   0.229  27.070  1.00  0.00     0.008 C 
ENDBRANCH   5   8
ENDBRANCH   4   5
ENDBRANCH   1   3
BRANCH   1  11
ATOM     11  C   UNL     1      17.853  -0.225  25.828  1.00  0.00     0.002 C 
ATOM     12  C   UNL     1      19.367  -0.335  25.692  1.00  0.00     0.005 C 
ATOM     13  C   UNL     1      17.578  -0.338  27.368  1.00  0.00    -0.023 C 
ATOM     14  C   UNL     1      19.885   0.440  26.885  1.00  0.00     0.009 C 
ATOM     15  C   UNL     1      18.920   0.124  28.041  1.00  0.00     0.021 C 
ATOM     16  C   UNL     1      16.368   0.567  27.738  1.00  0.00     0.008 C 
ATOM     17  C   UNL     1      17.290  -1.799  27.811  1.00  0.00     0.012 C 
ATOM     18  C   UNL     1      18.833   1.270  29.054  1.00  0.00    -0.067 C 
ATOM     19  C   UNL     1      16.321   0.882  29.228  1.00  0.00     0.009 C 
ATOM     20  C   UNL     1      17.517   1.766  29.641  1.00  0.00     0.021 C 
ATOM     21  C   UNL     1      19.978   1.792  29.540  1.00  0.00    -0.027 C 
ATOM     22  C   UNL     1      17.648   1.968  31.201  1.00  0.00    -0.023 C 
ATOM     23  C   UNL     1      19.995   2.962  30.483  1.00  0.00     0.031 C 
ATOM     24  C   UNL     1      18.782   3.034  31.460  1.00  0.00     0.002 C 
ATOM     25  C   UNL     1      17.971   0.611  31.913  1.00  0.00     0.010 C 
ATOM     26  C   UNL     1      16.306   2.521  31.755  1.00  0.00     0.012 C 
ATOM     27  C   UNL     1      19.234   3.114  32.942  1.00  0.00     0.036 C 
ATOM     28  C   UNL     1      18.366   0.766  33.388  1.00  0.00     0.032 C 
ATOM     29  C   UNL     1      19.526   1.753  33.593  1.00  0.00     0.114 C 
BRANCH  29  30
ATOM     30  O   UNL     1      20.759   1.220  33.175  1.00  0.00    -0.393 OA
ATOM     31  H   UNL     1      20.696   0.987  32.216  1.00  0.00     0.210 HD
ENDBRANCH  29  30
ENDBRANCH   1  11
TORSDOF 6
ENDMDL
