MODEL 1
REMARK VINA RESULT:    -4.264      0.000      0.000
REMARK INTER + INTRA:          -4.870
REMARK INTER:                  -4.763
REMARK INTRA:                  -0.107
REMARK UNBOUND:                -0.107
REMARK SMILES CCc1ccc(O)cc1O
REMARK SMILES IDX 3 1 9 2 8 3 6 4 5 5 4 6 2 7 1 8 10 9 7 11
REMARK H PARENT 10 10 7 12
REMARK Flexibility Score: inf
ROOT
ATOM      1  C   UNL     1     -11.437  82.214 -10.203  1.00  0.00    -0.006 A 
ATOM      2  C   UNL     1     -12.609  82.908  -9.841  1.00  0.00     0.122 A 
ATOM      3  C   UNL     1     -13.648  83.058 -10.772  1.00  0.00     0.092 A 
ATOM      4  C   UNL     1     -13.523  82.531 -12.064  1.00  0.00     0.119 A 
ATOM      5  C   UNL     1     -12.354  81.856 -12.427  1.00  0.00     0.047 A 
ATOM      6  C   UNL     1     -11.315  81.702 -11.506  1.00  0.00     0.011 A 
ENDROOT
BRANCH   1   7
ATOM      7  C   UNL     1     -10.292  82.064  -9.233  1.00  0.00     0.036 C 
ATOM      8  C   UNL     1      -9.272  83.181  -9.424  1.00  0.00     0.009 C 
ENDBRANCH   1   7
BRANCH   2   9
ATOM      9  O   UNL     1     -12.739  83.446  -8.561  1.00  0.00    -0.508 OA
ATOM     10  H   UNL     1     -12.479  84.404  -8.359  1.00  0.00     0.293 HD
ENDBRANCH   2   9
BRANCH   4  11
ATOM     11  O   UNL     1     -14.550  82.676 -12.993  1.00  0.00    -0.508 OA
ATOM     12  H   UNL     1     -14.605  83.486 -13.600  1.00  0.00     0.293 HD
ENDBRANCH   4  11
TORSDOF 3
ENDMDL
MODEL 2
REMARK VINA RESULT:    -3.966      1.411      3.693
REMARK INTER + INTRA:          -4.537
REMARK INTER:                  -4.551
REMARK INTRA:                   0.014
REMARK UNBOUND:                -0.107
REMARK SMILES CCc1ccc(O)cc1O
REMARK SMILES IDX 3 1 9 2 8 3 6 4 5 5 4 6 2 7 1 8 10 9 7 11
REMARK H PARENT 10 10 7 12
REMARK Flexibility Score: inf
ROOT
ATOM      1  C   UNL     1     -12.689  82.139 -11.263  1.00  0.00    -0.006 A 
ATOM      2  C   UNL     1     -13.329  83.239 -10.656  1.00  0.00     0.122 A 
ATOM      3  C   UNL     1     -12.668  83.965  -9.653  1.00  0.00     0.092 A 
ATOM      4  C   UNL     1     -11.379  83.596  -9.245  1.00  0.00     0.119 A 
ATOM      5  C   UNL     1     -10.752  82.497  -9.837  1.00  0.00     0.047 A 
ATOM      6  C   UNL     1     -11.403  81.769 -10.836  1.00  0.00     0.011 A 
ENDROOT
BRANCH   1   7
ATOM      7  C   UNL     1     -13.388  81.323 -12.321  1.00  0.00     0.036 C 
ATOM      8  C   UNL     1     -13.421  82.073 -13.649  1.00  0.00     0.009 C 
ENDBRANCH   1   7
BRANCH   2   9
ATOM      9  O   UNL     1     -14.616  83.605 -11.047  1.00  0.00    -0.508 OA
ATOM     10  H   UNL     1     -14.850  84.565 -11.273  1.00  0.00     0.293 HD
ENDBRANCH   2   9
BRANCH   4  11
ATOM     11  O   UNL     1     -10.718  84.313  -8.250  1.00  0.00    -0.508 OA
ATOM     12  H   UNL     1     -10.749  85.325  -8.217  1.00  0.00     0.293 HD
ENDBRANCH   4  11
TORSDOF 3
ENDMDL
MODEL 3
REMARK VINA RESULT:    -3.940      7.509      9.183
REMARK INTER + INTRA:          -4.509
REMARK INTER:                  -4.423
REMARK INTRA:                  -0.086
REMARK UNBOUND:                -0.107
REMARK SMILES CCc1ccc(O)cc1O
REMARK SMILES IDX 3 1 9 2 8 3 6 4 5 5 4 6 2 7 1 8 10 9 7 11
REMARK H PARENT 10 10 7 12
REMARK Flexibility Score: inf
ROOT
ATOM      1  C   UNL     1      -3.373  85.727  -8.609  1.00  0.00    -0.006 A 
ATOM      2  C   UNL     1      -3.028  84.379  -8.388  1.00  0.00     0.122 A 
ATOM      3  C   UNL     1      -3.786  83.357  -8.981  1.00  0.00     0.092 A 
ATOM      4  C   UNL     1      -4.892  83.670  -9.782  1.00  0.00     0.119 A 
ATOM      5  C   UNL     1      -5.243  85.007  -9.988  1.00  0.00     0.047 A 
ATOM      6  C   UNL     1      -4.493  86.030  -9.403  1.00  0.00     0.011 A 
ENDROOT
BRANCH   1   7
ATOM      7  C   UNL     1      -2.595  86.844  -7.961  1.00  0.00     0.036 C 
ATOM      8  C   UNL     1      -3.353  88.163  -8.065  1.00  0.00     0.009 C 
ENDBRANCH   1   7
BRANCH   2   9
ATOM      9  O   UNL     1      -1.936  84.057  -7.583  1.00  0.00    -0.508 OA
ATOM     10  H   UNL     1      -2.049  83.551  -6.712  1.00  0.00     0.293 HD
ENDBRANCH   2   9
BRANCH   4  11
ATOM     11  O   UNL     1      -5.649  82.661 -10.373  1.00  0.00    -0.508 OA
ATOM     12  H   UNL     1      -6.597  82.465 -10.073  1.00  0.00     0.293 HD
ENDBRANCH   4  11
TORSDOF 3
ENDMDL
MODEL 4
REMARK VINA RESULT:    -3.861      2.091      3.787
REMARK INTER + INTRA:          -4.420
REMARK INTER:                  -4.334
REMARK INTRA:                  -0.086
REMARK UNBOUND:                -0.107
REMARK SMILES CCc1ccc(O)cc1O
REMARK SMILES IDX 3 1 9 2 8 3 6 4 5 5 4 6 2 7 1 8 10 9 7 11
REMARK H PARENT 10 10 7 12
REMARK Flexibility Score: inf
ROOT
ATOM      1  C   UNL     1     -12.127  82.210 -10.722  1.00  0.00    -0.006 A 
ATOM      2  C   UNL     1     -11.092  82.603  -9.850  1.00  0.00     0.122 A 
ATOM      3  C   UNL     1     -11.403  83.088  -8.571  1.00  0.00     0.092 A 
ATOM      4  C   UNL     1     -12.739  83.195  -8.159  1.00  0.00     0.119 A 
ATOM      5  C   UNL     1     -13.765  82.819  -9.030  1.00  0.00     0.047 A 
ATOM      6  C   UNL     1     -13.463  82.334 -10.305  1.00  0.00     0.011 A 
ENDROOT
BRANCH   1   7
ATOM      7  C   UNL     1     -11.823  81.713 -12.113  1.00  0.00     0.036 C 
ATOM      8  C   UNL     1     -13.087  81.682 -12.965  1.00  0.00     0.009 C 
ENDBRANCH   1   7
BRANCH   2   9
ATOM      9  O   UNL     1      -9.761  82.512 -10.255  1.00  0.00    -0.508 OA
ATOM     10  H   UNL     1      -9.070  83.194  -9.965  1.00  0.00     0.293 HD
ENDBRANCH   2   9
BRANCH   4  11
ATOM     11  O   UNL     1     -13.055  83.676  -6.891  1.00  0.00    -0.508 OA
ATOM     12  H   UNL     1     -13.332  84.639  -6.744  1.00  0.00     0.293 HD
ENDBRANCH   4  11
TORSDOF 3
ENDMDL
MODEL 5
REMARK VINA RESULT:    -3.776      2.026      3.002
REMARK INTER + INTRA:          -4.325
REMARK INTER:                  -4.226
REMARK INTRA:                  -0.099
REMARK UNBOUND:                -0.107
REMARK SMILES CCc1ccc(O)cc1O
REMARK SMILES IDX 3 1 9 2 8 3 6 4 5 5 4 6 2 7 1 8 10 9 7 11
REMARK H PARENT 10 10 7 12
REMARK Flexibility Score: inf
ROOT
ATOM      1  C   UNL     1     -12.677  83.311  -9.166  1.00  0.00    -0.006 A 
ATOM      2  C   UNL     1     -13.402  83.192 -10.369  1.00  0.00     0.122 A 
ATOM      3  C   UNL     1     -12.835  82.521 -11.463  1.00  0.00     0.092 A 
ATOM      4  C   UNL     1     -11.546  81.978 -11.370  1.00  0.00     0.119 A 
ATOM      5  C   UNL     1     -10.823  82.108 -10.182  1.00  0.00     0.047 A 
ATOM      6  C   UNL     1     -11.381  82.774  -9.088  1.00  0.00     0.011 A 
ENDROOT
BRANCH   1   7
ATOM      7  C   UNL     1     -13.251  84.052  -7.985  1.00  0.00     0.036 C 
ATOM      8  C   UNL     1     -14.016  83.103  -7.070  1.00  0.00     0.009 C 
ENDBRANCH   1   7
BRANCH   2   9
ATOM      9  O   UNL     1     -14.680  83.740 -10.476  1.00  0.00    -0.508 OA
ATOM     10  H   UNL     1     -15.493  83.162 -10.652  1.00  0.00     0.293 HD
ENDBRANCH   2   9
BRANCH   4  11
ATOM     11  O   UNL     1     -10.977  81.310 -12.452  1.00  0.00    -0.508 OA
ATOM     12  H   UNL     1     -11.080  81.654 -13.400  1.00  0.00     0.293 HD
ENDBRANCH   4  11
TORSDOF 3
ENDMDL
MODEL 6
REMARK VINA RESULT:    -3.748      7.035      8.591
REMARK INTER + INTRA:          -4.293
REMARK INTER:                  -4.191
REMARK INTRA:                  -0.102
REMARK UNBOUND:                -0.107
REMARK SMILES CCc1ccc(O)cc1O
REMARK SMILES IDX 3 1 9 2 8 3 6 4 5 5 4 6 2 7 1 8 10 9 7 11
REMARK H PARENT 10 10 7 12
REMARK Flexibility Score: inf
ROOT
ATOM      1  C   UNL     1      -3.552  83.226  -9.018  1.00  0.00    -0.006 A 
ATOM      2  C   UNL     1      -3.341  84.588  -8.723  1.00  0.00     0.122 A 
ATOM      3  C   UNL     1      -4.259  85.550  -9.172  1.00  0.00     0.092 A 
ATOM      4  C   UNL     1      -5.378  85.165  -9.923  1.00  0.00     0.119 A 
ATOM      5  C   UNL     1      -5.578  83.816 -10.227  1.00  0.00     0.047 A 
ATOM      6  C   UNL     1      -4.670  82.852  -9.783  1.00  0.00     0.011 A 
ENDROOT
BRANCH   1   7
ATOM      7  C   UNL     1      -2.566  82.174  -8.574  1.00  0.00     0.036 C 
ATOM      8  C   UNL     1      -3.102  81.404  -7.371  1.00  0.00     0.009 C 
ENDBRANCH   1   7
BRANCH   2   9
ATOM      9  O   UNL     1      -2.224  84.982  -7.988  1.00  0.00    -0.508 OA
ATOM     10  H   UNL     1      -1.315  84.560  -8.135  1.00  0.00     0.293 HD
ENDBRANCH   2   9
BRANCH   4  11
ATOM     11  O   UNL     1      -6.292  86.115 -10.372  1.00  0.00    -0.508 OA
ATOM     12  H   UNL     1      -7.271  85.888 -10.501  1.00  0.00     0.293 HD
ENDBRANCH   4  11
TORSDOF 3
ENDMDL
MODEL 7
REMARK VINA RESULT:    -3.730      7.439     10.086
REMARK INTER + INTRA:          -4.273
REMARK INTER:                  -4.192
REMARK INTRA:                  -0.081
REMARK UNBOUND:                -0.107
REMARK SMILES CCc1ccc(O)cc1O
REMARK SMILES IDX 3 1 9 2 8 3 6 4 5 5 4 6 2 7 1 8 10 9 7 11
REMARK H PARENT 10 10 7 12
REMARK Flexibility Score: inf
ROOT
ATOM      1  C   UNL     1      -4.607  86.038  -9.321  1.00  0.00    -0.006 A 
ATOM      2  C   UNL     1      -3.381  85.561  -8.815  1.00  0.00     0.122 A 
ATOM      3  C   UNL     1      -2.596  86.386  -7.996  1.00  0.00     0.092 A 
ATOM      4  C   UNL     1      -3.018  87.686  -7.687  1.00  0.00     0.119 A 
ATOM      5  C   UNL     1      -4.226  88.163  -8.202  1.00  0.00     0.047 A 
ATOM      6  C   UNL     1      -5.015  87.348  -9.018  1.00  0.00     0.011 A 
ENDROOT
BRANCH   1   7
ATOM      7  C   UNL     1      -5.457  85.184 -10.228  1.00  0.00     0.036 C 
ATOM      8  C   UNL     1      -6.382  84.285  -9.414  1.00  0.00     0.009 C 
ENDBRANCH   1   7
BRANCH   2   9
ATOM      9  O   UNL     1      -2.947  84.273  -9.126  1.00  0.00    -0.508 OA
ATOM     10  H   UNL     1      -3.250  83.799  -9.969  1.00  0.00     0.293 HD
ENDBRANCH   2   9
BRANCH   4  11
ATOM     11  O   UNL     1      -2.243  88.510  -6.875  1.00  0.00    -0.508 OA
ATOM     12  H   UNL     1      -1.246  88.616  -7.025  1.00  0.00     0.293 HD
ENDBRANCH   4  11
TORSDOF 3
ENDMDL
MODEL 8
REMARK VINA RESULT:    -3.673      2.540      3.665
REMARK INTER + INTRA:          -4.210
REMARK INTER:                  -4.122
REMARK INTRA:                  -0.088
REMARK UNBOUND:                -0.107
REMARK SMILES CCc1ccc(O)cc1O
REMARK SMILES IDX 3 1 9 2 8 3 6 4 5 5 4 6 2 7 1 8 10 9 7 11
REMARK H PARENT 10 10 7 12
REMARK Flexibility Score: inf
ROOT
ATOM      1  C   UNL     1     -13.079  82.413 -10.504  1.00  0.00    -0.006 A 
ATOM      2  C   UNL     1     -13.165  81.882  -9.201  1.00  0.00     0.122 A 
ATOM      3  C   UNL     1     -13.860  82.584  -8.205  1.00  0.00     0.092 A 
ATOM      4  C   UNL     1     -14.458  83.818  -8.494  1.00  0.00     0.119 A 
ATOM      5  C   UNL     1     -14.359  84.351  -9.782  1.00  0.00     0.047 A 
ATOM      6  C   UNL     1     -13.670  83.658 -10.780  1.00  0.00     0.011 A 
ENDROOT
BRANCH   1   7
ATOM      7  C   UNL     1     -12.313  81.694 -11.586  1.00  0.00     0.036 C 
ATOM      8  C   UNL     1     -13.104  81.681 -12.890  1.00  0.00     0.009 C 
ENDBRANCH   1   7
BRANCH   2   9
ATOM      9  O   UNL     1     -12.562  80.661  -8.900  1.00  0.00    -0.508 OA
ATOM     10  H   UNL     1     -11.648  80.613  -8.467  1.00  0.00     0.293 HD
ENDBRANCH   2   9
BRANCH   4  11
ATOM     11  O   UNL     1     -15.149  84.521  -7.510  1.00  0.00    -0.508 OA
ATOM     12  H   UNL     1     -14.663  85.075  -6.815  1.00  0.00     0.293 HD
ENDBRANCH   4  11
TORSDOF 3
ENDMDL
MODEL 9
REMARK VINA RESULT:    -3.666      2.022      3.000
REMARK INTER + INTRA:          -4.202
REMARK INTER:                  -4.116
REMARK INTRA:                  -0.087
REMARK UNBOUND:                -0.107
REMARK SMILES CCc1ccc(O)cc1O
REMARK SMILES IDX 3 1 9 2 8 3 6 4 5 5 4 6 2 7 1 8 10 9 7 11
REMARK H PARENT 10 10 7 12
REMARK Flexibility Score: inf
ROOT
ATOM      1  C   UNL     1     -10.682  82.506  -9.318  1.00  0.00    -0.006 A 
ATOM      2  C   UNL     1     -11.433  81.982 -10.390  1.00  0.00     0.122 A 
ATOM      3  C   UNL     1     -12.778  81.634 -10.196  1.00  0.00     0.092 A 
ATOM      4  C   UNL     1     -13.377  81.794  -8.939  1.00  0.00     0.119 A 
ATOM      5  C   UNL     1     -12.628  82.300  -7.873  1.00  0.00     0.047 A 
ATOM      6  C   UNL     1     -11.288  82.649  -8.058  1.00  0.00     0.011 A 
ENDROOT
BRANCH   1   7
ATOM      7  C   UNL     1      -9.226  82.860  -9.490  1.00  0.00     0.036 C 
ATOM      8  C   UNL     1      -8.890  84.146  -8.742  1.00  0.00     0.009 C 
ENDBRANCH   1   7
BRANCH   2   9
ATOM      9  O   UNL     1     -10.843  81.807 -11.641  1.00  0.00    -0.508 OA
ATOM     10  H   UNL     1     -11.399  81.719 -12.483  1.00  0.00     0.293 HD
ENDBRANCH   2   9
BRANCH   4  11
ATOM     11  O   UNL     1     -14.712  81.451  -8.739  1.00  0.00    -0.508 OA
ATOM     12  H   UNL     1     -15.071  81.233  -7.818  1.00  0.00     0.293 HD
ENDBRANCH   4  11
TORSDOF 3
ENDMDL
