MODEL 1
REMARK VINA RESULT:    -6.164      0.000      0.000
REMARK INTER + INTRA:          -6.619
REMARK INTER:                  -6.525
REMARK INTRA:                  -0.094
REMARK UNBOUND:                -0.094
REMARK SMILES C=C(C)[C@H]1CC=C(C)C(=O)C1
REMARK SMILES IDX 8 1 7 2 6 3 5 4 4 5 11 6 9 7 10 8 2 9 1 10 3 11
REMARK H PARENT
REMARK Flexibility Score: inf
ROOT
ATOM      1  C   UNL     1      -2.830 -11.399  26.146  1.00  0.00     0.048 C 
ATOM      2  C   UNL     1      -3.795 -12.155  27.017  1.00  0.00    -0.012 C 
ATOM      3  C   UNL     1      -4.133 -13.417  26.702  1.00  0.00    -0.019 C 
ATOM      4  C   UNL     1      -5.107 -14.213  27.529  1.00  0.00     0.036 C 
ATOM      5  C   UNL     1      -5.016 -13.828  29.018  1.00  0.00     0.025 C 
ATOM      6  C   UNL     1      -5.209 -12.310  29.189  1.00  0.00     0.089 C 
ATOM      7  C   UNL     1      -4.274 -11.552  28.286  1.00  0.00     0.158 C 
ATOM      8  O   UNL     1      -3.929 -10.381  28.601  1.00  0.00    -0.295 OA
ENDROOT
BRANCH   5   9
ATOM      9  C   UNL     1      -6.003 -14.619  29.865  1.00  0.00    -0.077 C 
ATOM     10  C   UNL     1      -5.863 -14.712  31.199  1.00  0.00     0.008 C 
ATOM     11  C   UNL     1      -7.168 -15.318  29.213  1.00  0.00     0.039 C 
ENDBRANCH   5   9
TORSDOF 1
ENDMDL
MODEL 2
REMARK VINA RESULT:    -5.968      3.128      3.872
REMARK INTER + INTRA:          -6.410
REMARK INTER:                  -6.315
REMARK INTRA:                  -0.095
REMARK UNBOUND:                -0.094
REMARK SMILES C=C(C)[C@H]1CC=C(C)C(=O)C1
REMARK SMILES IDX 8 1 7 2 6 3 5 4 4 5 11 6 9 7 10 8 2 9 1 10 3 11
REMARK H PARENT
REMARK Flexibility Score: inf
ROOT
ATOM      1  C   UNL     1      -0.152 -12.622  31.369  1.00  0.00     0.048 C 
ATOM      2  C   UNL     1      -1.337 -13.133  30.597  1.00  0.00    -0.012 C 
ATOM      3  C   UNL     1      -2.555 -13.138  31.167  1.00  0.00    -0.019 C 
ATOM      4  C   UNL     1      -3.771 -13.654  30.446  1.00  0.00     0.036 C 
ATOM      5  C   UNL     1      -3.671 -13.392  28.930  1.00  0.00     0.025 C 
ATOM      6  C   UNL     1      -2.366 -13.987  28.371  1.00  0.00     0.089 C 
ATOM      7  C   UNL     1      -1.182 -13.511  29.171  1.00  0.00     0.158 C 
ATOM      8  O   UNL     1      -0.047 -13.473  28.624  1.00  0.00    -0.295 OA
ENDROOT
BRANCH   5   9
ATOM      9  C   UNL     1      -4.891 -13.918  28.187  1.00  0.00    -0.077 C 
ATOM     10  C   UNL     1      -6.100 -13.965  28.772  1.00  0.00     0.008 C 
ATOM     11  C   UNL     1      -4.760 -14.401  26.765  1.00  0.00     0.039 C 
ENDBRANCH   5   9
TORSDOF 1
ENDMDL
MODEL 3
REMARK VINA RESULT:    -5.921      1.465      2.099
REMARK INTER + INTRA:          -6.361
REMARK INTER:                  -6.267
REMARK INTRA:                  -0.094
REMARK UNBOUND:                -0.094
REMARK SMILES C=C(C)[C@H]1CC=C(C)C(=O)C1
REMARK SMILES IDX 8 1 7 2 6 3 5 4 4 5 11 6 9 7 10 8 2 9 1 10 3 11
REMARK H PARENT
REMARK Flexibility Score: inf
ROOT
ATOM      1  C   UNL     1      -3.022 -11.014  26.729  1.00  0.00     0.048 C 
ATOM      2  C   UNL     1      -3.837 -12.023  27.489  1.00  0.00    -0.012 C 
ATOM      3  C   UNL     1      -4.437 -11.669  28.639  1.00  0.00    -0.019 C 
ATOM      4  C   UNL     1      -5.250 -12.643  29.449  1.00  0.00     0.036 C 
ATOM      5  C   UNL     1      -5.953 -13.670  28.540  1.00  0.00     0.025 C 
ATOM      6  C   UNL     1      -4.925 -14.376  27.637  1.00  0.00     0.089 C 
ATOM      7  C   UNL     1      -4.079 -13.367  26.908  1.00  0.00     0.158 C 
ATOM      8  O   UNL     1      -3.547 -13.689  25.812  1.00  0.00    -0.295 OA
ENDROOT
BRANCH   5   9
ATOM      9  C   UNL     1      -6.772 -14.668  29.347  1.00  0.00    -0.077 C 
ATOM     10  C   UNL     1      -6.373 -15.078  30.563  1.00  0.00     0.008 C 
ATOM     11  C   UNL     1      -8.058 -15.220  28.787  1.00  0.00     0.039 C 
ENDBRANCH   5   9
TORSDOF 1
ENDMDL
MODEL 4
REMARK VINA RESULT:    -5.729      2.669      4.437
REMARK INTER + INTRA:          -6.158
REMARK INTER:                  -6.063
REMARK INTRA:                  -0.095
REMARK UNBOUND:                -0.094
REMARK SMILES C=C(C)[C@H]1CC=C(C)C(=O)C1
REMARK SMILES IDX 8 1 7 2 6 3 5 4 4 5 11 6 9 7 10 8 2 9 1 10 3 11
REMARK H PARENT
REMARK Flexibility Score: inf
ROOT
ATOM      1  C   UNL     1      -6.932 -14.755  28.497  1.00  0.00     0.048 C 
ATOM      2  C   UNL     1      -5.570 -14.148  28.696  1.00  0.00    -0.012 C 
ATOM      3  C   UNL     1      -5.188 -13.752  29.922  1.00  0.00    -0.019 C 
ATOM      4  C   UNL     1      -3.844 -13.123  30.175  1.00  0.00     0.036 C 
ATOM      5  C   UNL     1      -2.776 -13.693  29.222  1.00  0.00     0.025 C 
ATOM      6  C   UNL     1      -3.228 -13.535  27.759  1.00  0.00     0.089 C 
ATOM      7  C   UNL     1      -4.609 -14.103  27.567  1.00  0.00     0.158 C 
ATOM      8  O   UNL     1      -4.954 -14.507  26.424  1.00  0.00    -0.295 OA
ENDROOT
BRANCH   5   9
ATOM      9  C   UNL     1      -1.412 -13.058  29.460  1.00  0.00    -0.077 C 
ATOM     10  C   UNL     1      -0.297 -13.572  28.915  1.00  0.00     0.008 C 
ATOM     11  C   UNL     1      -1.292 -11.828  30.322  1.00  0.00     0.039 C 
ENDBRANCH   5   9
TORSDOF 1
ENDMDL
MODEL 5
REMARK VINA RESULT:    -5.680      1.898      4.428
REMARK INTER + INTRA:          -6.106
REMARK INTER:                  -6.011
REMARK INTRA:                  -0.095
REMARK UNBOUND:                -0.094
REMARK SMILES C=C(C)[C@H]1CC=C(C)C(=O)C1
REMARK SMILES IDX 8 1 7 2 6 3 5 4 4 5 11 6 9 7 10 8 2 9 1 10 3 11
REMARK H PARENT
REMARK Flexibility Score: inf
ROOT
ATOM      1  C   UNL     1      -5.135 -14.212  32.590  1.00  0.00     0.048 C 
ATOM      2  C   UNL     1      -4.728 -14.024  31.155  1.00  0.00    -0.012 C 
ATOM      3  C   UNL     1      -5.638 -14.173  30.177  1.00  0.00    -0.019 C 
ATOM      4  C   UNL     1      -5.282 -14.014  28.723  1.00  0.00     0.036 C 
ATOM      5  C   UNL     1      -4.169 -12.964  28.536  1.00  0.00     0.025 C 
ATOM      6  C   UNL     1      -2.947 -13.323  29.401  1.00  0.00     0.089 C 
ATOM      7  C   UNL     1      -3.359 -13.554  30.830  1.00  0.00     0.158 C 
ATOM      8  O   UNL     1      -2.514 -13.379  31.749  1.00  0.00    -0.295 OA
ENDROOT
BRANCH   5   9
ATOM      9  C   UNL     1      -3.791 -12.800  27.070  1.00  0.00    -0.077 C 
ATOM     10  C   UNL     1      -4.015 -13.779  26.177  1.00  0.00     0.008 C 
ATOM     11  C   UNL     1      -3.152 -11.521  26.593  1.00  0.00     0.039 C 
ENDBRANCH   5   9
TORSDOF 1
ENDMDL
MODEL 6
REMARK VINA RESULT:    -5.664      1.937      4.306
REMARK INTER + INTRA:          -6.089
REMARK INTER:                  -5.993
REMARK INTRA:                  -0.096
REMARK UNBOUND:                -0.094
REMARK SMILES C=C(C)[C@H]1CC=C(C)C(=O)C1
REMARK SMILES IDX 8 1 7 2 6 3 5 4 4 5 11 6 9 7 10 8 2 9 1 10 3 11
REMARK H PARENT
REMARK Flexibility Score: inf
ROOT
ATOM      1  C   UNL     1      -7.750 -15.606  29.151  1.00  0.00     0.048 C 
ATOM      2  C   UNL     1      -6.438 -14.943  28.839  1.00  0.00    -0.012 C 
ATOM      3  C   UNL     1      -6.071 -14.756  27.559  1.00  0.00    -0.019 C 
ATOM      4  C   UNL     1      -4.760 -14.113  27.190  1.00  0.00     0.036 C 
ATOM      5  C   UNL     1      -4.346 -13.058  28.233  1.00  0.00     0.025 C 
ATOM      6  C   UNL     1      -4.314 -13.682  29.640  1.00  0.00     0.089 C 
ATOM      7  C   UNL     1      -5.611 -14.385  29.938  1.00  0.00     0.158 C 
ATOM      8  O   UNL     1      -5.972 -14.527  31.137  1.00  0.00    -0.295 OA
ENDROOT
BRANCH   5   9
ATOM      9  C   UNL     1      -3.017 -12.406  27.877  1.00  0.00    -0.077 C 
ATOM     10  C   UNL     1      -1.913 -12.622  28.612  1.00  0.00     0.008 C 
ATOM     11  C   UNL     1      -2.918 -11.496  26.680  1.00  0.00     0.039 C 
ENDBRANCH   5   9
TORSDOF 1
ENDMDL
MODEL 7
REMARK VINA RESULT:    -5.648      2.919      4.552
REMARK INTER + INTRA:          -6.072
REMARK INTER:                  -5.983
REMARK INTRA:                  -0.089
REMARK UNBOUND:                -0.094
REMARK SMILES C=C(C)[C@H]1CC=C(C)C(=O)C1
REMARK SMILES IDX 8 1 7 2 6 3 5 4 4 5 11 6 9 7 10 8 2 9 1 10 3 11
REMARK H PARENT
REMARK Flexibility Score: inf
ROOT
ATOM      1  C   UNL     1      -7.113 -14.773  29.139  1.00  0.00     0.048 C 
ATOM      2  C   UNL     1      -5.739 -14.314  29.543  1.00  0.00    -0.012 C 
ATOM      3  C   UNL     1      -4.926 -13.755  28.631  1.00  0.00    -0.019 C 
ATOM      4  C   UNL     1      -3.534 -13.294  28.977  1.00  0.00     0.036 C 
ATOM      5  C   UNL     1      -3.463 -12.790  30.432  1.00  0.00     0.025 C 
ATOM      6  C   UNL     1      -3.976 -13.874  31.397  1.00  0.00     0.089 C 
ATOM      7  C   UNL     1      -5.332 -14.366  30.969  1.00  0.00     0.158 C 
ATOM      8  O   UNL     1      -6.109 -14.857  31.832  1.00  0.00    -0.295 OA
ENDROOT
BRANCH   5   9
ATOM      9  C   UNL     1      -2.059 -12.330  30.799  1.00  0.00    -0.077 C 
ATOM     10  C   UNL     1      -1.679 -11.050  30.642  1.00  0.00     0.008 C 
ATOM     11  C   UNL     1      -1.060 -13.315  31.350  1.00  0.00     0.039 C 
ENDBRANCH   5   9
TORSDOF 1
ENDMDL
MODEL 8
REMARK VINA RESULT:    -5.632      2.107      4.744
REMARK INTER + INTRA:          -6.055
REMARK INTER:                  -5.959
REMARK INTRA:                  -0.096
REMARK UNBOUND:                -0.094
REMARK SMILES C=C(C)[C@H]1CC=C(C)C(=O)C1
REMARK SMILES IDX 8 1 7 2 6 3 5 4 4 5 11 6 9 7 10 8 2 9 1 10 3 11
REMARK H PARENT
REMARK Flexibility Score: inf
ROOT
ATOM      1  C   UNL     1      -5.625 -15.119  32.474  1.00  0.00     0.048 C 
ATOM      2  C   UNL     1      -5.248 -14.233  31.319  1.00  0.00    -0.012 C 
ATOM      3  C   UNL     1      -4.262 -13.331  31.462  1.00  0.00    -0.019 C 
ATOM      4  C   UNL     1      -3.856 -12.407  30.345  1.00  0.00     0.036 C 
ATOM      5  C   UNL     1      -4.040 -13.082  28.972  1.00  0.00     0.025 C 
ATOM      6  C   UNL     1      -5.486 -13.588  28.815  1.00  0.00     0.089 C 
ATOM      7  C   UNL     1      -5.879 -14.440  29.992  1.00  0.00     0.158 C 
ATOM      8  O   UNL     1      -6.779 -15.310  29.847  1.00  0.00    -0.295 OA
ENDROOT
BRANCH   5   9
ATOM      9  C   UNL     1      -3.643 -12.155  27.832  1.00  0.00    -0.077 C 
ATOM     10  C   UNL     1      -3.312 -10.872  28.057  1.00  0.00     0.008 C 
ATOM     11  C   UNL     1      -3.614 -12.668  26.415  1.00  0.00     0.039 C 
ENDBRANCH   5   9
TORSDOF 1
ENDMDL
MODEL 9
REMARK VINA RESULT:    -5.630      3.094      4.265
REMARK INTER + INTRA:          -6.053
REMARK INTER:                  -5.964
REMARK INTRA:                  -0.089
REMARK UNBOUND:                -0.094
REMARK SMILES C=C(C)[C@H]1CC=C(C)C(=O)C1
REMARK SMILES IDX 8 1 7 2 6 3 5 4 4 5 11 6 9 7 10 8 2 9 1 10 3 11
REMARK H PARENT
REMARK Flexibility Score: inf
ROOT
ATOM      1  C   UNL     1      -0.013 -12.546  31.726  1.00  0.00     0.048 C 
ATOM      2  C   UNL     1      -0.801 -12.596  30.447  1.00  0.00    -0.012 C 
ATOM      3  C   UNL     1      -0.681 -13.655  29.628  1.00  0.00    -0.019 C 
ATOM      4  C   UNL     1      -1.433 -13.748  28.327  1.00  0.00     0.036 C 
ATOM      5  C   UNL     1      -2.803 -13.050  28.427  1.00  0.00     0.025 C 
ATOM      6  C   UNL     1      -2.627 -11.594  28.896  1.00  0.00     0.089 C 
ATOM      7  C   UNL     1      -1.800 -11.539  30.153  1.00  0.00     0.158 C 
ATOM      8  O   UNL     1      -1.940 -10.563  30.938  1.00  0.00    -0.295 OA
ENDROOT
BRANCH   5   9
ATOM      9  C   UNL     1      -3.571 -13.128  27.115  1.00  0.00    -0.077 C 
ATOM     10  C   UNL     1      -4.379 -14.166  26.838  1.00  0.00     0.008 C 
ATOM     11  C   UNL     1      -3.435 -12.029  26.092  1.00  0.00     0.039 C 
ENDBRANCH   5   9
TORSDOF 1
ENDMDL
