MODEL 1
REMARK VINA RESULT:    -4.356      0.000      0.000
REMARK INTER + INTRA:         -16.712
REMARK INTER:                 -11.487
REMARK INTRA:                  -5.225
REMARK UNBOUND:                -5.225
REMARK SMILES CCCCCCCCCCCCCCCCCCCCCCCCCCCCCC(=O)[O-]
REMARK SMILES IDX 16 1 17 2 18 3 19 4 20 5 21 6 22 7 23 8 24 9 25 10 26 11
REMARK SMILES IDX 27 12 28 13 29 14 30 15 31 16 32 17 15 18 14 19 13 20 12 21
REMARK SMILES IDX 11 22 10 23 9 24 8 25 7 26 6 27 5 28 4 29 3 30 2 31 1 32
REMARK H PARENT
REMARK Flexibility Score: inf
ROOT
ATOM      1  C   UNL     1       6.338  11.778  12.532  1.00  0.00     0.000 C 
ENDROOT
BRANCH   1   2
ATOM      2  C   UNL     1       6.369  12.562  11.212  1.00  0.00     0.000 C 
BRANCH   2   3
ATOM      3  C   UNL     1       5.704  13.947  11.319  1.00  0.00     0.000 C 
BRANCH   3   4
ATOM      4  C   UNL     1       4.788  14.134  12.542  1.00  0.00     0.000 C 
BRANCH   4   5
ATOM      5  C   UNL     1       3.409  14.707  12.174  1.00  0.00     0.000 C 
BRANCH   5   6
ATOM      6  C   UNL     1       2.285  13.663  12.279  1.00  0.00     0.000 C 
BRANCH   6   7
ATOM      7  C   UNL     1       2.720  12.406  13.052  1.00  0.00     0.000 C 
BRANCH   7   8
ATOM      8  C   UNL     1       2.810  11.159  12.154  1.00  0.00     0.000 C 
BRANCH   8   9
ATOM      9  C   UNL     1       2.528  11.416  10.662  1.00  0.00     0.000 C 
BRANCH   9  10
ATOM     10  C   UNL     1       3.642  10.881   9.741  1.00  0.00     0.000 C 
BRANCH  10  11
ATOM     11  C   UNL     1       3.670  11.577   8.363  1.00  0.00     0.000 C 
BRANCH  11  12
ATOM     12  C   UNL     1       3.761  13.113   8.433  1.00  0.00     0.000 C 
BRANCH  12  13
ATOM     13  C   UNL     1       2.579  13.840   7.758  1.00  0.00     0.006 C 
BRANCH  13  14
ATOM     14  C   UNL     1       1.717  14.601   8.776  1.00  0.00     0.053 C 
BRANCH  14  15
ATOM     15  C   UNL     1       0.361  13.979   8.881  1.00  0.00     0.041 C 
ATOM     16  O   UNL     1      -0.611  14.644   9.330  1.00  0.00    -0.550 OA
ATOM     17  O   UNL     1       0.154  12.682   8.427  1.00  0.00    -0.550 OA
ENDBRANCH  14  15
ENDBRANCH  13  14
ENDBRANCH  12  13
ENDBRANCH  11  12
ENDBRANCH  10  11
ENDBRANCH   9  10
ENDBRANCH   8   9
ENDBRANCH   7   8
ENDBRANCH   6   7
ENDBRANCH   5   6
ENDBRANCH   4   5
ENDBRANCH   3   4
ENDBRANCH   2   3
ENDBRANCH   1   2
BRANCH   1  18
ATOM     18  C   UNL     1       7.683  11.883  13.266  1.00  0.00     0.000 C 
BRANCH  18  19
ATOM     19  C   UNL     1       8.876  12.038  12.305  1.00  0.00     0.000 C 
BRANCH  19  20
ATOM     20  C   UNL     1      10.100  11.162  12.639  1.00  0.00     0.000 C 
BRANCH  20  21
ATOM     21  C   UNL     1      11.247  11.215  11.614  1.00  0.00     0.000 C 
BRANCH  21  22
ATOM     22  C   UNL     1      11.828   9.826  11.299  1.00  0.00     0.000 C 
BRANCH  22  23
ATOM     23  C   UNL     1      11.681   9.442   9.818  1.00  0.00     0.000 C 
BRANCH  23  24
ATOM     24  C   UNL     1      10.881  10.481   9.010  1.00  0.00    -0.000 C 
BRANCH  24  25
ATOM     25  C   UNL     1       9.592   9.885   8.403  1.00  0.00    -0.000 C 
BRANCH  25  26
ATOM     26  C   UNL     1       8.305  10.323   9.129  1.00  0.00    -0.000 C 
BRANCH  26  27
ATOM     27  C   UNL     1       7.629   9.223   9.967  1.00  0.00    -0.000 C 
BRANCH  27  28
ATOM     28  C   UNL     1       7.607   7.864   9.252  1.00  0.00    -0.000 C 
BRANCH  28  29
ATOM     29  C   UNL     1       7.997   6.733  10.210  1.00  0.00    -0.000 C 
BRANCH  29  30
ATOM     30  C   UNL     1       9.458   6.868  10.654  1.00  0.00    -0.000 C 
BRANCH  30  31
ATOM     31  C   UNL     1      10.063   5.497  10.978  1.00  0.00    -0.003 C 
ATOM     32  C   UNL     1       9.566   4.429  10.010  1.00  0.00     0.004 C 
ENDBRANCH  30  31
ENDBRANCH  29  30
ENDBRANCH  28  29
ENDBRANCH  27  28
ENDBRANCH  26  27
ENDBRANCH  25  26
ENDBRANCH  24  25
ENDBRANCH  23  24
ENDBRANCH  22  23
ENDBRANCH  21  22
ENDBRANCH  20  21
ENDBRANCH  19  20
ENDBRANCH  18  19
ENDBRANCH   1  18
TORSDOF 28
ENDMDL
MODEL 2
REMARK VINA RESULT:    -4.209      2.495      7.884
REMARK INTER + INTRA:         -16.323
REMARK INTER:                 -11.732
REMARK INTRA:                  -4.591
REMARK UNBOUND:                -5.225
REMARK SMILES CCCCCCCCCCCCCCCCCCCCCCCCCCCCCC(=O)[O-]
REMARK SMILES IDX 16 1 17 2 18 3 19 4 20 5 21 6 22 7 23 8 24 9 25 10 26 11
REMARK SMILES IDX 27 12 28 13 29 14 30 15 31 16 32 17 15 18 14 19 13 20 12 21
REMARK SMILES IDX 11 22 10 23 9 24 8 25 7 26 6 27 5 28 4 29 3 30 2 31 1 32
REMARK H PARENT
REMARK Flexibility Score: inf
ROOT
ATOM      1  C   UNL     1       5.097  14.031  11.247  1.00  0.00     0.000 C 
ENDROOT
BRANCH   1   2
ATOM      2  C   UNL     1       6.152  12.973  11.604  1.00  0.00     0.000 C 
BRANCH   2   3
ATOM      3  C   UNL     1       5.724  12.066  12.773  1.00  0.00     0.000 C 
BRANCH   3   4
ATOM      4  C   UNL     1       6.686  12.059  13.975  1.00  0.00     0.000 C 
BRANCH   4   5
ATOM      5  C   UNL     1       8.128  11.696  13.583  1.00  0.00     0.000 C 
BRANCH   5   6
ATOM      6  C   UNL     1       9.178  12.452  14.413  1.00  0.00     0.000 C 
BRANCH   6   7
ATOM      7  C   UNL     1      10.609  11.955  14.143  1.00  0.00     0.000 C 
BRANCH   7   8
ATOM      8  C   UNL     1      10.690  11.008  12.932  1.00  0.00     0.000 C 
BRANCH   8   9
ATOM      9  C   UNL     1      11.734  11.405  11.871  1.00  0.00     0.000 C 
BRANCH   9  10
ATOM     10  C   UNL     1      11.101  12.022  10.608  1.00  0.00     0.000 C 
BRANCH  10  11
ATOM     11  C   UNL     1       9.576  11.799  10.529  1.00  0.00     0.000 C 
BRANCH  11  12
ATOM     12  C   UNL     1       9.165  10.485   9.839  1.00  0.00     0.000 C 
BRANCH  12  13
ATOM     13  C   UNL     1       7.908   9.827  10.444  1.00  0.00     0.006 C 
BRANCH  13  14
ATOM     14  C   UNL     1       7.719   8.386   9.950  1.00  0.00     0.053 C 
BRANCH  14  15
ATOM     15  C   UNL     1       7.134   8.377   8.574  1.00  0.00     0.041 C 
ATOM     16  O   UNL     1       7.793   7.909   7.606  1.00  0.00    -0.550 OA
ATOM     17  O   UNL     1       5.837   8.830   8.367  1.00  0.00    -0.550 OA
ENDBRANCH  14  15
ENDBRANCH  13  14
ENDBRANCH  12  13
ENDBRANCH  11  12
ENDBRANCH  10  11
ENDBRANCH   9  10
ENDBRANCH   8   9
ENDBRANCH   7   8
ENDBRANCH   6   7
ENDBRANCH   5   6
ENDBRANCH   4   5
ENDBRANCH   3   4
ENDBRANCH   2   3
ENDBRANCH   1   2
BRANCH   1  18
ATOM     18  C   UNL     1       4.481  14.642  12.514  1.00  0.00     0.000 C 
BRANCH  18  19
ATOM     19  C   UNL     1       2.959  14.847  12.398  1.00  0.00     0.000 C 
BRANCH  19  20
ATOM     20  C   UNL     1       2.353  14.470  11.031  1.00  0.00     0.000 C 
BRANCH  20  21
ATOM     21  C   UNL     1       1.586  15.597  10.317  1.00  0.00     0.000 C 
BRANCH  21  22
ATOM     22  C   UNL     1       1.486  15.380   8.798  1.00  0.00     0.000 C 
BRANCH  22  23
ATOM     23  C   UNL     1       1.631  13.904   8.398  1.00  0.00     0.000 C 
BRANCH  23  24
ATOM     24  C   UNL     1       2.814  13.658   7.443  1.00  0.00    -0.000 C 
BRANCH  24  25
ATOM     25  C   UNL     1       3.837  12.656   8.022  1.00  0.00    -0.000 C 
BRANCH  25  26
ATOM     26  C   UNL     1       3.222  11.299   8.415  1.00  0.00    -0.000 C 
BRANCH  26  27
ATOM     27  C   UNL     1       3.432  10.894   9.885  1.00  0.00    -0.000 C 
BRANCH  27  28
ATOM     28  C   UNL     1       2.143  10.988  10.715  1.00  0.00    -0.000 C 
BRANCH  28  29
ATOM     29  C   UNL     1       2.453  10.959  12.216  1.00  0.00    -0.000 C 
BRANCH  29  30
ATOM     30  C   UNL     1       1.163  10.884  13.041  1.00  0.00    -0.000 C 
BRANCH  30  31
ATOM     31  C   UNL     1       1.207  11.861  14.221  1.00  0.00    -0.003 C 
ATOM     32  C   UNL     1       0.352  11.365  15.383  1.00  0.00     0.004 C 
ENDBRANCH  30  31
ENDBRANCH  29  30
ENDBRANCH  28  29
ENDBRANCH  27  28
ENDBRANCH  26  27
ENDBRANCH  25  26
ENDBRANCH  24  25
ENDBRANCH  23  24
ENDBRANCH  22  23
ENDBRANCH  21  22
ENDBRANCH  20  21
ENDBRANCH  19  20
ENDBRANCH  18  19
ENDBRANCH   1  18
TORSDOF 28
ENDMDL
MODEL 3
REMARK VINA RESULT:    -4.197      2.129      3.841
REMARK INTER + INTRA:         -16.291
REMARK INTER:                 -11.049
REMARK INTRA:                  -5.243
REMARK UNBOUND:                -5.225
REMARK SMILES CCCCCCCCCCCCCCCCCCCCCCCCCCCCCC(=O)[O-]
REMARK SMILES IDX 16 1 17 2 18 3 19 4 20 5 21 6 22 7 23 8 24 9 25 10 26 11
REMARK SMILES IDX 27 12 28 13 29 14 30 15 31 16 32 17 15 18 14 19 13 20 12 21
REMARK SMILES IDX 11 22 10 23 9 24 8 25 7 26 6 27 5 28 4 29 3 30 2 31 1 32
REMARK H PARENT
REMARK Flexibility Score: inf
ROOT
ATOM      1  C   UNL     1       5.866  11.300  10.819  1.00  0.00     0.000 C 
ENDROOT
BRANCH   1   2
ATOM      2  C   UNL     1       4.903  12.052   9.889  1.00  0.00     0.000 C 
BRANCH   2   3
ATOM      3  C   UNL     1       4.606  13.488  10.363  1.00  0.00     0.000 C 
BRANCH   3   4
ATOM      4  C   UNL     1       3.112  13.847  10.449  1.00  0.00     0.000 C 
BRANCH   4   5
ATOM      5  C   UNL     1       2.787  14.770  11.635  1.00  0.00     0.000 C 
BRANCH   5   6
ATOM      6  C   UNL     1       3.996  15.002  12.556  1.00  0.00     0.000 C 
BRANCH   6   7
ATOM      7  C   UNL     1       3.858  14.269  13.901  1.00  0.00     0.000 C 
BRANCH   7   8
ATOM      8  C   UNL     1       2.399  14.190  14.388  1.00  0.00     0.000 C 
BRANCH   8   9
ATOM      9  C   UNL     1       1.825  12.764  14.478  1.00  0.00     0.000 C 
BRANCH   9  10
ATOM     10  C   UNL     1       0.468  12.618  13.761  1.00  0.00     0.000 C 
BRANCH  10  11
ATOM     11  C   UNL     1       0.496  11.571  12.627  1.00  0.00     0.000 C 
BRANCH  11  12
ATOM     12  C   UNL     1       1.887  10.967  12.359  1.00  0.00     0.000 C 
BRANCH  12  13
ATOM     13  C   UNL     1       1.967  10.132  11.064  1.00  0.00     0.006 C 
BRANCH  13  14
ATOM     14  C   UNL     1       1.072  10.705   9.956  1.00  0.00     0.053 C 
BRANCH  14  15
ATOM     15  C   UNL     1       1.800  10.718   8.650  1.00  0.00     0.041 C 
ATOM     16  O   UNL     1       2.574   9.772   8.343  1.00  0.00    -0.550 OA
ATOM     17  O   UNL     1       1.579  11.747   7.741  1.00  0.00    -0.550 OA
ENDBRANCH  14  15
ENDBRANCH  13  14
ENDBRANCH  12  13
ENDBRANCH  11  12
ENDBRANCH  10  11
ENDBRANCH   9  10
ENDBRANCH   8   9
ENDBRANCH   7   8
ENDBRANCH   6   7
ENDBRANCH   5   6
ENDBRANCH   4   5
ENDBRANCH   3   4
ENDBRANCH   2   3
ENDBRANCH   1   2
BRANCH   1  18
ATOM     18  C   UNL     1       5.564  11.611  12.292  1.00  0.00     0.000 C 
BRANCH  18  19
ATOM     19  C   UNL     1       6.786  12.164  13.047  1.00  0.00     0.000 C 
BRANCH  19  20
ATOM     20  C   UNL     1       6.762  11.949  14.574  1.00  0.00     0.000 C 
BRANCH  20  21
ATOM     21  C   UNL     1       8.130  11.667  15.221  1.00  0.00     0.000 C 
BRANCH  21  22
ATOM     22  C   UNL     1       9.275  12.449  14.557  1.00  0.00     0.000 C 
BRANCH  22  23
ATOM     23  C   UNL     1      10.285  11.535  13.845  1.00  0.00     0.000 C 
BRANCH  23  24
ATOM     24  C   UNL     1      10.907  12.192  12.599  1.00  0.00    -0.000 C 
BRANCH  24  25
ATOM     25  C   UNL     1      10.321  11.631  11.285  1.00  0.00    -0.000 C 
BRANCH  25  26
ATOM     26  C   UNL     1       9.498  10.343  11.473  1.00  0.00    -0.000 C 
BRANCH  26  27
ATOM     27  C   UNL     1       9.512   9.384  10.270  1.00  0.00    -0.000 C 
BRANCH  27  28
ATOM     28  C   UNL     1       9.596  10.123   8.925  1.00  0.00    -0.000 C 
BRANCH  28  29
ATOM     29  C   UNL     1       8.199  10.474   8.402  1.00  0.00    -0.000 C 
BRANCH  29  30
ATOM     30  C   UNL     1       7.678   9.387   7.455  1.00  0.00    -0.000 C 
BRANCH  30  31
ATOM     31  C   UNL     1       6.271   8.933   7.858  1.00  0.00    -0.003 C 
ATOM     32  C   UNL     1       6.323   7.701   8.757  1.00  0.00     0.004 C 
ENDBRANCH  30  31
ENDBRANCH  29  30
ENDBRANCH  28  29
ENDBRANCH  27  28
ENDBRANCH  26  27
ENDBRANCH  25  26
ENDBRANCH  24  25
ENDBRANCH  23  24
ENDBRANCH  22  23
ENDBRANCH  21  22
ENDBRANCH  20  21
ENDBRANCH  19  20
ENDBRANCH  18  19
ENDBRANCH   1  18
TORSDOF 28
ENDMDL
MODEL 4
REMARK VINA RESULT:    -4.194      1.999      4.663
REMARK INTER + INTRA:         -16.286
REMARK INTER:                 -11.406
REMARK INTRA:                  -4.880
REMARK UNBOUND:                -5.225
REMARK SMILES CCCCCCCCCCCCCCCCCCCCCCCCCCCCCC(=O)[O-]
REMARK SMILES IDX 16 1 17 2 18 3 19 4 20 5 21 6 22 7 23 8 24 9 25 10 26 11
REMARK SMILES IDX 27 12 28 13 29 14 30 15 31 16 32 17 15 18 14 19 13 20 12 21
REMARK SMILES IDX 11 22 10 23 9 24 8 25 7 26 6 27 5 28 4 29 3 30 2 31 1 32
REMARK H PARENT
REMARK Flexibility Score: inf
ROOT
ATOM      1  C   UNL     1       5.516  13.043  12.183  1.00  0.00     0.000 C 
ENDROOT
BRANCH   1   2
ATOM      2  C   UNL     1       4.747  14.191  11.512  1.00  0.00     0.000 C 
BRANCH   2   3
ATOM      3  C   UNL     1       3.491  14.614  12.297  1.00  0.00     0.000 C 
BRANCH   3   4
ATOM      4  C   UNL     1       2.159  14.387  11.559  1.00  0.00     0.000 C 
BRANCH   4   5
ATOM      5  C   UNL     1       2.012  15.269  10.307  1.00  0.00     0.000 C 
BRANCH   5   6
ATOM      6  C   UNL     1       0.979  14.719   9.311  1.00  0.00     0.000 C 
BRANCH   6   7
ATOM      7  C   UNL     1       1.508  13.507   8.525  1.00  0.00     0.000 C 
BRANCH   7   8
ATOM      8  C   UNL     1       2.908  13.749   7.933  1.00  0.00     0.000 C 
BRANCH   8   9
ATOM      9  C   UNL     1       3.929  12.629   8.211  1.00  0.00     0.000 C 
BRANCH   9  10
ATOM     10  C   UNL     1       3.263  11.295   8.600  1.00  0.00     0.000 C 
BRANCH  10  11
ATOM     11  C   UNL     1       3.396  10.972  10.104  1.00  0.00     0.000 C 
BRANCH  11  12
ATOM     12  C   UNL     1       2.159  10.287  10.714  1.00  0.00     0.000 C 
BRANCH  12  13
ATOM     13  C   UNL     1       1.779  10.815  12.114  1.00  0.00     0.006 C 
BRANCH  13  14
ATOM     14  C   UNL     1       0.292  10.596  12.425  1.00  0.00     0.053 C 
BRANCH  14  15
ATOM     15  C   UNL     1      -0.475  11.866  12.239  1.00  0.00     0.041 C 
ATOM     16  O   UNL     1      -0.713  12.301  11.080  1.00  0.00    -0.550 OA
ATOM     17  O   UNL     1      -0.980  12.541  13.344  1.00  0.00    -0.550 OA
ENDBRANCH  14  15
ENDBRANCH  13  14
ENDBRANCH  12  13
ENDBRANCH  11  12
ENDBRANCH  10  11
ENDBRANCH   9  10
ENDBRANCH   8   9
ENDBRANCH   7   8
ENDBRANCH   6   7
ENDBRANCH   5   6
ENDBRANCH   4   5
ENDBRANCH   3   4
ENDBRANCH   2   3
ENDBRANCH   1   2
BRANCH   1  18
ATOM     18  C   UNL     1       6.628  12.515  11.266  1.00  0.00     0.000 C 
BRANCH  18  19
ATOM     19  C   UNL     1       7.077  11.089  11.632  1.00  0.00     0.000 C 
BRANCH  19  20
ATOM     20  C   UNL     1       7.050  10.078  10.469  1.00  0.00     0.000 C 
BRANCH  20  21
ATOM     21  C   UNL     1       6.964  10.695   9.061  1.00  0.00     0.000 C 
BRANCH  21  22
ATOM     22  C   UNL     1       8.251  10.495   8.244  1.00  0.00     0.000 C 
BRANCH  22  23
ATOM     23  C   UNL     1       9.322   9.701   9.007  1.00  0.00     0.000 C 
BRANCH  23  24
ATOM     24  C   UNL     1      10.645  10.476   9.157  1.00  0.00    -0.000 C 
BRANCH  24  25
ATOM     25  C   UNL     1      10.553  11.591  10.221  1.00  0.00    -0.000 C 
BRANCH  25  26
ATOM     26  C   UNL     1      10.558  11.068  11.671  1.00  0.00    -0.000 C 
BRANCH  26  27
ATOM     27  C   UNL     1      10.573  12.162  12.753  1.00  0.00    -0.000 C 
BRANCH  27  28
ATOM     28  C   UNL     1      10.124  11.642  14.127  1.00  0.00    -0.000 C 
BRANCH  28  29
ATOM     29  C   UNL     1       8.832  12.331  14.580  1.00  0.00    -0.000 C 
BRANCH  29  30
ATOM     30  C   UNL     1       8.280  11.681  15.854  1.00  0.00    -0.000 C 
BRANCH  30  31
ATOM     31  C   UNL     1       9.403  11.403  16.860  1.00  0.00    -0.003 C 
ATOM     32  C   UNL     1       9.636  12.602  17.774  1.00  0.00     0.004 C 
ENDBRANCH  30  31
ENDBRANCH  29  30
ENDBRANCH  28  29
ENDBRANCH  27  28
ENDBRANCH  26  27
ENDBRANCH  25  26
ENDBRANCH  24  25
ENDBRANCH  23  24
ENDBRANCH  22  23
ENDBRANCH  21  22
ENDBRANCH  20  21
ENDBRANCH  19  20
ENDBRANCH  18  19
ENDBRANCH   1  18
TORSDOF 28
ENDMDL
MODEL 5
REMARK VINA RESULT:    -4.190      2.005      3.570
REMARK INTER + INTRA:         -16.273
REMARK INTER:                 -11.462
REMARK INTRA:                  -4.810
REMARK UNBOUND:                -5.225
REMARK SMILES CCCCCCCCCCCCCCCCCCCCCCCCCCCCCC(=O)[O-]
REMARK SMILES IDX 16 1 17 2 18 3 19 4 20 5 21 6 22 7 23 8 24 9 25 10 26 11
REMARK SMILES IDX 27 12 28 13 29 14 30 15 31 16 32 17 15 18 14 19 13 20 12 21
REMARK SMILES IDX 11 22 10 23 9 24 8 25 7 26 6 27 5 28 4 29 3 30 2 31 1 32
REMARK H PARENT
REMARK Flexibility Score: inf
ROOT
ATOM      1  C   UNL     1       5.057  13.793  12.087  1.00  0.00     0.000 C 
ENDROOT
BRANCH   1   2
ATOM      2  C   UNL     1       4.166  14.872  12.721  1.00  0.00     0.000 C 
BRANCH   2   3
ATOM      3  C   UNL     1       2.791  14.994  12.039  1.00  0.00     0.000 C 
BRANCH   3   4
ATOM      4  C   UNL     1       2.749  14.522  10.574  1.00  0.00     0.000 C 
BRANCH   4   5
ATOM      5  C   UNL     1       1.450  14.923   9.855  1.00  0.00     0.000 C 
BRANCH   5   6
ATOM      6  C   UNL     1       1.269  14.202   8.509  1.00  0.00     0.000 C 
BRANCH   6   7
ATOM      7  C   UNL     1       2.610  13.790   7.878  1.00  0.00     0.000 C 
BRANCH   7   8
ATOM      8  C   UNL     1       2.820  12.265   7.872  1.00  0.00     0.000 C 
BRANCH   8   9
ATOM      9  C   UNL     1       4.147  11.794   8.496  1.00  0.00     0.000 C 
BRANCH   9  10
ATOM     10  C   UNL     1       3.945  10.966   9.780  1.00  0.00     0.000 C 
BRANCH  10  11
ATOM     11  C   UNL     1       2.471  10.911  10.236  1.00  0.00     0.000 C 
BRANCH  11  12
ATOM     12  C   UNL     1       2.285  10.675  11.746  1.00  0.00     0.000 C 
BRANCH  12  13
ATOM     13  C   UNL     1       1.173  11.535  12.381  1.00  0.00     0.006 C 
BRANCH  13  14
ATOM     14  C   UNL     1       1.563  12.038  13.778  1.00  0.00     0.053 C 
BRANCH  14  15
ATOM     15  C   UNL     1       0.353  12.156  14.649  1.00  0.00     0.041 C 
ATOM     16  O   UNL     1      -0.719  12.634  14.188  1.00  0.00    -0.550 OA
ATOM     17  O   UNL     1       0.388  11.682  15.955  1.00  0.00    -0.550 OA
ENDBRANCH  14  15
ENDBRANCH  13  14
ENDBRANCH  12  13
ENDBRANCH  11  12
ENDBRANCH  10  11
ENDBRANCH   9  10
ENDBRANCH   8   9
ENDBRANCH   7   8
ENDBRANCH   6   7
ENDBRANCH   5   6
ENDBRANCH   4   5
ENDBRANCH   3   4
ENDBRANCH   2   3
ENDBRANCH   1   2
BRANCH   1  18
ATOM     18  C   UNL     1       5.207  12.585  13.021  1.00  0.00     0.000 C 
BRANCH  18  19
ATOM     19  C   UNL     1       6.333  11.629  12.584  1.00  0.00     0.000 C 
BRANCH  19  20
ATOM     20  C   UNL     1       7.609  12.321  12.063  1.00  0.00     0.000 C 
BRANCH  20  21
ATOM     21  C   UNL     1       8.882  11.454  12.081  1.00  0.00     0.000 C 
BRANCH  21  22
ATOM     22  C   UNL     1       8.786  10.236  11.147  1.00  0.00     0.000 C 
BRANCH  22  23
ATOM     23  C   UNL     1       8.838  10.622   9.660  1.00  0.00     0.000 C 
BRANCH  23  24
ATOM     24  C   UNL     1       7.463  10.528   8.972  1.00  0.00    -0.000 C 
BRANCH  24  25
ATOM     25  C   UNL     1       7.563   9.966   7.537  1.00  0.00    -0.000 C 
BRANCH  25  26
ATOM     26  C   UNL     1       6.993   8.543   7.387  1.00  0.00    -0.000 C 
BRANCH  26  27
ATOM     27  C   UNL     1       6.199   8.032   8.602  1.00  0.00    -0.000 C 
BRANCH  27  28
ATOM     28  C   UNL     1       6.826   6.780   9.234  1.00  0.00    -0.000 C 
BRANCH  28  29
ATOM     29  C   UNL     1       8.356   6.845   9.183  1.00  0.00    -0.000 C 
BRANCH  29  30
ATOM     30  C   UNL     1       8.968   6.463  10.535  1.00  0.00    -0.000 C 
BRANCH  30  31
ATOM     31  C   UNL     1       9.560   5.049  10.492  1.00  0.00    -0.003 C 
ATOM     32  C   UNL     1      10.334   4.734  11.769  1.00  0.00     0.004 C 
ENDBRANCH  30  31
ENDBRANCH  29  30
ENDBRANCH  28  29
ENDBRANCH  27  28
ENDBRANCH  26  27
ENDBRANCH  25  26
ENDBRANCH  24  25
ENDBRANCH  23  24
ENDBRANCH  22  23
ENDBRANCH  21  22
ENDBRANCH  20  21
ENDBRANCH  19  20
ENDBRANCH  18  19
ENDBRANCH   1  18
TORSDOF 28
ENDMDL
MODEL 6
REMARK VINA RESULT:    -4.178      2.294      4.771
REMARK INTER + INTRA:         -16.241
REMARK INTER:                 -10.791
REMARK INTRA:                  -5.450
REMARK UNBOUND:                -5.225
REMARK SMILES CCCCCCCCCCCCCCCCCCCCCCCCCCCCCC(=O)[O-]
REMARK SMILES IDX 16 1 17 2 18 3 19 4 20 5 21 6 22 7 23 8 24 9 25 10 26 11
REMARK SMILES IDX 27 12 28 13 29 14 30 15 31 16 32 17 15 18 14 19 13 20 12 21
REMARK SMILES IDX 11 22 10 23 9 24 8 25 7 26 6 27 5 28 4 29 3 30 2 31 1 32
REMARK H PARENT
REMARK Flexibility Score: inf
ROOT
ATOM      1  C   UNL     1       6.145  13.036  11.738  1.00  0.00     0.000 C 
ENDROOT
BRANCH   1   2
ATOM      2  C   UNL     1       5.035  14.083  11.560  1.00  0.00     0.000 C 
BRANCH   2   3
ATOM      3  C   UNL     1       4.042  13.722  10.440  1.00  0.00     0.000 C 
BRANCH   3   4
ATOM      4  C   UNL     1       2.644  14.351  10.585  1.00  0.00     0.000 C 
BRANCH   4   5
ATOM      5  C   UNL     1       1.787  14.200   9.317  1.00  0.00     0.000 C 
BRANCH   5   6
ATOM      6  C   UNL     1       2.626  14.205   8.029  1.00  0.00     0.000 C 
BRANCH   6   7
ATOM      7  C   UNL     1       2.518  12.882   7.252  1.00  0.00     0.000 C 
BRANCH   7   8
ATOM      8  C   UNL     1       1.281  12.057   7.654  1.00  0.00     0.000 C 
BRANCH   8   9
ATOM      9  C   UNL     1       1.564  10.574   7.956  1.00  0.00     0.000 C 
BRANCH   9  10
ATOM     10  C   UNL     1       1.229  10.183   9.409  1.00  0.00     0.000 C 
BRANCH  10  11
ATOM     11  C   UNL     1       2.296  10.653  10.420  1.00  0.00     0.000 C 
BRANCH  11  12
ATOM     12  C   UNL     1       1.951  10.348  11.890  1.00  0.00     0.000 C 
BRANCH  12  13
ATOM     13  C   UNL     1       2.055  11.572  12.823  1.00  0.00     0.006 C 
BRANCH  13  14
ATOM     14  C   UNL     1       0.686  11.986  13.382  1.00  0.00     0.053 C 
BRANCH  14  15
ATOM     15  C   UNL     1       0.103  10.884  14.207  1.00  0.00     0.041 C 
ATOM     16  O   UNL     1       0.601  10.596  15.328  1.00  0.00    -0.550 OA
ATOM     17  O   UNL     1      -1.032  10.212  13.766  1.00  0.00    -0.550 OA
ENDBRANCH  14  15
ENDBRANCH  13  14
ENDBRANCH  12  13
ENDBRANCH  11  12
ENDBRANCH  10  11
ENDBRANCH   9  10
ENDBRANCH   8   9
ENDBRANCH   7   8
ENDBRANCH   6   7
ENDBRANCH   5   6
ENDBRANCH   4   5
ENDBRANCH   3   4
ENDBRANCH   2   3
ENDBRANCH   1   2
BRANCH   1  18
ATOM     18  C   UNL     1       5.582  11.612  11.632  1.00  0.00     0.000 C 
BRANCH  18  19
ATOM     19  C   UNL     1       6.550  10.638  10.938  1.00  0.00     0.000 C 
BRANCH  19  20
ATOM     20  C   UNL     1       6.735  10.869   9.424  1.00  0.00     0.000 C 
BRANCH  20  21
ATOM     21  C   UNL     1       5.481  10.628   8.564  1.00  0.00     0.000 C 
BRANCH  21  22
ATOM     22  C   UNL     1       5.087   9.143   8.490  1.00  0.00     0.000 C 
BRANCH  22  23
ATOM     23  C   UNL     1       6.173   8.272   7.839  1.00  0.00     0.000 C 
BRANCH  23  24
ATOM     24  C   UNL     1       6.293   6.883   8.495  1.00  0.00    -0.000 C 
BRANCH  24  25
ATOM     25  C   UNL     1       7.188   6.905   9.753  1.00  0.00    -0.000 C 
BRANCH  25  26
ATOM     26  C   UNL     1       8.639   7.347   9.476  1.00  0.00    -0.000 C 
BRANCH  26  27
ATOM     27  C   UNL     1       9.232   8.310  10.519  1.00  0.00    -0.000 C 
BRANCH  27  28
ATOM     28  C   UNL     1      10.558   8.936  10.060  1.00  0.00    -0.000 C 
BRANCH  28  29
ATOM     29  C   UNL     1      10.986  10.067  11.001  1.00  0.00    -0.000 C 
BRANCH  29  30
ATOM     30  C   UNL     1      10.551  11.431  10.454  1.00  0.00    -0.000 C 
BRANCH  30  31
ATOM     31  C   UNL     1       9.757  12.217  11.503  1.00  0.00    -0.003 C 
ATOM     32  C   UNL     1       9.646  11.439  12.811  1.00  0.00     0.004 C 
ENDBRANCH  30  31
ENDBRANCH  29  30
ENDBRANCH  28  29
ENDBRANCH  27  28
ENDBRANCH  26  27
ENDBRANCH  25  26
ENDBRANCH  24  25
ENDBRANCH  23  24
ENDBRANCH  22  23
ENDBRANCH  21  22
ENDBRANCH  20  21
ENDBRANCH  19  20
ENDBRANCH  18  19
ENDBRANCH   1  18
TORSDOF 28
ENDMDL
MODEL 7
REMARK VINA RESULT:    -4.128      2.106      5.717
REMARK INTER + INTRA:         -16.110
REMARK INTER:                 -10.479
REMARK INTRA:                  -5.632
REMARK UNBOUND:                -5.225
REMARK SMILES CCCCCCCCCCCCCCCCCCCCCCCCCCCCCC(=O)[O-]
REMARK SMILES IDX 16 1 17 2 18 3 19 4 20 5 21 6 22 7 23 8 24 9 25 10 26 11
REMARK SMILES IDX 27 12 28 13 29 14 30 15 31 16 32 17 15 18 14 19 13 20 12 21
REMARK SMILES IDX 11 22 10 23 9 24 8 25 7 26 6 27 5 28 4 29 3 30 2 31 1 32
REMARK H PARENT
REMARK Flexibility Score: inf
ROOT
ATOM      1  C   UNL     1       4.706   6.473   8.486  1.00  0.00     0.000 C 
ENDROOT
BRANCH   1   2
ATOM      2  C   UNL     1       4.291   7.478   7.400  1.00  0.00     0.000 C 
BRANCH   2   3
ATOM      3  C   UNL     1       2.797   7.847   7.461  1.00  0.00     0.000 C 
BRANCH   3   4
ATOM      4  C   UNL     1       2.503   9.283   7.933  1.00  0.00     0.000 C 
BRANCH   4   5
ATOM      5  C   UNL     1       2.857   9.510   9.412  1.00  0.00     0.000 C 
BRANCH   5   6
ATOM      6  C   UNL     1       3.769  10.730   9.624  1.00  0.00     0.000 C 
BRANCH   6   7
ATOM      7  C   UNL     1       4.442  11.194   8.321  1.00  0.00     0.000 C 
BRANCH   7   8
ATOM      8  C   UNL     1       4.055  12.632   7.932  1.00  0.00     0.000 C 
BRANCH   8   9
ATOM      9  C   UNL     1       3.477  13.478   9.082  1.00  0.00     0.000 C 
BRANCH   9  10
ATOM     10  C   UNL     1       2.107  14.097   8.741  1.00  0.00     0.000 C 
BRANCH  10  11
ATOM     11  C   UNL     1       1.017  13.038   8.477  1.00  0.00     0.000 C 
BRANCH  11  12
ATOM     12  C   UNL     1      -0.050  12.939   9.583  1.00  0.00     0.000 C 
BRANCH  12  13
ATOM     13  C   UNL     1       0.102  11.699  10.489  1.00  0.00     0.006 C 
BRANCH  13  14
ATOM     14  C   UNL     1       1.094  11.942  11.634  1.00  0.00     0.053 C 
BRANCH  14  15
ATOM     15  C   UNL     1       0.428  11.736  12.957  1.00  0.00     0.041 C 
ATOM     16  O   UNL     1       1.008  11.082  13.866  1.00  0.00    -0.550 OA
ATOM     17  O   UNL     1      -0.809  12.316  13.210  1.00  0.00    -0.550 OA
ENDBRANCH  14  15
ENDBRANCH  13  14
ENDBRANCH  12  13
ENDBRANCH  11  12
ENDBRANCH  10  11
ENDBRANCH   9  10
ENDBRANCH   8   9
ENDBRANCH   7   8
ENDBRANCH   6   7
ENDBRANCH   5   6
ENDBRANCH   4   5
ENDBRANCH   3   4
ENDBRANCH   2   3
ENDBRANCH   1   2
BRANCH   1  18
ATOM     18  C   UNL     1       6.129   6.761   8.986  1.00  0.00     0.000 C 
BRANCH  18  19
ATOM     19  C   UNL     1       6.642   8.148   8.560  1.00  0.00     0.000 C 
BRANCH  19  20
ATOM     20  C   UNL     1       7.252   8.995   9.695  1.00  0.00     0.000 C 
BRANCH  20  21
ATOM     21  C   UNL     1       8.743   9.339   9.532  1.00  0.00     0.000 C 
BRANCH  21  22
ATOM     22  C   UNL     1       9.651   8.504  10.449  1.00  0.00     0.000 C 
BRANCH  22  23
ATOM     23  C   UNL     1      10.638   9.365  11.253  1.00  0.00     0.000 C 
BRANCH  23  24
ATOM     24  C   UNL     1      10.265  10.859  11.248  1.00  0.00    -0.000 C 
BRANCH  24  25
ATOM     25  C   UNL     1       9.806  11.354  12.637  1.00  0.00    -0.000 C 
BRANCH  25  26
ATOM     26  C   UNL     1       8.372  11.918  12.651  1.00  0.00    -0.000 C 
BRANCH  26  27
ATOM     27  C   UNL     1       7.855  12.409  11.288  1.00  0.00    -0.000 C 
BRANCH  27  28
ATOM     28  C   UNL     1       6.371  12.803  11.323  1.00  0.00    -0.000 C 
BRANCH  28  29
ATOM     29  C   UNL     1       5.614  11.997  12.384  1.00  0.00    -0.000 C 
BRANCH  29  30
ATOM     30  C   UNL     1       4.460  12.815  12.975  1.00  0.00    -0.000 C 
BRANCH  30  31
ATOM     31  C   UNL     1       4.536  14.279  12.527  1.00  0.00    -0.003 C 
ATOM     32  C   UNL     1       3.148  14.907  12.449  1.00  0.00     0.004 C 
ENDBRANCH  30  31
ENDBRANCH  29  30
ENDBRANCH  28  29
ENDBRANCH  27  28
ENDBRANCH  26  27
ENDBRANCH  25  26
ENDBRANCH  24  25
ENDBRANCH  23  24
ENDBRANCH  22  23
ENDBRANCH  21  22
ENDBRANCH  20  21
ENDBRANCH  19  20
ENDBRANCH  18  19
ENDBRANCH   1  18
TORSDOF 28
ENDMDL
MODEL 8
REMARK VINA RESULT:    -4.128      3.472      8.764
REMARK INTER + INTRA:         -16.109
REMARK INTER:                 -11.752
REMARK INTRA:                  -4.357
REMARK UNBOUND:                -5.225
REMARK SMILES CCCCCCCCCCCCCCCCCCCCCCCCCCCCCC(=O)[O-]
REMARK SMILES IDX 16 1 17 2 18 3 19 4 20 5 21 6 22 7 23 8 24 9 25 10 26 11
REMARK SMILES IDX 27 12 28 13 29 14 30 15 31 16 32 17 15 18 14 19 13 20 12 21
REMARK SMILES IDX 11 22 10 23 9 24 8 25 7 26 6 27 5 28 4 29 3 30 2 31 1 32
REMARK H PARENT
REMARK Flexibility Score: inf
ROOT
ATOM      1  C   UNL     1       3.188   7.819   8.339  1.00  0.00     0.000 C 
ENDROOT
BRANCH   1   2
ATOM      2  C   UNL     1       4.555   7.497   7.716  1.00  0.00     0.000 C 
BRANCH   2   3
ATOM      3  C   UNL     1       5.413   6.568   8.595  1.00  0.00     0.000 C 
BRANCH   3   4
ATOM      4  C   UNL     1       6.922   6.875   8.584  1.00  0.00     0.000 C 
BRANCH   4   5
ATOM      5  C   UNL     1       7.493   7.107   9.993  1.00  0.00     0.000 C 
BRANCH   5   6
ATOM      6  C   UNL     1       8.040   8.531  10.185  1.00  0.00     0.000 C 
BRANCH   6   7
ATOM      7  C   UNL     1       7.288   9.569   9.334  1.00  0.00     0.000 C 
BRANCH   7   8
ATOM      8  C   UNL     1       8.173  10.763   8.934  1.00  0.00     0.000 C 
BRANCH   8   9
ATOM      9  C   UNL     1       8.964  11.397  10.094  1.00  0.00     0.000 C 
BRANCH   9  10
ATOM     10  C   UNL     1      10.490  11.264   9.922  1.00  0.00     0.000 C 
BRANCH  10  11
ATOM     11  C   UNL     1      11.287  12.078  10.963  1.00  0.00     0.000 C 
BRANCH  11  12
ATOM     12  C   UNL     1      11.647  11.293  12.238  1.00  0.00     0.000 C 
BRANCH  12  13
ATOM     13  C   UNL     1      10.514  11.247  13.285  1.00  0.00     0.006 C 
BRANCH  13  14
ATOM     14  C   UNL     1      10.213  12.636  13.866  1.00  0.00     0.053 C 
BRANCH  14  15
ATOM     15  C   UNL     1      10.049  12.557  15.350  1.00  0.00     0.041 C 
ATOM     16  O   UNL     1       8.905  12.399  15.856  1.00  0.00    -0.550 OA
ATOM     17  O   UNL     1      11.166  12.599  16.176  1.00  0.00    -0.550 OA
ENDBRANCH  14  15
ENDBRANCH  13  14
ENDBRANCH  12  13
ENDBRANCH  11  12
ENDBRANCH  10  11
ENDBRANCH   9  10
ENDBRANCH   8   9
ENDBRANCH   7   8
ENDBRANCH   6   7
ENDBRANCH   5   6
ENDBRANCH   4   5
ENDBRANCH   3   4
ENDBRANCH   2   3
ENDBRANCH   1   2
BRANCH   1  18
ATOM     18  C   UNL     1       2.811   9.289   8.109  1.00  0.00     0.000 C 
BRANCH  18  19
ATOM     19  C   UNL     1       3.890  10.266   8.610  1.00  0.00     0.000 C 
BRANCH  19  20
ATOM     20  C   UNL     1       3.374  11.670   8.987  1.00  0.00     0.000 C 
BRANCH  20  21
ATOM     21  C   UNL     1       3.798  12.804   8.036  1.00  0.00     0.000 C 
BRANCH  21  22
ATOM     22  C   UNL     1       2.632  13.737   7.667  1.00  0.00     0.000 C 
BRANCH  22  23
ATOM     23  C   UNL     1       1.277  13.228   8.183  1.00  0.00     0.000 C 
BRANCH  23  24
ATOM     24  C   UNL     1       0.677  14.135   9.273  1.00  0.00    -0.000 C 
BRANCH  24  25
ATOM     25  C   UNL     1       1.572  15.356   9.579  1.00  0.00    -0.000 C 
BRANCH  25  26
ATOM     26  C   UNL     1       2.274  15.283  10.948  1.00  0.00    -0.000 C 
BRANCH  26  27
ATOM     27  C   UNL     1       2.119  13.941  11.684  1.00  0.00    -0.000 C 
BRANCH  27  28
ATOM     28  C   UNL     1       3.454  13.404  12.224  1.00  0.00    -0.000 C 
BRANCH  28  29
ATOM     29  C   UNL     1       4.624  14.281  11.768  1.00  0.00    -0.000 C 
BRANCH  29  30
ATOM     30  C   UNL     1       5.755  13.428  11.181  1.00  0.00    -0.000 C 
BRANCH  30  31
ATOM     31  C   UNL     1       5.779  12.034  11.817  1.00  0.00    -0.003 C 
ATOM     32  C   UNL     1       6.714  11.992  13.022  1.00  0.00     0.004 C 
ENDBRANCH  30  31
ENDBRANCH  29  30
ENDBRANCH  28  29
ENDBRANCH  27  28
ENDBRANCH  26  27
ENDBRANCH  25  26
ENDBRANCH  24  25
ENDBRANCH  23  24
ENDBRANCH  22  23
ENDBRANCH  21  22
ENDBRANCH  20  21
ENDBRANCH  19  20
ENDBRANCH  18  19
ENDBRANCH   1  18
TORSDOF 28
ENDMDL
MODEL 9
REMARK VINA RESULT:    -4.120      2.278      8.090
REMARK INTER + INTRA:         -16.090
REMARK INTER:                 -11.063
REMARK INTRA:                  -5.027
REMARK UNBOUND:                -5.225
REMARK SMILES CCCCCCCCCCCCCCCCCCCCCCCCCCCCCC(=O)[O-]
REMARK SMILES IDX 16 1 17 2 18 3 19 4 20 5 21 6 22 7 23 8 24 9 25 10 26 11
REMARK SMILES IDX 27 12 28 13 29 14 30 15 31 16 32 17 15 18 14 19 13 20 12 21
REMARK SMILES IDX 11 22 10 23 9 24 8 25 7 26 6 27 5 28 4 29 3 30 2 31 1 32
REMARK H PARENT
REMARK Flexibility Score: inf
ROOT
ATOM      1  C   UNL     1       6.461  11.181  11.307  1.00  0.00     0.000 C 
ENDROOT
BRANCH   1   2
ATOM      2  C   UNL     1       7.840  10.508  11.225  1.00  0.00     0.000 C 
BRANCH   2   3
ATOM      3  C   UNL     1       8.912  11.228  12.064  1.00  0.00     0.000 C 
BRANCH   3   4
ATOM      4  C   UNL     1      10.350  10.724  11.849  1.00  0.00     0.000 C 
BRANCH   4   5
ATOM      5  C   UNL     1      10.428   9.535  10.877  1.00  0.00     0.000 C 
BRANCH   5   6
ATOM      6  C   UNL     1      11.601   8.591  11.185  1.00  0.00     0.000 C 
BRANCH   6   7
ATOM      7  C   UNL     1      12.093   7.839   9.936  1.00  0.00     0.000 C 
BRANCH   7   8
ATOM      8  C   UNL     1      11.711   6.347   9.953  1.00  0.00     0.000 C 
BRANCH   8   9
ATOM      9  C   UNL     1      11.115   5.849  11.284  1.00  0.00     0.000 C 
BRANCH   9  10
ATOM     10  C   UNL     1       9.694   5.274  11.126  1.00  0.00     0.000 C 
BRANCH  10  11
ATOM     11  C   UNL     1       9.008   5.714   9.815  1.00  0.00     0.000 C 
BRANCH  11  12
ATOM     12  C   UNL     1       7.950   6.818   9.995  1.00  0.00     0.000 C 
BRANCH  12  13
ATOM     13  C   UNL     1       7.745   7.697   8.744  1.00  0.00     0.006 C 
BRANCH  13  14
ATOM     14  C   UNL     1       6.353   8.346   8.720  1.00  0.00     0.053 C 
BRANCH  14  15
ATOM     15  C   UNL     1       5.345   7.400   8.149  1.00  0.00     0.041 C 
ATOM     16  O   UNL     1       4.128   7.504   8.460  1.00  0.00    -0.550 OA
ATOM     17  O   UNL     1       5.739   6.441   7.224  1.00  0.00    -0.550 OA
ENDBRANCH  14  15
ENDBRANCH  13  14
ENDBRANCH  12  13
ENDBRANCH  11  12
ENDBRANCH  10  11
ENDBRANCH   9  10
ENDBRANCH   8   9
ENDBRANCH   7   8
ENDBRANCH   6   7
ENDBRANCH   5   6
ENDBRANCH   4   5
ENDBRANCH   3   4
ENDBRANCH   2   3
ENDBRANCH   1   2
BRANCH   1  18
ATOM     18  C   UNL     1       6.551  12.535  12.025  1.00  0.00     0.000 C 
BRANCH  18  19
ATOM     19  C   UNL     1       5.904  13.679  11.223  1.00  0.00     0.000 C 
BRANCH  19  20
ATOM     20  C   UNL     1       4.835  14.487  11.986  1.00  0.00     0.000 C 
BRANCH  20  21
ATOM     21  C   UNL     1       3.700  13.654  12.608  1.00  0.00     0.000 C 
BRANCH  21  22
ATOM     22  C   UNL     1       2.306  14.229  12.309  1.00  0.00     0.000 C 
BRANCH  22  23
ATOM     23  C   UNL     1       2.086  14.505  10.813  1.00  0.00     0.000 C 
BRANCH  23  24
ATOM     24  C   UNL     1       0.910  13.701  10.226  1.00  0.00    -0.000 C 
BRANCH  24  25
ATOM     25  C   UNL     1       0.891  13.734   8.682  1.00  0.00    -0.000 C 
BRANCH  25  26
ATOM     26  C   UNL     1       2.200  14.250   8.055  1.00  0.00    -0.000 C 
BRANCH  26  27
ATOM     27  C   UNL     1       3.074  13.168   7.398  1.00  0.00    -0.000 C 
BRANCH  27  28
ATOM     28  C   UNL     1       4.080  12.544   8.378  1.00  0.00    -0.000 C 
BRANCH  28  29
ATOM     29  C   UNL     1       3.736  11.076   8.658  1.00  0.00    -0.000 C 
BRANCH  29  30
ATOM     30  C   UNL     1       3.153  10.908  10.065  1.00  0.00    -0.000 C 
BRANCH  30  31
ATOM     31  C   UNL     1       1.905  10.018  10.041  1.00  0.00    -0.003 C 
ATOM     32  C   UNL     1       1.288   9.968   8.646  1.00  0.00     0.004 C 
ENDBRANCH  30  31
ENDBRANCH  29  30
ENDBRANCH  28  29
ENDBRANCH  27  28
ENDBRANCH  26  27
ENDBRANCH  25  26
ENDBRANCH  24  25
ENDBRANCH  23  24
ENDBRANCH  22  23
ENDBRANCH  21  22
ENDBRANCH  20  21
ENDBRANCH  19  20
ENDBRANCH  18  19
ENDBRANCH   1  18
TORSDOF 28
ENDMDL
