MODEL 1
REMARK VINA RESULT:    -2.808      0.000      0.000
REMARK INTER + INTRA:          -4.917
REMARK INTER:                  -4.122
REMARK INTRA:                  -0.796
REMARK UNBOUND:                -0.796
REMARK SMILES O=C([O-])CCCCCCCC(=O)[O-]
REMARK SMILES IDX 7 1 6 2 5 3 4 4 2 5 1 6 3 7 8 8 9 9 10 10 11 11 12 12 13 13
REMARK H PARENT
REMARK Flexibility Score: inf
ROOT
ATOM      1  C   UNL     1     145.875 165.265 152.832  1.00  0.00     0.000 C 
ENDROOT
BRANCH   1   2
ATOM      2  C   UNL     1     146.999 166.086 153.481  1.00  0.00     0.000 C 
BRANCH   2   3
ATOM      3  C   UNL     1     146.986 165.994 155.017  1.00  0.00     0.006 C 
BRANCH   3   4
ATOM      4  C   UNL     1     146.499 164.624 155.511  1.00  0.00     0.053 C 
BRANCH   4   5
ATOM      5  C   UNL     1     147.633 163.661 155.683  1.00  0.00     0.041 C 
ATOM      6  O   UNL     1     147.407 162.425 155.775  1.00  0.00    -0.550 OA
ATOM      7  O   UNL     1     148.943 164.124 155.705  1.00  0.00    -0.550 OA
ENDBRANCH   4   5
ENDBRANCH   3   4
ENDBRANCH   2   3
ENDBRANCH   1   2
BRANCH   1   8
ATOM      8  C   UNL     1     145.987 165.217 151.298  1.00  0.00     0.000 C 
BRANCH   8   9
ATOM      9  C   UNL     1     146.510 163.864 150.782  1.00  0.00     0.006 C 
BRANCH   9  10
ATOM     10  C   UNL     1     146.520 162.747 151.838  1.00  0.00     0.053 C 
BRANCH  10  11
ATOM     11  C   UNL     1     147.911 162.330 152.202  1.00  0.00     0.041 C 
ATOM     12  O   UNL     1     148.810 163.196 152.361  1.00  0.00    -0.550 OA
ATOM     13  O   UNL     1     148.206 160.987 152.400  1.00  0.00    -0.550 OA
ENDBRANCH  10  11
ENDBRANCH   9  10
ENDBRANCH   8   9
ENDBRANCH   1   8
TORSDOF 8
ENDMDL
MODEL 2
REMARK VINA RESULT:    -2.746      0.962      3.596
REMARK INTER + INTRA:          -4.826
REMARK INTER:                  -3.953
REMARK INTRA:                  -0.873
REMARK UNBOUND:                -0.796
REMARK SMILES O=C([O-])CCCCCCCC(=O)[O-]
REMARK SMILES IDX 7 1 6 2 5 3 4 4 2 5 1 6 3 7 8 8 9 9 10 10 11 11 12 12 13 13
REMARK H PARENT
REMARK Flexibility Score: inf
ROOT
ATOM      1  C   UNL     1     146.024 164.939 151.862  1.00  0.00     0.000 C 
ENDROOT
BRANCH   1   2
ATOM      2  C   UNL     1     146.232 163.589 151.159  1.00  0.00     0.000 C 
BRANCH   2   3
ATOM      3  C   UNL     1     146.095 162.396 152.122  1.00  0.00     0.006 C 
BRANCH   3   4
ATOM      4  C   UNL     1     147.228 161.375 151.944  1.00  0.00     0.053 C 
BRANCH   4   5
ATOM      5  C   UNL     1     148.335 161.598 152.927  1.00  0.00     0.041 C 
ATOM      6  O   UNL     1     148.399 160.907 153.978  1.00  0.00    -0.550 OA
ATOM      7  O   UNL     1     149.319 162.543 152.665  1.00  0.00    -0.550 OA
ENDBRANCH   4   5
ENDBRANCH   3   4
ENDBRANCH   2   3
ENDBRANCH   1   2
BRANCH   1   8
ATOM      8  C   UNL     1     147.256 165.380 152.671  1.00  0.00     0.000 C 
BRANCH   8   9
ATOM      9  C   UNL     1     146.893 165.890 154.078  1.00  0.00     0.006 C 
BRANCH   9  10
ATOM     10  C   UNL     1     146.044 164.910 154.903  1.00  0.00     0.053 C 
BRANCH  10  11
ATOM     11  C   UNL     1     146.874 163.823 155.514  1.00  0.00     0.041 C 
ATOM     12  O   UNL     1     148.101 164.007 155.726  1.00  0.00    -0.550 OA
ATOM     13  O   UNL     1     146.285 162.620 155.880  1.00  0.00    -0.550 OA
ENDBRANCH  10  11
ENDBRANCH   9  10
ENDBRANCH   8   9
ENDBRANCH   1   8
TORSDOF 8
ENDMDL
MODEL 3
REMARK VINA RESULT:    -2.653      1.294      2.147
REMARK INTER + INTRA:          -4.689
REMARK INTER:                  -4.088
REMARK INTRA:                  -0.601
REMARK UNBOUND:                -0.796
REMARK SMILES O=C([O-])CCCCCCCC(=O)[O-]
REMARK SMILES IDX 7 1 6 2 5 3 4 4 2 5 1 6 3 7 8 8 9 9 10 10 11 11 12 12 13 13
REMARK H PARENT
REMARK Flexibility Score: inf
ROOT
ATOM      1  C   UNL     1     147.154 164.027 151.956  1.00  0.00     0.000 C 
ENDROOT
BRANCH   1   2
ATOM      2  C   UNL     1     146.269 165.070 152.656  1.00  0.00     0.000 C 
BRANCH   2   3
ATOM      3  C   UNL     1     147.077 166.013 153.565  1.00  0.00     0.006 C 
BRANCH   3   4
ATOM      4  C   UNL     1     146.691 165.864 155.043  1.00  0.00     0.053 C 
BRANCH   4   5
ATOM      5  C   UNL     1     147.104 164.535 155.594  1.00  0.00     0.041 C 
ATOM      6  O   UNL     1     148.317 164.196 155.589  1.00  0.00    -0.550 OA
ATOM      7  O   UNL     1     146.155 163.684 156.147  1.00  0.00    -0.550 OA
ENDBRANCH   4   5
ENDBRANCH   3   4
ENDBRANCH   2   3
ENDBRANCH   1   2
BRANCH   1   8
ATOM      8  C   UNL     1     146.345 162.842 151.401  1.00  0.00     0.000 C 
BRANCH   8   9
ATOM      9  C   UNL     1     146.841 161.483 151.927  1.00  0.00     0.006 C 
BRANCH   9  10
ATOM     10  C   UNL     1     147.494 161.546 153.318  1.00  0.00     0.053 C 
BRANCH  10  11
ATOM     11  C   UNL     1     148.884 160.986 153.312  1.00  0.00     0.041 C 
ATOM     12  O   UNL     1     149.252 160.200 154.224  1.00  0.00    -0.550 OA
ATOM     13  O   UNL     1     149.759 161.306 152.283  1.00  0.00    -0.550 OA
ENDBRANCH  10  11
ENDBRANCH   9  10
ENDBRANCH   8   9
ENDBRANCH   1   8
TORSDOF 8
ENDMDL
MODEL 4
REMARK VINA RESULT:    -2.637      1.979      3.380
REMARK INTER + INTRA:          -4.666
REMARK INTER:                  -3.917
REMARK INTRA:                  -0.749
REMARK UNBOUND:                -0.796
REMARK SMILES O=C([O-])CCCCCCCC(=O)[O-]
REMARK SMILES IDX 7 1 6 2 5 3 4 4 2 5 1 6 3 7 8 8 9 9 10 10 11 11 12 12 13 13
REMARK H PARENT
REMARK Flexibility Score: inf
ROOT
ATOM      1  C   UNL     1     146.164 163.219 155.154  1.00  0.00     0.000 C 
ENDROOT
BRANCH   1   2
ATOM      2  C   UNL     1     146.407 164.491 155.980  1.00  0.00     0.000 C 
BRANCH   2   3
ATOM      3  C   UNL     1     146.277 165.774 155.139  1.00  0.00     0.006 C 
BRANCH   3   4
ATOM      4  C   UNL     1     146.209 165.476 153.634  1.00  0.00     0.053 C 
BRANCH   4   5
ATOM      5  C   UNL     1     147.392 166.032 152.904  1.00  0.00     0.041 C 
ATOM      6  O   UNL     1     147.239 166.607 151.794  1.00  0.00    -0.550 OA
ATOM      7  O   UNL     1     148.660 165.946 153.465  1.00  0.00    -0.550 OA
ENDBRANCH   4   5
ENDBRANCH   3   4
ENDBRANCH   2   3
ENDBRANCH   1   2
BRANCH   1   8
ATOM      8  C   UNL     1     147.161 162.097 155.491  1.00  0.00     0.000 C 
BRANCH   8   9
ATOM      9  C   UNL     1     147.727 161.408 154.236  1.00  0.00     0.006 C 
BRANCH   9  10
ATOM     10  C   UNL     1     148.141 162.377 153.116  1.00  0.00     0.053 C 
BRANCH  10  11
ATOM     11  C   UNL     1     147.441 162.077 151.826  1.00  0.00     0.041 C 
ATOM     12  O   UNL     1     147.021 160.914 151.590  1.00  0.00    -0.550 OA
ATOM     13  O   UNL     1     147.224 163.090 150.901  1.00  0.00    -0.550 OA
ENDBRANCH  10  11
ENDBRANCH   9  10
ENDBRANCH   8   9
ENDBRANCH   1   8
TORSDOF 8
ENDMDL
MODEL 5
REMARK VINA RESULT:    -2.611      1.755      3.239
REMARK INTER + INTRA:          -4.627
REMARK INTER:                  -3.829
REMARK INTRA:                  -0.798
REMARK UNBOUND:                -0.796
REMARK SMILES O=C([O-])CCCCCCCC(=O)[O-]
REMARK SMILES IDX 7 1 6 2 5 3 4 4 2 5 1 6 3 7 8 8 9 9 10 10 11 11 12 12 13 13
REMARK H PARENT
REMARK Flexibility Score: inf
ROOT
ATOM      1  C   UNL     1     146.165 162.831 151.525  1.00  0.00     0.000 C 
ENDROOT
BRANCH   1   2
ATOM      2  C   UNL     1     147.326 161.933 151.979  1.00  0.00     0.000 C 
BRANCH   2   3
ATOM      3  C   UNL     1     147.444 161.853 153.512  1.00  0.00     0.006 C 
BRANCH   3   4
ATOM      4  C   UNL     1     146.402 162.731 154.220  1.00  0.00     0.053 C 
BRANCH   4   5
ATOM      5  C   UNL     1     146.993 163.461 155.387  1.00  0.00     0.041 C 
ATOM      6  O   UNL     1     148.205 163.299 155.689  1.00  0.00    -0.550 OA
ATOM      7  O   UNL     1     146.214 164.348 156.119  1.00  0.00    -0.550 OA
ENDBRANCH   4   5
ENDBRANCH   3   4
ENDBRANCH   2   3
ENDBRANCH   1   2
BRANCH   1   8
ATOM      8  C   UNL     1     146.640 164.034 150.691  1.00  0.00     0.000 C 
BRANCH   8   9
ATOM      9  C   UNL     1     146.019 165.363 151.157  1.00  0.00     0.006 C 
BRANCH   9  10
ATOM     10  C   UNL     1     146.548 165.866 152.510  1.00  0.00     0.053 C 
BRANCH  10  11
ATOM     11  C   UNL     1     148.013 166.178 152.460  1.00  0.00     0.041 C 
ATOM     12  O   UNL     1     148.814 165.574 153.220  1.00  0.00    -0.550 OA
ATOM     13  O   UNL     1     148.495 167.110 151.551  1.00  0.00    -0.550 OA
ENDBRANCH  10  11
ENDBRANCH   9  10
ENDBRANCH   8   9
ENDBRANCH   1   8
TORSDOF 8
ENDMDL
MODEL 6
REMARK VINA RESULT:    -2.607      1.579      4.324
REMARK INTER + INTRA:          -4.621
REMARK INTER:                  -4.018
REMARK INTRA:                  -0.604
REMARK UNBOUND:                -0.796
REMARK SMILES O=C([O-])CCCCCCCC(=O)[O-]
REMARK SMILES IDX 7 1 6 2 5 3 4 4 2 5 1 6 3 7 8 8 9 9 10 10 11 11 12 12 13 13
REMARK H PARENT
REMARK Flexibility Score: inf
ROOT
ATOM      1  C   UNL     1     146.859 163.612 150.789  1.00  0.00     0.000 C 
ENDROOT
BRANCH   1   2
ATOM      2  C   UNL     1     146.238 162.402 151.504  1.00  0.00     0.000 C 
BRANCH   2   3
ATOM      3  C   UNL     1     147.298 161.478 152.128  1.00  0.00     0.006 C 
BRANCH   3   4
ATOM      4  C   UNL     1     148.707 161.765 151.589  1.00  0.00     0.053 C 
BRANCH   4   5
ATOM      5  C   UNL     1     149.633 160.610 151.813  1.00  0.00     0.041 C 
ATOM      6  O   UNL     1     149.789 160.137 152.970  1.00  0.00    -0.550 OA
ATOM      7  O   UNL     1     150.297 160.032 150.739  1.00  0.00    -0.550 OA
ENDBRANCH   4   5
ENDBRANCH   3   4
ENDBRANCH   2   3
ENDBRANCH   1   2
BRANCH   1   8
ATOM      8  C   UNL     1     146.048 164.902 150.999  1.00  0.00     0.000 C 
BRANCH   8   9
ATOM      9  C   UNL     1     146.631 165.798 152.107  1.00  0.00     0.006 C 
BRANCH   9  10
ATOM     10  C   UNL     1     146.134 165.456 153.521  1.00  0.00     0.053 C 
BRANCH  10  11
ATOM     11  C   UNL     1     147.264 165.164 154.459  1.00  0.00     0.041 C 
ATOM     12  O   UNL     1     148.124 164.294 154.162  1.00  0.00    -0.550 OA
ATOM     13  O   UNL     1     147.387 165.878 155.644  1.00  0.00    -0.550 OA
ENDBRANCH  10  11
ENDBRANCH   9  10
ENDBRANCH   8   9
ENDBRANCH   1   8
TORSDOF 8
ENDMDL
MODEL 7
REMARK VINA RESULT:    -2.604      1.682      2.753
REMARK INTER + INTRA:          -4.618
REMARK INTER:                  -4.069
REMARK INTRA:                  -0.549
REMARK UNBOUND:                -0.796
REMARK SMILES O=C([O-])CCCCCCCC(=O)[O-]
REMARK SMILES IDX 7 1 6 2 5 3 4 4 2 5 1 6 3 7 8 8 9 9 10 10 11 11 12 12 13 13
REMARK H PARENT
REMARK Flexibility Score: inf
ROOT
ATOM      1  C   UNL     1     146.699 166.275 155.238  1.00  0.00     0.000 C 
ENDROOT
BRANCH   1   2
ATOM      2  C   UNL     1     145.911 165.228 156.040  1.00  0.00     0.000 C 
BRANCH   2   3
ATOM      3  C   UNL     1     145.902 163.849 155.358  1.00  0.00     0.006 C 
BRANCH   3   4
ATOM      4  C   UNL     1     146.552 162.766 156.231  1.00  0.00     0.053 C 
BRANCH   4   5
ATOM      5  C   UNL     1     147.716 162.122 155.542  1.00  0.00     0.041 C 
ATOM      6  O   UNL     1     147.560 161.042 154.912  1.00  0.00    -0.550 OA
ATOM      7  O   UNL     1     148.963 162.731 155.565  1.00  0.00    -0.550 OA
ENDBRANCH   4   5
ENDBRANCH   3   4
ENDBRANCH   2   3
ENDBRANCH   1   2
BRANCH   1   8
ATOM      8  C   UNL     1     147.525 165.650 154.101  1.00  0.00     0.000 C 
BRANCH   8   9
ATOM      9  C   UNL     1     147.170 166.230 152.719  1.00  0.00     0.006 C 
BRANCH   9  10
ATOM     10  C   UNL     1     146.085 165.444 151.965  1.00  0.00     0.053 C 
BRANCH  10  11
ATOM     11  C   UNL     1     146.626 164.773 150.740  1.00  0.00     0.041 C 
ATOM     12  O   UNL     1     146.288 165.178 149.596  1.00  0.00    -0.550 OA
ATOM     13  O   UNL     1     147.530 163.726 150.861  1.00  0.00    -0.550 OA
ENDBRANCH  10  11
ENDBRANCH   9  10
ENDBRANCH   8   9
ENDBRANCH   1   8
TORSDOF 8
ENDMDL
MODEL 8
REMARK VINA RESULT:    -2.600      1.812      3.416
REMARK INTER + INTRA:          -4.612
REMARK INTER:                  -3.758
REMARK INTRA:                  -0.854
REMARK UNBOUND:                -0.796
REMARK SMILES O=C([O-])CCCCCCCC(=O)[O-]
REMARK SMILES IDX 7 1 6 2 5 3 4 4 2 5 1 6 3 7 8 8 9 9 10 10 11 11 12 12 13 13
REMARK H PARENT
REMARK Flexibility Score: inf
ROOT
ATOM      1  C   UNL     1     147.843 165.149 155.257  1.00  0.00     0.000 C 
ENDROOT
BRANCH   1   2
ATOM      2  C   UNL     1     147.347 163.736 155.600  1.00  0.00     0.000 C 
BRANCH   2   3
ATOM      3  C   UNL     1     148.270 162.637 155.045  1.00  0.00     0.006 C 
BRANCH   3   4
ATOM      4  C   UNL     1     147.556 161.742 154.022  1.00  0.00     0.053 C 
BRANCH   4   5
ATOM      5  C   UNL     1     148.529 161.004 153.155  1.00  0.00     0.041 C 
ATOM      6  O   UNL     1     149.471 160.349 153.674  1.00  0.00    -0.550 OA
ATOM      7  O   UNL     1     148.374 161.009 151.774  1.00  0.00    -0.550 OA
ENDBRANCH   4   5
ENDBRANCH   3   4
ENDBRANCH   2   3
ENDBRANCH   1   2
BRANCH   1   8
ATOM      8  C   UNL     1     146.768 165.999 154.557  1.00  0.00     0.000 C 
BRANCH   8   9
ATOM      9  C   UNL     1     145.875 165.171 153.615  1.00  0.00     0.006 C 
BRANCH   9  10
ATOM     10  C   UNL     1     146.135 165.420 152.120  1.00  0.00     0.053 C 
BRANCH  10  11
ATOM     11  C   UNL     1     147.019 164.370 151.520  1.00  0.00     0.041 C 
ATOM     12  O   UNL     1     146.532 163.491 150.762  1.00  0.00    -0.550 OA
ATOM     13  O   UNL     1     148.385 164.383 151.772  1.00  0.00    -0.550 OA
ENDBRANCH  10  11
ENDBRANCH   9  10
ENDBRANCH   8   9
ENDBRANCH   1   8
TORSDOF 8
ENDMDL
MODEL 9
REMARK VINA RESULT:    -2.586      2.201      3.422
REMARK INTER + INTRA:          -4.591
REMARK INTER:                  -3.834
REMARK INTRA:                  -0.758
REMARK UNBOUND:                -0.796
REMARK SMILES O=C([O-])CCCCCCCC(=O)[O-]
REMARK SMILES IDX 7 1 6 2 5 3 4 4 2 5 1 6 3 7 8 8 9 9 10 10 11 11 12 12 13 13
REMARK H PARENT
REMARK Flexibility Score: inf
ROOT
ATOM      1  C   UNL     1     147.451 161.875 152.637  1.00  0.00     0.000 C 
ENDROOT
BRANCH   1   2
ATOM      2  C   UNL     1     147.263 161.825 154.160  1.00  0.00     0.000 C 
BRANCH   2   3
ATOM      3  C   UNL     1     146.420 162.998 154.690  1.00  0.00     0.006 C 
BRANCH   3   4
ATOM      4  C   UNL     1     147.233 163.935 155.594  1.00  0.00     0.053 C 
BRANCH   4   5
ATOM      5  C   UNL     1     147.703 165.150 154.856  1.00  0.00     0.041 C 
ATOM      6  O   UNL     1     147.033 166.216 154.900  1.00  0.00    -0.550 OA
ATOM      7  O   UNL     1     148.898 165.117 154.150  1.00  0.00    -0.550 OA
ENDBRANCH   4   5
ENDBRANCH   3   4
ENDBRANCH   2   3
ENDBRANCH   1   2
BRANCH   1   8
ATOM      8  C   UNL     1     146.185 162.345 151.900  1.00  0.00     0.000 C 
BRANCH   8   9
ATOM      9  C   UNL     1     146.439 163.565 150.996  1.00  0.00     0.006 C 
BRANCH   9  10
ATOM     10  C   UNL     1     145.918 164.893 151.569  1.00  0.00     0.053 C 
BRANCH  10  11
ATOM     11  C   UNL     1     146.574 166.078 150.928  1.00  0.00     0.041 C 
ATOM     12  O   UNL     1     147.453 166.729 151.551  1.00  0.00    -0.550 OA
ATOM     13  O   UNL     1     146.238 166.440 149.630  1.00  0.00    -0.550 OA
ENDBRANCH  10  11
ENDBRANCH   9  10
ENDBRANCH   8   9
ENDBRANCH   1   8
TORSDOF 8
ENDMDL
