MODEL 1
REMARK VINA RESULT:    -3.680      0.000      0.000
REMARK INTER + INTRA:         -11.608
REMARK INTER:                  -7.983
REMARK INTRA:                  -3.626
REMARK UNBOUND:                -3.626
REMARK SMILES CCCCCCCCCCCCCCCCCCCCCC(=O)[O-]
REMARK SMILES IDX 12 1 11 2 10 3 9 4 8 5 7 6 6 7 5 8 4 9 3 10 2 11 1 12 13 13
REMARK SMILES IDX 14 14 15 15 16 16 17 17 18 18 19 19 20 20 21 21 22 22 23 23
REMARK SMILES IDX 24 24
REMARK H PARENT
REMARK Flexibility Score: inf
ROOT
ATOM      1  C   UNL     1       5.285  -1.352  -1.294  1.00  0.00     0.000 C 
ENDROOT
BRANCH   1   2
ATOM      2  C   UNL     1       5.810  -0.021  -1.878  1.00  0.00     0.000 C 
BRANCH   2   3
ATOM      3  C   UNL     1       7.291   0.282  -1.579  1.00  0.00     0.000 C 
BRANCH   3   4
ATOM      4  C   UNL     1       8.259  -0.879  -1.862  1.00  0.00    -0.000 C 
BRANCH   4   5
ATOM      5  C   UNL     1       8.907  -1.431  -0.580  1.00  0.00    -0.000 C 
BRANCH   5   6
ATOM      6  C   UNL     1       8.548  -2.903  -0.325  1.00  0.00    -0.000 C 
BRANCH   6   7
ATOM      7  C   UNL     1       8.807  -3.326   1.133  1.00  0.00    -0.000 C 
BRANCH   7   8
ATOM      8  C   UNL     1       8.127  -2.389   2.144  1.00  0.00    -0.000 C 
BRANCH   8   9
ATOM      9  C   UNL     1       9.106  -1.855   3.202  1.00  0.00    -0.000 C 
BRANCH   9  10
ATOM     10  C   UNL     1       8.981  -0.330   3.352  1.00  0.00    -0.000 C 
BRANCH  10  11
ATOM     11  C   UNL     1       7.832   0.257   2.514  1.00  0.00    -0.003 C 
ATOM     12  C   UNL     1       8.236   1.526   1.760  1.00  0.00     0.004 C 
ENDBRANCH  10  11
ENDBRANCH   9  10
ENDBRANCH   8   9
ENDBRANCH   7   8
ENDBRANCH   6   7
ENDBRANCH   5   6
ENDBRANCH   4   5
ENDBRANCH   3   4
ENDBRANCH   2   3
ENDBRANCH   1   2
BRANCH   1  13
ATOM     13  C   UNL     1       5.228  -1.410   0.244  1.00  0.00     0.000 C 
BRANCH  13  14
ATOM     14  C   UNL     1       4.527  -2.672   0.765  1.00  0.00     0.000 C 
BRANCH  14  15
ATOM     15  C   UNL     1       4.818  -3.882  -0.137  1.00  0.00     0.000 C 
BRANCH  15  16
ATOM     16  C   UNL     1       5.443  -5.060   0.630  1.00  0.00     0.000 C 
BRANCH  16  17
ATOM     17  C   UNL     1       5.591  -4.841   2.149  1.00  0.00     0.000 C 
BRANCH  17  18
ATOM     18  C   UNL     1       4.659  -5.702   3.026  1.00  0.00     0.000 C 
BRANCH  18  19
ATOM     19  C   UNL     1       3.323  -5.039   3.408  1.00  0.00     0.000 C 
BRANCH  19  20
ATOM     20  C   UNL     1       2.106  -5.937   3.125  1.00  0.00     0.006 C 
BRANCH  20  21
ATOM     21  C   UNL     1       1.157  -5.312   2.094  1.00  0.00     0.053 C 
BRANCH  21  22
ATOM     22  C   UNL     1       1.542  -5.676   0.692  1.00  0.00     0.041 C 
ATOM     23  O   UNL     1       1.862  -6.860   0.404  1.00  0.00    -0.550 OA
ATOM     24  O   UNL     1       1.554  -4.701  -0.298  1.00  0.00    -0.550 OA
ENDBRANCH  21  22
ENDBRANCH  20  21
ENDBRANCH  19  20
ENDBRANCH  18  19
ENDBRANCH  17  18
ENDBRANCH  16  17
ENDBRANCH  15  16
ENDBRANCH  14  15
ENDBRANCH  13  14
ENDBRANCH   1  13
TORSDOF 20
ENDMDL
MODEL 2
REMARK VINA RESULT:    -3.636      3.546      6.595
REMARK INTER + INTRA:         -11.514
REMARK INTER:                  -8.618
REMARK INTRA:                  -2.895
REMARK UNBOUND:                -3.626
REMARK SMILES CCCCCCCCCCCCCCCCCCCCCC(=O)[O-]
REMARK SMILES IDX 12 1 11 2 10 3 9 4 8 5 7 6 6 7 5 8 4 9 3 10 2 11 1 12 13 13
REMARK SMILES IDX 14 14 15 15 16 16 17 17 18 18 19 19 20 20 21 21 22 22 23 23
REMARK SMILES IDX 24 24
REMARK H PARENT
REMARK Flexibility Score: inf
ROOT
ATOM      1  C   UNL     1       2.128  -4.178   1.488  1.00  0.00     0.000 C 
ENDROOT
BRANCH   1   2
ATOM      2  C   UNL     1       1.712  -4.925   2.776  1.00  0.00     0.000 C 
BRANCH   2   3
ATOM      3  C   UNL     1       2.859  -5.198   3.769  1.00  0.00     0.000 C 
BRANCH   3   4
ATOM      4  C   UNL     1       3.029  -6.674   4.169  1.00  0.00    -0.000 C 
BRANCH   4   5
ATOM      5  C   UNL     1       4.472  -7.006   4.589  1.00  0.00    -0.000 C 
BRANCH   5   6
ATOM      6  C   UNL     1       5.290  -5.750   4.929  1.00  0.00    -0.000 C 
BRANCH   6   7
ATOM      7  C   UNL     1       6.100  -5.912   6.229  1.00  0.00    -0.000 C 
BRANCH   7   8
ATOM      8  C   UNL     1       5.283  -5.542   7.477  1.00  0.00    -0.000 C 
BRANCH   8   9
ATOM      9  C   UNL     1       5.884  -4.350   8.241  1.00  0.00    -0.000 C 
BRANCH   9  10
ATOM     10  C   UNL     1       5.205  -4.170   9.609  1.00  0.00    -0.000 C 
BRANCH  10  11
ATOM     11  C   UNL     1       4.360  -2.887   9.689  1.00  0.00    -0.003 C 
ATOM     12  C   UNL     1       4.164  -2.221   8.326  1.00  0.00     0.004 C 
ENDBRANCH  10  11
ENDBRANCH   9  10
ENDBRANCH   8   9
ENDBRANCH   7   8
ENDBRANCH   6   7
ENDBRANCH   5   6
ENDBRANCH   4   5
ENDBRANCH   3   4
ENDBRANCH   2   3
ENDBRANCH   1   2
BRANCH   1  13
ATOM     13  C   UNL     1       1.925  -4.972   0.183  1.00  0.00     0.000 C 
BRANCH  13  14
ATOM     14  C   UNL     1       2.445  -6.413   0.278  1.00  0.00     0.000 C 
BRANCH  14  15
ATOM     15  C   UNL     1       3.880  -6.523  -0.261  1.00  0.00     0.000 C 
BRANCH  15  16
ATOM     16  C   UNL     1       4.942  -6.445   0.851  1.00  0.00     0.000 C 
BRANCH  16  17
ATOM     17  C   UNL     1       5.973  -5.311   0.686  1.00  0.00     0.000 C 
BRANCH  17  18
ATOM     18  C   UNL     1       5.686  -4.043   1.516  1.00  0.00     0.000 C 
BRANCH  18  19
ATOM     19  C   UNL     1       5.516  -2.750   0.696  1.00  0.00     0.000 C 
BRANCH  19  20
ATOM     20  C   UNL     1       4.872  -2.994  -0.680  1.00  0.00     0.006 C 
BRANCH  20  21
ATOM     21  C   UNL     1       5.790  -2.558  -1.829  1.00  0.00     0.053 C 
BRANCH  21  22
ATOM     22  C   UNL     1       6.041  -1.081  -1.812  1.00  0.00     0.041 C 
ATOM     23  O   UNL     1       5.077  -0.269  -1.829  1.00  0.00    -0.550 OA
ATOM     24  O   UNL     1       7.344  -0.599  -1.786  1.00  0.00    -0.550 OA
ENDBRANCH  21  22
ENDBRANCH  20  21
ENDBRANCH  19  20
ENDBRANCH  18  19
ENDBRANCH  17  18
ENDBRANCH  16  17
ENDBRANCH  15  16
ENDBRANCH  14  15
ENDBRANCH  13  14
ENDBRANCH   1  13
TORSDOF 20
ENDMDL
MODEL 3
REMARK VINA RESULT:    -3.620      3.801      7.392
REMARK INTER + INTRA:         -11.478
REMARK INTER:                  -9.646
REMARK INTRA:                  -1.832
REMARK UNBOUND:                -3.626
REMARK SMILES CCCCCCCCCCCCCCCCCCCCCC(=O)[O-]
REMARK SMILES IDX 12 1 11 2 10 3 9 4 8 5 7 6 6 7 5 8 4 9 3 10 2 11 1 12 13 13
REMARK SMILES IDX 14 14 15 15 16 16 17 17 18 18 19 19 20 20 21 21 22 22 23 23
REMARK SMILES IDX 24 24
REMARK H PARENT
REMARK Flexibility Score: inf
ROOT
ATOM      1  C   UNL     1       8.286   0.473  -0.187  1.00  0.00     0.000 C 
ENDROOT
BRANCH   1   2
ATOM      2  C   UNL     1       7.900   0.199  -1.657  1.00  0.00     0.000 C 
BRANCH   2   3
ATOM      3  C   UNL     1       6.410   0.413  -1.990  1.00  0.00     0.000 C 
BRANCH   3   4
ATOM      4  C   UNL     1       5.576  -0.877  -2.080  1.00  0.00    -0.000 C 
BRANCH   4   5
ATOM      5  C   UNL     1       5.050  -1.334  -0.708  1.00  0.00    -0.000 C 
BRANCH   5   6
ATOM      6  C   UNL     1       5.121  -2.858  -0.528  1.00  0.00    -0.000 C 
BRANCH   6   7
ATOM      7  C   UNL     1       5.226  -3.270   0.953  1.00  0.00    -0.000 C 
BRANCH   7   8
ATOM      8  C   UNL     1       4.626  -4.659   1.217  1.00  0.00    -0.000 C 
BRANCH   8   9
ATOM      9  C   UNL     1       3.243  -4.837   0.568  1.00  0.00    -0.000 C 
BRANCH   9  10
ATOM     10  C   UNL     1       2.158  -4.094   1.365  1.00  0.00    -0.000 C 
BRANCH  10  11
ATOM     11  C   UNL     1       1.929  -4.696   2.762  1.00  0.00    -0.003 C 
ATOM     12  C   UNL     1       0.983  -5.898   2.742  1.00  0.00     0.004 C 
ENDBRANCH  10  11
ENDBRANCH   9  10
ENDBRANCH   8   9
ENDBRANCH   7   8
ENDBRANCH   6   7
ENDBRANCH   5   6
ENDBRANCH   4   5
ENDBRANCH   3   4
ENDBRANCH   2   3
ENDBRANCH   1   2
BRANCH   1  13
ATOM     13  C   UNL     1       8.075  -0.714   0.773  1.00  0.00     0.000 C 
BRANCH  13  14
ATOM     14  C   UNL     1       7.512  -0.283   2.135  1.00  0.00     0.000 C 
BRANCH  14  15
ATOM     15  C   UNL     1       8.642  -0.017   3.144  1.00  0.00     0.000 C 
BRANCH  15  16
ATOM     16  C   UNL     1       8.625   1.421   3.692  1.00  0.00     0.000 C 
BRANCH  16  17
ATOM     17  C   UNL     1       7.769   2.415   2.881  1.00  0.00     0.000 C 
BRANCH  17  18
ATOM     18  C   UNL     1       6.940   3.403   3.727  1.00  0.00     0.000 C 
BRANCH  18  19
ATOM     19  C   UNL     1       7.275   3.418   5.229  1.00  0.00     0.000 C 
BRANCH  19  20
ATOM     20  C   UNL     1       6.089   3.862   6.104  1.00  0.00     0.006 C 
BRANCH  20  21
ATOM     21  C   UNL     1       4.937   4.431   5.264  1.00  0.00     0.053 C 
BRANCH  21  22
ATOM     22  C   UNL     1       3.698   3.598   5.383  1.00  0.00     0.041 C 
ATOM     23  O   UNL     1       3.115   3.472   6.493  1.00  0.00    -0.550 OA
ATOM     24  O   UNL     1       3.188   2.951   4.263  1.00  0.00    -0.550 OA
ENDBRANCH  21  22
ENDBRANCH  20  21
ENDBRANCH  19  20
ENDBRANCH  18  19
ENDBRANCH  17  18
ENDBRANCH  16  17
ENDBRANCH  15  16
ENDBRANCH  14  15
ENDBRANCH  13  14
ENDBRANCH   1  13
TORSDOF 20
ENDMDL
MODEL 4
REMARK VINA RESULT:    -3.537      1.069      2.096
REMARK INTER + INTRA:         -11.298
REMARK INTER:                  -8.189
REMARK INTRA:                  -3.109
REMARK UNBOUND:                -3.626
REMARK SMILES CCCCCCCCCCCCCCCCCCCCCC(=O)[O-]
REMARK SMILES IDX 12 1 11 2 10 3 9 4 8 5 7 6 6 7 5 8 4 9 3 10 2 11 1 12 13 13
REMARK SMILES IDX 14 14 15 15 16 16 17 17 18 18 19 19 20 20 21 21 22 22 23 23
REMARK SMILES IDX 24 24
REMARK H PARENT
REMARK Flexibility Score: inf
ROOT
ATOM      1  C   UNL     1       4.917  -1.823  -0.421  1.00  0.00     0.000 C 
ENDROOT
BRANCH   1   2
ATOM      2  C   UNL     1       5.562  -1.509  -1.789  1.00  0.00     0.000 C 
BRANCH   2   3
ATOM      3  C   UNL     1       5.778  -0.011  -2.079  1.00  0.00     0.000 C 
BRANCH   3   4
ATOM      4  C   UNL     1       7.186   0.515  -1.750  1.00  0.00    -0.000 C 
BRANCH   4   5
ATOM      5  C   UNL     1       8.246  -0.601  -1.755  1.00  0.00    -0.000 C 
BRANCH   5   6
ATOM      6  C   UNL     1       9.423  -0.299  -0.814  1.00  0.00    -0.000 C 
BRANCH   6   7
ATOM      7  C   UNL     1       9.694  -1.450   0.173  1.00  0.00    -0.000 C 
BRANCH   7   8
ATOM      8  C   UNL     1       8.410  -2.191   0.575  1.00  0.00    -0.000 C 
BRANCH   8   9
ATOM      9  C   UNL     1       7.917  -1.797   1.977  1.00  0.00    -0.000 C 
BRANCH   9  10
ATOM     10  C   UNL     1       7.141  -0.470   1.938  1.00  0.00    -0.000 C 
BRANCH  10  11
ATOM     11  C   UNL     1       7.890   0.678   2.635  1.00  0.00    -0.003 C 
ATOM     12  C   UNL     1       9.044   0.187   3.511  1.00  0.00     0.004 C 
ENDBRANCH  10  11
ENDBRANCH   9  10
ENDBRANCH   8   9
ENDBRANCH   7   8
ENDBRANCH   6   7
ENDBRANCH   5   6
ENDBRANCH   4   5
ENDBRANCH   3   4
ENDBRANCH   2   3
ENDBRANCH   1   2
BRANCH   1  13
ATOM     13  C   UNL     1       4.719  -3.322  -0.124  1.00  0.00     0.000 C 
BRANCH  13  14
ATOM     14  C   UNL     1       4.484  -3.605   1.366  1.00  0.00     0.000 C 
BRANCH  14  15
ATOM     15  C   UNL     1       5.301  -4.820   1.837  1.00  0.00     0.000 C 
BRANCH  15  16
ATOM     16  C   UNL     1       4.651  -5.551   3.024  1.00  0.00     0.000 C 
BRANCH  16  17
ATOM     17  C   UNL     1       3.213  -5.104   3.354  1.00  0.00     0.000 C 
BRANCH  17  18
ATOM     18  C   UNL     1       2.161  -6.232   3.351  1.00  0.00     0.000 C 
BRANCH  18  19
ATOM     19  C   UNL     1       1.295  -6.314   2.081  1.00  0.00     0.000 C 
BRANCH  19  20
ATOM     20  C   UNL     1       1.511  -5.124   1.129  1.00  0.00     0.006 C 
BRANCH  20  21
ATOM     21  C   UNL     1       1.441  -5.546  -0.344  1.00  0.00     0.053 C 
BRANCH  21  22
ATOM     22  C   UNL     1       2.236  -6.789  -0.606  1.00  0.00     0.041 C 
ATOM     23  O   UNL     1       1.661  -7.855  -0.954  1.00  0.00    -0.550 OA
ATOM     24  O   UNL     1       3.618  -6.772  -0.457  1.00  0.00    -0.550 OA
ENDBRANCH  21  22
ENDBRANCH  20  21
ENDBRANCH  19  20
ENDBRANCH  18  19
ENDBRANCH  17  18
ENDBRANCH  16  17
ENDBRANCH  15  16
ENDBRANCH  14  15
ENDBRANCH  13  14
ENDBRANCH   1  13
TORSDOF 20
ENDMDL
MODEL 5
REMARK VINA RESULT:    -3.528      1.563      2.662
REMARK INTER + INTRA:         -11.280
REMARK INTER:                  -7.651
REMARK INTRA:                  -3.629
REMARK UNBOUND:                -3.626
REMARK SMILES CCCCCCCCCCCCCCCCCCCCCC(=O)[O-]
REMARK SMILES IDX 12 1 11 2 10 3 9 4 8 5 7 6 6 7 5 8 4 9 3 10 2 11 1 12 13 13
REMARK SMILES IDX 14 14 15 15 16 16 17 17 18 18 19 19 20 20 21 21 22 22 23 23
REMARK SMILES IDX 24 24
REMARK H PARENT
REMARK Flexibility Score: inf
ROOT
ATOM      1  C   UNL     1       4.860  -1.546   0.207  1.00  0.00     0.000 C 
ENDROOT
BRANCH   1   2
ATOM      2  C   UNL     1       5.607  -1.568  -1.146  1.00  0.00     0.000 C 
BRANCH   2   3
ATOM      3  C   UNL     1       6.146  -0.202  -1.614  1.00  0.00     0.000 C 
BRANCH   3   4
ATOM      4  C   UNL     1       7.677  -0.060  -1.564  1.00  0.00    -0.000 C 
BRANCH   4   5
ATOM      5  C   UNL     1       8.394  -1.422  -1.572  1.00  0.00    -0.000 C 
BRANCH   5   6
ATOM      6  C   UNL     1       9.793  -1.354  -0.939  1.00  0.00    -0.000 C 
BRANCH   6   7
ATOM      7  C   UNL     1       9.905  -2.221   0.329  1.00  0.00    -0.000 C 
BRANCH   7   8
ATOM      8  C   UNL     1       8.613  -2.999   0.622  1.00  0.00    -0.000 C 
BRANCH   8   9
ATOM      9  C   UNL     1       7.982  -2.606   1.968  1.00  0.00    -0.000 C 
BRANCH   9  10
ATOM     10  C   UNL     1       8.511  -1.245   2.451  1.00  0.00    -0.000 C 
BRANCH  10  11
ATOM     11  C   UNL     1       7.485  -0.113   2.276  1.00  0.00    -0.003 C 
ATOM     12  C   UNL     1       8.139   1.244   2.007  1.00  0.00     0.004 C 
ENDBRANCH  10  11
ENDBRANCH   9  10
ENDBRANCH   8   9
ENDBRANCH   7   8
ENDBRANCH   6   7
ENDBRANCH   5   6
ENDBRANCH   4   5
ENDBRANCH   3   4
ENDBRANCH   2   3
ENDBRANCH   1   2
BRANCH   1  13
ATOM     13  C   UNL     1       4.670  -2.926   0.866  1.00  0.00     0.000 C 
BRANCH  13  14
ATOM     14  C   UNL     1       5.089  -4.084  -0.051  1.00  0.00     0.000 C 
BRANCH  14  15
ATOM     15  C   UNL     1       3.984  -5.150  -0.140  1.00  0.00     0.000 C 
BRANCH  15  16
ATOM     16  C   UNL     1       2.569  -4.550  -0.070  1.00  0.00     0.000 C 
BRANCH  16  17
ATOM     17  C   UNL     1       1.558  -5.364   0.762  1.00  0.00     0.000 C 
BRANCH  17  18
ATOM     18  C   UNL     1       1.464  -4.966   2.249  1.00  0.00     0.000 C 
BRANCH  18  19
ATOM     19  C   UNL     1       2.199  -5.905   3.224  1.00  0.00     0.000 C 
BRANCH  19  20
ATOM     20  C   UNL     1       3.265  -5.181   4.065  1.00  0.00     0.006 C 
BRANCH  20  21
ATOM     21  C   UNL     1       4.455  -6.092   4.392  1.00  0.00     0.053 C 
BRANCH  21  22
ATOM     22  C   UNL     1       5.343  -6.297   3.203  1.00  0.00     0.041 C 
ATOM     23  O   UNL     1       6.283  -5.492   2.960  1.00  0.00    -0.550 OA
ATOM     24  O   UNL     1       5.128  -7.375   2.354  1.00  0.00    -0.550 OA
ENDBRANCH  21  22
ENDBRANCH  20  21
ENDBRANCH  19  20
ENDBRANCH  18  19
ENDBRANCH  17  18
ENDBRANCH  16  17
ENDBRANCH  15  16
ENDBRANCH  14  15
ENDBRANCH  13  14
ENDBRANCH   1  13
TORSDOF 20
ENDMDL
MODEL 6
REMARK VINA RESULT:    -3.502      2.273      6.349
REMARK INTER + INTRA:         -11.223
REMARK INTER:                  -7.859
REMARK INTRA:                  -3.364
REMARK UNBOUND:                -3.626
REMARK SMILES CCCCCCCCCCCCCCCCCCCCCC(=O)[O-]
REMARK SMILES IDX 12 1 11 2 10 3 9 4 8 5 7 6 6 7 5 8 4 9 3 10 2 11 1 12 13 13
REMARK SMILES IDX 14 14 15 15 16 16 17 17 18 18 19 19 20 20 21 21 22 22 23 23
REMARK SMILES IDX 24 24
REMARK H PARENT
REMARK Flexibility Score: inf
ROOT
ATOM      1  C   UNL     1       5.511  -1.725  -1.150  1.00  0.00     0.000 C 
ENDROOT
BRANCH   1   2
ATOM      2  C   UNL     1       4.987  -1.706   0.303  1.00  0.00     0.000 C 
BRANCH   2   3
ATOM      3  C   UNL     1       4.503  -3.068   0.839  1.00  0.00     0.000 C 
BRANCH   3   4
ATOM      4  C   UNL     1       3.885  -3.997  -0.220  1.00  0.00    -0.000 C 
BRANCH   4   5
ATOM      5  C   UNL     1       4.261  -5.473  -0.000  1.00  0.00    -0.000 C 
BRANCH   5   6
ATOM      6  C   UNL     1       3.055  -6.334   0.403  1.00  0.00    -0.000 C 
BRANCH   6   7
ATOM      7  C   UNL     1       1.746  -5.523   0.454  1.00  0.00    -0.000 C 
BRANCH   7   8
ATOM      8  C   UNL     1       1.251  -5.301   1.891  1.00  0.00    -0.000 C 
BRANCH   8   9
ATOM      9  C   UNL     1       2.130  -6.013   2.933  1.00  0.00    -0.000 C 
BRANCH   9  10
ATOM     10  C   UNL     1       2.936  -5.000   3.763  1.00  0.00    -0.000 C 
BRANCH  10  11
ATOM     11  C   UNL     1       4.183  -5.622   4.413  1.00  0.00    -0.003 C 
ATOM     12  C   UNL     1       5.389  -5.652   3.472  1.00  0.00     0.004 C 
ENDBRANCH  10  11
ENDBRANCH   9  10
ENDBRANCH   8   9
ENDBRANCH   7   8
ENDBRANCH   6   7
ENDBRANCH   5   6
ENDBRANCH   4   5
ENDBRANCH   3   4
ENDBRANCH   2   3
ENDBRANCH   1   2
BRANCH   1  13
ATOM     13  C   UNL     1       5.556  -0.349  -1.843  1.00  0.00     0.000 C 
BRANCH  13  14
ATOM     14  C   UNL     1       6.911   0.353  -1.678  1.00  0.00     0.000 C 
BRANCH  14  15
ATOM     15  C   UNL     1       7.999  -0.636  -1.231  1.00  0.00     0.000 C 
BRANCH  15  16
ATOM     16  C   UNL     1       8.772  -0.152   0.009  1.00  0.00     0.000 C 
BRANCH  16  17
ATOM     17  C   UNL     1       7.895   0.448   1.127  1.00  0.00     0.000 C 
BRANCH  17  18
ATOM     18  C   UNL     1       7.738  -0.438   2.379  1.00  0.00     0.000 C 
BRANCH  18  19
ATOM     19  C   UNL     1       9.033  -1.112   2.870  1.00  0.00     0.000 C 
BRANCH  19  20
ATOM     20  C   UNL     1       8.891  -2.636   3.034  1.00  0.00     0.006 C 
BRANCH  20  21
ATOM     21  C   UNL     1       7.854  -3.223   2.068  1.00  0.00     0.053 C 
BRANCH  21  22
ATOM     22  C   UNL     1       8.492  -3.758   0.822  1.00  0.00     0.041 C 
ATOM     23  O   UNL     1       9.742  -3.696   0.668  1.00  0.00    -0.550 OA
ATOM     24  O   UNL     1       7.704  -4.318  -0.175  1.00  0.00    -0.550 OA
ENDBRANCH  21  22
ENDBRANCH  20  21
ENDBRANCH  19  20
ENDBRANCH  18  19
ENDBRANCH  17  18
ENDBRANCH  16  17
ENDBRANCH  15  16
ENDBRANCH  14  15
ENDBRANCH  13  14
ENDBRANCH   1  13
TORSDOF 20
ENDMDL
MODEL 7
REMARK VINA RESULT:    -3.452      1.606      3.804
REMARK INTER + INTRA:         -11.114
REMARK INTER:                  -7.366
REMARK INTRA:                  -3.747
REMARK UNBOUND:                -3.626
REMARK SMILES CCCCCCCCCCCCCCCCCCCCCC(=O)[O-]
REMARK SMILES IDX 12 1 11 2 10 3 9 4 8 5 7 6 6 7 5 8 4 9 3 10 2 11 1 12 13 13
REMARK SMILES IDX 14 14 15 15 16 16 17 17 18 18 19 19 20 20 21 21 22 22 23 23
REMARK SMILES IDX 24 24
REMARK H PARENT
REMARK Flexibility Score: inf
ROOT
ATOM      1  C   UNL     1       5.037  -5.033  -0.297  1.00  0.00     0.000 C 
ENDROOT
BRANCH   1   2
ATOM      2  C   UNL     1       4.298  -3.850   0.367  1.00  0.00     0.000 C 
BRANCH   2   3
ATOM      3  C   UNL     1       5.212  -2.794   1.019  1.00  0.00     0.000 C 
BRANCH   3   4
ATOM      4  C   UNL     1       6.635  -3.283   1.343  1.00  0.00    -0.000 C 
BRANCH   4   5
ATOM      5  C   UNL     1       7.556  -2.142   1.812  1.00  0.00    -0.000 C 
BRANCH   5   6
ATOM      6  C   UNL     1       7.000  -0.754   1.457  1.00  0.00    -0.000 C 
BRANCH   6   7
ATOM      7  C   UNL     1       7.979   0.068   0.598  1.00  0.00    -0.000 C 
BRANCH   7   8
ATOM      8  C   UNL     1       8.755  -0.805  -0.401  1.00  0.00    -0.000 C 
BRANCH   8   9
ATOM      9  C   UNL     1       8.099  -0.835  -1.791  1.00  0.00    -0.000 C 
BRANCH   9  10
ATOM     10  C   UNL     1       7.353  -2.159  -2.022  1.00  0.00    -0.000 C 
BRANCH  10  11
ATOM     11  C   UNL     1       5.883  -1.951  -2.427  1.00  0.00    -0.003 C 
ATOM     12  C   UNL     1       5.358  -0.562  -2.059  1.00  0.00     0.004 C 
ENDBRANCH  10  11
ENDBRANCH   9  10
ENDBRANCH   8   9
ENDBRANCH   7   8
ENDBRANCH   6   7
ENDBRANCH   5   6
ENDBRANCH   4   5
ENDBRANCH   3   4
ENDBRANCH   2   3
ENDBRANCH   1   2
BRANCH   1  13
ATOM     13  C   UNL     1       4.243  -6.353  -0.340  1.00  0.00     0.000 C 
BRANCH  13  14
ATOM     14  C   UNL     1       4.498  -7.239   0.888  1.00  0.00     0.000 C 
BRANCH  14  15
ATOM     15  C   UNL     1       5.885  -6.965   1.493  1.00  0.00     0.000 C 
BRANCH  15  16
ATOM     16  C   UNL     1       5.867  -6.924   3.031  1.00  0.00     0.000 C 
BRANCH  16  17
ATOM     17  C   UNL     1       5.411  -5.582   3.639  1.00  0.00     0.000 C 
BRANCH  17  18
ATOM     18  C   UNL     1       4.187  -5.671   4.573  1.00  0.00     0.000 C 
BRANCH  18  19
ATOM     19  C   UNL     1       2.868  -6.069   3.886  1.00  0.00     0.000 C 
BRANCH  19  20
ATOM     20  C   UNL     1       2.256  -4.927   3.055  1.00  0.00     0.006 C 
BRANCH  20  21
ATOM     21  C   UNL     1       1.277  -5.448   1.995  1.00  0.00     0.053 C 
BRANCH  21  22
ATOM     22  C   UNL     1       0.708  -6.783   2.371  1.00  0.00     0.041 C 
ATOM     23  O   UNL     1      -0.201  -6.868   3.240  1.00  0.00    -0.550 OA
ATOM     24  O   UNL     1       1.190  -7.937   1.766  1.00  0.00    -0.550 OA
ENDBRANCH  21  22
ENDBRANCH  20  21
ENDBRANCH  19  20
ENDBRANCH  18  19
ENDBRANCH  17  18
ENDBRANCH  16  17
ENDBRANCH  15  16
ENDBRANCH  14  15
ENDBRANCH  13  14
ENDBRANCH   1  13
TORSDOF 20
ENDMDL
MODEL 8
REMARK VINA RESULT:    -3.400      2.547      5.929
REMARK INTER + INTRA:         -11.001
REMARK INTER:                  -7.283
REMARK INTRA:                  -3.719
REMARK UNBOUND:                -3.626
REMARK SMILES CCCCCCCCCCCCCCCCCCCCCC(=O)[O-]
REMARK SMILES IDX 12 1 11 2 10 3 9 4 8 5 7 6 6 7 5 8 4 9 3 10 2 11 1 12 13 13
REMARK SMILES IDX 14 14 15 15 16 16 17 17 18 18 19 19 20 20 21 21 22 22 23 23
REMARK SMILES IDX 24 24
REMARK H PARENT
REMARK Flexibility Score: inf
ROOT
ATOM      1  C   UNL     1       8.156  -1.453  -2.224  1.00  0.00     0.000 C 
ENDROOT
BRANCH   1   2
ATOM      2  C   UNL     1       9.049  -2.175  -1.190  1.00  0.00     0.000 C 
BRANCH   2   3
ATOM      3  C   UNL     1       8.706  -3.660  -0.958  1.00  0.00     0.000 C 
BRANCH   3   4
ATOM      4  C   UNL     1       7.854  -4.307  -2.064  1.00  0.00    -0.000 C 
BRANCH   4   5
ATOM      5  C   UNL     1       6.485  -4.784  -1.548  1.00  0.00    -0.000 C 
BRANCH   5   6
ATOM      6  C   UNL     1       6.553  -5.322  -0.110  1.00  0.00    -0.000 C 
BRANCH   6   7
ATOM      7  C   UNL     1       5.221  -5.152   0.643  1.00  0.00    -0.000 C 
BRANCH   7   8
ATOM      8  C   UNL     1       4.048  -4.854  -0.303  1.00  0.00    -0.000 C 
BRANCH   8   9
ATOM      9  C   UNL     1       2.744  -4.549   0.455  1.00  0.00    -0.000 C 
BRANCH   9  10
ATOM     10  C   UNL     1       3.030  -4.173   1.918  1.00  0.00    -0.000 C 
BRANCH  10  11
ATOM     11  C   UNL     1       1.871  -4.537   2.862  1.00  0.00    -0.003 C 
ATOM     12  C   UNL     1       1.082  -5.759   2.389  1.00  0.00     0.004 C 
ENDBRANCH  10  11
ENDBRANCH   9  10
ENDBRANCH   8   9
ENDBRANCH   7   8
ENDBRANCH   6   7
ENDBRANCH   5   6
ENDBRANCH   4   5
ENDBRANCH   3   4
ENDBRANCH   2   3
ENDBRANCH   1   2
BRANCH   1  13
ATOM     13  C   UNL     1       7.631  -0.074  -1.778  1.00  0.00     0.000 C 
BRANCH  13  14
ATOM     14  C   UNL     1       6.098  -0.004  -1.752  1.00  0.00     0.000 C 
BRANCH  14  15
ATOM     15  C   UNL     1       5.489  -1.330  -1.265  1.00  0.00     0.000 C 
BRANCH  15  16
ATOM     16  C   UNL     1       5.123  -1.303   0.230  1.00  0.00     0.000 C 
BRANCH  16  17
ATOM     17  C   UNL     1       6.254  -1.736   1.184  1.00  0.00     0.000 C 
BRANCH  17  18
ATOM     18  C   UNL     1       7.076  -0.580   1.789  1.00  0.00     0.000 C 
BRANCH  18  19
ATOM     19  C   UNL     1       8.289  -1.013   2.633  1.00  0.00     0.000 C 
BRANCH  19  20
ATOM     20  C   UNL     1       8.687  -2.482   2.402  1.00  0.00     0.006 C 
BRANCH  20  21
ATOM     21  C   UNL     1       9.082  -3.182   3.709  1.00  0.00     0.053 C 
BRANCH  21  22
ATOM     22  C   UNL     1       8.557  -4.584   3.770  1.00  0.00     0.041 C 
ATOM     23  O   UNL     1       8.475  -5.283   2.724  1.00  0.00    -0.550 OA
ATOM     24  O   UNL     1       8.149  -5.119   4.986  1.00  0.00    -0.550 OA
ENDBRANCH  21  22
ENDBRANCH  20  21
ENDBRANCH  19  20
ENDBRANCH  18  19
ENDBRANCH  17  18
ENDBRANCH  16  17
ENDBRANCH  15  16
ENDBRANCH  14  15
ENDBRANCH  13  14
ENDBRANCH   1  13
TORSDOF 20
ENDMDL
MODEL 9
REMARK VINA RESULT:    -3.376      2.335      4.769
REMARK INTER + INTRA:         -10.948
REMARK INTER:                  -6.922
REMARK INTRA:                  -4.027
REMARK UNBOUND:                -3.626
REMARK SMILES CCCCCCCCCCCCCCCCCCCCCC(=O)[O-]
REMARK SMILES IDX 12 1 11 2 10 3 9 4 8 5 7 6 6 7 5 8 4 9 3 10 2 11 1 12 13 13
REMARK SMILES IDX 14 14 15 15 16 16 17 17 18 18 19 19 20 20 21 21 22 22 23 23
REMARK SMILES IDX 24 24
REMARK H PARENT
REMARK Flexibility Score: inf
ROOT
ATOM      1  C   UNL     1       6.171  -6.034   0.293  1.00  0.00     0.000 C 
ENDROOT
BRANCH   1   2
ATOM      2  C   UNL     1       7.150  -5.185   1.135  1.00  0.00     0.000 C 
BRANCH   2   3
ATOM      3  C   UNL     1       6.514  -3.976   1.849  1.00  0.00     0.000 C 
BRANCH   3   4
ATOM      4  C   UNL     1       7.386  -2.708   1.872  1.00  0.00    -0.000 C 
BRANCH   4   5
ATOM      5  C   UNL     1       6.701  -1.511   1.189  1.00  0.00    -0.000 C 
BRANCH   5   6
ATOM      6  C   UNL     1       5.487  -1.931   0.345  1.00  0.00    -0.000 C 
BRANCH   6   7
ATOM      7  C   UNL     1       5.305  -1.044  -0.901  1.00  0.00    -0.000 C 
BRANCH   7   8
ATOM      8  C   UNL     1       5.771  -1.741  -2.189  1.00  0.00    -0.000 C 
BRANCH   8   9
ATOM      9  C   UNL     1       6.133  -3.218  -1.961  1.00  0.00    -0.000 C 
BRANCH   9  10
ATOM     10  C   UNL     1       7.300  -3.648  -2.864  1.00  0.00    -0.000 C 
BRANCH  10  11
ATOM     11  C   UNL     1       8.576  -2.825  -2.617  1.00  0.00    -0.003 C 
ATOM     12  C   UNL     1       9.178  -3.066  -1.231  1.00  0.00     0.004 C 
ENDBRANCH  10  11
ENDBRANCH   9  10
ENDBRANCH   8   9
ENDBRANCH   7   8
ENDBRANCH   6   7
ENDBRANCH   5   6
ENDBRANCH   4   5
ENDBRANCH   3   4
ENDBRANCH   2   3
ENDBRANCH   1   2
BRANCH   1  13
ATOM     13  C   UNL     1       4.695  -5.945   0.725  1.00  0.00     0.000 C 
BRANCH  13  14
ATOM     14  C   UNL     1       3.809  -5.265  -0.327  1.00  0.00     0.000 C 
BRANCH  14  15
ATOM     15  C   UNL     1       2.500  -4.752   0.295  1.00  0.00     0.000 C 
BRANCH  15  16
ATOM     16  C   UNL     1       2.717  -4.051   1.647  1.00  0.00     0.000 C 
BRANCH  16  17
ATOM     17  C   UNL     1       1.886  -4.620   2.815  1.00  0.00     0.000 C 
BRANCH  17  18
ATOM     18  C   UNL     1       2.568  -5.751   3.612  1.00  0.00     0.000 C 
BRANCH  18  19
ATOM     19  C   UNL     1       3.792  -5.320   4.441  1.00  0.00     0.000 C 
BRANCH  19  20
ATOM     20  C   UNL     1       4.556  -6.511   5.045  1.00  0.00     0.006 C 
BRANCH  20  21
ATOM     21  C   UNL     1       5.916  -6.724   4.367  1.00  0.00     0.053 C 
BRANCH  21  22
ATOM     22  C   UNL     1       5.927  -7.958   3.517  1.00  0.00     0.041 C 
ATOM     23  O   UNL     1       6.989  -8.336   2.953  1.00  0.00    -0.550 OA
ATOM     24  O   UNL     1       4.759  -8.688   3.339  1.00  0.00    -0.550 OA
ENDBRANCH  21  22
ENDBRANCH  20  21
ENDBRANCH  19  20
ENDBRANCH  18  19
ENDBRANCH  17  18
ENDBRANCH  16  17
ENDBRANCH  15  16
ENDBRANCH  14  15
ENDBRANCH  13  14
ENDBRANCH   1  13
TORSDOF 20
ENDMDL
