MODEL 1
REMARK VINA RESULT:    -4.492      0.000      0.000
REMARK INTER + INTRA:          -6.046
REMARK INTER:                  -5.542
REMARK INTRA:                  -0.504
REMARK UNBOUND:                -0.504
REMARK SMILES C=CC[C@@H](C)C(=O)CC
REMARK SMILES IDX 4 1 5 2 6 3 7 4 8 5 9 6 3 7 2 8 1 9
REMARK H PARENT
REMARK Flexibility Score: inf
ROOT
ATOM      1  C   UNL     1     -10.820  74.253  30.095  1.00  0.00     0.057 C 
ATOM      2  C   UNL     1     -11.798  73.493  29.193  1.00  0.00     0.016 C 
ENDROOT
BRANCH   1   3
ATOM      3  C   UNL     1     -11.157  73.994  31.551  1.00  0.00     0.135 C 
ATOM      4  O   UNL     1     -10.868  74.828  32.398  1.00  0.00    -0.299 OA
BRANCH   3   5
ATOM      5  C   UNL     1     -11.826  72.713  31.979  1.00  0.00     0.072 C 
ATOM      6  C   UNL     1     -10.919  71.907  32.904  1.00  0.00     0.012 C 
ENDBRANCH   3   5
ENDBRANCH   1   3
BRANCH   1   7
ATOM      7  C   UNL     1      -9.367  73.851  29.776  1.00  0.00     0.038 C 
BRANCH   7   8
ATOM      8  C   UNL     1      -9.285  72.428  29.289  1.00  0.00    -0.034 C 
ATOM      9  C   UNL     1      -8.662  71.476  29.989  1.00  0.00     0.004 C 
ENDBRANCH   7   8
ENDBRANCH   1   7
TORSDOF 4
ENDMDL
MODEL 2
REMARK VINA RESULT:    -4.460      1.418      1.922
REMARK INTER + INTRA:          -6.006
REMARK INTER:                  -5.523
REMARK INTRA:                  -0.484
REMARK UNBOUND:                -0.504
REMARK SMILES C=CC[C@@H](C)C(=O)CC
REMARK SMILES IDX 4 1 5 2 6 3 7 4 8 5 9 6 3 7 2 8 1 9
REMARK H PARENT
REMARK Flexibility Score: inf
ROOT
ATOM      1  C   UNL     1     -10.377  73.816  30.838  1.00  0.00     0.057 C 
ATOM      2  C   UNL     1      -9.002  74.489  30.779  1.00  0.00     0.016 C 
ENDROOT
BRANCH   1   3
ATOM      3  C   UNL     1     -11.077  74.191  32.130  1.00  0.00     0.135 C 
ATOM      4  O   UNL     1     -11.056  75.352  32.515  1.00  0.00    -0.299 OA
BRANCH   3   5
ATOM      5  C   UNL     1     -11.782  73.153  32.964  1.00  0.00     0.072 C 
ATOM      6  C   UNL     1     -10.973  71.862  33.028  1.00  0.00     0.012 C 
ENDBRANCH   3   5
ENDBRANCH   1   3
BRANCH   1   7
ATOM      7  C   UNL     1     -11.222  74.203  29.609  1.00  0.00     0.038 C 
BRANCH   7   8
ATOM      8  C   UNL     1     -11.834  72.990  28.959  1.00  0.00    -0.034 C 
ATOM      9  C   UNL     1     -11.502  71.749  29.326  1.00  0.00     0.004 C 
ENDBRANCH   7   8
ENDBRANCH   1   7
TORSDOF 4
ENDMDL
MODEL 3
REMARK VINA RESULT:    -4.415      1.250      3.195
REMARK INTER + INTRA:          -5.952
REMARK INTER:                  -5.511
REMARK INTRA:                  -0.440
REMARK UNBOUND:                -0.504
REMARK SMILES C=CC[C@@H](C)C(=O)CC
REMARK SMILES IDX 4 1 5 2 6 3 7 4 8 5 9 6 3 7 2 8 1 9
REMARK H PARENT
REMARK Flexibility Score: inf
ROOT
ATOM      1  C   UNL     1     -11.001  74.244  30.916  1.00  0.00     0.057 C 
ATOM      2  C   UNL     1     -10.928  75.322  32.004  1.00  0.00     0.016 C 
ENDROOT
BRANCH   1   3
ATOM      3  C   UNL     1      -9.605  73.915  30.426  1.00  0.00     0.135 C 
ATOM      4  O   UNL     1      -8.644  74.523  30.877  1.00  0.00    -0.299 OA
BRANCH   3   5
ATOM      5  C   UNL     1      -9.378  72.862  29.371  1.00  0.00     0.072 C 
ATOM      6  C   UNL     1      -8.726  71.621  29.971  1.00  0.00     0.012 C 
ENDBRANCH   3   5
ENDBRANCH   1   3
BRANCH   1   7
ATOM      7  C   UNL     1     -11.720  72.989  31.447  1.00  0.00     0.038 C 
BRANCH   7   8
ATOM      8  C   UNL     1     -11.417  72.758  32.905  1.00  0.00    -0.034 C 
ATOM      9  C   UNL     1     -10.629  71.761  33.314  1.00  0.00     0.004 C 
ENDBRANCH   7   8
ENDBRANCH   1   7
TORSDOF 4
ENDMDL
MODEL 4
REMARK VINA RESULT:    -4.388      1.323      1.703
REMARK INTER + INTRA:          -5.918
REMARK INTER:                  -5.703
REMARK INTRA:                  -0.215
REMARK UNBOUND:                -0.504
REMARK SMILES C=CC[C@@H](C)C(=O)CC
REMARK SMILES IDX 4 1 5 2 6 3 7 4 8 5 9 6 3 7 2 8 1 9
REMARK H PARENT
REMARK Flexibility Score: inf
ROOT
ATOM      1  C   UNL     1     -11.290  73.824  29.912  1.00  0.00     0.057 C 
ATOM      2  C   UNL     1     -11.679  72.430  29.409  1.00  0.00     0.016 C 
ENDROOT
BRANCH   1   3
ATOM      3  C   UNL     1     -11.271  73.835  31.428  1.00  0.00     0.135 C 
ATOM      4  O   UNL     1     -10.751  74.770  32.022  1.00  0.00    -0.299 OA
BRANCH   3   5
ATOM      5  C   UNL     1     -11.863  72.699  32.223  1.00  0.00     0.072 C 
ATOM      6  C   UNL     1     -10.779  71.938  32.978  1.00  0.00     0.012 C 
ENDBRANCH   3   5
ENDBRANCH   1   3
BRANCH   1   7
ATOM      7  C   UNL     1      -9.928  74.248  29.331  1.00  0.00     0.038 C 
BRANCH   7   8
ATOM      8  C   UNL     1     -10.040  74.598  27.870  1.00  0.00    -0.034 C 
ATOM      9  C   UNL     1      -9.244  74.048  26.948  1.00  0.00     0.004 C 
ENDBRANCH   7   8
ENDBRANCH   1   7
TORSDOF 4
ENDMDL
MODEL 5
REMARK VINA RESULT:    -4.358      1.798      3.769
REMARK INTER + INTRA:          -5.881
REMARK INTER:                  -5.716
REMARK INTRA:                  -0.166
REMARK UNBOUND:                -0.504
REMARK SMILES C=CC[C@@H](C)C(=O)CC
REMARK SMILES IDX 4 1 5 2 6 3 7 4 8 5 9 6 3 7 2 8 1 9
REMARK H PARENT
REMARK Flexibility Score: inf
ROOT
ATOM      1  C   UNL     1     -11.214  74.170  30.318  1.00  0.00     0.057 C 
ATOM      2  C   UNL     1     -10.865  75.101  31.484  1.00  0.00     0.016 C 
ENDROOT
BRANCH   1   3
ATOM      3  C   UNL     1     -10.039  74.079  29.364  1.00  0.00     0.135 C 
ATOM      4  O   UNL     1      -8.999  73.551  29.732  1.00  0.00    -0.299 OA
BRANCH   3   5
ATOM      5  C   UNL     1     -10.121  74.650  27.971  1.00  0.00     0.072 C 
ATOM      6  C   UNL     1      -9.146  73.944  27.035  1.00  0.00     0.012 C 
ENDBRANCH   3   5
ENDBRANCH   1   3
BRANCH   1   7
ATOM      7  C   UNL     1     -11.622  72.779  30.841  1.00  0.00     0.038 C 
BRANCH   7   8
ATOM      8  C   UNL     1     -11.585  72.726  32.346  1.00  0.00    -0.034 C 
ATOM      9  C   UNL     1     -10.883  71.800  33.004  1.00  0.00     0.004 C 
ENDBRANCH   7   8
ENDBRANCH   1   7
TORSDOF 4
ENDMDL
MODEL 6
REMARK VINA RESULT:    -4.345      2.209      3.522
REMARK INTER + INTRA:          -5.865
REMARK INTER:                  -5.372
REMARK INTRA:                  -0.493
REMARK UNBOUND:                -0.504
REMARK SMILES C=CC[C@@H](C)C(=O)CC
REMARK SMILES IDX 4 1 5 2 6 3 7 4 8 5 9 6 3 7 2 8 1 9
REMARK H PARENT
REMARK Flexibility Score: inf
ROOT
ATOM      1  C   UNL     1     -11.537  73.537  29.977  1.00  0.00     0.057 C 
ATOM      2  C   UNL     1     -10.820  74.513  30.916  1.00  0.00     0.016 C 
ENDROOT
BRANCH   1   3
ATOM      3  C   UNL     1     -11.288  73.936  28.535  1.00  0.00     0.135 C 
ATOM      4  O   UNL     1     -12.111  73.651  27.676  1.00  0.00    -0.299 OA
BRANCH   3   5
ATOM      5  C   UNL     1     -10.030  74.663  28.134  1.00  0.00     0.072 C 
ATOM      6  C   UNL     1      -9.284  73.902  27.043  1.00  0.00     0.012 C 
ENDBRANCH   3   5
ENDBRANCH   1   3
BRANCH   1   7
ATOM      7  C   UNL     1     -11.078  72.091  30.246  1.00  0.00     0.038 C 
BRANCH   7   8
ATOM      8  C   UNL     1      -9.640  72.046  30.694  1.00  0.00    -0.034 C 
ATOM      9  C   UNL     1      -8.677  71.532  29.926  1.00  0.00     0.004 C 
ENDBRANCH   7   8
ENDBRANCH   1   7
TORSDOF 4
ENDMDL
MODEL 7
REMARK VINA RESULT:    -4.250      1.918      3.818
REMARK INTER + INTRA:          -5.748
REMARK INTER:                  -5.261
REMARK INTRA:                  -0.487
REMARK UNBOUND:                -0.504
REMARK SMILES C=CC[C@@H](C)C(=O)CC
REMARK SMILES IDX 4 1 5 2 6 3 7 4 8 5 9 6 3 7 2 8 1 9
REMARK H PARENT
REMARK Flexibility Score: inf
ROOT
ATOM      1  C   UNL     1      -9.863  72.745  30.230  1.00  0.00     0.057 C 
ATOM      2  C   UNL     1      -8.862  71.615  29.969  1.00  0.00     0.016 C 
ENDROOT
BRANCH   1   3
ATOM      3  C   UNL     1     -11.026  72.633  29.264  1.00  0.00     0.135 C 
ATOM      4  O   UNL     1     -11.701  71.613  29.242  1.00  0.00    -0.299 OA
BRANCH   3   5
ATOM      5  C   UNL     1     -11.355  73.752  28.309  1.00  0.00     0.072 C 
ATOM      6  C   UNL     1     -10.133  74.627  28.051  1.00  0.00     0.012 C 
ENDBRANCH   3   5
ENDBRANCH   1   3
BRANCH   1   7
ATOM      7  C   UNL     1     -10.345  72.712  31.694  1.00  0.00     0.038 C 
BRANCH   7   8
ATOM      8  C   UNL     1     -11.198  73.911  32.018  1.00  0.00    -0.034 C 
ATOM      9  C   UNL     1     -10.725  75.157  31.935  1.00  0.00     0.004 C 
ENDBRANCH   7   8
ENDBRANCH   1   7
TORSDOF 4
ENDMDL
MODEL 8
REMARK VINA RESULT:    -4.249      2.068      3.970
REMARK INTER + INTRA:          -5.746
REMARK INTER:                  -5.460
REMARK INTRA:                  -0.286
REMARK UNBOUND:                -0.504
REMARK SMILES C=CC[C@@H](C)C(=O)CC
REMARK SMILES IDX 4 1 5 2 6 3 7 4 8 5 9 6 3 7 2 8 1 9
REMARK H PARENT
REMARK Flexibility Score: inf
ROOT
ATOM      1  C   UNL     1     -11.150  73.287  29.299  1.00  0.00     0.057 C 
ATOM      2  C   UNL     1     -12.188  73.599  28.216  1.00  0.00     0.016 C 
ENDROOT
BRANCH   1   3
ATOM      3  C   UNL     1      -9.794  73.059  28.661  1.00  0.00     0.135 C 
ATOM      4  O   UNL     1      -9.057  72.186  29.097  1.00  0.00    -0.299 OA
BRANCH   3   5
ATOM      5  C   UNL     1      -9.325  73.907  27.506  1.00  0.00     0.072 C 
ATOM      6  C   UNL     1      -8.916  73.038  26.322  1.00  0.00     0.012 C 
ENDBRANCH   3   5
ENDBRANCH   1   3
BRANCH   1   7
ATOM      7  C   UNL     1     -11.097  74.422  30.340  1.00  0.00     0.038 C 
BRANCH   7   8
ATOM      8  C   UNL     1     -11.120  73.881  31.745  1.00  0.00    -0.034 C 
ATOM      9  C   UNL     1     -11.742  72.739  32.053  1.00  0.00     0.004 C 
ENDBRANCH   7   8
ENDBRANCH   1   7
TORSDOF 4
ENDMDL
MODEL 9
REMARK VINA RESULT:    -4.228      1.787      2.468
REMARK INTER + INTRA:          -5.721
REMARK INTER:                  -5.474
REMARK INTRA:                  -0.247
REMARK UNBOUND:                -0.504
REMARK SMILES C=CC[C@@H](C)C(=O)CC
REMARK SMILES IDX 4 1 5 2 6 3 7 4 8 5 9 6 3 7 2 8 1 9
REMARK H PARENT
REMARK Flexibility Score: inf
ROOT
ATOM      1  C   UNL     1     -11.279  73.482  29.694  1.00  0.00     0.057 C 
ATOM      2  C   UNL     1     -11.677  72.116  29.124  1.00  0.00     0.016 C 
ENDROOT
BRANCH   1   3
ATOM      3  C   UNL     1     -11.235  73.413  31.208  1.00  0.00     0.135 C 
ATOM      4  O   UNL     1     -11.977  72.643  31.802  1.00  0.00    -0.299 OA
BRANCH   3   5
ATOM      5  C   UNL     1     -10.306  74.295  32.001  1.00  0.00     0.072 C 
ATOM      6  C   UNL     1     -10.946  75.651  32.280  1.00  0.00     0.012 C 
ENDBRANCH   3   5
ENDBRANCH   1   3
BRANCH   1   7
ATOM      7  C   UNL     1      -9.925  73.936  29.113  1.00  0.00     0.038 C 
BRANCH   7   8
ATOM      8  C   UNL     1     -10.083  74.484  27.719  1.00  0.00    -0.034 C 
ATOM      9  C   UNL     1      -9.387  73.998  26.687  1.00  0.00     0.004 C 
ENDBRANCH   7   8
ENDBRANCH   1   7
TORSDOF 4
ENDMDL
