MODEL 1
REMARK VINA RESULT:    19.172      0.000      0.000
REMARK INTER + INTRA:          36.003
REMARK INTER:                  37.106
REMARK INTRA:                  -1.102
REMARK UNBOUND:                -1.102
REMARK SMILES CCCCCCCCCCCCCCCCCC(=O)[O-]
REMARK SMILES IDX 10 1 11 2 12 3 13 4 14 5 15 6 16 7 17 8 18 9 19 10 20 11
REMARK SMILES IDX 9 12 8 13 7 14 6 15 5 16 4 17 3 18 2 19 1 20
REMARK H PARENT
REMARK Flexibility Score: inf
ROOT
ATOM      1  C   UNL     1      56.293  48.490  21.072  1.00  0.00     0.000 C 
ENDROOT
BRANCH   1   2
ATOM      2  C   UNL     1      57.460  47.643  21.615  1.00  0.00     0.000 C 
BRANCH   2   3
ATOM      3  C   UNL     1      57.084  46.606  22.687  1.00  0.00     0.000 C 
BRANCH   3   4
ATOM      4  C   UNL     1      57.067  45.164  22.151  1.00  0.00     0.000 C 
BRANCH   4   5
ATOM      5  C   UNL     1      56.001  44.951  21.062  1.00  0.00     0.000 C 
BRANCH   5   6
ATOM      6  C   UNL     1      56.233  43.680  20.214  1.00  0.00     0.000 C 
BRANCH   6   7
ATOM      7  C   UNL     1      55.133  42.620  20.401  1.00  0.00     0.006 C 
BRANCH   7   8
ATOM      8  C   UNL     1      55.549  41.521  21.387  1.00  0.00     0.053 C 
BRANCH   8   9
ATOM      9  C   UNL     1      55.273  40.169  20.809  1.00  0.00     0.041 C 
ATOM     10  O   UNL     1      54.170  39.932  20.250  1.00  0.00    -0.550 OA
ATOM     11  O   UNL     1      56.215  39.155  20.932  1.00  0.00    -0.550 OA
ENDBRANCH   8   9
ENDBRANCH   7   8
ENDBRANCH   6   7
ENDBRANCH   5   6
ENDBRANCH   4   5
ENDBRANCH   3   4
ENDBRANCH   2   3
ENDBRANCH   1   2
BRANCH   1  12
ATOM     12  C   UNL     1      55.902  48.122  19.631  1.00  0.00     0.000 C 
BRANCH  12  13
ATOM     13  C   UNL     1      57.082  47.570  18.810  1.00  0.00    -0.000 C 
BRANCH  13  14
ATOM     14  C   UNL     1      57.224  48.145  17.387  1.00  0.00    -0.000 C 
BRANCH  14  15
ATOM     15  C   UNL     1      56.026  49.014  16.968  1.00  0.00    -0.000 C 
BRANCH  15  16
ATOM     16  C   UNL     1      56.454  50.380  16.409  1.00  0.00    -0.000 C 
BRANCH  16  17
ATOM     17  C   UNL     1      55.697  50.760  15.126  1.00  0.00    -0.000 C 
BRANCH  17  18
ATOM     18  C   UNL     1      54.439  49.894  14.957  1.00  0.00    -0.000 C 
BRANCH  18  19
ATOM     19  C   UNL     1      53.144  50.722  14.975  1.00  0.00    -0.003 C 
ATOM     20  C   UNL     1      52.004  50.021  15.713  1.00  0.00     0.004 C 
ENDBRANCH  18  19
ENDBRANCH  17  18
ENDBRANCH  16  17
ENDBRANCH  15  16
ENDBRANCH  14  15
ENDBRANCH  13  14
ENDBRANCH  12  13
ENDBRANCH   1  12
TORSDOF 16
ENDMDL
MODEL 2
REMARK VINA RESULT:    19.467      1.398      2.723
REMARK INTER + INTRA:          36.574
REMARK INTER:                  37.424
REMARK INTRA:                  -0.850
REMARK UNBOUND:                -1.102
REMARK SMILES CCCCCCCCCCCCCCCCCC(=O)[O-]
REMARK SMILES IDX 10 1 11 2 12 3 13 4 14 5 15 6 16 7 17 8 18 9 19 10 20 11
REMARK SMILES IDX 9 12 8 13 7 14 6 15 5 16 4 17 3 18 2 19 1 20
REMARK H PARENT
REMARK Flexibility Score: inf
ROOT
ATOM      1  C   UNL     1      56.471  46.289  23.273  1.00  0.00     0.000 C 
ENDROOT
BRANCH   1   2
ATOM      2  C   UNL     1      57.154  44.909  23.238  1.00  0.00     0.000 C 
BRANCH   2   3
ATOM      3  C   UNL     1      57.351  44.303  21.837  1.00  0.00     0.000 C 
BRANCH   3   4
ATOM      4  C   UNL     1      56.041  43.797  21.209  1.00  0.00     0.000 C 
BRANCH   4   5
ATOM      5  C   UNL     1      56.145  42.344  20.716  1.00  0.00     0.000 C 
BRANCH   5   6
ATOM      6  C   UNL     1      54.882  41.502  21.008  1.00  0.00     0.000 C 
BRANCH   6   7
ATOM      7  C   UNL     1      55.203  40.056  21.427  1.00  0.00     0.006 C 
BRANCH   7   8
ATOM      8  C   UNL     1      56.069  39.330  20.389  1.00  0.00     0.053 C 
BRANCH   8   9
ATOM      9  C   UNL     1      57.052  38.429  21.067  1.00  0.00     0.041 C 
ATOM     10  O   UNL     1      58.245  38.799  21.225  1.00  0.00    -0.550 OA
ATOM     11  O   UNL     1      56.664  37.161  21.478  1.00  0.00    -0.550 OA
ENDBRANCH   8   9
ENDBRANCH   7   8
ENDBRANCH   6   7
ENDBRANCH   5   6
ENDBRANCH   4   5
ENDBRANCH   3   4
ENDBRANCH   2   3
ENDBRANCH   1   2
BRANCH   1  12
ATOM     12  C   UNL     1      57.300  47.388  22.587  1.00  0.00     0.000 C 
BRANCH  12  13
ATOM     13  C   UNL     1      56.547  48.081  21.437  1.00  0.00    -0.000 C 
BRANCH  13  14
ATOM     14  C   UNL     1      56.247  47.194  20.213  1.00  0.00    -0.000 C 
BRANCH  14  15
ATOM     15  C   UNL     1      56.901  47.713  18.921  1.00  0.00    -0.000 C 
BRANCH  15  16
ATOM     16  C   UNL     1      56.032  48.755  18.196  1.00  0.00    -0.000 C 
BRANCH  16  17
ATOM     17  C   UNL     1      56.291  48.792  16.681  1.00  0.00    -0.000 C 
BRANCH  17  18
ATOM     18  C   UNL     1      56.308  50.240  16.165  1.00  0.00    -0.000 C 
BRANCH  18  19
ATOM     19  C   UNL     1      54.939  50.696  15.637  1.00  0.00    -0.003 C 
ATOM     20  C   UNL     1      54.076  49.534  15.147  1.00  0.00     0.004 C 
ENDBRANCH  18  19
ENDBRANCH  17  18
ENDBRANCH  16  17
ENDBRANCH  15  16
ENDBRANCH  14  15
ENDBRANCH  13  14
ENDBRANCH  12  13
ENDBRANCH   1  12
TORSDOF 16
ENDMDL
MODEL 3
REMARK VINA RESULT:    20.552      3.968      9.014
REMARK INTER + INTRA:          38.673
REMARK INTER:                  39.425
REMARK INTRA:                  -0.753
REMARK UNBOUND:                -1.102
REMARK SMILES CCCCCCCCCCCCCCCCCC(=O)[O-]
REMARK SMILES IDX 10 1 11 2 12 3 13 4 14 5 15 6 16 7 17 8 18 9 19 10 20 11
REMARK SMILES IDX 9 12 8 13 7 14 6 15 5 16 4 17 3 18 2 19 1 20
REMARK H PARENT
REMARK Flexibility Score: inf
ROOT
ATOM      1  C   UNL     1      56.385  46.705  22.641  1.00  0.00     0.000 C 
ENDROOT
BRANCH   1   2
ATOM      2  C   UNL     1      56.667  47.919  21.734  1.00  0.00     0.000 C 
BRANCH   2   3
ATOM      3  C   UNL     1      55.961  47.902  20.367  1.00  0.00     0.000 C 
BRANCH   3   4
ATOM      4  C   UNL     1      56.748  47.132  19.292  1.00  0.00     0.000 C 
BRANCH   4   5
ATOM      5  C   UNL     1      57.558  48.061  18.373  1.00  0.00     0.000 C 
BRANCH   5   6
ATOM      6  C   UNL     1      57.007  48.138  16.932  1.00  0.00     0.000 C 
BRANCH   6   7
ATOM      7  C   UNL     1      56.028  49.308  16.721  1.00  0.00     0.006 C 
BRANCH   7   8
ATOM      8  C   UNL     1      54.882  48.941  15.769  1.00  0.00     0.053 C 
BRANCH   8   9
ATOM      9  C   UNL     1      54.083  50.156  15.421  1.00  0.00     0.041 C 
ATOM     10  O   UNL     1      52.834  50.158  15.577  1.00  0.00    -0.550 OA
ATOM     11  O   UNL     1      54.710  51.269  14.876  1.00  0.00    -0.550 OA
ENDBRANCH   8   9
ENDBRANCH   7   8
ENDBRANCH   6   7
ENDBRANCH   5   6
ENDBRANCH   4   5
ENDBRANCH   3   4
ENDBRANCH   2   3
ENDBRANCH   1   2
BRANCH   1  12
ATOM     12  C   UNL     1      57.406  45.569  22.460  1.00  0.00     0.000 C 
BRANCH  12  13
ATOM     13  C   UNL     1      56.750  44.179  22.371  1.00  0.00    -0.000 C 
BRANCH  13  14
ATOM     14  C   UNL     1      56.764  43.529  20.974  1.00  0.00    -0.000 C 
BRANCH  14  15
ATOM     15  C   UNL     1      56.526  42.010  21.016  1.00  0.00    -0.000 C 
BRANCH  15  16
ATOM     16  C   UNL     1      55.032  41.645  21.008  1.00  0.00    -0.000 C 
BRANCH  16  17
ATOM     17  C   UNL     1      54.786  40.148  21.253  1.00  0.00    -0.000 C 
BRANCH  17  18
ATOM     18  C   UNL     1      55.830  39.294  20.516  1.00  0.00    -0.000 C 
BRANCH  18  19
ATOM     19  C   UNL     1      56.873  38.684  21.466  1.00  0.00    -0.003 C 
ATOM     20  C   UNL     1      57.227  37.241  21.109  1.00  0.00     0.004 C 
ENDBRANCH  18  19
ENDBRANCH  17  18
ENDBRANCH  16  17
ENDBRANCH  15  16
ENDBRANCH  14  15
ENDBRANCH  13  14
ENDBRANCH  12  13
ENDBRANCH   1  12
TORSDOF 16
ENDMDL
MODEL 4
REMARK VINA RESULT:    20.586      7.449     10.187
REMARK INTER + INTRA:          38.740
REMARK INTER:                  39.512
REMARK INTRA:                  -0.772
REMARK UNBOUND:                -1.102
REMARK SMILES CCCCCCCCCCCCCCCCCC(=O)[O-]
REMARK SMILES IDX 10 1 11 2 12 3 13 4 14 5 15 6 16 7 17 8 18 9 19 10 20 11
REMARK SMILES IDX 9 12 8 13 7 14 6 15 5 16 4 17 3 18 2 19 1 20
REMARK H PARENT
REMARK Flexibility Score: inf
ROOT
ATOM      1  C   UNL     1      54.713  53.287  19.006  1.00  0.00     0.000 C 
ENDROOT
BRANCH   1   2
ATOM      2  C   UNL     1      55.119  52.974  20.460  1.00  0.00     0.000 C 
BRANCH   2   3
ATOM      3  C   UNL     1      53.954  52.697  21.427  1.00  0.00     0.000 C 
BRANCH   3   4
ATOM      4  C   UNL     1      53.344  53.980  22.017  1.00  0.00     0.000 C 
BRANCH   4   5
ATOM      5  C   UNL     1      54.148  54.522  23.211  1.00  0.00     0.000 C 
BRANCH   5   6
ATOM      6  C   UNL     1      53.365  55.539  24.071  1.00  0.00     0.000 C 
BRANCH   6   7
ATOM      7  C   UNL     1      54.196  56.779  24.447  1.00  0.00     0.006 C 
BRANCH   7   8
ATOM      8  C   UNL     1      55.119  56.518  25.645  1.00  0.00     0.053 C 
BRANCH   8   9
ATOM      9  C   UNL     1      56.552  56.572  25.223  1.00  0.00     0.041 C 
ATOM     10  O   UNL     1      56.864  56.385  24.017  1.00  0.00    -0.550 OA
ATOM     11  O   UNL     1      57.549  56.777  26.168  1.00  0.00    -0.550 OA
ENDBRANCH   8   9
ENDBRANCH   7   8
ENDBRANCH   6   7
ENDBRANCH   5   6
ENDBRANCH   4   5
ENDBRANCH   3   4
ENDBRANCH   2   3
ENDBRANCH   1   2
BRANCH   1  12
ATOM     12  C   UNL     1      55.575  52.547  17.969  1.00  0.00     0.000 C 
BRANCH  12  13
ATOM     13  C   UNL     1      54.766  51.562  17.106  1.00  0.00    -0.000 C 
BRANCH  13  14
ATOM     14  C   UNL     1      55.601  50.559  16.287  1.00  0.00    -0.000 C 
BRANCH  14  15
ATOM     15  C   UNL     1      55.622  49.150  16.905  1.00  0.00    -0.000 C 
BRANCH  15  16
ATOM     16  C   UNL     1      57.023  48.518  16.889  1.00  0.00    -0.000 C 
BRANCH  16  17
ATOM     17  C   UNL     1      57.328  47.718  18.165  1.00  0.00    -0.000 C 
BRANCH  17  18
ATOM     18  C   UNL     1      56.333  48.069  19.282  1.00  0.00    -0.000 C 
BRANCH  18  19
ATOM     19  C   UNL     1      56.293  47.010  20.394  1.00  0.00    -0.003 C 
ATOM     20  C   UNL     1      56.584  47.592  21.777  1.00  0.00     0.004 C 
ENDBRANCH  18  19
ENDBRANCH  17  18
ENDBRANCH  16  17
ENDBRANCH  15  16
ENDBRANCH  14  15
ENDBRANCH  13  14
ENDBRANCH  12  13
ENDBRANCH   1  12
TORSDOF 16
ENDMDL
MODEL 5
REMARK VINA RESULT:    20.588      7.096      9.386
REMARK INTER + INTRA:          38.743
REMARK INTER:                  39.592
REMARK INTRA:                  -0.849
REMARK UNBOUND:                -1.102
REMARK SMILES CCCCCCCCCCCCCCCCCC(=O)[O-]
REMARK SMILES IDX 10 1 11 2 12 3 13 4 14 5 15 6 16 7 17 8 18 9 19 10 20 11
REMARK SMILES IDX 9 12 8 13 7 14 6 15 5 16 4 17 3 18 2 19 1 20
REMARK H PARENT
REMARK Flexibility Score: inf
ROOT
ATOM      1  C   UNL     1      55.513  50.155  20.389  1.00  0.00     0.000 C 
ENDROOT
BRANCH   1   2
ATOM      2  C   UNL     1      54.361  50.986  20.987  1.00  0.00     0.000 C 
BRANCH   2   3
ATOM      3  C   UNL     1      54.606  52.504  21.056  1.00  0.00     0.000 C 
BRANCH   3   4
ATOM      4  C   UNL     1      53.573  53.242  21.923  1.00  0.00     0.000 C 
BRANCH   4   5
ATOM      5  C   UNL     1      54.118  54.561  22.497  1.00  0.00     0.000 C 
BRANCH   5   6
ATOM      6  C   UNL     1      53.272  55.123  23.662  1.00  0.00     0.000 C 
BRANCH   6   7
ATOM      7  C   UNL     1      53.907  56.356  24.330  1.00  0.00     0.006 C 
BRANCH   7   8
ATOM      8  C   UNL     1      54.888  55.972  25.445  1.00  0.00     0.053 C 
BRANCH   8   9
ATOM      9  C   UNL     1      56.292  56.280  25.034  1.00  0.00     0.041 C 
ATOM     10  O   UNL     1      57.169  56.519  25.905  1.00  0.00    -0.550 OA
ATOM     11  O   UNL     1      56.623  56.353  23.687  1.00  0.00    -0.550 OA
ENDBRANCH   8   9
ENDBRANCH   7   8
ENDBRANCH   6   7
ENDBRANCH   5   6
ENDBRANCH   4   5
ENDBRANCH   3   4
ENDBRANCH   2   3
ENDBRANCH   1   2
BRANCH   1  12
ATOM     12  C   UNL     1      56.064  49.102  21.365  1.00  0.00     0.000 C 
BRANCH  12  13
ATOM     13  C   UNL     1      56.313  47.736  20.700  1.00  0.00    -0.000 C 
BRANCH  13  14
ATOM     14  C   UNL     1      56.059  47.684  19.181  1.00  0.00    -0.000 C 
BRANCH  14  15
ATOM     15  C   UNL     1      57.357  47.665  18.355  1.00  0.00    -0.000 C 
BRANCH  15  16
ATOM     16  C   UNL     1      57.203  48.367  16.996  1.00  0.00    -0.000 C 
BRANCH  16  17
ATOM     17  C   UNL     1      55.967  49.278  16.935  1.00  0.00    -0.000 C 
BRANCH  17  18
ATOM     18  C   UNL     1      55.990  50.148  15.669  1.00  0.00    -0.000 C 
BRANCH  18  19
ATOM     19  C   UNL     1      54.616  50.751  15.338  1.00  0.00    -0.003 C 
ATOM     20  C   UNL     1      53.499  49.708  15.328  1.00  0.00     0.004 C 
ENDBRANCH  18  19
ENDBRANCH  17  18
ENDBRANCH  16  17
ENDBRANCH  15  16
ENDBRANCH  14  15
ENDBRANCH  13  14
ENDBRANCH  12  13
ENDBRANCH   1  12
TORSDOF 16
ENDMDL
MODEL 6
REMARK VINA RESULT:    20.596      6.498      8.788
REMARK INTER + INTRA:          38.758
REMARK INTER:                  39.806
REMARK INTRA:                  -1.047
REMARK UNBOUND:                -1.102
REMARK SMILES CCCCCCCCCCCCCCCCCC(=O)[O-]
REMARK SMILES IDX 10 1 11 2 12 3 13 4 14 5 15 6 16 7 17 8 18 9 19 10 20 11
REMARK SMILES IDX 9 12 8 13 7 14 6 15 5 16 4 17 3 18 2 19 1 20
REMARK H PARENT
REMARK Flexibility Score: inf
ROOT
ATOM      1  C   UNL     1      54.527  50.941  20.580  1.00  0.00     0.000 C 
ENDROOT
BRANCH   1   2
ATOM      2  C   UNL     1      55.847  50.162  20.419  1.00  0.00     0.000 C 
BRANCH   2   3
ATOM      3  C   UNL     1      56.022  48.956  21.359  1.00  0.00     0.000 C 
BRANCH   3   4
ATOM      4  C   UNL     1      56.427  47.669  20.619  1.00  0.00     0.000 C 
BRANCH   4   5
ATOM      5  C   UNL     1      56.044  47.699  19.130  1.00  0.00     0.000 C 
BRANCH   5   6
ATOM      6  C   UNL     1      57.263  47.771  18.182  1.00  0.00     0.000 C 
BRANCH   6   7
ATOM      7  C   UNL     1      56.989  48.588  16.907  1.00  0.00     0.006 C 
BRANCH   7   8
ATOM      8  C   UNL     1      55.578  49.190  16.896  1.00  0.00     0.053 C 
BRANCH   8   9
ATOM      9  C   UNL     1      55.471  50.251  15.847  1.00  0.00     0.041 C 
ATOM     10  O   UNL     1      54.510  50.243  15.034  1.00  0.00    -0.550 OA
ATOM     11  O   UNL     1      56.460  51.220  15.734  1.00  0.00    -0.550 OA
ENDBRANCH   8   9
ENDBRANCH   7   8
ENDBRANCH   6   7
ENDBRANCH   5   6
ENDBRANCH   4   5
ENDBRANCH   3   4
ENDBRANCH   2   3
ENDBRANCH   1   2
BRANCH   1  12
ATOM     12  C   UNL     1      54.728  52.348  21.168  1.00  0.00     0.000 C 
BRANCH  12  13
ATOM     13  C   UNL     1      53.521  52.833  21.993  1.00  0.00    -0.000 C 
BRANCH  13  14
ATOM     14  C   UNL     1      53.486  54.346  22.286  1.00  0.00    -0.000 C 
BRANCH  14  15
ATOM     15  C   UNL     1      53.211  54.664  23.766  1.00  0.00    -0.000 C 
BRANCH  15  16
ATOM     16  C   UNL     1      54.043  55.850  24.280  1.00  0.00    -0.000 C 
BRANCH  16  17
ATOM     17  C   UNL     1      55.191  56.226  23.329  1.00  0.00    -0.000 C 
BRANCH  17  18
ATOM     18  C   UNL     1      56.348  56.880  24.101  1.00  0.00    -0.000 C 
BRANCH  18  19
ATOM     19  C   UNL     1      56.265  56.632  25.615  1.00  0.00    -0.003 C 
ATOM     20  C   UNL     1      57.633  56.660  26.296  1.00  0.00     0.004 C 
ENDBRANCH  18  19
ENDBRANCH  17  18
ENDBRANCH  16  17
ENDBRANCH  15  16
ENDBRANCH  14  15
ENDBRANCH  13  14
ENDBRANCH  12  13
ENDBRANCH   1  12
TORSDOF 16
ENDMDL
MODEL 7
REMARK VINA RESULT:    20.693      3.691      8.780
REMARK INTER + INTRA:          38.947
REMARK INTER:                  37.200
REMARK INTRA:                   1.747
REMARK UNBOUND:                -1.102
REMARK SMILES CCCCCCCCCCCCCCCCCC(=O)[O-]
REMARK SMILES IDX 10 1 11 2 12 3 13 4 14 5 15 6 16 7 17 8 18 9 19 10 20 11
REMARK SMILES IDX 9 12 8 13 7 14 6 15 5 16 4 17 3 18 2 19 1 20
REMARK H PARENT
REMARK Flexibility Score: inf
ROOT
ATOM      1  C   UNL     1      57.121  47.800  22.826  1.00  0.00     0.000 C 
ENDROOT
BRANCH   1   2
ATOM      2  C   UNL     1      56.587  48.455  21.538  1.00  0.00     0.000 C 
BRANCH   2   3
ATOM      3  C   UNL     1      56.344  47.496  20.359  1.00  0.00     0.000 C 
BRANCH   3   4
ATOM      4  C   UNL     1      55.624  48.166  19.176  1.00  0.00     0.000 C 
BRANCH   4   5
ATOM      5  C   UNL     1      56.572  48.470  18.003  1.00  0.00     0.000 C 
BRANCH   5   6
ATOM      6  C   UNL     1      55.840  48.933  16.723  1.00  0.00     0.000 C 
BRANCH   6   7
ATOM      7  C   UNL     1      56.330  50.298  16.207  1.00  0.00     0.006 C 
BRANCH   7   8
ATOM      8  C   UNL     1      55.501  50.800  15.018  1.00  0.00     0.053 C 
BRANCH   8   9
ATOM      9  C   UNL     1      54.126  50.211  15.053  1.00  0.00     0.041 C 
ATOM     10  O   UNL     1      53.119  50.945  14.875  1.00  0.00    -0.550 OA
ATOM     11  O   UNL     1      53.955  48.862  15.334  1.00  0.00    -0.550 OA
ENDBRANCH   8   9
ENDBRANCH   7   8
ENDBRANCH   6   7
ENDBRANCH   5   6
ENDBRANCH   4   5
ENDBRANCH   3   4
ENDBRANCH   2   3
ENDBRANCH   1   2
BRANCH   1  12
ATOM     12  C   UNL     1      56.546  46.394  23.068  1.00  0.00     0.000 C 
BRANCH  12  13
ATOM     13  C   UNL     1      56.720  45.456  21.859  1.00  0.00    -0.000 C 
BRANCH  13  14
ATOM     14  C   UNL     1      57.110  44.004  22.199  1.00  0.00    -0.000 C 
BRANCH  14  15
ATOM     15  C   UNL     1      56.998  43.055  20.994  1.00  0.00    -0.000 C 
BRANCH  15  16
ATOM     16  C   UNL     1      55.562  42.556  20.765  1.00  0.00    -0.000 C 
BRANCH  16  17
ATOM     17  C   UNL     1      55.203  41.353  21.652  1.00  0.00    -0.000 C 
BRANCH  17  18
ATOM     18  C   UNL     1      55.113  40.066  20.817  1.00  0.00    -0.000 C 
BRANCH  18  19
ATOM     19  C   UNL     1      56.493  39.498  20.453  1.00  0.00    -0.003 C 
ATOM     20  C   UNL     1      56.893  38.308  21.324  1.00  0.00     0.004 C 
ENDBRANCH  18  19
ENDBRANCH  17  18
ENDBRANCH  16  17
ENDBRANCH  15  16
ENDBRANCH  14  15
ENDBRANCH  13  14
ENDBRANCH  12  13
ENDBRANCH   1  12
TORSDOF 16
ENDMDL
MODEL 8
REMARK VINA RESULT:    20.974      5.556      8.028
REMARK INTER + INTRA:          39.490
REMARK INTER:                  40.365
REMARK INTRA:                  -0.875
REMARK UNBOUND:                -1.102
REMARK SMILES CCCCCCCCCCCCCCCCCC(=O)[O-]
REMARK SMILES IDX 10 1 11 2 12 3 13 4 14 5 15 6 16 7 17 8 18 9 19 10 20 11
REMARK SMILES IDX 9 12 8 13 7 14 6 15 5 16 4 17 3 18 2 19 1 20
REMARK H PARENT
REMARK Flexibility Score: inf
ROOT
ATOM      1  C   UNL     1      55.717  52.232  17.847  1.00  0.00     0.000 C 
ENDROOT
BRANCH   1   2
ATOM      2  C   UNL     1      54.811  51.296  17.026  1.00  0.00     0.000 C 
BRANCH   2   3
ATOM      3  C   UNL     1      55.522  50.474  15.936  1.00  0.00     0.000 C 
BRANCH   3   4
ATOM      4  C   UNL     1      55.738  49.004  16.335  1.00  0.00     0.000 C 
BRANCH   4   5
ATOM      5  C   UNL     1      57.067  48.782  17.078  1.00  0.00     0.000 C 
BRANCH   5   6
ATOM      6  C   UNL     1      56.995  47.675  18.153  1.00  0.00     0.000 C 
BRANCH   6   7
ATOM      7  C   UNL     1      56.070  48.034  19.330  1.00  0.00     0.006 C 
BRANCH   7   8
ATOM      8  C   UNL     1      56.075  46.956  20.422  1.00  0.00     0.053 C 
BRANCH   8   9
ATOM      9  C   UNL     1      56.594  47.518  21.707  1.00  0.00     0.041 C 
ATOM     10  O   UNL     1      56.916  48.732  21.783  1.00  0.00    -0.550 OA
ATOM     11  O   UNL     1      56.769  46.689  22.808  1.00  0.00    -0.550 OA
ENDBRANCH   8   9
ENDBRANCH   7   8
ENDBRANCH   6   7
ENDBRANCH   5   6
ENDBRANCH   4   5
ENDBRANCH   3   4
ENDBRANCH   2   3
ENDBRANCH   1   2
BRANCH   1  12
ATOM     12  C   UNL     1      54.928  53.170  18.777  1.00  0.00     0.000 C 
BRANCH  12  13
ATOM     13  C   UNL     1      55.124  52.843  20.269  1.00  0.00    -0.000 C 
BRANCH  13  14
ATOM     14  C   UNL     1      53.940  53.207  21.186  1.00  0.00    -0.000 C 
BRANCH  14  15
ATOM     15  C   UNL     1      54.383  53.861  22.506  1.00  0.00    -0.000 C 
BRANCH  15  16
ATOM     16  C   UNL     1      53.352  54.868  23.041  1.00  0.00    -0.000 C 
BRANCH  16  17
ATOM     17  C   UNL     1      53.820  55.572  24.326  1.00  0.00    -0.000 C 
BRANCH  17  18
ATOM     18  C   UNL     1      55.113  56.363  24.075  1.00  0.00    -0.000 C 
BRANCH  18  19
ATOM     19  C   UNL     1      55.834  56.746  25.377  1.00  0.00    -0.003 C 
ATOM     20  C   UNL     1      57.177  56.035  25.542  1.00  0.00     0.004 C 
ENDBRANCH  18  19
ENDBRANCH  17  18
ENDBRANCH  16  17
ENDBRANCH  15  16
ENDBRANCH  14  15
ENDBRANCH  13  14
ENDBRANCH  12  13
ENDBRANCH   1  12
TORSDOF 16
ENDMDL
MODEL 9
REMARK VINA RESULT:    21.553      5.995      8.594
REMARK INTER + INTRA:          40.611
REMARK INTER:                  41.539
REMARK INTRA:                  -0.929
REMARK UNBOUND:                -1.102
REMARK SMILES CCCCCCCCCCCCCCCCCC(=O)[O-]
REMARK SMILES IDX 10 1 11 2 12 3 13 4 14 5 15 6 16 7 17 8 18 9 19 10 20 11
REMARK SMILES IDX 9 12 8 13 7 14 6 15 5 16 4 17 3 18 2 19 1 20
REMARK H PARENT
REMARK Flexibility Score: inf
ROOT
ATOM      1  C   UNL     1      55.221  52.226  20.039  1.00  0.00     0.000 C 
ENDROOT
BRANCH   1   2
ATOM      2  C   UNL     1      55.661  52.593  18.609  1.00  0.00     0.000 C 
BRANCH   2   3
ATOM      3  C   UNL     1      54.883  51.898  17.478  1.00  0.00     0.000 C 
BRANCH   3   4
ATOM      4  C   UNL     1      55.796  51.333  16.376  1.00  0.00     0.000 C 
BRANCH   4   5
ATOM      5  C   UNL     1      55.490  49.861  16.053  1.00  0.00     0.000 C 
BRANCH   5   6
ATOM      6  C   UNL     1      56.414  48.864  16.789  1.00  0.00     0.000 C 
BRANCH   6   7
ATOM      7  C   UNL     1      55.926  48.522  18.208  1.00  0.00     0.006 C 
BRANCH   7   8
ATOM      8  C   UNL     1      56.929  47.648  18.972  1.00  0.00     0.053 C 
BRANCH   8   9
ATOM      9  C   UNL     1      56.409  47.328  20.338  1.00  0.00     0.041 C 
ATOM     10  O   UNL     1      55.847  46.223  20.558  1.00  0.00    -0.550 OA
ATOM     11  O   UNL     1      56.500  48.270  21.355  1.00  0.00    -0.550 OA
ENDBRANCH   8   9
ENDBRANCH   7   8
ENDBRANCH   6   7
ENDBRANCH   5   6
ENDBRANCH   4   5
ENDBRANCH   3   4
ENDBRANCH   2   3
ENDBRANCH   1   2
BRANCH   1  12
ATOM     12  C   UNL     1      54.792  53.448  20.869  1.00  0.00     0.000 C 
BRANCH  12  13
ATOM     13  C   UNL     1      53.607  53.153  21.807  1.00  0.00    -0.000 C 
BRANCH  13  14
ATOM     14  C   UNL     1      53.066  54.365  22.590  1.00  0.00    -0.000 C 
BRANCH  14  15
ATOM     15  C   UNL     1      53.776  54.574  23.938  1.00  0.00    -0.000 C 
BRANCH  15  16
ATOM     16  C   UNL     1      53.738  56.039  24.404  1.00  0.00    -0.000 C 
BRANCH  16  17
ATOM     17  C   UNL     1      54.799  56.910  23.712  1.00  0.00    -0.000 C 
BRANCH  17  18
ATOM     18  C   UNL     1      56.215  56.457  24.098  1.00  0.00    -0.000 C 
BRANCH  18  19
ATOM     19  C   UNL     1      56.412  56.358  25.619  1.00  0.00    -0.003 C 
ATOM     20  C   UNL     1      57.802  56.809  26.067  1.00  0.00     0.004 C 
ENDBRANCH  18  19
ENDBRANCH  17  18
ENDBRANCH  16  17
ENDBRANCH  15  16
ENDBRANCH  14  15
ENDBRANCH  13  14
ENDBRANCH  12  13
ENDBRANCH   1  12
TORSDOF 16
ENDMDL
