MODEL 1
REMARK VINA RESULT:    -7.890      0.000      0.000
REMARK INTER + INTRA:          -8.867
REMARK INTER:                  -8.582
REMARK INTRA:                  -0.286
REMARK UNBOUND:                -0.286
REMARK SMILES C[C@H]1[C@H](C)CC[C@@]2(C(=O)[O-])CC[C@@]3(C)C(=CC[C@H]4[C@]5(C)CC[C@H](O)C(C)(C)[C@H]5CC[C@@]43C)[C@@H]12
REMARK SMILES IDX 7 1 6 2 11 3 33 4 5 5 12 6 15 7 2 8 3 9 13 10 16 11 1 12
REMARK SMILES IDX 4 13 14 14 31 15 17 16 18 17 30 18 32 19 19 20 29 21 28 22
REMARK SMILES IDX 21 23 20 24 25 25 22 26 23 27 26 28 27 29 8 30 9 31 10 32
REMARK SMILES IDX 24 33
REMARK H PARENT 24 34
REMARK Flexibility Score: inf
ROOT
ATOM      1  C   UNL     1     131.453 105.779  93.028  1.00  0.00     0.017 C 
ATOM      2  C   UNL     1     130.027 106.419  93.027  1.00  0.00     0.014 C 
ATOM      3  C   UNL     1     131.867 105.560  94.500  1.00  0.00     0.014 C 
ATOM      4  C   UNL     1     131.461 104.424  92.212  1.00  0.00     0.030 C 
ATOM      5  C   UNL     1     129.329 106.239  91.683  1.00  0.00     0.004 C 
ATOM      6  C   UNL     1     133.231 104.882  94.631  1.00  0.00     0.013 C 
ATOM      7  C   UNL     1     132.549 103.411  92.623  1.00  0.00    -0.063 C 
ATOM      8  C   UNL     1     130.051 103.760  92.024  1.00  0.00    -0.003 C 
ATOM      9  C   UNL     1     129.008 104.756  91.402  1.00  0.00    -0.011 C 
ATOM     10  C   UNL     1     133.314 103.473  93.958  1.00  0.00    -0.006 C 
ATOM     11  C   UNL     1     132.833 102.417  91.742  1.00  0.00    -0.027 C 
ATOM     12  C   UNL     1     129.506 103.076  93.291  1.00  0.00     0.008 C 
ATOM     13  C   UNL     1     128.875 104.543  89.886  1.00  0.00     0.008 C 
ATOM     14  C   UNL     1     132.577 102.479  94.922  1.00  0.00     0.017 C 
ATOM     15  C   UNL     1     134.849 103.053  93.678  1.00  0.00    -0.020 C 
ATOM     16  C   UNL     1     133.926 101.384  91.907  1.00  0.00     0.032 C 
ATOM     17  C   UNL     1     134.844 101.565  93.155  1.00  0.00     0.006 C 
ATOM     18  C   UNL     1     135.717 103.161  94.976  1.00  0.00     0.008 C 
ATOM     19  C   UNL     1     135.490 104.004  92.606  1.00  0.00     0.012 C 
ATOM     20  C   UNL     1     136.252 100.830  93.066  1.00  0.00    -0.025 C 
ATOM     21  C   UNL     1     137.086 102.466  94.886  1.00  0.00     0.005 C 
ATOM     22  C   UNL     1     136.933 100.977  94.482  1.00  0.00     0.003 C 
ATOM     23  C   UNL     1     135.993  99.309  92.812  1.00  0.00     0.010 C 
ATOM     24  C   UNL     1     137.132 101.387  91.893  1.00  0.00     0.012 C 
ATOM     25  C   UNL     1     138.208 100.075  94.733  1.00  0.00    -0.006 C 
ATOM     26  C   UNL     1     137.235  98.423  93.004  1.00  0.00     0.033 C 
ATOM     27  C   UNL     1     137.853  98.588  94.400  1.00  0.00     0.120 C 
ATOM     28  C   UNL     1     139.449 100.517  93.918  1.00  0.00     0.014 C 
ATOM     29  C   UNL     1     138.624 100.142  96.230  1.00  0.00     0.014 C 
ENDROOT
BRANCH   1  30
ATOM     30  C   UNL     1     132.436 106.774  92.404  1.00  0.00     0.048 C 
ATOM     31  O   UNL     1     132.703 107.861  92.987  1.00  0.00    -0.550 OA
ATOM     32  O   UNL     1     133.122 106.467  91.232  1.00  0.00    -0.550 OA
ENDBRANCH   1  30
BRANCH  27  33
ATOM     33  O   UNL     1     136.946  98.070  95.347  1.00  0.00    -0.393 OA
ATOM     34  H   UNL     1     136.039  98.108  94.946  1.00  0.00     0.210 HD
ENDBRANCH  27  33
TORSDOF 2
ENDMDL
MODEL 2
REMARK VINA RESULT:    -7.177      2.321      7.849
REMARK INTER + INTRA:          -8.092
REMARK INTER:                  -7.799
REMARK INTRA:                  -0.293
REMARK UNBOUND:                -0.286
REMARK SMILES C[C@H]1[C@H](C)CC[C@@]2(C(=O)[O-])CC[C@@]3(C)C(=CC[C@H]4[C@]5(C)CC[C@H](O)C(C)(C)[C@H]5CC[C@@]43C)[C@@H]12
REMARK SMILES IDX 7 1 6 2 11 3 33 4 5 5 12 6 15 7 2 8 3 9 13 10 16 11 1 12
REMARK SMILES IDX 4 13 14 14 31 15 17 16 18 17 30 18 32 19 19 20 29 21 28 22
REMARK SMILES IDX 21 23 20 24 25 25 22 26 23 27 26 28 27 29 8 30 9 31 10 32
REMARK SMILES IDX 24 33
REMARK H PARENT 24 34
REMARK Flexibility Score: inf
ROOT
ATOM      1  C   UNL     1     138.464 102.004  92.981  1.00  0.00     0.017 C 
ATOM      2  C   UNL     1     139.780 101.178  93.153  1.00  0.00     0.014 C 
ATOM      3  C   UNL     1     137.973 101.804  91.530  1.00  0.00     0.014 C 
ATOM      4  C   UNL     1     137.373 101.550  94.033  1.00  0.00     0.030 C 
ATOM      5  C   UNL     1     140.086 100.907  94.622  1.00  0.00     0.004 C 
ATOM      6  C   UNL     1     136.652 102.523  91.253  1.00  0.00     0.013 C 
ATOM      7  C   UNL     1     135.909 101.792  93.614  1.00  0.00    -0.063 C 
ATOM      8  C   UNL     1     137.603 100.122  94.645  1.00  0.00    -0.003 C 
ATOM      9  C   UNL     1     139.040  99.967  95.258  1.00  0.00    -0.011 C 
ATOM     10  C   UNL     1     135.468 102.061  92.164  1.00  0.00    -0.006 C 
ATOM     11  C   UNL     1     134.973 101.766  94.598  1.00  0.00    -0.027 C 
ATOM     12  C   UNL     1     137.262  98.967  93.686  1.00  0.00     0.008 C 
ATOM     13  C   UNL     1     139.019 100.185  96.779  1.00  0.00     0.008 C 
ATOM     14  C   UNL     1     134.989 100.678  91.598  1.00  0.00     0.017 C 
ATOM     15  C   UNL     1     134.291 103.168  92.192  1.00  0.00    -0.020 C 
ATOM     16  C   UNL     1     133.502 102.073  94.417  1.00  0.00     0.032 C 
ATOM     17  C   UNL     1     133.081 102.550  92.993  1.00  0.00     0.006 C 
ATOM     18  C   UNL     1     133.834 103.553  90.745  1.00  0.00     0.008 C 
ATOM     19  C   UNL     1     134.792 104.482  92.889  1.00  0.00     0.012 C 
ATOM     20  C   UNL     1     131.701 103.338  92.929  1.00  0.00    -0.025 C 
ATOM     21  C   UNL     1     132.508 104.330  90.682  1.00  0.00     0.005 C 
ATOM     22  C   UNL     1     131.371 103.559  91.402  1.00  0.00     0.003 C 
ATOM     23  C   UNL     1     130.587 102.422  93.535  1.00  0.00     0.010 C 
ATOM     24  C   UNL     1     131.747 104.673  93.753  1.00  0.00     0.012 C 
ATOM     25  C   UNL     1     129.906 104.055  91.075  1.00  0.00    -0.006 C 
ATOM     26  C   UNL     1     129.156 102.918  93.267  1.00  0.00     0.033 C 
ATOM     27  C   UNL     1     128.878 103.102  91.768  1.00  0.00     0.120 C 
ATOM     28  C   UNL     1     129.640 105.520  91.503  1.00  0.00     0.014 C 
ATOM     29  C   UNL     1     129.651 103.998  89.541  1.00  0.00     0.014 C 
ENDROOT
BRANCH   1  30
ATOM     30  C   UNL     1     138.790 103.488  93.169  1.00  0.00     0.048 C 
ATOM     31  O   UNL     1     138.223 104.158  94.075  1.00  0.00    -0.550 OA
ATOM     32  O   UNL     1     139.778 104.109  92.409  1.00  0.00    -0.550 OA
ENDBRANCH   1  30
BRANCH  27  33
ATOM     33  O   UNL     1     128.891 101.830  91.158  1.00  0.00    -0.393 OA
ATOM     34  H   UNL     1     128.113 101.784  90.545  1.00  0.00     0.210 HD
ENDBRANCH  27  33
TORSDOF 2
ENDMDL
MODEL 3
REMARK VINA RESULT:    -6.962      1.557      2.073
REMARK INTER + INTRA:          -7.858
REMARK INTER:                  -7.586
REMARK INTRA:                  -0.272
REMARK UNBOUND:                -0.286
REMARK SMILES C[C@H]1[C@H](C)CC[C@@]2(C(=O)[O-])CC[C@@]3(C)C(=CC[C@H]4[C@]5(C)CC[C@H](O)C(C)(C)[C@H]5CC[C@@]43C)[C@@H]12
REMARK SMILES IDX 7 1 6 2 11 3 33 4 5 5 12 6 15 7 2 8 3 9 13 10 16 11 1 12
REMARK SMILES IDX 4 13 14 14 31 15 17 16 18 17 30 18 32 19 19 20 29 21 28 22
REMARK SMILES IDX 21 23 20 24 25 25 22 26 23 27 26 28 27 29 8 30 9 31 10 32
REMARK SMILES IDX 24 33
REMARK H PARENT 24 34
REMARK Flexibility Score: inf
ROOT
ATOM      1  C   UNL     1     132.332 105.817  92.370  1.00  0.00     0.017 C 
ATOM      2  C   UNL     1     130.961 106.561  92.474  1.00  0.00     0.014 C 
ATOM      3  C   UNL     1     133.324 106.530  93.316  1.00  0.00     0.014 C 
ATOM      4  C   UNL     1     132.172 104.287  92.739  1.00  0.00     0.030 C 
ATOM      5  C   UNL     1     129.810 105.690  91.983  1.00  0.00     0.004 C 
ATOM      6  C   UNL     1     134.696 105.855  93.343  1.00  0.00     0.013 C 
ATOM      7  C   UNL     1     133.444 103.599  93.274  1.00  0.00    -0.063 C 
ATOM      8  C   UNL     1     130.893 103.944  93.583  1.00  0.00    -0.003 C 
ATOM      9  C   UNL     1     129.579 104.475  92.906  1.00  0.00    -0.011 C 
ATOM     10  C   UNL     1     134.667 104.363  93.813  1.00  0.00    -0.006 C 
ATOM     11  C   UNL     1     133.465 102.241  93.258  1.00  0.00    -0.027 C 
ATOM     12  C   UNL     1     130.986 104.364  95.061  1.00  0.00     0.008 C 
ATOM     13  C   UNL     1     128.875 103.362  92.115  1.00  0.00     0.008 C 
ATOM     14  C   UNL     1     134.501 104.394  95.373  1.00  0.00     0.017 C 
ATOM     15  C   UNL     1     135.999 103.580  93.339  1.00  0.00    -0.020 C 
ATOM     16  C   UNL     1     134.646 101.377  93.645  1.00  0.00     0.032 C 
ATOM     17  C   UNL     1     135.959 102.144  93.992  1.00  0.00     0.006 C 
ATOM     18  C   UNL     1     137.295 104.335  93.786  1.00  0.00     0.008 C 
ATOM     19  C   UNL     1     136.039 103.466  91.774  1.00  0.00     0.012 C 
ATOM     20  C   UNL     1     137.288 101.276  93.899  1.00  0.00    -0.025 C 
ATOM     21  C   UNL     1     138.585 103.502  93.681  1.00  0.00     0.005 C 
ATOM     22  C   UNL     1     138.458 102.171  94.465  1.00  0.00     0.003 C 
ATOM     23  C   UNL     1     137.130 100.038  94.841  1.00  0.00     0.010 C 
ATOM     24  C   UNL     1     137.553 100.760  92.441  1.00  0.00     0.012 C 
ATOM     25  C   UNL     1     139.823 101.425  94.753  1.00  0.00    -0.006 C 
ATOM     26  C   UNL     1     138.440  99.272  95.092  1.00  0.00     0.033 C 
ATOM     27  C   UNL     1     139.542 100.180  95.658  1.00  0.00     0.120 C 
ATOM     28  C   UNL     1     140.571 100.988  93.470  1.00  0.00     0.014 C 
ATOM     29  C   UNL     1     140.794 102.365  95.524  1.00  0.00     0.014 C 
ENDROOT
BRANCH   1  30
ATOM     30  C   UNL     1     132.858 105.960  90.939  1.00  0.00     0.048 C 
ATOM     31  O   UNL     1     132.752 105.007  90.119  1.00  0.00    -0.550 OA
ATOM     32  O   UNL     1     133.380 107.168  90.483  1.00  0.00    -0.550 OA
ENDBRANCH   1  30
BRANCH  27  33
ATOM     33  O   UNL     1     139.158 100.584  96.953  1.00  0.00    -0.393 OA
ATOM     34  H   UNL     1     138.632 101.421  96.863  1.00  0.00     0.210 HD
ENDBRANCH  27  33
TORSDOF 2
ENDMDL
MODEL 4
REMARK VINA RESULT:    -6.388      1.802      8.033
REMARK INTER + INTRA:          -7.234
REMARK INTER:                  -6.925
REMARK INTRA:                  -0.309
REMARK UNBOUND:                -0.286
REMARK SMILES C[C@H]1[C@H](C)CC[C@@]2(C(=O)[O-])CC[C@@]3(C)C(=CC[C@H]4[C@]5(C)CC[C@H](O)C(C)(C)[C@H]5CC[C@@]43C)[C@@H]12
REMARK SMILES IDX 7 1 6 2 11 3 33 4 5 5 12 6 15 7 2 8 3 9 13 10 16 11 1 12
REMARK SMILES IDX 4 13 14 14 31 15 17 16 18 17 30 18 32 19 19 20 29 21 28 22
REMARK SMILES IDX 21 23 20 24 25 25 22 26 23 27 26 28 27 29 8 30 9 31 10 32
REMARK SMILES IDX 24 33
REMARK H PARENT 24 34
REMARK Flexibility Score: inf
ROOT
ATOM      1  C   UNL     1     138.332 101.145  93.812  1.00  0.00     0.017 C 
ATOM      2  C   UNL     1     139.849 101.056  94.178  1.00  0.00     0.014 C 
ATOM      3  C   UNL     1     137.554 101.441  95.114  1.00  0.00     0.014 C 
ATOM      4  C   UNL     1     138.081 102.260  92.718  1.00  0.00     0.030 C 
ATOM      5  C   UNL     1     140.736 101.250  92.952  1.00  0.00     0.004 C 
ATOM      6  C   UNL     1     136.052 101.607  94.875  1.00  0.00     0.013 C 
ATOM      7  C   UNL     1     136.669 102.878  92.715  1.00  0.00    -0.063 C 
ATOM      8  C   UNL     1     139.218 103.337  92.603  1.00  0.00    -0.003 C 
ATOM      9  C   UNL     1     140.631 102.685  92.394  1.00  0.00    -0.011 C 
ATOM     10  C   UNL     1     135.685 102.767  93.894  1.00  0.00    -0.006 C 
ATOM     11  C   UNL     1     136.291 103.551  91.597  1.00  0.00    -0.027 C 
ATOM     12  C   UNL     1     139.225 104.365  93.750  1.00  0.00     0.008 C 
ATOM     13  C   UNL     1     141.024 102.682  90.909  1.00  0.00     0.008 C 
ATOM     14  C   UNL     1     135.839 104.100  94.708  1.00  0.00     0.017 C 
ATOM     15  C   UNL     1     134.198 102.569  93.292  1.00  0.00    -0.020 C 
ATOM     16  C   UNL     1     134.922 104.146  91.352  1.00  0.00     0.032 C 
ATOM     17  C   UNL     1     133.853 103.859  92.451  1.00  0.00     0.006 C 
ATOM     18  C   UNL     1     133.142 102.375  94.431  1.00  0.00     0.008 C 
ATOM     19  C   UNL     1     134.142 101.294  92.380  1.00  0.00     0.012 C 
ATOM     20  C   UNL     1     132.343 104.027  91.981  1.00  0.00    -0.025 C 
ATOM     21  C   UNL     1     131.680 102.520  93.975  1.00  0.00     0.005 C 
ATOM     22  C   UNL     1     131.445 103.881  93.271  1.00  0.00     0.003 C 
ATOM     23  C   UNL     1     132.162 105.479  91.430  1.00  0.00     0.010 C 
ATOM     24  C   UNL     1     131.965 103.014  90.844  1.00  0.00     0.012 C 
ATOM     25  C   UNL     1     129.930 104.306  93.110  1.00  0.00    -0.006 C 
ATOM     26  C   UNL     1     130.695 105.890  91.221  1.00  0.00     0.033 C 
ATOM     27  C   UNL     1     129.866 105.747  92.506  1.00  0.00     0.120 C 
ATOM     28  C   UNL     1     129.104 103.329  92.235  1.00  0.00     0.014 C 
ATOM     29  C   UNL     1     129.233 104.340  94.500  1.00  0.00     0.014 C 
ENDROOT
BRANCH   1  30
ATOM     30  C   UNL     1     137.875  99.781  93.288  1.00  0.00     0.048 C 
ATOM     31  O   UNL     1     137.568  99.632  92.073  1.00  0.00    -0.550 OA
ATOM     32  O   UNL     1     137.874  98.658  94.111  1.00  0.00    -0.550 OA
ENDBRANCH   1  30
BRANCH  27  33
ATOM     33  O   UNL     1     130.331 106.697  93.438  1.00  0.00    -0.393 OA
ATOM     34  H   UNL     1     129.622 106.817  94.122  1.00  0.00     0.210 HD
ENDBRANCH  27  33
TORSDOF 2
ENDMDL
MODEL 5
REMARK VINA RESULT:    -6.312      2.790      8.152
REMARK INTER + INTRA:          -7.151
REMARK INTER:                  -6.845
REMARK INTRA:                  -0.307
REMARK UNBOUND:                -0.286
REMARK SMILES C[C@H]1[C@H](C)CC[C@@]2(C(=O)[O-])CC[C@@]3(C)C(=CC[C@H]4[C@]5(C)CC[C@H](O)C(C)(C)[C@H]5CC[C@@]43C)[C@@H]12
REMARK SMILES IDX 7 1 6 2 11 3 33 4 5 5 12 6 15 7 2 8 3 9 13 10 16 11 1 12
REMARK SMILES IDX 4 13 14 14 31 15 17 16 18 17 30 18 32 19 19 20 29 21 28 22
REMARK SMILES IDX 21 23 20 24 25 25 22 26 23 27 26 28 27 29 8 30 9 31 10 32
REMARK SMILES IDX 24 33
REMARK H PARENT 24 34
REMARK Flexibility Score: inf
ROOT
ATOM      1  C   UNL     1     139.971 101.946  91.845  1.00  0.00     0.017 C 
ATOM      2  C   UNL     1     141.367 101.258  91.986  1.00  0.00     0.014 C 
ATOM      3  C   UNL     1     138.979 100.888  91.311  1.00  0.00     0.014 C 
ATOM      4  C   UNL     1     139.495 102.542  93.231  1.00  0.00     0.030 C 
ATOM      5  C   UNL     1     142.282 102.030  92.930  1.00  0.00     0.004 C 
ATOM      6  C   UNL     1     137.555 101.430  91.184  1.00  0.00     0.013 C 
ATOM      7  C   UNL     1     137.969 102.676  93.405  1.00  0.00    -0.063 C 
ATOM      8  C   UNL     1     140.200 101.923  94.490  1.00  0.00    -0.003 C 
ATOM      9  C   UNL     1     141.765 101.990  94.384  1.00  0.00    -0.011 C 
ATOM     10  C   UNL     1     136.941 101.939  92.528  1.00  0.00    -0.006 C 
ATOM     11  C   UNL     1     137.530 103.499  94.393  1.00  0.00    -0.027 C 
ATOM     12  C   UNL     1     139.709 100.508  94.850  1.00  0.00     0.008 C 
ATOM     13  C   UNL     1     142.321 103.197  95.155  1.00  0.00     0.008 C 
ATOM     14  C   UNL     1     136.525 100.660  93.336  1.00  0.00     0.017 C 
ATOM     15  C   UNL     1     135.701 102.939  92.258  1.00  0.00    -0.020 C 
ATOM     16  C   UNL     1     136.082 103.844  94.668  1.00  0.00     0.032 C 
ATOM     17  C   UNL     1     135.046 103.268  93.655  1.00  0.00     0.006 C 
ATOM     18  C   UNL     1     134.639 102.289  91.309  1.00  0.00     0.008 C 
ATOM     19  C   UNL     1     136.201 104.257  91.567  1.00  0.00     0.012 C 
ATOM     20  C   UNL     1     133.642 104.016  93.632  1.00  0.00    -0.025 C 
ATOM     21  C   UNL     1     133.286 103.021  91.272  1.00  0.00     0.005 C 
ATOM     22  C   UNL     1     132.691 103.173  92.696  1.00  0.00     0.003 C 
ATOM     23  C   UNL     1     133.047 103.983  95.078  1.00  0.00     0.010 C 
ATOM     24  C   UNL     1     133.781 105.514  93.186  1.00  0.00     0.012 C 
ATOM     25  C   UNL     1     131.156 103.548  92.750  1.00  0.00    -0.006 C 
ATOM     26  C   UNL     1     131.567 104.394  95.154  1.00  0.00     0.033 C 
ATOM     27  C   UNL     1     130.680 103.535  94.240  1.00  0.00     0.120 C 
ATOM     28  C   UNL     1     130.832 104.919  92.104  1.00  0.00     0.014 C 
ATOM     29  C   UNL     1     130.319 102.493  91.973  1.00  0.00     0.014 C 
ENDROOT
BRANCH   1  30
ATOM     30  C   UNL     1     140.078 103.062  90.802  1.00  0.00     0.048 C 
ATOM     31  O   UNL     1     139.972 104.271  91.145  1.00  0.00    -0.550 OA
ATOM     32  O   UNL     1     140.383 102.777  89.474  1.00  0.00    -0.550 OA
ENDBRANCH   1  30
BRANCH  27  33
ATOM     33  O   UNL     1     130.670 102.219  94.746  1.00  0.00    -0.393 OA
ATOM     34  H   UNL     1     129.733 101.998  94.986  1.00  0.00     0.210 HD
ENDBRANCH  27  33
TORSDOF 2
ENDMDL
MODEL 6
REMARK VINA RESULT:    -6.311      3.310      5.713
REMARK INTER + INTRA:          -7.150
REMARK INTER:                  -6.846
REMARK INTRA:                  -0.304
REMARK UNBOUND:                -0.286
REMARK SMILES C[C@H]1[C@H](C)CC[C@@]2(C(=O)[O-])CC[C@@]3(C)C(=CC[C@H]4[C@]5(C)CC[C@H](O)C(C)(C)[C@H]5CC[C@@]43C)[C@@H]12
REMARK SMILES IDX 7 1 6 2 11 3 33 4 5 5 12 6 15 7 2 8 3 9 13 10 16 11 1 12
REMARK SMILES IDX 4 13 14 14 31 15 17 16 18 17 30 18 32 19 19 20 29 21 28 22
REMARK SMILES IDX 21 23 20 24 25 25 22 26 23 27 26 28 27 29 8 30 9 31 10 32
REMARK SMILES IDX 24 33
REMARK H PARENT 24 34
REMARK Flexibility Score: inf
ROOT
ATOM      1  C   UNL     1     135.245 102.322  93.800  1.00  0.00     0.017 C 
ATOM      2  C   UNL     1     133.712 102.022  93.836  1.00  0.00     0.014 C 
ATOM      3  C   UNL     1     135.920 101.441  94.875  1.00  0.00     0.014 C 
ATOM      4  C   UNL     1     135.839 102.043  92.360  1.00  0.00     0.030 C 
ATOM      5  C   UNL     1     133.024 102.446  92.543  1.00  0.00     0.004 C 
ATOM      6  C   UNL     1     137.441 101.605  94.898  1.00  0.00     0.013 C 
ATOM      7  C   UNL     1     137.341 101.694  92.321  1.00  0.00    -0.063 C 
ATOM      8  C   UNL     1     134.969 101.093  91.463  1.00  0.00    -0.003 C 
ATOM      9  C   UNL     1     133.484 101.588  91.345  1.00  0.00    -0.011 C 
ATOM     10  C   UNL     1     138.145 101.238  93.552  1.00  0.00    -0.006 C 
ATOM     11  C   UNL     1     137.969 101.804  91.121  1.00  0.00    -0.027 C 
ATOM     12  C   UNL     1     135.048  99.608  91.861  1.00  0.00     0.008 C 
ATOM     13  C   UNL     1     133.264 102.374  90.043  1.00  0.00     0.008 C 
ATOM     14  C   UNL     1     138.181  99.670  93.485  1.00  0.00     0.017 C 
ATOM     15  C   UNL     1     139.616 101.902  93.466  1.00  0.00    -0.020 C 
ATOM     16  C   UNL     1     139.451 101.604  90.886  1.00  0.00     0.032 C 
ATOM     17  C   UNL     1     140.310 101.347  92.162  1.00  0.00     0.006 C 
ATOM     18  C   UNL     1     140.478 101.546  94.723  1.00  0.00     0.008 C 
ATOM     19  C   UNL     1     139.507 103.466  93.401  1.00  0.00     0.012 C 
ATOM     20  C   UNL     1     141.864 101.640  91.996  1.00  0.00    -0.025 C 
ATOM     21  C   UNL     1     141.980 101.844  94.570  1.00  0.00     0.005 C 
ATOM     22  C   UNL     1     142.566 101.142  93.318  1.00  0.00     0.003 C 
ATOM     23  C   UNL     1     142.400 100.772  90.810  1.00  0.00     0.010 C 
ATOM     24  C   UNL     1     142.147 103.149  91.674  1.00  0.00     0.012 C 
ATOM     25  C   UNL     1     144.144 101.052  93.272  1.00  0.00    -0.006 C 
ATOM     26  C   UNL     1     143.934 100.714  90.722  1.00  0.00     0.033 C 
ATOM     27  C   UNL     1     144.570 100.209  92.025  1.00  0.00     0.120 C 
ATOM     28  C   UNL     1     144.842 102.434  93.239  1.00  0.00     0.014 C 
ATOM     29  C   UNL     1     144.676 100.327  94.542  1.00  0.00     0.014 C 
ENDROOT
BRANCH   1  30
ATOM     30  C   UNL     1     135.466 103.788  94.184  1.00  0.00     0.048 C 
ATOM     31  O   UNL     1     135.820 104.631  93.315  1.00  0.00    -0.550 OA
ATOM     32  O   UNL     1     135.196 104.242  95.472  1.00  0.00    -0.550 OA
ENDBRANCH   1  30
BRANCH  27  33
ATOM     33  O   UNL     1     144.212  98.856  92.195  1.00  0.00    -0.393 OA
ATOM     34  H   UNL     1     144.572  98.558  93.070  1.00  0.00     0.210 HD
ENDBRANCH  27  33
TORSDOF 2
ENDMDL
MODEL 7
REMARK VINA RESULT:    -6.203      2.387      3.386
REMARK INTER + INTRA:          -7.033
REMARK INTER:                  -6.729
REMARK INTRA:                  -0.304
REMARK UNBOUND:                -0.286
REMARK SMILES C[C@H]1[C@H](C)CC[C@@]2(C(=O)[O-])CC[C@@]3(C)C(=CC[C@H]4[C@]5(C)CC[C@H](O)C(C)(C)[C@H]5CC[C@@]43C)[C@@H]12
REMARK SMILES IDX 7 1 6 2 11 3 33 4 5 5 12 6 15 7 2 8 3 9 13 10 16 11 1 12
REMARK SMILES IDX 4 13 14 14 31 15 17 16 18 17 30 18 32 19 19 20 29 21 28 22
REMARK SMILES IDX 21 23 20 24 25 25 22 26 23 27 26 28 27 29 8 30 9 31 10 32
REMARK SMILES IDX 24 33
REMARK H PARENT 24 34
REMARK Flexibility Score: inf
ROOT
ATOM      1  C   UNL     1     132.261 104.878  92.803  1.00  0.00     0.017 C 
ATOM      2  C   UNL     1     130.742 104.931  93.165  1.00  0.00     0.014 C 
ATOM      3  C   UNL     1     133.011 105.793  93.797  1.00  0.00     0.014 C 
ATOM      4  C   UNL     1     132.801 103.392  92.858  1.00  0.00     0.030 C 
ATOM      5  C   UNL     1     129.985 103.737  92.594  1.00  0.00     0.004 C 
ATOM      6  C   UNL     1     134.525 105.781  93.578  1.00  0.00     0.013 C 
ATOM      7  C   UNL     1     134.310 103.247  93.138  1.00  0.00    -0.063 C 
ATOM      8  C   UNL     1     131.925 102.405  93.708  1.00  0.00    -0.003 C 
ATOM      9  C   UNL     1     130.420 102.415  93.259  1.00  0.00    -0.011 C 
ATOM     10  C   UNL     1     135.182 104.370  93.728  1.00  0.00    -0.006 C 
ATOM     11  C   UNL     1     134.882 102.052  92.839  1.00  0.00    -0.027 C 
ATOM     12  C   UNL     1     132.071 102.588  95.229  1.00  0.00     0.008 C 
ATOM     13  C   UNL     1     130.118 101.245  92.311  1.00  0.00     0.008 C 
ATOM     14  C   UNL     1     135.267 104.084  95.269  1.00  0.00     0.017 C 
ATOM     15  C   UNL     1     136.625 104.322  93.001  1.00  0.00    -0.020 C 
ATOM     16  C   UNL     1     136.358 101.733  92.945  1.00  0.00     0.032 C 
ATOM     17  C   UNL     1     137.279 102.928  93.342  1.00  0.00     0.006 C 
ATOM     18  C   UNL     1     137.552 105.483  93.494  1.00  0.00     0.008 C 
ATOM     19  C   UNL     1     136.461 104.481  91.448  1.00  0.00     0.012 C 
ATOM     20  C   UNL     1     138.814 102.745  92.968  1.00  0.00    -0.025 C 
ATOM     21  C   UNL     1     139.035 105.316  93.118  1.00  0.00     0.005 C 
ATOM     22  C   UNL     1     139.589 103.957  93.617  1.00  0.00     0.003 C 
ATOM     23  C   UNL     1     139.327 101.429  93.642  1.00  0.00     0.010 C 
ATOM     24  C   UNL     1     139.032 102.626  91.419  1.00  0.00     0.012 C 
ATOM     25  C   UNL     1     141.166 103.838  93.637  1.00  0.00    -0.006 C 
ATOM     26  C   UNL     1     140.857 101.275  93.627  1.00  0.00     0.033 C 
ATOM     27  C   UNL     1     141.566 102.470  94.282  1.00  0.00     0.120 C 
ATOM     28  C   UNL     1     141.815 103.971  92.237  1.00  0.00     0.014 C 
ATOM     29  C   UNL     1     141.777 104.973  94.509  1.00  0.00     0.014 C 
ENDROOT
BRANCH   1  30
ATOM     30  C   UNL     1     132.449 105.455  91.397  1.00  0.00     0.048 C 
ATOM     31  O   UNL     1     132.735 104.699  90.428  1.00  0.00    -0.550 OA
ATOM     32  O   UNL     1     132.221 106.804  91.137  1.00  0.00    -0.550 OA
ENDBRANCH   1  30
BRANCH  27  33
ATOM     33  O   UNL     1     141.261 102.462  95.659  1.00  0.00    -0.393 OA
ATOM     34  H   UNL     1     140.330 102.788  95.761  1.00  0.00     0.210 HD
ENDBRANCH  27  33
TORSDOF 2
ENDMDL
MODEL 8
REMARK VINA RESULT:    -6.139      3.105      7.935
REMARK INTER + INTRA:          -6.963
REMARK INTER:                  -6.656
REMARK INTRA:                  -0.307
REMARK UNBOUND:                -0.286
REMARK SMILES C[C@H]1[C@H](C)CC[C@@]2(C(=O)[O-])CC[C@@]3(C)C(=CC[C@H]4[C@]5(C)CC[C@H](O)C(C)(C)[C@H]5CC[C@@]43C)[C@@H]12
REMARK SMILES IDX 7 1 6 2 11 3 33 4 5 5 12 6 15 7 2 8 3 9 13 10 16 11 1 12
REMARK SMILES IDX 4 13 14 14 31 15 17 16 18 17 30 18 32 19 19 20 29 21 28 22
REMARK SMILES IDX 21 23 20 24 25 25 22 26 23 27 26 28 27 29 8 30 9 31 10 32
REMARK SMILES IDX 24 33
REMARK H PARENT 24 34
REMARK Flexibility Score: inf
ROOT
ATOM      1  C   UNL     1     140.150 104.263  91.969  1.00  0.00     0.017 C 
ATOM      2  C   UNL     1     141.527 103.841  91.362  1.00  0.00     0.014 C 
ATOM      3  C   UNL     1     139.181 104.525  90.794  1.00  0.00     0.014 C 
ATOM      4  C   UNL     1     139.597 103.144  92.941  1.00  0.00     0.030 C 
ATOM      5  C   UNL     1     142.391 103.108  92.382  1.00  0.00     0.004 C 
ATOM      6  C   UNL     1     137.773 104.893  91.266  1.00  0.00     0.013 C 
ATOM      7  C   UNL     1     138.065 103.112  93.110  1.00  0.00    -0.063 C 
ATOM      8  C   UNL     1     140.215 101.718  92.722  1.00  0.00    -0.003 C 
ATOM      9  C   UNL     1     141.785 101.741  92.766  1.00  0.00    -0.011 C 
ATOM     10  C   UNL     1     137.084 103.797  92.142  1.00  0.00    -0.006 C 
ATOM     11  C   UNL     1     137.575 102.437  94.183  1.00  0.00    -0.027 C 
ATOM     12  C   UNL     1     139.688 100.991  91.472  1.00  0.00     0.008 C 
ATOM     13  C   UNL     1     142.307 101.324  94.149  1.00  0.00     0.008 C 
ATOM     14  C   UNL     1     136.605 102.678  91.152  1.00  0.00     0.017 C 
ATOM     15  C   UNL     1     135.874 104.425  93.010  1.00  0.00    -0.020 C 
ATOM     16  C   UNL     1     136.118 102.366  94.584  1.00  0.00     0.032 C 
ATOM     17  C   UNL     1     135.139 103.229  93.729  1.00  0.00     0.006 C 
ATOM     18  C   UNL     1     134.865 105.207  92.104  1.00  0.00     0.008 C 
ATOM     19  C   UNL     1     136.431 105.438  94.072  1.00  0.00     0.012 C 
ATOM     20  C   UNL     1     133.748 103.557  94.428  1.00  0.00    -0.025 C 
ATOM     21  C   UNL     1     133.526 105.540  92.784  1.00  0.00     0.005 C 
ATOM     22  C   UNL     1     132.847 104.262  93.341  1.00  0.00     0.003 C 
ATOM     23  C   UNL     1     133.065 102.204  94.816  1.00  0.00     0.010 C 
ATOM     24  C   UNL     1     133.932 104.412  95.731  1.00  0.00     0.012 C 
ATOM     25  C   UNL     1     131.316 104.416  93.706  1.00  0.00    -0.006 C 
ATOM     26  C   UNL     1     131.588 102.344  95.221  1.00  0.00     0.033 C 
ATOM     27  C   UNL     1     130.749 103.020  94.126  1.00  0.00     0.120 C 
ATOM     28  C   UNL     1     131.048 105.453  94.825  1.00  0.00     0.014 C 
ATOM     29  C   UNL     1     130.515 104.901  92.464  1.00  0.00     0.014 C 
ENDROOT
BRANCH   1  30
ATOM     30  C   UNL     1     140.334 105.578  92.731  1.00  0.00     0.048 C 
ATOM     31  O   UNL     1     140.212 105.613  93.987  1.00  0.00    -0.550 OA
ATOM     32  O   UNL     1     140.727 106.741  92.074  1.00  0.00    -0.550 OA
ENDBRANCH   1  30
BRANCH  27  33
ATOM     33  O   UNL     1     130.692 102.152  93.016  1.00  0.00    -0.393 OA
ATOM     34  H   UNL     1     131.560 101.674  92.964  1.00  0.00     0.210 HD
ENDBRANCH  27  33
TORSDOF 2
ENDMDL
MODEL 9
REMARK VINA RESULT:    -6.045      5.223     10.015
REMARK INTER + INTRA:          -6.861
REMARK INTER:                  -6.552
REMARK INTRA:                  -0.309
REMARK UNBOUND:                -0.286
REMARK SMILES C[C@H]1[C@H](C)CC[C@@]2(C(=O)[O-])CC[C@@]3(C)C(=CC[C@H]4[C@]5(C)CC[C@H](O)C(C)(C)[C@H]5CC[C@@]43C)[C@@H]12
REMARK SMILES IDX 7 1 6 2 11 3 33 4 5 5 12 6 15 7 2 8 3 9 13 10 16 11 1 12
REMARK SMILES IDX 4 13 14 14 31 15 17 16 18 17 30 18 32 19 19 20 29 21 28 22
REMARK SMILES IDX 21 23 20 24 25 25 22 26 23 27 26 28 27 29 8 30 9 31 10 32
REMARK SMILES IDX 24 33
REMARK H PARENT 24 34
REMARK Flexibility Score: inf
ROOT
ATOM      1  C   UNL     1     144.231 104.365  91.420  1.00  0.00     0.017 C 
ATOM      2  C   UNL     1     145.725 104.753  91.172  1.00  0.00     0.014 C 
ATOM      3  C   UNL     1     143.874 103.229  90.436  1.00  0.00     0.014 C 
ATOM      4  C   UNL     1     144.005 103.928  92.923  1.00  0.00     0.030 C 
ATOM      5  C   UNL     1     146.319 105.494  92.365  1.00  0.00     0.004 C 
ATOM      6  C   UNL     1     142.443 102.721  90.621  1.00  0.00     0.013 C 
ATOM      7  C   UNL     1     142.822 102.969  93.162  1.00  0.00    -0.063 C 
ATOM      8  C   UNL     1     145.307 103.490  93.684  1.00  0.00    -0.003 C 
ATOM      9  C   UNL     1     146.433 104.581  93.604  1.00  0.00    -0.011 C 
ATOM     10  C   UNL     1     142.145 102.152  92.046  1.00  0.00    -0.006 C 
ATOM     11  C   UNL     1     142.365 102.856  94.436  1.00  0.00    -0.027 C 
ATOM     12  C   UNL     1     145.829 102.098  93.283  1.00  0.00     0.008 C 
ATOM     13  C   UNL     1     146.455 105.447  94.873  1.00  0.00     0.008 C 
ATOM     14  C   UNL     1     142.800 100.727  92.099  1.00  0.00     0.017 C 
ATOM     15  C   UNL     1     140.556 102.121  92.338  1.00  0.00    -0.020 C 
ATOM     16  C   UNL     1     141.160 102.049  94.869  1.00  0.00     0.032 C 
ATOM     17  C   UNL     1     140.342 101.386  93.718  1.00  0.00     0.006 C 
ATOM     18  C   UNL     1     139.781 101.368  91.205  1.00  0.00     0.008 C 
ATOM     19  C   UNL     1     139.983 103.581  92.405  1.00  0.00     0.012 C 
ATOM     20  C   UNL     1     138.850 100.989  94.096  1.00  0.00    -0.025 C 
ATOM     21  C   UNL     1     138.331 100.998  91.564  1.00  0.00     0.005 C 
ATOM     22  C   UNL     1     138.271 100.174  92.875  1.00  0.00     0.003 C 
ATOM     23  C   UNL     1     138.898 100.033  95.334  1.00  0.00     0.010 C 
ATOM     24  C   UNL     1     137.984 102.243  94.471  1.00  0.00     0.012 C 
ATOM     25  C   UNL     1     136.907  99.415  93.134  1.00  0.00    -0.006 C 
ATOM     26  C   UNL     1     137.565  99.325  95.629  1.00  0.00     0.033 C 
ATOM     27  C   UNL     1     137.051  98.533  94.418  1.00  0.00     0.120 C 
ATOM     28  C   UNL     1     135.690 100.363  93.278  1.00  0.00     0.014 C 
ATOM     29  C   UNL     1     136.585  98.472  91.940  1.00  0.00     0.014 C 
ENDROOT
BRANCH   1  30
ATOM     30  C   UNL     1     143.351 105.573  91.086  1.00  0.00     0.048 C 
ATOM     31  O   UNL     1     142.741 106.193  92.000  1.00  0.00    -0.550 OA
ATOM     32  O   UNL     1     143.273 106.068  89.787  1.00  0.00    -0.550 OA
ENDBRANCH   1  30
BRANCH  27  33
ATOM     33  O   UNL     1     137.935  97.459  94.186  1.00  0.00    -0.393 OA
ATOM     34  H   UNL     1     137.390  96.678  93.907  1.00  0.00     0.210 HD
ENDBRANCH  27  33
TORSDOF 2
ENDMDL
