MODEL 1
REMARK VINA RESULT:    -4.931      0.000      0.000
REMARK INTER + INTRA:          -5.803
REMARK INTER:                  -5.651
REMARK INTRA:                  -0.151
REMARK UNBOUND:                -0.151
REMARK SMILES O=C([O-])C=Cc1ccc(O)cc1
REMARK SMILES IDX 6 1 7 2 12 3 8 4 11 5 9 6 5 7 4 8 2 9 1 10 3 11 10 12
REMARK H PARENT 10 13
REMARK Flexibility Score: inf
ROOT
ATOM      1  C   UNL     1      11.799 -16.893   7.504  1.00  0.00    -0.025 A 
ATOM      2  C   UNL     1      13.080 -17.373   7.160  1.00  0.00     0.012 A 
ATOM      3  C   UNL     1      11.621 -15.511   7.689  1.00  0.00     0.012 A 
ATOM      4  C   UNL     1      14.144 -16.483   6.981  1.00  0.00     0.047 A 
ATOM      5  C   UNL     1      12.687 -14.626   7.509  1.00  0.00     0.047 A 
ATOM      6  C   UNL     1      13.949 -15.107   7.153  1.00  0.00     0.115 A 
ENDROOT
BRANCH   1   7
ATOM      7  C   UNL     1      10.639 -17.794   7.716  1.00  0.00     0.010 C 
ATOM      8  C   UNL     1       9.365 -17.380   7.710  1.00  0.00     0.025 C 
BRANCH   8   9
ATOM      9  C   UNL     1       8.245 -18.307   7.936  1.00  0.00     0.064 C 
ATOM     10  O   UNL     1       8.298 -19.125   8.891  1.00  0.00    -0.545 OA
ATOM     11  O   UNL     1       7.124 -18.294   7.112  1.00  0.00    -0.545 OA
ENDBRANCH   8   9
ENDBRANCH   1   7
BRANCH   6  12
ATOM     12  O   UNL     1      15.002 -14.213   6.977  1.00  0.00    -0.508 OA
ATOM     13  H   UNL     1      15.912 -14.522   6.653  1.00  0.00     0.293 HD
ENDBRANCH   6  12
TORSDOF 3
ENDMDL
MODEL 2
REMARK VINA RESULT:    -4.907      1.973      6.310
REMARK INTER + INTRA:          -5.776
REMARK INTER:                  -5.635
REMARK INTRA:                  -0.140
REMARK UNBOUND:                -0.151
REMARK SMILES O=C([O-])C=Cc1ccc(O)cc1
REMARK SMILES IDX 6 1 7 2 12 3 8 4 11 5 9 6 5 7 4 8 2 9 1 10 3 11 10 12
REMARK H PARENT 10 13
REMARK Flexibility Score: inf
ROOT
ATOM      1  C   UNL     1       8.670 -16.845   7.812  1.00  0.00    -0.025 A 
ATOM      2  C   UNL     1       7.601 -16.438   8.637  1.00  0.00     0.012 A 
ATOM      3  C   UNL     1       8.530 -18.019   7.052  1.00  0.00     0.012 A 
ATOM      4  C   UNL     1       6.415 -17.179   8.674  1.00  0.00     0.047 A 
ATOM      5  C   UNL     1       7.343 -18.756   7.093  1.00  0.00     0.047 A 
ATOM      6  C   UNL     1       6.283 -18.338   7.900  1.00  0.00     0.115 A 
ENDROOT
BRANCH   1   7
ATOM      7  C   UNL     1       9.953 -16.103   7.743  1.00  0.00     0.010 C 
ATOM      8  C   UNL     1      11.071 -16.488   8.374  1.00  0.00     0.025 C 
BRANCH   8   9
ATOM      9  C   UNL     1      12.319 -15.714   8.286  1.00  0.00     0.064 C 
ATOM     10  O   UNL     1      12.385 -14.727   7.508  1.00  0.00    -0.545 OA
ATOM     11  O   UNL     1      13.430 -16.055   9.050  1.00  0.00    -0.545 OA
ENDBRANCH   8   9
ENDBRANCH   1   7
BRANCH   6  12
ATOM     12  O   UNL     1       5.106 -19.082   7.930  1.00  0.00    -0.508 OA
ATOM     13  H   UNL     1       5.104 -20.079   7.746  1.00  0.00     0.293 HD
ENDBRANCH   6  12
TORSDOF 3
ENDMDL
MODEL 3
REMARK VINA RESULT:    -4.897      1.976      6.185
REMARK INTER + INTRA:          -5.764
REMARK INTER:                  -5.627
REMARK INTRA:                  -0.137
REMARK UNBOUND:                -0.151
REMARK SMILES O=C([O-])C=Cc1ccc(O)cc1
REMARK SMILES IDX 6 1 7 2 12 3 8 4 11 5 9 6 5 7 4 8 2 9 1 10 3 11 10 12
REMARK H PARENT 10 13
REMARK Flexibility Score: inf
ROOT
ATOM      1  C   UNL     1       8.671 -16.897   7.839  1.00  0.00    -0.025 A 
ATOM      2  C   UNL     1       8.533 -18.039   7.023  1.00  0.00     0.012 A 
ATOM      3  C   UNL     1       7.585 -16.500   8.638  1.00  0.00     0.012 A 
ATOM      4  C   UNL     1       7.343 -18.775   7.033  1.00  0.00     0.047 A 
ATOM      5  C   UNL     1       6.399 -17.238   8.644  1.00  0.00     0.047 A 
ATOM      6  C   UNL     1       6.275 -18.377   7.845  1.00  0.00     0.115 A 
ENDROOT
BRANCH   1   7
ATOM      7  C   UNL     1       9.906 -16.074   7.859  1.00  0.00     0.010 C 
ATOM      8  C   UNL     1      11.096 -16.527   8.274  1.00  0.00     0.025 C 
BRANCH   8   9
ATOM      9  C   UNL     1      12.293 -15.672   8.287  1.00  0.00     0.064 C 
ATOM     10  O   UNL     1      12.365 -14.691   7.501  1.00  0.00    -0.545 OA
ATOM     11  O   UNL     1      13.349 -15.927   9.156  1.00  0.00    -0.545 OA
ENDBRANCH   8   9
ENDBRANCH   1   7
BRANCH   6  12
ATOM     12  O   UNL     1       5.087 -19.104   7.862  1.00  0.00    -0.508 OA
ATOM     13  H   UNL     1       4.770 -19.583   8.697  1.00  0.00     0.293 HD
ENDBRANCH   6  12
TORSDOF 3
ENDMDL
MODEL 4
REMARK VINA RESULT:    -4.597      1.537      6.039
REMARK INTER + INTRA:          -5.420
REMARK INTER:                  -5.280
REMARK INTRA:                  -0.140
REMARK UNBOUND:                -0.151
REMARK SMILES O=C([O-])C=Cc1ccc(O)cc1
REMARK SMILES IDX 6 1 7 2 12 3 8 4 11 5 9 6 5 7 4 8 2 9 1 10 3 11 10 12
REMARK H PARENT 10 13
REMARK Flexibility Score: inf
ROOT
ATOM      1  C   UNL     1       9.591 -17.177   8.068  1.00  0.00    -0.025 A 
ATOM      2  C   UNL     1       8.688 -16.139   8.377  1.00  0.00     0.012 A 
ATOM      3  C   UNL     1       9.121 -18.501   8.050  1.00  0.00     0.012 A 
ATOM      4  C   UNL     1       7.343 -16.425   8.636  1.00  0.00     0.047 A 
ATOM      5  C   UNL     1       7.777 -18.783   8.309  1.00  0.00     0.047 A 
ATOM      6  C   UNL     1       6.885 -17.747   8.600  1.00  0.00     0.115 A 
ENDROOT
BRANCH   1   7
ATOM      7  C   UNL     1      11.030 -16.930   7.796  1.00  0.00     0.010 C 
ATOM      8  C   UNL     1      11.590 -15.714   7.799  1.00  0.00     0.025 C 
BRANCH   8   9
ATOM      9  C   UNL     1      13.019 -15.515   7.513  1.00  0.00     0.064 C 
ATOM     10  O   UNL     1      13.607 -14.497   7.962  1.00  0.00    -0.545 OA
ATOM     11  O   UNL     1      13.735 -16.436   6.755  1.00  0.00    -0.545 OA
ENDBRANCH   8   9
ENDBRANCH   1   7
BRANCH   6  12
ATOM     12  O   UNL     1       5.548 -18.043   8.856  1.00  0.00    -0.508 OA
ATOM     13  H   UNL     1       4.968 -17.432   9.420  1.00  0.00     0.293 HD
ENDBRANCH   6  12
TORSDOF 3
ENDMDL
MODEL 5
REMARK VINA RESULT:    -4.457      1.428      1.792
REMARK INTER + INTRA:          -5.260
REMARK INTER:                  -5.121
REMARK INTRA:                  -0.139
REMARK UNBOUND:                -0.151
REMARK SMILES O=C([O-])C=Cc1ccc(O)cc1
REMARK SMILES IDX 6 1 7 2 12 3 8 4 11 5 9 6 5 7 4 8 2 9 1 10 3 11 10 12
REMARK H PARENT 10 13
REMARK Flexibility Score: inf
ROOT
ATOM      1  C   UNL     1      10.887 -16.470   8.001  1.00  0.00    -0.025 A 
ATOM      2  C   UNL     1      11.602 -17.590   8.473  1.00  0.00     0.012 A 
ATOM      3  C   UNL     1      11.602 -15.325   7.610  1.00  0.00     0.012 A 
ATOM      4  C   UNL     1      13.000 -17.567   8.523  1.00  0.00     0.047 A 
ATOM      5  C   UNL     1      12.999 -15.306   7.663  1.00  0.00     0.047 A 
ATOM      6  C   UNL     1      13.701 -16.425   8.116  1.00  0.00     0.115 A 
ENDROOT
BRANCH   1   7
ATOM      7  C   UNL     1       9.404 -16.438   7.937  1.00  0.00     0.010 C 
ATOM      8  C   UNL     1       8.621 -17.465   8.292  1.00  0.00     0.025 C 
BRANCH   8   9
ATOM      9  C   UNL     1       7.154 -17.392   8.201  1.00  0.00     0.064 C 
ATOM     10  O   UNL     1       6.524 -18.297   7.596  1.00  0.00    -0.545 OA
ATOM     11  O   UNL     1       6.451 -16.339   8.777  1.00  0.00    -0.545 OA
ENDBRANCH   8   9
ENDBRANCH   1   7
BRANCH   6  12
ATOM     12  O   UNL     1      15.093 -16.392   8.163  1.00  0.00    -0.508 OA
ATOM     13  H   UNL     1      15.658 -16.928   7.514  1.00  0.00     0.293 HD
ENDBRANCH   6  12
TORSDOF 3
ENDMDL
MODEL 6
REMARK VINA RESULT:    -4.227      1.284      2.288
REMARK INTER + INTRA:          -4.996
REMARK INTER:                  -4.856
REMARK INTRA:                  -0.140
REMARK UNBOUND:                -0.151
REMARK SMILES O=C([O-])C=Cc1ccc(O)cc1
REMARK SMILES IDX 6 1 7 2 12 3 8 4 11 5 9 6 5 7 4 8 2 9 1 10 3 11 10 12
REMARK H PARENT 10 13
REMARK Flexibility Score: inf
ROOT
ATOM      1  C   UNL     1      10.349 -17.471   7.690  1.00  0.00    -0.025 A 
ATOM      2  C   UNL     1      10.492 -16.083   7.893  1.00  0.00     0.012 A 
ATOM      3  C   UNL     1      11.467 -18.213   7.273  1.00  0.00     0.012 A 
ATOM      4  C   UNL     1      11.733 -15.464   7.708  1.00  0.00     0.047 A 
ATOM      5  C   UNL     1      12.706 -17.591   7.089  1.00  0.00     0.047 A 
ATOM      6  C   UNL     1      12.843 -16.218   7.308  1.00  0.00     0.115 A 
ENDROOT
BRANCH   1   7
ATOM      7  C   UNL     1       9.054 -18.175   7.861  1.00  0.00     0.010 C 
ATOM      8  C   UNL     1       7.917 -17.565   8.221  1.00  0.00     0.025 C 
BRANCH   8   9
ATOM      9  C   UNL     1       6.656 -18.305   8.390  1.00  0.00     0.064 C 
ATOM     10  O   UNL     1       6.135 -18.879   7.398  1.00  0.00    -0.545 OA
ATOM     11  O   UNL     1       6.030 -18.383   9.629  1.00  0.00    -0.545 OA
ENDBRANCH   8   9
ENDBRANCH   1   7
BRANCH   6  12
ATOM     12  O   UNL     1      14.083 -15.612   7.121  1.00  0.00    -0.508 OA
ATOM     13  H   UNL     1      14.186 -14.604   7.122  1.00  0.00     0.293 HD
ENDBRANCH   6  12
TORSDOF 3
ENDMDL
MODEL 7
REMARK VINA RESULT:    -3.467      2.636      6.063
REMARK INTER + INTRA:          -4.125
REMARK INTER:                  -3.976
REMARK INTRA:                  -0.149
REMARK UNBOUND:                -0.151
REMARK SMILES O=C([O-])C=Cc1ccc(O)cc1
REMARK SMILES IDX 6 1 7 2 12 3 8 4 11 5 9 6 5 7 4 8 2 9 1 10 3 11 10 12
REMARK H PARENT 10 13
REMARK Flexibility Score: inf
ROOT
ATOM      1  C   UNL     1       8.555 -18.215   7.634  1.00  0.00    -0.025 A 
ATOM      2  C   UNL     1       7.496 -19.124   7.431  1.00  0.00     0.012 A 
ATOM      3  C   UNL     1       8.285 -16.995   8.278  1.00  0.00     0.012 A 
ATOM      4  C   UNL     1       6.208 -18.823   7.886  1.00  0.00     0.047 A 
ATOM      5  C   UNL     1       6.997 -16.698   8.731  1.00  0.00     0.047 A 
ATOM      6  C   UNL     1       5.956 -17.610   8.539  1.00  0.00     0.115 A 
ENDROOT
BRANCH   1   7
ATOM      7  C   UNL     1       9.937 -18.479   7.162  1.00  0.00     0.010 C 
ATOM      8  C   UNL     1      11.018 -17.841   7.630  1.00  0.00     0.025 C 
BRANCH   8   9
ATOM      9  C   UNL     1      12.369 -18.127   7.124  1.00  0.00     0.064 C 
ATOM     10  O   UNL     1      13.094 -18.962   7.726  1.00  0.00    -0.545 OA
ATOM     11  O   UNL     1      12.861 -17.492   5.989  1.00  0.00    -0.545 OA
ENDBRANCH   8   9
ENDBRANCH   1   7
BRANCH   6  12
ATOM     12  O   UNL     1       4.677 -17.302   8.997  1.00  0.00    -0.508 OA
ATOM     13  H   UNL     1       3.939 -17.025   8.360  1.00  0.00     0.293 HD
ENDBRANCH   6  12
TORSDOF 3
ENDMDL
MODEL 8
REMARK VINA RESULT:    -3.298      2.637      3.822
REMARK INTER + INTRA:          -3.932
REMARK INTER:                  -3.783
REMARK INTRA:                  -0.149
REMARK UNBOUND:                -0.151
REMARK SMILES O=C([O-])C=Cc1ccc(O)cc1
REMARK SMILES IDX 6 1 7 2 12 3 8 4 11 5 9 6 5 7 4 8 2 9 1 10 3 11 10 12
REMARK H PARENT 10 13
REMARK Flexibility Score: inf
ROOT
ATOM      1  C   UNL     1       8.518 -17.758   8.011  1.00  0.00    -0.025 A 
ATOM      2  C   UNL     1       9.290 -16.600   8.237  1.00  0.00     0.012 A 
ATOM      3  C   UNL     1       9.100 -18.837   7.324  1.00  0.00     0.012 A 
ATOM      4  C   UNL     1      10.620 -16.541   7.808  1.00  0.00     0.047 A 
ATOM      5  C   UNL     1      10.430 -18.774   6.896  1.00  0.00     0.047 A 
ATOM      6  C   UNL     1      11.193 -17.629   7.138  1.00  0.00     0.115 A 
ENDROOT
BRANCH   1   7
ATOM      7  C   UNL     1       7.100 -17.869   8.435  1.00  0.00     0.010 C 
ATOM      8  C   UNL     1       6.451 -19.033   8.566  1.00  0.00     0.025 C 
BRANCH   8   9
ATOM      9  C   UNL     1       5.040 -19.095   8.979  1.00  0.00     0.064 C 
ATOM     10  O   UNL     1       4.752 -19.119  10.204  1.00  0.00    -0.545 OA
ATOM     11  O   UNL     1       4.017 -19.125   8.038  1.00  0.00    -0.545 OA
ENDBRANCH   8   9
ENDBRANCH   1   7
BRANCH   6  12
ATOM     12  O   UNL     1      12.517 -17.581   6.707  1.00  0.00    -0.508 OA
ATOM     13  H   UNL     1      13.271 -17.961   7.268  1.00  0.00     0.293 HD
ENDBRANCH   6  12
TORSDOF 3
ENDMDL
