MODEL 1
REMARK VINA RESULT:    -2.991      0.000      0.000
REMARK INTER + INTRA:          -3.878
REMARK INTER:                  -3.691
REMARK INTRA:                  -0.187
REMARK UNBOUND:                -0.187
REMARK SMILES CCCCCC(=O)[O-]
REMARK SMILES IDX 4 1 5 2 6 3 7 4 8 5 3 6 2 7 1 8
REMARK H PARENT
REMARK Flexibility Score: inf
ROOT
ATOM      1  C   UNL     1      70.269  15.718  77.274  1.00  0.00     0.006 C 
ENDROOT
BRANCH   1   2
ATOM      2  C   UNL     1      71.030  14.965  78.373  1.00  0.00     0.053 C 
BRANCH   2   3
ATOM      3  C   UNL     1      70.630  15.425  79.741  1.00  0.00     0.041 C 
ATOM      4  O   UNL     1      69.414  15.573  80.030  1.00  0.00    -0.550 OA
ATOM      5  O   UNL     1      71.600  15.658  80.708  1.00  0.00    -0.550 OA
ENDBRANCH   2   3
ENDBRANCH   1   2
BRANCH   1   6
ATOM      6  C   UNL     1      69.857  14.796  76.117  1.00  0.00     0.000 C 
BRANCH   6   7
ATOM      7  C   UNL     1      68.379  14.405  76.228  1.00  0.00    -0.003 C 
ATOM      8  C   UNL     1      67.574  15.487  76.944  1.00  0.00     0.004 C 
ENDBRANCH   6   7
ENDBRANCH   1   6
TORSDOF 4
ENDMDL
MODEL 2
REMARK VINA RESULT:    -2.987      0.081      1.147
REMARK INTER + INTRA:          -3.873
REMARK INTER:                  -3.699
REMARK INTRA:                  -0.174
REMARK UNBOUND:                -0.187
REMARK SMILES CCCCCC(=O)[O-]
REMARK SMILES IDX 4 1 5 2 6 3 7 4 8 5 3 6 2 7 1 8
REMARK H PARENT
REMARK Flexibility Score: inf
ROOT
ATOM      1  C   UNL     1      70.264  15.709  77.350  1.00  0.00     0.006 C 
ENDROOT
BRANCH   1   2
ATOM      2  C   UNL     1      71.067  14.983  78.437  1.00  0.00     0.053 C 
BRANCH   2   3
ATOM      3  C   UNL     1      70.669  15.428  79.812  1.00  0.00     0.041 C 
ATOM      4  O   UNL     1      71.549  15.692  80.672  1.00  0.00    -0.550 OA
ATOM      5  O   UNL     1      69.326  15.584  80.131  1.00  0.00    -0.550 OA
ENDBRANCH   2   3
ENDBRANCH   1   2
BRANCH   1   6
ATOM      6  C   UNL     1      69.905  14.785  76.177  1.00  0.00     0.000 C 
BRANCH   6   7
ATOM      7  C   UNL     1      68.413  14.434  76.193  1.00  0.00    -0.003 C 
ATOM      8  C   UNL     1      67.610  15.477  76.966  1.00  0.00     0.004 C 
ENDBRANCH   6   7
ENDBRANCH   1   6
TORSDOF 4
ENDMDL
MODEL 3
REMARK VINA RESULT:    -2.932      1.079      1.903
REMARK INTER + INTRA:          -3.805
REMARK INTER:                  -3.562
REMARK INTRA:                  -0.243
REMARK UNBOUND:                -0.187
REMARK SMILES CCCCCC(=O)[O-]
REMARK SMILES IDX 4 1 5 2 6 3 7 4 8 5 3 6 2 7 1 8
REMARK H PARENT
REMARK Flexibility Score: inf
ROOT
ATOM      1  C   UNL     1      69.608  14.736  76.158  1.00  0.00     0.006 C 
ENDROOT
BRANCH   1   2
ATOM      2  C   UNL     1      69.862  15.853  77.178  1.00  0.00     0.053 C 
BRANCH   2   3
ATOM      3  C   UNL     1      70.027  15.312  78.565  1.00  0.00     0.041 C 
ATOM      4  O   UNL     1      71.087  14.716  78.892  1.00  0.00    -0.550 OA
ATOM      5  O   UNL     1      69.023  15.497  79.508  1.00  0.00    -0.550 OA
ENDBRANCH   2   3
ENDBRANCH   1   2
BRANCH   1   6
ATOM      6  C   UNL     1      68.129  14.325  76.101  1.00  0.00     0.000 C 
BRANCH   6   7
ATOM      7  C   UNL     1      67.217  15.556  76.154  1.00  0.00    -0.003 C 
ATOM      8  C   UNL     1      66.131  15.392  77.214  1.00  0.00     0.004 C 
ENDBRANCH   6   7
ENDBRANCH   1   6
TORSDOF 4
ENDMDL
MODEL 4
REMARK VINA RESULT:    -2.843      2.302      3.803
REMARK INTER + INTRA:          -3.695
REMARK INTER:                  -3.504
REMARK INTRA:                  -0.192
REMARK UNBOUND:                -0.187
REMARK SMILES CCCCCC(=O)[O-]
REMARK SMILES IDX 4 1 5 2 6 3 7 4 8 5 3 6 2 7 1 8
REMARK H PARENT
REMARK Flexibility Score: inf
ROOT
ATOM      1  C   UNL     1      70.455  15.636  77.278  1.00  0.00     0.006 C 
ENDROOT
BRANCH   1   2
ATOM      2  C   UNL     1      69.712  14.771  76.251  1.00  0.00     0.053 C 
BRANCH   2   3
ATOM      3  C   UNL     1      68.226  14.872  76.411  1.00  0.00     0.041 C 
ATOM      4  O   UNL     1      67.478  13.954  75.984  1.00  0.00    -0.550 OA
ATOM      5  O   UNL     1      67.669  15.966  77.063  1.00  0.00    -0.550 OA
ENDBRANCH   2   3
ENDBRANCH   1   2
BRANCH   1   6
ATOM      6  C   UNL     1      71.044  14.800  78.424  1.00  0.00     0.000 C 
BRANCH   6   7
ATOM      7  C   UNL     1      70.900  15.529  79.765  1.00  0.00    -0.003 C 
ATOM      8  C   UNL     1      69.432  15.680  80.155  1.00  0.00     0.004 C 
ENDBRANCH   6   7
ENDBRANCH   1   6
TORSDOF 4
ENDMDL
MODEL 5
REMARK VINA RESULT:    -2.811      2.317      3.870
REMARK INTER + INTRA:          -3.656
REMARK INTER:                  -3.427
REMARK INTRA:                  -0.228
REMARK UNBOUND:                -0.187
REMARK SMILES CCCCCC(=O)[O-]
REMARK SMILES IDX 4 1 5 2 6 3 7 4 8 5 3 6 2 7 1 8
REMARK H PARENT
REMARK Flexibility Score: inf
ROOT
ATOM      1  C   UNL     1      68.722  14.321  76.262  1.00  0.00     0.006 C 
ENDROOT
BRANCH   1   2
ATOM      2  C   UNL     1      67.427  15.048  75.875  1.00  0.00     0.053 C 
BRANCH   2   3
ATOM      3  C   UNL     1      67.180  16.243  76.744  1.00  0.00     0.041 C 
ATOM      4  O   UNL     1      67.007  16.103  77.983  1.00  0.00    -0.550 OA
ATOM      5  O   UNL     1      67.175  17.517  76.189  1.00  0.00    -0.550 OA
ENDBRANCH   2   3
ENDBRANCH   1   2
BRANCH   1   6
ATOM      6  C   UNL     1      69.939  15.259  76.254  1.00  0.00     0.000 C 
BRANCH   6   7
ATOM      7  C   UNL     1      70.958  14.843  77.321  1.00  0.00    -0.003 C 
ATOM      8  C   UNL     1      70.481  15.232  78.718  1.00  0.00     0.004 C 
ENDBRANCH   6   7
ENDBRANCH   1   6
TORSDOF 4
ENDMDL
MODEL 6
REMARK VINA RESULT:    -2.784      2.211      3.877
REMARK INTER + INTRA:          -3.622
REMARK INTER:                  -3.469
REMARK INTRA:                  -0.154
REMARK UNBOUND:                -0.187
REMARK SMILES CCCCCC(=O)[O-]
REMARK SMILES IDX 4 1 5 2 6 3 7 4 8 5 3 6 2 7 1 8
REMARK H PARENT
REMARK Flexibility Score: inf
ROOT
ATOM      1  C   UNL     1      68.398  14.383  76.215  1.00  0.00     0.006 C 
ENDROOT
BRANCH   1   2
ATOM      2  C   UNL     1      67.448  15.588  76.247  1.00  0.00     0.053 C 
BRANCH   2   3
ATOM      3  C   UNL     1      66.467  15.492  77.375  1.00  0.00     0.041 C 
ATOM      4  O   UNL     1      65.351  14.937  77.200  1.00  0.00    -0.550 OA
ATOM      5  O   UNL     1      66.800  15.988  78.629  1.00  0.00    -0.550 OA
ENDBRANCH   2   3
ENDBRANCH   1   2
BRANCH   1   6
ATOM      6  C   UNL     1      69.874  14.808  76.195  1.00  0.00     0.000 C 
BRANCH   6   7
ATOM      7  C   UNL     1      70.210  15.678  77.411  1.00  0.00    -0.003 C 
ATOM      8  C   UNL     1      71.007  14.892  78.449  1.00  0.00     0.004 C 
ENDBRANCH   6   7
ENDBRANCH   1   6
TORSDOF 4
ENDMDL
MODEL 7
REMARK VINA RESULT:    -2.723      1.079      1.827
REMARK INTER + INTRA:          -3.547
REMARK INTER:                  -3.393
REMARK INTRA:                  -0.154
REMARK UNBOUND:                -0.187
REMARK SMILES CCCCCC(=O)[O-]
REMARK SMILES IDX 4 1 5 2 6 3 7 4 8 5 3 6 2 7 1 8
REMARK H PARENT
REMARK Flexibility Score: inf
ROOT
ATOM      1  C   UNL     1      70.734  16.425  78.176  1.00  0.00     0.006 C 
ENDROOT
BRANCH   1   2
ATOM      2  C   UNL     1      70.467  15.317  79.204  1.00  0.00     0.053 C 
BRANCH   2   3
ATOM      3  C   UNL     1      69.637  15.810  80.349  1.00  0.00     0.041 C 
ATOM      4  O   UNL     1      70.176  16.429  81.303  1.00  0.00    -0.550 OA
ATOM      5  O   UNL     1      68.261  15.616  80.346  1.00  0.00    -0.550 OA
ENDBRANCH   2   3
ENDBRANCH   1   2
BRANCH   1   6
ATOM      6  C   UNL     1      69.748  16.376  76.999  1.00  0.00     0.000 C 
BRANCH   6   7
ATOM      7  C   UNL     1      69.823  15.025  76.278  1.00  0.00    -0.003 C 
ATOM      8  C   UNL     1      68.442  14.385  76.161  1.00  0.00     0.004 C 
ENDBRANCH   6   7
ENDBRANCH   1   6
TORSDOF 4
ENDMDL
MODEL 8
REMARK VINA RESULT:    -2.662     20.167     21.416
REMARK INTER + INTRA:          -3.472
REMARK INTER:                  -3.300
REMARK INTRA:                  -0.172
REMARK UNBOUND:                -0.187
REMARK SMILES CCCCCC(=O)[O-]
REMARK SMILES IDX 4 1 5 2 6 3 7 4 8 5 3 6 2 7 1 8
REMARK H PARENT
REMARK Flexibility Score: inf
ROOT
ATOM      1  C   UNL     1      69.852  30.176  94.854  1.00  0.00     0.006 C 
ENDROOT
BRANCH   1   2
ATOM      2  C   UNL     1      71.033  29.736  93.979  1.00  0.00     0.053 C 
BRANCH   2   3
ATOM      3  C   UNL     1      70.608  29.456  92.570  1.00  0.00     0.041 C 
ATOM      4  O   UNL     1      69.392  29.510  92.252  1.00  0.00    -0.550 OA
ATOM      5  O   UNL     1      71.560  29.168  91.601  1.00  0.00    -0.550 OA
ENDBRANCH   2   3
ENDBRANCH   1   2
BRANCH   1   6
ATOM      6  C   UNL     1      69.720  29.324  96.124  1.00  0.00     0.000 C 
BRANCH   6   7
ATOM      7  C   UNL     1      68.866  28.078  95.862  1.00  0.00    -0.003 C 
ATOM      8  C   UNL     1      69.671  26.801  96.088  1.00  0.00     0.004 C 
ENDBRANCH   6   7
ENDBRANCH   1   6
TORSDOF 4
ENDMDL
