MODEL 1
REMARK VINA RESULT:    -5.853      0.000      0.000
REMARK INTER + INTRA:          -7.979
REMARK INTER:                  -7.564
REMARK INTRA:                  -0.415
REMARK UNBOUND:                -0.415
REMARK SMILES CCO[C@H]1O[C@@H](CO)[C@H](O)[C@@H](O)[C@H]1O
REMARK SMILES IDX 4 1 13 2 11 3 9 4 6 5 5 6 3 7 2 8 1 9 14 10 12 12 7 14 8 15
REMARK SMILES IDX 10 17
REMARK H PARENT 14 11 12 13 8 16 10 18
REMARK Flexibility Score: inf
ROOT
ATOM      1  C   UNL     1     -16.239  -9.254  -0.621  1.00  0.00     0.281 C 
ATOM      2  C   UNL     1     -16.098 -10.783  -0.410  1.00  0.00     0.202 C 
ATOM      3  C   UNL     1     -16.004 -11.533  -1.766  1.00  0.00     0.179 C 
ATOM      4  C   UNL     1     -16.860 -10.832  -2.836  1.00  0.00     0.177 C 
ATOM      5  C   UNL     1     -16.491  -9.313  -2.937  1.00  0.00     0.178 C 
ATOM      6  O   UNL     1     -15.665  -8.885  -1.863  1.00  0.00    -0.341 OA
ENDROOT
BRANCH   1   7
ATOM      7  O   UNL     1     -15.576  -8.564   0.425  1.00  0.00    -0.350 OA
BRANCH   7   8
ATOM      8  C   UNL     1     -16.373  -7.506   0.924  1.00  0.00     0.160 C 
ATOM      9  C   UNL     1     -17.770  -8.015   1.259  1.00  0.00     0.035 C 
ENDBRANCH   7   8
ENDBRANCH   1   7
BRANCH   2  10
ATOM     10  O   UNL     1     -14.972 -11.071   0.382  1.00  0.00    -0.385 OA
ATOM     11  H   UNL     1     -15.134 -11.960   0.797  1.00  0.00     0.211 HD
ENDBRANCH   2  10
BRANCH   3  12
ATOM     12  O   UNL     1     -14.671 -11.579  -2.213  1.00  0.00    -0.387 OA
ATOM     13  H   UNL     1     -14.592 -10.935  -2.964  1.00  0.00     0.211 HD
ENDBRANCH   3  12
BRANCH   5  14
ATOM     14  C   UNL     1     -15.761  -9.003  -4.250  1.00  0.00     0.191 C 
BRANCH  14  15
ATOM     15  O   UNL     1     -14.474  -9.564  -4.239  1.00  0.00    -0.394 OA
ATOM     16  H   UNL     1     -13.836  -8.837  -4.017  1.00  0.00     0.210 HD
ENDBRANCH  14  15
ENDBRANCH   5  14
BRANCH   4  17
ATOM     17  O   UNL     1     -18.217 -10.976  -2.500  1.00  0.00    -0.387 OA
ATOM     18  H   UNL     1     -18.722 -10.342  -3.074  1.00  0.00     0.211 HD
ENDBRANCH   4  17
TORSDOF 7
ENDMDL
MODEL 2
REMARK VINA RESULT:    -5.824      1.728      3.542
REMARK INTER + INTRA:          -7.941
REMARK INTER:                  -7.753
REMARK INTRA:                  -0.188
REMARK UNBOUND:                -0.415
REMARK SMILES CCO[C@H]1O[C@@H](CO)[C@H](O)[C@@H](O)[C@H]1O
REMARK SMILES IDX 4 1 13 2 11 3 9 4 6 5 5 6 3 7 2 8 1 9 14 10 12 12 7 14 8 15
REMARK SMILES IDX 10 17
REMARK H PARENT 14 11 12 13 8 16 10 18
REMARK Flexibility Score: inf
ROOT
ATOM      1  C   UNL     1     -17.051  -9.942  -0.217  1.00  0.00     0.281 C 
ATOM      2  C   UNL     1     -17.273 -10.253  -1.719  1.00  0.00     0.202 C 
ATOM      3  C   UNL     1     -16.457 -11.496  -2.165  1.00  0.00     0.179 C 
ATOM      4  C   UNL     1     -15.123 -11.573  -1.403  1.00  0.00     0.177 C 
ATOM      5  C   UNL     1     -15.359 -11.505   0.144  1.00  0.00     0.178 C 
ATOM      6  O   UNL     1     -16.690 -11.128   0.471  1.00  0.00    -0.341 OA
ENDROOT
BRANCH   1   7
ATOM      7  O   UNL     1     -18.242  -9.419   0.344  1.00  0.00    -0.350 OA
BRANCH   7   8
ATOM      8  C   UNL     1     -17.966  -8.320   1.194  1.00  0.00     0.160 C 
ATOM      9  C   UNL     1     -16.646  -7.669   0.798  1.00  0.00     0.035 C 
ENDBRANCH   7   8
ENDBRANCH   1   7
BRANCH   2  10
ATOM     10  O   UNL     1     -18.640 -10.449  -1.987  1.00  0.00    -0.385 OA
ATOM     11  H   UNL     1     -18.718 -11.324  -2.451  1.00  0.00     0.211 HD
ENDBRANCH   2  10
BRANCH   3  12
ATOM     12  O   UNL     1     -17.184 -12.676  -1.922  1.00  0.00    -0.387 OA
ATOM     13  H   UNL     1     -17.932 -12.697  -2.575  1.00  0.00     0.211 HD
ENDBRANCH   3  12
BRANCH   5  14
ATOM     14  C   UNL     1     -15.071 -12.855   0.813  1.00  0.00     0.191 C 
BRANCH  14  15
ATOM     15  O   UNL     1     -13.712 -12.951   1.156  1.00  0.00    -0.394 OA
ATOM     16  H   UNL     1     -13.235 -13.324   0.369  1.00  0.00     0.210 HD
ENDBRANCH  14  15
ENDBRANCH   5  14
BRANCH   4  17
ATOM     17  O   UNL     1     -14.303 -10.507  -1.811  1.00  0.00    -0.387 OA
ATOM     18  H   UNL     1     -14.872  -9.902  -2.355  1.00  0.00     0.211 HD
ENDBRANCH   4  17
TORSDOF 7
ENDMDL
MODEL 3
REMARK VINA RESULT:    -5.775      1.786      3.994
REMARK INTER + INTRA:          -7.878
REMARK INTER:                  -7.467
REMARK INTRA:                  -0.411
REMARK UNBOUND:                -0.415
REMARK SMILES CCO[C@H]1O[C@@H](CO)[C@H](O)[C@@H](O)[C@H]1O
REMARK SMILES IDX 4 1 13 2 11 3 9 4 6 5 5 6 3 7 2 8 1 9 14 10 12 12 7 14 8 15
REMARK SMILES IDX 10 17
REMARK H PARENT 14 11 12 13 8 16 10 18
REMARK Flexibility Score: inf
ROOT
ATOM      1  C   UNL     1     -16.457 -11.194  -0.332  1.00  0.00     0.281 C 
ATOM      2  C   UNL     1     -16.008 -10.577  -1.682  1.00  0.00     0.202 C 
ATOM      3  C   UNL     1     -16.648  -9.181  -1.904  1.00  0.00     0.179 C 
ATOM      4  C   UNL     1     -18.061  -9.127  -1.300  1.00  0.00     0.177 C 
ATOM      5  C   UNL     1     -18.043  -9.572   0.202  1.00  0.00     0.178 C 
ATOM      6  O   UNL     1     -16.805 -10.163   0.575  1.00  0.00    -0.341 OA
ENDROOT
BRANCH   1   7
ATOM      7  O   UNL     1     -15.402 -11.964   0.216  1.00  0.00    -0.350 OA
BRANCH   7   8
ATOM      8  C   UNL     1     -15.755 -13.334   0.293  1.00  0.00     0.160 C 
ATOM      9  C   UNL     1     -15.522 -13.856   1.706  1.00  0.00     0.035 C 
ENDBRANCH   7   8
ENDBRANCH   1   7
BRANCH   2  10
ATOM     10  O   UNL     1     -14.606 -10.484  -1.741  1.00  0.00    -0.385 OA
ATOM     11  H   UNL     1     -14.395  -9.613  -2.169  1.00  0.00     0.211 HD
ENDBRANCH   2  10
BRANCH   3  12
ATOM     12  O   UNL     1     -15.862  -8.178  -1.307  1.00  0.00    -0.387 OA
ATOM     13  H   UNL     1     -15.237  -7.843  -2.002  1.00  0.00     0.211 HD
ENDBRANCH   3  12
BRANCH   5  14
ATOM     14  C   UNL     1     -18.302  -8.385   1.139  1.00  0.00     0.191 C 
BRANCH  14  15
ATOM     15  O   UNL     1     -17.123  -7.645   1.331  1.00  0.00    -0.394 OA
ATOM     16  H   UNL     1     -17.132  -6.901   0.674  1.00  0.00     0.210 HD
ENDBRANCH  14  15
ENDBRANCH   5  14
BRANCH   4  17
ATOM     17  O   UNL     1     -18.906  -9.971  -2.041  1.00  0.00    -0.387 OA
ATOM     18  H   UNL     1     -19.341 -10.582  -1.390  1.00  0.00     0.211 HD
ENDBRANCH   4  17
TORSDOF 7
ENDMDL
MODEL 4
REMARK VINA RESULT:    -5.760      1.844      4.103
REMARK INTER + INTRA:          -7.858
REMARK INTER:                  -7.469
REMARK INTRA:                  -0.389
REMARK UNBOUND:                -0.415
REMARK SMILES CCO[C@H]1O[C@@H](CO)[C@H](O)[C@@H](O)[C@H]1O
REMARK SMILES IDX 4 1 13 2 11 3 9 4 6 5 5 6 3 7 2 8 1 9 14 10 12 12 7 14 8 15
REMARK SMILES IDX 10 17
REMARK H PARENT 14 11 12 13 8 16 10 18
REMARK Flexibility Score: inf
ROOT
ATOM      1  C   UNL     1     -15.704  -8.276  -1.902  1.00  0.00     0.281 C 
ATOM      2  C   UNL     1     -14.506  -8.565  -0.961  1.00  0.00     0.202 C 
ATOM      3  C   UNL     1     -14.970  -9.267   0.343  1.00  0.00     0.179 C 
ATOM      4  C   UNL     1     -16.362  -8.768   0.764  1.00  0.00     0.177 C 
ATOM      5  C   UNL     1     -17.384  -8.907  -0.415  1.00  0.00     0.178 C 
ATOM      6  O   UNL     1     -16.747  -9.202  -1.650  1.00  0.00    -0.341 OA
ENDROOT
BRANCH   1   7
ATOM      7  O   UNL     1     -15.291  -8.390  -3.252  1.00  0.00    -0.350 OA
BRANCH   7   8
ATOM      8  C   UNL     1     -16.338  -8.885  -4.067  1.00  0.00     0.160 C 
ATOM      9  C   UNL     1     -16.744  -7.834  -5.093  1.00  0.00     0.035 C 
ENDBRANCH   7   8
ENDBRANCH   1   7
BRANCH   2  10
ATOM     10  O   UNL     1     -13.541  -9.349  -1.618  1.00  0.00    -0.385 OA
ATOM     11  H   UNL     1     -12.854  -9.585  -0.940  1.00  0.00     0.211 HD
ENDBRANCH   2  10
BRANCH   3  12
ATOM     12  O   UNL     1     -15.025 -10.661   0.160  1.00  0.00    -0.387 OA
ATOM     13  H   UNL     1     -15.282 -10.821  -0.786  1.00  0.00     0.211 HD
ENDBRANCH   3  12
BRANCH   5  14
ATOM     14  C   UNL     1     -18.412 -10.011  -0.136  1.00  0.00     0.191 C 
BRANCH  14  15
ATOM     15  O   UNL     1     -17.800 -11.095   0.516  1.00  0.00    -0.394 OA
ATOM     16  H   UNL     1     -17.433 -11.692  -0.187  1.00  0.00     0.210 HD
ENDBRANCH  14  15
ENDBRANCH   5  14
BRANCH   4  17
ATOM     17  O   UNL     1     -16.264  -7.423   1.159  1.00  0.00    -0.387 OA
ATOM     18  H   UNL     1     -16.058  -7.425   2.131  1.00  0.00     0.211 HD
ENDBRANCH   4  17
TORSDOF 7
ENDMDL
MODEL 5
REMARK VINA RESULT:    -5.731      2.339      3.885
REMARK INTER + INTRA:          -7.820
REMARK INTER:                  -7.427
REMARK INTRA:                  -0.393
REMARK UNBOUND:                -0.415
REMARK SMILES CCO[C@H]1O[C@@H](CO)[C@H](O)[C@@H](O)[C@H]1O
REMARK SMILES IDX 4 1 13 2 11 3 9 4 6 5 5 6 3 7 2 8 1 9 14 10 12 12 7 14 8 15
REMARK SMILES IDX 10 17
REMARK H PARENT 14 11 12 13 8 16 10 18
REMARK Flexibility Score: inf
ROOT
ATOM      1  C   UNL     1     -16.808 -10.987  -2.152  1.00  0.00     0.281 C 
ATOM      2  C   UNL     1     -15.838 -11.550  -1.082  1.00  0.00     0.202 C 
ATOM      3  C   UNL     1     -16.229 -12.995  -0.671  1.00  0.00     0.179 C 
ATOM      4  C   UNL     1     -17.756 -13.176  -0.707  1.00  0.00     0.177 C 
ATOM      5  C   UNL     1     -18.337 -12.746  -2.096  1.00  0.00     0.178 C 
ATOM      6  O   UNL     1     -17.382 -12.053  -2.889  1.00  0.00    -0.341 OA
ENDROOT
BRANCH   1   7
ATOM      7  O   UNL     1     -16.102 -10.133  -3.036  1.00  0.00    -0.350 OA
BRANCH   7   8
ATOM      8  C   UNL     1     -16.730  -8.868  -3.134  1.00  0.00     0.160 C 
ATOM      9  C   UNL     1     -16.357  -8.200  -4.453  1.00  0.00     0.035 C 
ENDBRANCH   7   8
ENDBRANCH   1   7
BRANCH   2  10
ATOM     10  O   UNL     1     -14.513 -11.521  -1.553  1.00  0.00    -0.385 OA
ATOM     11  H   UNL     1     -14.424 -12.268  -2.202  1.00  0.00     0.211 HD
ENDBRANCH   2  10
BRANCH   3  12
ATOM     12  O   UNL     1     -15.643 -13.931  -1.542  1.00  0.00    -0.387 OA
ATOM     13  H   UNL     1     -15.003 -13.435  -2.117  1.00  0.00     0.211 HD
ENDBRANCH   3  12
BRANCH   5  14
ATOM     14  C   UNL     1     -18.827 -13.959  -2.897  1.00  0.00     0.191 C 
BRANCH  14  15
ATOM     15  O   UNL     1     -17.772 -14.514  -3.640  1.00  0.00    -0.394 OA
ATOM     16  H   UNL     1     -17.809 -14.114  -4.547  1.00  0.00     0.210 HD
ENDBRANCH  14  15
ENDBRANCH   5  14
BRANCH   4  17
ATOM     17  O   UNL     1     -18.331 -12.402   0.316  1.00  0.00    -0.387 OA
ATOM     18  H   UNL     1     -17.615 -11.806   0.659  1.00  0.00     0.211 HD
ENDBRANCH   4  17
TORSDOF 7
ENDMDL
MODEL 6
REMARK VINA RESULT:    -5.713      2.143      4.311
REMARK INTER + INTRA:          -7.797
REMARK INTER:                  -7.351
REMARK INTRA:                  -0.447
REMARK UNBOUND:                -0.415
REMARK SMILES CCO[C@H]1O[C@@H](CO)[C@H](O)[C@@H](O)[C@H]1O
REMARK SMILES IDX 4 1 13 2 11 3 9 4 6 5 5 6 3 7 2 8 1 9 14 10 12 12 7 14 8 15
REMARK SMILES IDX 10 17
REMARK H PARENT 14 11 12 13 8 16 10 18
REMARK Flexibility Score: inf
ROOT
ATOM      1  C   UNL     1     -17.629 -12.499  -1.747  1.00  0.00     0.281 C 
ATOM      2  C   UNL     1     -17.365 -12.201  -0.249  1.00  0.00     0.202 C 
ATOM      3  C   UNL     1     -16.522 -10.910  -0.071  1.00  0.00     0.179 C 
ATOM      4  C   UNL     1     -15.517 -10.752  -1.225  1.00  0.00     0.177 C 
ATOM      5  C   UNL     1     -16.242 -10.837  -2.611  1.00  0.00     0.178 C 
ATOM      6  O   UNL     1     -17.583 -11.294  -2.492  1.00  0.00    -0.341 OA
ENDROOT
BRANCH   1   7
ATOM      7  O   UNL     1     -18.905 -13.095  -1.899  1.00  0.00    -0.350 OA
BRANCH   7   8
ATOM      8  C   UNL     1     -18.908 -14.035  -2.958  1.00  0.00     0.160 C 
ATOM      9  C   UNL     1     -17.564 -14.750  -3.028  1.00  0.00     0.035 C 
ENDBRANCH   7   8
ENDBRANCH   1   7
BRANCH   2  10
ATOM     10  O   UNL     1     -18.579 -12.089   0.454  1.00  0.00    -0.385 OA
ATOM     11  H   UNL     1     -18.484 -11.312   1.066  1.00  0.00     0.211 HD
ENDBRANCH   2  10
BRANCH   3  12
ATOM     12  O   UNL     1     -17.356  -9.777  -0.040  1.00  0.00    -0.387 OA
ATOM     13  H   UNL     1     -17.625  -9.586  -0.977  1.00  0.00     0.211 HD
ENDBRANCH   3  12
BRANCH   5  14
ATOM     14  C   UNL     1     -16.268  -9.472  -3.311  1.00  0.00     0.191 C 
BRANCH  14  15
ATOM     15  O   UNL     1     -17.420  -8.757  -2.947  1.00  0.00    -0.394 OA
ATOM     16  H   UNL     1     -18.066  -9.409  -2.570  1.00  0.00     0.210 HD
ENDBRANCH  14  15
ENDBRANCH   5  14
BRANCH   4  17
ATOM     17  O   UNL     1     -14.549 -11.766  -1.127  1.00  0.00    -0.387 OA
ATOM     18  H   UNL     1     -15.036 -12.631  -1.161  1.00  0.00     0.211 HD
ENDBRANCH   4  17
TORSDOF 7
ENDMDL
MODEL 7
REMARK VINA RESULT:    -5.694      1.548      3.566
REMARK INTER + INTRA:          -7.773
REMARK INTER:                  -7.375
REMARK INTRA:                  -0.398
REMARK UNBOUND:                -0.415
REMARK SMILES CCO[C@H]1O[C@@H](CO)[C@H](O)[C@@H](O)[C@H]1O
REMARK SMILES IDX 4 1 13 2 11 3 9 4 6 5 5 6 3 7 2 8 1 9 14 10 12 12 7 14 8 15
REMARK SMILES IDX 10 17
REMARK H PARENT 14 11 12 13 8 16 10 18
REMARK Flexibility Score: inf
ROOT
ATOM      1  C   UNL     1     -16.969  -9.246  -1.839  1.00  0.00     0.281 C 
ATOM      2  C   UNL     1     -16.585  -8.725  -0.431  1.00  0.00     0.202 C 
ATOM      3  C   UNL     1     -15.903  -9.835   0.414  1.00  0.00     0.179 C 
ATOM      4  C   UNL     1     -16.494 -11.215   0.079  1.00  0.00     0.177 C 
ATOM      5  C   UNL     1     -16.441 -11.485  -1.462  1.00  0.00     0.178 C 
ATOM      6  O   UNL     1     -16.116 -10.317  -2.205  1.00  0.00    -0.341 OA
ENDROOT
BRANCH   1   7
ATOM      7  O   UNL     1     -16.842  -8.201  -2.787  1.00  0.00    -0.350 OA
BRANCH   7   8
ATOM      8  C   UNL     1     -16.194  -8.652  -3.963  1.00  0.00     0.160 C 
ATOM      9  C   UNL     1     -16.675  -7.850  -5.166  1.00  0.00     0.035 C 
ENDBRANCH   7   8
ENDBRANCH   1   7
BRANCH   2  10
ATOM     10  O   UNL     1     -15.742  -7.604  -0.531  1.00  0.00    -0.385 OA
ATOM     11  H   UNL     1     -16.272  -6.887  -0.972  1.00  0.00     0.211 HD
ENDBRANCH   2  10
BRANCH   3  12
ATOM     12  O   UNL     1     -14.519  -9.863   0.164  1.00  0.00    -0.387 OA
ATOM     13  H   UNL     1     -14.346 -10.633  -0.438  1.00  0.00     0.211 HD
ENDBRANCH   3  12
BRANCH   5  14
ATOM     14  C   UNL     1     -15.408 -12.567  -1.805  1.00  0.00     0.191 C 
BRANCH  14  15
ATOM     15  O   UNL     1     -14.145 -12.214  -1.302  1.00  0.00    -0.394 OA
ATOM     16  H   UNL     1     -13.485 -12.839  -1.699  1.00  0.00     0.210 HD
ENDBRANCH  14  15
ENDBRANCH   5  14
BRANCH   4  17
ATOM     17  O   UNL     1     -17.824 -11.262   0.531  1.00  0.00    -0.387 OA
ATOM     18  H   UNL     1     -18.120 -10.321   0.646  1.00  0.00     0.211 HD
ENDBRANCH   4  17
TORSDOF 7
ENDMDL
MODEL 8
REMARK VINA RESULT:    -5.615      1.774      4.009
REMARK INTER + INTRA:          -7.671
REMARK INTER:                  -7.251
REMARK INTRA:                  -0.420
REMARK UNBOUND:                -0.415
REMARK SMILES CCO[C@H]1O[C@@H](CO)[C@H](O)[C@@H](O)[C@H]1O
REMARK SMILES IDX 4 1 13 2 11 3 9 4 6 5 5 6 3 7 2 8 1 9 14 10 12 12 7 14 8 15
REMARK SMILES IDX 10 17
REMARK H PARENT 14 11 12 13 8 16 10 18
REMARK Flexibility Score: inf
ROOT
ATOM      1  C   UNL     1     -16.810 -10.824  -1.488  1.00  0.00     0.281 C 
ATOM      2  C   UNL     1     -15.328 -10.459  -1.764  1.00  0.00     0.202 C 
ATOM      3  C   UNL     1     -14.915  -9.168  -1.009  1.00  0.00     0.179 C 
ATOM      4  C   UNL     1     -16.097  -8.187  -0.921  1.00  0.00     0.177 C 
ATOM      5  C   UNL     1     -17.359  -8.887  -0.313  1.00  0.00     0.178 C 
ATOM      6  O   UNL     1     -17.208 -10.298  -0.233  1.00  0.00    -0.341 OA
ENDROOT
BRANCH   1   7
ATOM      7  O   UNL     1     -16.961 -12.233  -1.476  1.00  0.00    -0.350 OA
BRANCH   7   8
ATOM      8  C   UNL     1     -17.492 -12.679  -0.241  1.00  0.00     0.160 C 
ATOM      9  C   UNL     1     -16.520 -13.642   0.430  1.00  0.00     0.035 C 
ENDBRANCH   7   8
ENDBRANCH   1   7
BRANCH   2  10
ATOM     10  O   UNL     1     -14.482 -11.524  -1.404  1.00  0.00    -0.385 OA
ATOM     11  H   UNL     1     -13.597 -11.337  -1.815  1.00  0.00     0.211 HD
ENDBRANCH   2  10
BRANCH   3  12
ATOM     12  O   UNL     1     -14.486  -9.475   0.295  1.00  0.00    -0.387 OA
ATOM     13  H   UNL     1     -13.502  -9.343   0.318  1.00  0.00     0.211 HD
ENDBRANCH   3  12
BRANCH   5  14
ATOM     14  C   UNL     1     -17.664  -8.363   1.096  1.00  0.00     0.191 C 
BRANCH  14  15
ATOM     15  O   UNL     1     -16.558  -7.663   1.607  1.00  0.00    -0.394 OA
ATOM     16  H   UNL     1     -16.132  -8.243   2.290  1.00  0.00     0.210 HD
ENDBRANCH  14  15
ENDBRANCH   5  14
BRANCH   4  17
ATOM     17  O   UNL     1     -16.388  -7.708  -2.210  1.00  0.00    -0.387 OA
ATOM     18  H   UNL     1     -16.711  -8.485  -2.737  1.00  0.00     0.211 HD
ENDBRANCH   4  17
TORSDOF 7
ENDMDL
MODEL 9
REMARK VINA RESULT:    -5.595      2.215      4.185
REMARK INTER + INTRA:          -7.645
REMARK INTER:                  -7.439
REMARK INTRA:                  -0.207
REMARK UNBOUND:                -0.415
REMARK SMILES CCO[C@H]1O[C@@H](CO)[C@H](O)[C@@H](O)[C@H]1O
REMARK SMILES IDX 4 1 13 2 11 3 9 4 6 5 5 6 3 7 2 8 1 9 14 10 12 12 7 14 8 15
REMARK SMILES IDX 10 17
REMARK H PARENT 14 11 12 13 8 16 10 18
REMARK Flexibility Score: inf
ROOT
ATOM      1  C   UNL     1     -16.216 -11.625  -2.137  1.00  0.00     0.281 C 
ATOM      2  C   UNL     1     -17.680 -12.132  -2.170  1.00  0.00     0.202 C 
ATOM      3  C   UNL     1     -17.958 -13.127  -1.011  1.00  0.00     0.179 C 
ATOM      4  C   UNL     1     -16.707 -13.966  -0.702  1.00  0.00     0.177 C 
ATOM      5  C   UNL     1     -15.466 -13.044  -0.447  1.00  0.00     0.178 C 
ATOM      6  O   UNL     1     -15.713 -11.693  -0.814  1.00  0.00    -0.341 OA
ENDROOT
BRANCH   1   7
ATOM      7  O   UNL     1     -16.165 -10.283  -2.589  1.00  0.00    -0.350 OA
BRANCH   7   8
ATOM      8  C   UNL     1     -15.511  -9.450  -1.648  1.00  0.00     0.160 C 
ATOM      9  C   UNL     1     -16.124  -8.055  -1.668  1.00  0.00     0.035 C 
ENDBRANCH   7   8
ENDBRANCH   1   7
BRANCH   2  10
ATOM     10  O   UNL     1     -18.579 -11.052  -2.109  1.00  0.00    -0.385 OA
ATOM     11  H   UNL     1     -18.279 -10.392  -2.789  1.00  0.00     0.211 HD
ENDBRANCH   2  10
BRANCH   3  12
ATOM     12  O   UNL     1     -18.337 -12.434   0.153  1.00  0.00    -0.387 OA
ATOM     13  H   UNL     1     -18.284 -11.464  -0.053  1.00  0.00     0.211 HD
ENDBRANCH   3  12
BRANCH   5  14
ATOM     14  C   UNL     1     -15.049 -13.066   1.029  1.00  0.00     0.191 C 
BRANCH  14  15
ATOM     15  O   UNL     1     -13.652 -12.973   1.144  1.00  0.00    -0.394 OA
ATOM     16  H   UNL     1     -13.435 -12.027   1.354  1.00  0.00     0.210 HD
ENDBRANCH  14  15
ENDBRANCH   5  14
BRANCH   4  17
ATOM     17  O   UNL     1     -16.454 -14.823  -1.787  1.00  0.00    -0.387 OA
ATOM     18  H   UNL     1     -16.938 -15.670  -1.600  1.00  0.00     0.211 HD
ENDBRANCH   4  17
TORSDOF 7
ENDMDL
