MODEL 1
REMARK VINA RESULT:     7.733      0.000      0.000
REMARK INTER + INTRA:           7.959
REMARK INTER:                   7.959
REMARK INTRA:                   0.000
REMARK UNBOUND:                 0.000
REMARK SMILES C[C@H]1CC[C@@]2(OC1)O[C@@H]1C[C@@H]3[C@@H]4CC=C5C[C@H](O)CC[C@@]5(C)[C@@H]4CC[C@@]3(C)[C@@H]1[C@@H]2C
REMARK SMILES IDX 1 1 2 2 3 3 4 4 5 5 29 6 28 7 9 8 8 9 10 10 11 11 26 12
REMARK SMILES IDX 25 13 24 14 23 15 12 16 13 17 14 18 15 19 21 20 20 21 19 22
REMARK SMILES IDX 17 23 16 24 22 25 27 26 30 27 6 28 7 29 18 30
REMARK H PARENT 18 31
REMARK Flexibility Score: inf
ROOT
ATOM      1  C   UNL     1      17.383  12.562 163.043  1.00  0.00     0.010 C 
ATOM      2  C   UNL     1      16.605  13.880 163.121  1.00  0.00     0.012 C 
ATOM      3  C   UNL     1      16.265  14.390 161.726  1.00  0.00     0.011 C 
ATOM      4  C   UNL     1      15.500  15.693 161.865  1.00  0.00     0.066 C 
ATOM      5  C   UNL     1      14.240  15.557 162.768  1.00  0.00     0.171 C 
ATOM      6  C   UNL     1      13.016  14.950 162.007  1.00  0.00     0.052 C 
ATOM      7  C   UNL     1      11.893  15.945 162.246  1.00  0.00     0.033 C 
ATOM      8  C   UNL     1      12.677  17.230 162.468  1.00  0.00     0.126 C 
ATOM      9  O   UNL     1      13.888  16.893 163.111  1.00  0.00    -0.346 OA
ATOM     10  C   UNL     1      11.805  18.145 163.357  1.00  0.00     0.037 C 
ATOM     11  C   UNL     1      10.499  17.367 163.487  1.00  0.00     0.002 C 
ATOM     12  C   UNL     1      10.917  15.886 163.467  1.00  0.00    -0.024 C 
ATOM     13  C   UNL     1       9.646  15.049 163.228  1.00  0.00     0.008 C 
ATOM     14  C   UNL     1       8.554  15.351 164.282  1.00  0.00     0.005 C 
ATOM     15  C   UNL     1       8.181  16.870 164.406  1.00  0.00     0.003 C 
ATOM     16  C   UNL     1       9.441  17.785 164.535  1.00  0.00     0.000 C 
ATOM     17  C   UNL     1       9.974  17.979 165.976  1.00  0.00     0.031 C 
ATOM     18  C   UNL     1       9.057  17.516 167.077  1.00  0.00    -0.027 C 
ATOM     19  C   UNL     1       7.752  17.220 166.906  1.00  0.00    -0.065 C 
ATOM     20  C   UNL     1       7.110  17.173 165.525  1.00  0.00    -0.008 C 
ATOM     21  C   UNL     1       6.446  18.569 165.306  1.00  0.00     0.014 C 
ATOM     22  C   UNL     1       5.504  18.994 166.463  1.00  0.00     0.033 C 
ATOM     23  C   UNL     1       6.166  18.856 167.858  1.00  0.00     0.118 C 
ATOM     24  C   UNL     1       6.819  17.474 168.068  1.00  0.00     0.063 C 
ATOM     25  C   UNL     1       5.997  16.084 165.479  1.00  0.00     0.016 C 
ATOM     26  C   UNL     1      11.612  15.430 164.790  1.00  0.00     0.012 C 
ATOM     27  C   UNL     1      12.626  13.471 162.148  1.00  0.00     0.014 C 
ATOM     28  O   UNL     1      14.522  14.888 164.002  1.00  0.00    -0.349 OA
ATOM     29  C   UNL     1      15.303  13.703 163.910  1.00  0.00     0.167 C 
ENDROOT
BRANCH  23  30
ATOM     30  O   UNL     1       5.236  19.124 168.875  1.00  0.00    -0.393 OA
ATOM     31  H   UNL     1       5.304  18.393 169.544  1.00  0.00     0.210 HD
ENDBRANCH  23  30
TORSDOF 1
ENDMDL
MODEL 2
REMARK VINA RESULT:     8.080      1.384      2.104
REMARK INTER + INTRA:           8.316
REMARK INTER:                   8.316
REMARK INTRA:                   0.000
REMARK UNBOUND:                 0.000
REMARK SMILES C[C@H]1CC[C@@]2(OC1)O[C@@H]1C[C@@H]3[C@@H]4CC=C5C[C@H](O)CC[C@@]5(C)[C@@H]4CC[C@@]3(C)[C@@H]1[C@@H]2C
REMARK SMILES IDX 1 1 2 2 3 3 4 4 5 5 29 6 28 7 9 8 8 9 10 10 11 11 26 12
REMARK SMILES IDX 25 13 24 14 23 15 12 16 13 17 14 18 15 19 21 20 20 21 19 22
REMARK SMILES IDX 17 23 16 24 22 25 27 26 30 27 6 28 7 29 18 30
REMARK H PARENT 18 31
REMARK Flexibility Score: inf
ROOT
ATOM      1  C   UNL     1      18.607  14.716 162.144  1.00  0.00     0.010 C 
ATOM      2  C   UNL     1      17.147  15.054 161.825  1.00  0.00     0.012 C 
ATOM      3  C   UNL     1      16.470  13.897 161.101  1.00  0.00     0.011 C 
ATOM      4  C   UNL     1      15.032  14.288 160.811  1.00  0.00     0.066 C 
ATOM      5  C   UNL     1      14.258  14.721 162.090  1.00  0.00     0.171 C 
ATOM      6  C   UNL     1      13.731  13.502 162.917  1.00  0.00     0.052 C 
ATOM      7  C   UNL     1      12.249  13.779 163.094  1.00  0.00     0.033 C 
ATOM      8  C   UNL     1      11.960  14.642 161.874  1.00  0.00     0.126 C 
ATOM      9  O   UNL     1      13.112  15.414 161.608  1.00  0.00    -0.346 OA
ATOM     10  C   UNL     1      10.753  15.539 162.229  1.00  0.00     0.037 C 
ATOM     11  C   UNL     1      10.336  15.037 163.607  1.00  0.00     0.002 C 
ATOM     12  C   UNL     1      11.647  14.599 164.283  1.00  0.00    -0.024 C 
ATOM     13  C   UNL     1      11.274  13.753 165.516  1.00  0.00     0.008 C 
ATOM     14  C   UNL     1      10.333  14.522 166.473  1.00  0.00     0.005 C 
ATOM     15  C   UNL     1       9.035  15.079 165.792  1.00  0.00     0.003 C 
ATOM     16  C   UNL     1       9.339  15.851 164.468  1.00  0.00     0.000 C 
ATOM     17  C   UNL     1       9.682  17.351 164.640  1.00  0.00     0.031 C 
ATOM     18  C   UNL     1       9.392  17.934 165.997  1.00  0.00    -0.027 C 
ATOM     19  C   UNL     1       8.629  17.334 166.935  1.00  0.00    -0.065 C 
ATOM     20  C   UNL     1       8.111  15.911 166.764  1.00  0.00    -0.008 C 
ATOM     21  C   UNL     1       6.664  16.041 166.194  1.00  0.00     0.014 C 
ATOM     22  C   UNL     1       5.755  16.985 167.024  1.00  0.00     0.033 C 
ATOM     23  C   UNL     1       6.414  18.359 167.307  1.00  0.00     0.118 C 
ATOM     24  C   UNL     1       7.844  18.224 167.871  1.00  0.00     0.063 C 
ATOM     25  C   UNL     1       8.036  15.190 168.144  1.00  0.00     0.016 C 
ATOM     26  C   UNL     1      12.543  15.803 164.716  1.00  0.00     0.012 C 
ATOM     27  C   UNL     1      14.461  12.998 164.171  1.00  0.00     0.014 C 
ATOM     28  O   UNL     1      14.991  15.662 162.881  1.00  0.00    -0.349 OA
ATOM     29  C   UNL     1      16.363  15.359 163.107  1.00  0.00     0.167 C 
ENDROOT
BRANCH  23  30
ATOM     30  O   UNL     1       5.612  19.125 168.169  1.00  0.00    -0.393 OA
ATOM     31  H   UNL     1       5.625  20.062 167.837  1.00  0.00     0.210 HD
ENDBRANCH  23  30
TORSDOF 1
ENDMDL
