MODEL 1
REMARK VINA RESULT:    -4.852      0.000      0.000
REMARK INTER + INTRA:          -5.459
REMARK INTER:                  -5.420
REMARK INTRA:                  -0.039
REMARK UNBOUND:                -0.039
REMARK SMILES O=C([O-])c1ccc(O)c(O)c1
REMARK SMILES IDX 4 1 11 2 5 3 9 4 6 5 7 6 2 7 1 8 3 9 10 10 8 12
REMARK H PARENT 10 11 8 13
REMARK Flexibility Score: inf
ROOT
ATOM      1  C   UNL     1      -4.240  14.444   7.018  1.00  0.00     0.001 A 
ATOM      2  C   UNL     1      -3.683  15.515   6.296  1.00  0.00     0.060 A 
ATOM      3  C   UNL     1      -3.568  13.967   8.156  1.00  0.00     0.014 A 
ATOM      4  C   UNL     1      -2.476  16.100   6.705  1.00  0.00     0.158 A 
ATOM      5  C   UNL     1      -2.365  14.550   8.564  1.00  0.00     0.051 A 
ATOM      6  C   UNL     1      -1.815  15.614   7.845  1.00  0.00     0.157 A 
ENDROOT
BRANCH   1   7
ATOM      7  C   UNL     1      -5.514  13.832   6.581  1.00  0.00     0.072 C 
ATOM      8  O   UNL     1      -5.668  13.456   5.387  1.00  0.00    -0.545 OA
ATOM      9  O   UNL     1      -6.560  13.662   7.480  1.00  0.00    -0.545 OA
ENDBRANCH   1   7
BRANCH   4  10
ATOM     10  O   UNL     1      -1.932  17.162   5.982  1.00  0.00    -0.504 OA
ATOM     11  H   UNL     1      -2.513  17.783   5.432  1.00  0.00     0.293 HD
ENDBRANCH   4  10
BRANCH   6  12
ATOM     12  O   UNL     1      -0.613  16.174   8.276  1.00  0.00    -0.504 OA
ATOM     13  H   UNL     1       0.201  16.232   7.675  1.00  0.00     0.293 HD
ENDBRANCH   6  12
TORSDOF 3
ENDMDL
MODEL 2
REMARK VINA RESULT:    -4.596      2.044      4.643
REMARK INTER + INTRA:          -5.172
REMARK INTER:                  -5.135
REMARK INTRA:                  -0.037
REMARK UNBOUND:                -0.039
REMARK SMILES O=C([O-])c1ccc(O)c(O)c1
REMARK SMILES IDX 4 1 11 2 5 3 9 4 6 5 7 6 2 7 1 8 3 9 10 10 8 12
REMARK H PARENT 10 11 8 13
REMARK Flexibility Score: inf
ROOT
ATOM      1  C   UNL     1      -4.536  14.868   7.106  1.00  0.00     0.001 A 
ATOM      2  C   UNL     1      -4.990  14.003   6.094  1.00  0.00     0.060 A 
ATOM      3  C   UNL     1      -5.387  15.890   7.561  1.00  0.00     0.014 A 
ATOM      4  C   UNL     1      -6.272  14.155   5.547  1.00  0.00     0.158 A 
ATOM      5  C   UNL     1      -6.665  16.042   7.016  1.00  0.00     0.051 A 
ATOM      6  C   UNL     1      -7.113  15.181   6.012  1.00  0.00     0.157 A 
ENDROOT
BRANCH   1   7
ATOM      7  C   UNL     1      -3.182  14.702   7.678  1.00  0.00     0.072 C 
ATOM      8  O   UNL     1      -2.299  15.584   7.502  1.00  0.00    -0.545 OA
ATOM      9  O   UNL     1      -2.863  13.570   8.418  1.00  0.00    -0.545 OA
ENDBRANCH   1   7
BRANCH   4  10
ATOM     10  O   UNL     1      -6.713  13.292   4.545  1.00  0.00    -0.504 OA
ATOM     11  H   UNL     1      -6.752  13.580   3.574  1.00  0.00     0.293 HD
ENDBRANCH   4  10
BRANCH   6  12
ATOM     12  O   UNL     1      -8.393  15.358   5.488  1.00  0.00    -0.504 OA
ATOM     13  H   UNL     1      -8.567  15.938   4.675  1.00  0.00     0.293 HD
ENDBRANCH   6  12
TORSDOF 3
ENDMDL
MODEL 3
REMARK VINA RESULT:    -4.586      1.277      4.752
REMARK INTER + INTRA:          -5.161
REMARK INTER:                  -5.118
REMARK INTRA:                  -0.043
REMARK UNBOUND:                -0.039
REMARK SMILES O=C([O-])c1ccc(O)c(O)c1
REMARK SMILES IDX 4 1 11 2 5 3 9 4 6 5 7 6 2 7 1 8 3 9 10 10 8 12
REMARK H PARENT 10 11 8 13
REMARK Flexibility Score: inf
ROOT
ATOM      1  C   UNL     1      -3.832  15.083   7.219  1.00  0.00     0.001 A 
ATOM      2  C   UNL     1      -4.698  14.719   8.266  1.00  0.00     0.060 A 
ATOM      3  C   UNL     1      -4.135  14.669   5.910  1.00  0.00     0.014 A 
ATOM      4  C   UNL     1      -5.847  13.956   8.010  1.00  0.00     0.158 A 
ATOM      5  C   UNL     1      -5.279  13.909   5.654  1.00  0.00     0.051 A 
ATOM      6  C   UNL     1      -6.137  13.550   6.697  1.00  0.00     0.157 A 
ENDROOT
BRANCH   1   7
ATOM      7  C   UNL     1      -2.622  15.888   7.496  1.00  0.00     0.072 C 
ATOM      8  O   UNL     1      -2.086  15.866   8.636  1.00  0.00    -0.545 OA
ATOM      9  O   UNL     1      -2.059  16.680   6.503  1.00  0.00    -0.545 OA
ENDBRANCH   1   7
BRANCH   4  10
ATOM     10  O   UNL     1      -6.699  13.601   9.055  1.00  0.00    -0.504 OA
ATOM     11  H   UNL     1      -7.656  13.314   8.887  1.00  0.00     0.293 HD
ENDBRANCH   4  10
BRANCH   6  12
ATOM     12  O   UNL     1      -7.271  12.791   6.410  1.00  0.00    -0.504 OA
ATOM     13  H   UNL     1      -7.300  11.788   6.559  1.00  0.00     0.293 HD
ENDBRANCH   6  12
TORSDOF 3
ENDMDL
MODEL 4
REMARK VINA RESULT:    -4.576      7.198      8.573
REMARK INTER + INTRA:          -5.150
REMARK INTER:                  -5.109
REMARK INTRA:                  -0.041
REMARK UNBOUND:                -0.039
REMARK SMILES O=C([O-])c1ccc(O)c(O)c1
REMARK SMILES IDX 4 1 11 2 5 3 9 4 6 5 7 6 2 7 1 8 3 9 10 10 8 12
REMARK H PARENT 10 11 8 13
REMARK Flexibility Score: inf
ROOT
ATOM      1  C   UNL     1      -9.230  11.742  13.038  1.00  0.00     0.001 A 
ATOM      2  C   UNL     1      -8.131  12.187  12.282  1.00  0.00     0.060 A 
ATOM      3  C   UNL     1      -9.027  10.756  14.020  1.00  0.00     0.014 A 
ATOM      4  C   UNL     1      -6.851  11.659  12.504  1.00  0.00     0.158 A 
ATOM      5  C   UNL     1      -7.752  10.229  14.241  1.00  0.00     0.051 A 
ATOM      6  C   UNL     1      -6.663  10.675  13.488  1.00  0.00     0.157 A 
ENDROOT
BRANCH   1   7
ATOM      7  C   UNL     1     -10.578  12.304  12.799  1.00  0.00     0.072 C 
ATOM      8  O   UNL     1     -11.600  11.569  12.865  1.00  0.00    -0.545 OA
ATOM      9  O   UNL     1     -10.737  13.651  12.498  1.00  0.00    -0.545 OA
ENDBRANCH   1   7
BRANCH   4  10
ATOM     10  O   UNL     1      -5.768  12.108  11.749  1.00  0.00    -0.504 OA
ATOM     11  H   UNL     1      -5.873  12.380  10.779  1.00  0.00     0.293 HD
ENDBRANCH   4  10
BRANCH   6  12
ATOM     12  O   UNL     1      -5.402  10.130  13.732  1.00  0.00    -0.504 OA
ATOM     13  H   UNL     1      -4.882   9.636  13.017  1.00  0.00     0.293 HD
ENDBRANCH   6  12
TORSDOF 3
ENDMDL
MODEL 5
REMARK VINA RESULT:    -4.507      2.809      4.044
REMARK INTER + INTRA:          -5.073
REMARK INTER:                  -5.037
REMARK INTRA:                  -0.036
REMARK UNBOUND:                -0.039
REMARK SMILES O=C([O-])c1ccc(O)c(O)c1
REMARK SMILES IDX 4 1 11 2 5 3 9 4 6 5 7 6 2 7 1 8 3 9 10 10 8 12
REMARK H PARENT 10 11 8 13
REMARK Flexibility Score: inf
ROOT
ATOM      1  C   UNL     1      -7.428  14.346   6.085  1.00  0.00     0.001 A 
ATOM      2  C   UNL     1      -7.194  14.448   7.468  1.00  0.00     0.060 A 
ATOM      3  C   UNL     1      -6.353  14.035   5.233  1.00  0.00     0.014 A 
ATOM      4  C   UNL     1      -5.909  14.242   7.992  1.00  0.00     0.158 A 
ATOM      5  C   UNL     1      -5.073  13.830   5.755  1.00  0.00     0.051 A 
ATOM      6  C   UNL     1      -4.845  13.932   7.129  1.00  0.00     0.157 A 
ENDROOT
BRANCH   1   7
ATOM      7  C   UNL     1      -8.786  14.565   5.539  1.00  0.00     0.072 C 
ATOM      8  O   UNL     1      -9.524  13.585   5.249  1.00  0.00    -0.545 OA
ATOM      9  O   UNL     1      -9.266  15.853   5.339  1.00  0.00    -0.545 OA
ENDBRANCH   1   7
BRANCH   4  10
ATOM     10  O   UNL     1      -5.688  14.346   9.365  1.00  0.00    -0.504 OA
ATOM     11  H   UNL     1      -5.274  13.588   9.895  1.00  0.00     0.293 HD
ENDBRANCH   4  10
BRANCH   6  12
ATOM     12  O   UNL     1      -3.556  13.722   7.620  1.00  0.00    -0.504 OA
ATOM     13  H   UNL     1      -3.127  14.347   8.293  1.00  0.00     0.293 HD
ENDBRANCH   6  12
TORSDOF 3
ENDMDL
MODEL 6
REMARK VINA RESULT:    -4.483      2.401      5.126
REMARK INTER + INTRA:          -5.046
REMARK INTER:                  -5.010
REMARK INTRA:                  -0.037
REMARK UNBOUND:                -0.039
REMARK SMILES O=C([O-])c1ccc(O)c(O)c1
REMARK SMILES IDX 4 1 11 2 5 3 9 4 6 5 7 6 2 7 1 8 3 9 10 10 8 12
REMARK H PARENT 10 11 8 13
REMARK Flexibility Score: inf
ROOT
ATOM      1  C   UNL     1      -5.305  14.620   6.485  1.00  0.00     0.001 A 
ATOM      2  C   UNL     1      -6.248  15.562   6.935  1.00  0.00     0.060 A 
ATOM      3  C   UNL     1      -5.716  13.621   5.585  1.00  0.00     0.014 A 
ATOM      4  C   UNL     1      -7.578  15.507   6.493  1.00  0.00     0.158 A 
ATOM      5  C   UNL     1      -7.041  13.566   5.145  1.00  0.00     0.051 A 
ATOM      6  C   UNL     1      -7.974  14.504   5.593  1.00  0.00     0.157 A 
ENDROOT
BRANCH   1   7
ATOM      7  C   UNL     1      -3.903  14.683   6.955  1.00  0.00     0.072 C 
ATOM      8  O   UNL     1      -3.448  13.802   7.733  1.00  0.00    -0.545 OA
ATOM      9  O   UNL     1      -3.068  15.716   6.546  1.00  0.00    -0.545 OA
ENDBRANCH   1   7
BRANCH   4  10
ATOM     10  O   UNL     1      -8.504  16.446   6.944  1.00  0.00    -0.504 OA
ATOM     11  H   UNL     1      -8.332  17.442   6.870  1.00  0.00     0.293 HD
ENDBRANCH   4  10
BRANCH   6  12
ATOM     12  O   UNL     1      -9.289  14.424   5.136  1.00  0.00    -0.504 OA
ATOM     13  H   UNL     1     -10.069  14.786   5.672  1.00  0.00     0.293 HD
ENDBRANCH   6  12
TORSDOF 3
ENDMDL
MODEL 7
REMARK VINA RESULT:    -4.396      3.753      5.304
REMARK INTER + INTRA:          -4.949
REMARK INTER:                  -4.907
REMARK INTRA:                  -0.042
REMARK UNBOUND:                -0.039
REMARK SMILES O=C([O-])c1ccc(O)c(O)c1
REMARK SMILES IDX 4 1 11 2 5 3 9 4 6 5 7 6 2 7 1 8 3 9 10 10 8 12
REMARK H PARENT 10 11 8 13
REMARK Flexibility Score: inf
ROOT
ATOM      1  C   UNL     1      -8.783  15.746   6.587  1.00  0.00     0.001 A 
ATOM      2  C   UNL     1      -8.390  14.889   5.544  1.00  0.00     0.060 A 
ATOM      3  C   UNL     1      -8.015  15.786   7.763  1.00  0.00     0.014 A 
ATOM      4  C   UNL     1      -7.248  14.084   5.674  1.00  0.00     0.158 A 
ATOM      5  C   UNL     1      -6.877  14.984   7.893  1.00  0.00     0.051 A 
ATOM      6  C   UNL     1      -6.489  14.134   6.854  1.00  0.00     0.157 A 
ENDROOT
BRANCH   1   7
ATOM      7  C   UNL     1      -9.989  16.592   6.444  1.00  0.00     0.072 C 
ATOM      8  O   UNL     1     -10.950  16.220   5.719  1.00  0.00    -0.545 OA
ATOM      9  O   UNL     1     -10.078  17.811   7.106  1.00  0.00    -0.545 OA
ENDBRANCH   1   7
BRANCH   4  10
ATOM     10  O   UNL     1      -6.867  13.238   4.633  1.00  0.00    -0.504 OA
ATOM     11  H   UNL     1      -6.570  13.600   3.735  1.00  0.00     0.293 HD
ENDBRANCH   4  10
BRANCH   6  12
ATOM     12  O   UNL     1      -5.350  13.346   7.013  1.00  0.00    -0.504 OA
ATOM     13  H   UNL     1      -5.182  12.521   6.449  1.00  0.00     0.293 HD
ENDBRANCH   6  12
TORSDOF 3
ENDMDL
MODEL 8
REMARK VINA RESULT:    -4.395      9.335     10.706
REMARK INTER + INTRA:          -4.948
REMARK INTER:                  -4.909
REMARK INTRA:                  -0.039
REMARK UNBOUND:                -0.039
REMARK SMILES O=C([O-])c1ccc(O)c(O)c1
REMARK SMILES IDX 4 1 11 2 5 3 9 4 6 5 7 6 2 7 1 8 3 9 10 10 8 12
REMARK H PARENT 10 11 8 13
REMARK Flexibility Score: inf
ROOT
ATOM      1  C   UNL     1      -1.884  23.882  10.323  1.00  0.00     0.001 A 
ATOM      2  C   UNL     1      -2.387  25.195  10.309  1.00  0.00     0.060 A 
ATOM      3  C   UNL     1      -1.975  23.129  11.507  1.00  0.00     0.014 A 
ATOM      4  C   UNL     1      -2.973  25.747  11.458  1.00  0.00     0.158 A 
ATOM      5  C   UNL     1      -2.558  23.679  12.651  1.00  0.00     0.051 A 
ATOM      6  C   UNL     1      -3.058  24.984  12.634  1.00  0.00     0.157 A 
ENDROOT
BRANCH   1   7
ATOM      7  C   UNL     1      -1.267  23.306   9.107  1.00  0.00     0.072 C 
ATOM      8  O   UNL     1      -0.138  22.749   9.164  1.00  0.00    -0.545 OA
ATOM      9  O   UNL     1      -1.925  23.369   7.885  1.00  0.00    -0.545 OA
ENDBRANCH   1   7
BRANCH   4  10
ATOM     10  O   UNL     1      -3.470  27.050  11.433  1.00  0.00    -0.504 OA
ATOM     11  H   UNL     1      -3.762  27.491  10.569  1.00  0.00     0.293 HD
ENDBRANCH   4  10
BRANCH   6  12
ATOM     12  O   UNL     1      -3.634  25.505  13.792  1.00  0.00    -0.504 OA
ATOM     13  H   UNL     1      -3.963  26.462  13.847  1.00  0.00     0.293 HD
ENDBRANCH   6  12
TORSDOF 3
ENDMDL
MODEL 9
REMARK VINA RESULT:    -4.385      8.651      9.068
REMARK INTER + INTRA:          -4.936
REMARK INTER:                  -4.892
REMARK INTRA:                  -0.044
REMARK UNBOUND:                -0.039
REMARK SMILES O=C([O-])c1ccc(O)c(O)c1
REMARK SMILES IDX 4 1 11 2 5 3 9 4 6 5 7 6 2 7 1 8 3 9 10 10 8 12
REMARK H PARENT 10 11 8 13
REMARK Flexibility Score: inf
ROOT
ATOM      1  C   UNL     1      -8.685  12.478  13.836  1.00  0.00     0.001 A 
ATOM      2  C   UNL     1      -7.606  12.656  14.721  1.00  0.00     0.060 A 
ATOM      3  C   UNL     1      -8.636  11.424  12.907  1.00  0.00     0.014 A 
ATOM      4  C   UNL     1      -6.499  11.796  14.680  1.00  0.00     0.158 A 
ATOM      5  C   UNL     1      -7.533  10.567  12.866  1.00  0.00     0.051 A 
ATOM      6  C   UNL     1      -6.464  10.747  13.747  1.00  0.00     0.157 A 
ENDROOT
BRANCH   1   7
ATOM      7  C   UNL     1      -9.849  13.389  13.885  1.00  0.00     0.072 C 
ATOM      8  O   UNL     1     -10.691  13.403  12.947  1.00  0.00    -0.545 OA
ATOM      9  O   UNL     1     -10.032  14.242  14.966  1.00  0.00    -0.545 OA
ENDBRANCH   1   7
BRANCH   4  10
ATOM     10  O   UNL     1      -5.436  11.982  15.563  1.00  0.00    -0.504 OA
ATOM     11  H   UNL     1      -4.795  11.230  15.789  1.00  0.00     0.293 HD
ENDBRANCH   4  10
BRANCH   6  12
ATOM     12  O   UNL     1      -5.377   9.875  13.682  1.00  0.00    -0.504 OA
ATOM     13  H   UNL     1      -5.049   9.488  12.804  1.00  0.00     0.293 HD
ENDBRANCH   6  12
TORSDOF 3
ENDMDL
