MODEL 1
REMARK VINA RESULT:    -4.284      0.000      0.000
REMARK INTER + INTRA:          -7.009
REMARK INTER:                  -6.539
REMARK INTRA:                  -0.470
REMARK UNBOUND:                -0.470
REMARK SMILES O=C([O-])CCCCCCCCC(=O)[O-]
REMARK SMILES IDX 7 1 6 2 5 3 4 4 2 5 1 6 3 7 8 8 9 9 10 10 11 11 12 12 13 13
REMARK SMILES IDX 14 14
REMARK H PARENT
REMARK Flexibility Score: inf
ROOT
ATOM      1  C   UNL     1      14.617 -33.687  21.142  1.00  0.00     0.000 C 
ENDROOT
BRANCH   1   2
ATOM      2  C   UNL     1      15.361 -34.275  19.932  1.00  0.00     0.000 C 
BRANCH   2   3
ATOM      3  C   UNL     1      15.918 -35.684  20.202  1.00  0.00     0.006 C 
BRANCH   3   4
ATOM      4  C   UNL     1      17.274 -35.965  19.534  1.00  0.00     0.053 C 
BRANCH   4   5
ATOM      5  C   UNL     1      17.582 -37.429  19.487  1.00  0.00     0.041 C 
ATOM      6  O   UNL     1      17.635 -38.031  18.382  1.00  0.00    -0.550 OA
ATOM      7  O   UNL     1      17.838 -38.124  20.662  1.00  0.00    -0.550 OA
ENDBRANCH   4   5
ENDBRANCH   3   4
ENDBRANCH   2   3
ENDBRANCH   1   2
BRANCH   1   8
ATOM      8  C   UNL     1      15.556 -33.350  22.314  1.00  0.00     0.000 C 
BRANCH   8   9
ATOM      9  C   UNL     1      15.023 -33.742  23.707  1.00  0.00     0.000 C 
BRANCH   9  10
ATOM     10  C   UNL     1      13.980 -32.779  24.303  1.00  0.00     0.006 C 
BRANCH  10  11
ATOM     11  C   UNL     1      14.303 -31.306  24.028  1.00  0.00     0.053 C 
BRANCH  11  12
ATOM     12  C   UNL     1      13.094 -30.596  23.506  1.00  0.00     0.041 C 
ATOM     13  O   UNL     1      12.673 -29.557  24.081  1.00  0.00    -0.550 OA
ATOM     14  O   UNL     1      12.403 -31.108  22.416  1.00  0.00    -0.550 OA
ENDBRANCH  11  12
ENDBRANCH  10  11
ENDBRANCH   9  10
ENDBRANCH   8   9
ENDBRANCH   1   8
TORSDOF 9
ENDMDL
MODEL 2
REMARK VINA RESULT:    -4.276      1.178      7.437
REMARK INTER + INTRA:          -6.995
REMARK INTER:                  -6.525
REMARK INTRA:                  -0.470
REMARK UNBOUND:                -0.470
REMARK SMILES O=C([O-])CCCCCCCCC(=O)[O-]
REMARK SMILES IDX 7 1 6 2 5 3 4 4 2 5 1 6 3 7 8 8 9 9 10 10 11 11 12 12 13 13
REMARK SMILES IDX 14 14
REMARK H PARENT
REMARK Flexibility Score: inf
ROOT
ATOM      1  C   UNL     1      15.004 -33.845  22.285  1.00  0.00     0.000 C 
ENDROOT
BRANCH   1   2
ATOM      2  C   UNL     1      14.300 -33.093  21.143  1.00  0.00     0.000 C 
BRANCH   2   3
ATOM      3  C   UNL     1      14.134 -31.591  21.433  1.00  0.00     0.006 C 
BRANCH   3   4
ATOM      4  C   UNL     1      12.827 -31.229  22.157  1.00  0.00     0.053 C 
BRANCH   4   5
ATOM      5  C   UNL     1      13.083 -30.550  23.467  1.00  0.00     0.041 C 
ATOM      6  O   UNL     1      13.996 -30.963  24.228  1.00  0.00    -0.550 OA
ATOM      7  O   UNL     1      12.327 -29.444  23.835  1.00  0.00    -0.550 OA
ENDBRANCH   4   5
ENDBRANCH   3   4
ENDBRANCH   2   3
ENDBRANCH   1   2
BRANCH   1   8
ATOM      8  C   UNL     1      16.092 -34.812  21.782  1.00  0.00     0.000 C 
BRANCH   8   9
ATOM      9  C   UNL     1      15.829 -35.418  20.389  1.00  0.00     0.000 C 
BRANCH   9  10
ATOM     10  C   UNL     1      16.916 -35.133  19.336  1.00  0.00     0.006 C 
BRANCH  10  11
ATOM     11  C   UNL     1      18.188 -35.960  19.555  1.00  0.00     0.053 C 
BRANCH  11  12
ATOM     12  C   UNL     1      17.868 -37.422  19.540  1.00  0.00     0.041 C 
ATOM     13  O   UNL     1      17.911 -38.090  20.607  1.00  0.00    -0.550 OA
ATOM     14  O   UNL     1      17.571 -38.056  18.341  1.00  0.00    -0.550 OA
ENDBRANCH  11  12
ENDBRANCH  10  11
ENDBRANCH   9  10
ENDBRANCH   8   9
ENDBRANCH   1   8
TORSDOF 9
ENDMDL
MODEL 3
REMARK VINA RESULT:    -4.266      1.788      2.544
REMARK INTER + INTRA:          -6.981
REMARK INTER:                  -6.529
REMARK INTRA:                  -0.452
REMARK UNBOUND:                -0.470
REMARK SMILES O=C([O-])CCCCCCCCC(=O)[O-]
REMARK SMILES IDX 7 1 6 2 5 3 4 4 2 5 1 6 3 7 8 8 9 9 10 10 11 11 12 12 13 13
REMARK SMILES IDX 14 14
REMARK H PARENT
REMARK Flexibility Score: inf
ROOT
ATOM      1  C   UNL     1      15.622 -32.446  21.701  1.00  0.00     0.000 C 
ENDROOT
BRANCH   1   2
ATOM      2  C   UNL     1      14.981 -33.844  21.678  1.00  0.00     0.000 C 
BRANCH   2   3
ATOM      3  C   UNL     1      16.019 -34.973  21.555  1.00  0.00     0.006 C 
BRANCH   3   4
ATOM      4  C   UNL     1      16.016 -35.686  20.193  1.00  0.00     0.053 C 
BRANCH   4   5
ATOM      5  C   UNL     1      17.299 -35.479  19.449  1.00  0.00     0.041 C 
ATOM      6  O   UNL     1      18.105 -36.434  19.297  1.00  0.00    -0.550 OA
ATOM      7  O   UNL     1      17.593 -34.237  18.902  1.00  0.00    -0.550 OA
ENDBRANCH   4   5
ENDBRANCH   3   4
ENDBRANCH   2   3
ENDBRANCH   1   2
BRANCH   1   8
ATOM      8  C   UNL     1      14.623 -31.326  21.356  1.00  0.00     0.000 C 
BRANCH   8   9
ATOM      9  C   UNL     1      13.137 -31.712  21.502  1.00  0.00     0.000 C 
BRANCH   9  10
ATOM     10  C   UNL     1      12.305 -30.777  22.400  1.00  0.00     0.006 C 
BRANCH  10  11
ATOM     11  C   UNL     1      13.130 -30.142  23.526  1.00  0.00     0.053 C 
BRANCH  11  12
ATOM     12  C   UNL     1      12.367 -29.025  24.164  1.00  0.00     0.041 C 
ATOM     13  O   UNL     1      11.230 -28.703  23.725  1.00  0.00    -0.550 OA
ATOM     14  O   UNL     1      12.930 -28.306  25.210  1.00  0.00    -0.550 OA
ENDBRANCH  11  12
ENDBRANCH  10  11
ENDBRANCH   9  10
ENDBRANCH   8   9
ENDBRANCH   1   8
TORSDOF 9
ENDMDL
MODEL 4
REMARK VINA RESULT:    -4.263      2.948      4.482
REMARK INTER + INTRA:          -6.976
REMARK INTER:                  -6.074
REMARK INTRA:                  -0.902
REMARK UNBOUND:                -0.470
REMARK SMILES O=C([O-])CCCCCCCCC(=O)[O-]
REMARK SMILES IDX 7 1 6 2 5 3 4 4 2 5 1 6 3 7 8 8 9 9 10 10 11 11 12 12 13 13
REMARK SMILES IDX 14 14
REMARK H PARENT
REMARK Flexibility Score: inf
ROOT
ATOM      1  C   UNL     1      17.805 -34.455  19.127  1.00  0.00     0.000 C 
ENDROOT
BRANCH   1   2
ATOM      2  C   UNL     1      19.259 -34.488  19.626  1.00  0.00     0.000 C 
BRANCH   2   3
ATOM      3  C   UNL     1      19.646 -33.226  20.417  1.00  0.00     0.006 C 
BRANCH   3   4
ATOM      4  C   UNL     1      18.449 -32.375  20.872  1.00  0.00     0.053 C 
BRANCH   4   5
ATOM      5  C   UNL     1      18.121 -32.598  22.316  1.00  0.00     0.041 C 
ATOM      6  O   UNL     1      17.537 -31.701  22.979  1.00  0.00    -0.550 OA
ATOM      7  O   UNL     1      18.437 -33.807  22.922  1.00  0.00    -0.550 OA
ENDBRANCH   4   5
ENDBRANCH   3   4
ENDBRANCH   2   3
ENDBRANCH   1   2
BRANCH   1   8
ATOM      8  C   UNL     1      17.023 -35.734  19.478  1.00  0.00     0.000 C 
BRANCH   8   9
ATOM      9  C   UNL     1      15.784 -35.515  20.368  1.00  0.00     0.000 C 
BRANCH   9  10
ATOM     10  C   UNL     1      15.012 -34.209  20.104  1.00  0.00     0.006 C 
BRANCH  10  11
ATOM     11  C   UNL     1      14.688 -33.437  21.389  1.00  0.00     0.053 C 
BRANCH  11  12
ATOM     12  C   UNL     1      14.100 -32.101  21.060  1.00  0.00     0.041 C 
ATOM     13  O   UNL     1      12.919 -32.019  20.628  1.00  0.00    -0.550 OA
ATOM     14  O   UNL     1      14.870 -30.953  21.183  1.00  0.00    -0.550 OA
ENDBRANCH  11  12
ENDBRANCH  10  11
ENDBRANCH   9  10
ENDBRANCH   8   9
ENDBRANCH   1   8
TORSDOF 9
ENDMDL
MODEL 5
REMARK VINA RESULT:    -4.223      3.400      5.231
REMARK INTER + INTRA:          -6.915
REMARK INTER:                  -5.868
REMARK INTRA:                  -1.047
REMARK UNBOUND:                -0.470
REMARK SMILES O=C([O-])CCCCCCCCC(=O)[O-]
REMARK SMILES IDX 7 1 6 2 5 3 4 4 2 5 1 6 3 7 8 8 9 9 10 10 11 11 12 12 13 13
REMARK SMILES IDX 14 14
REMARK H PARENT
REMARK Flexibility Score: inf
ROOT
ATOM      1  C   UNL     1      17.039 -35.577  19.430  1.00  0.00     0.000 C 
ENDROOT
BRANCH   1   2
ATOM      2  C   UNL     1      16.909 -35.777  20.949  1.00  0.00     0.000 C 
BRANCH   2   3
ATOM      3  C   UNL     1      15.771 -34.944  21.564  1.00  0.00     0.006 C 
BRANCH   3   4
ATOM      4  C   UNL     1      14.932 -34.167  20.537  1.00  0.00     0.053 C 
BRANCH   4   5
ATOM      5  C   UNL     1      14.205 -33.017  21.162  1.00  0.00     0.041 C 
ATOM      6  O   UNL     1      13.403 -32.327  20.480  1.00  0.00    -0.550 OA
ATOM      7  O   UNL     1      14.394 -32.724  22.507  1.00  0.00    -0.550 OA
ENDBRANCH   4   5
ENDBRANCH   3   4
ENDBRANCH   2   3
ENDBRANCH   1   2
BRANCH   1   8
ATOM      8  C   UNL     1      18.149 -34.579  19.052  1.00  0.00     0.000 C 
BRANCH   8   9
ATOM      9  C   UNL     1      19.352 -34.549  20.016  1.00  0.00     0.000 C 
BRANCH   9  10
ATOM     10  C   UNL     1      19.683 -33.165  20.606  1.00  0.00     0.006 C 
BRANCH  10  11
ATOM     11  C   UNL     1      19.090 -32.957  22.005  1.00  0.00     0.053 C 
BRANCH  11  12
ATOM     12  C   UNL     1      17.959 -31.979  21.951  1.00  0.00     0.041 C 
ATOM     13  O   UNL     1      17.498 -31.605  20.840  1.00  0.00    -0.550 OA
ATOM     14  O   UNL     1      17.447 -31.443  23.125  1.00  0.00    -0.550 OA
ENDBRANCH  11  12
ENDBRANCH  10  11
ENDBRANCH   9  10
ENDBRANCH   8   9
ENDBRANCH   1   8
TORSDOF 9
ENDMDL
MODEL 6
REMARK VINA RESULT:    -4.209      2.493      5.945
REMARK INTER + INTRA:          -6.893
REMARK INTER:                  -5.881
REMARK INTRA:                  -1.012
REMARK UNBOUND:                -0.470
REMARK SMILES O=C([O-])CCCCCCCCC(=O)[O-]
REMARK SMILES IDX 7 1 6 2 5 3 4 4 2 5 1 6 3 7 8 8 9 9 10 10 11 11 12 12 13 13
REMARK SMILES IDX 14 14
REMARK H PARENT
REMARK Flexibility Score: inf
ROOT
ATOM      1  C   UNL     1      17.263 -31.470  21.494  1.00  0.00     0.000 C 
ENDROOT
BRANCH   1   2
ATOM      2  C   UNL     1      17.545 -31.900  22.943  1.00  0.00     0.000 C 
BRANCH   2   3
ATOM      3  C   UNL     1      16.317 -31.753  23.858  1.00  0.00     0.006 C 
BRANCH   3   4
ATOM      4  C   UNL     1      15.072 -31.184  23.156  1.00  0.00     0.053 C 
BRANCH   4   5
ATOM      5  C   UNL     1      13.817 -31.870  23.600  1.00  0.00     0.041 C 
ATOM      6  O   UNL     1      12.719 -31.601  23.047  1.00  0.00    -0.550 OA
ATOM      7  O   UNL     1      13.866 -32.826  24.606  1.00  0.00    -0.550 OA
ENDBRANCH   4   5
ENDBRANCH   3   4
ENDBRANCH   2   3
ENDBRANCH   1   2
BRANCH   1   8
ATOM      8  C   UNL     1      18.180 -32.169  20.474  1.00  0.00     0.000 C 
BRANCH   8   9
ATOM      9  C   UNL     1      18.119 -33.709  20.494  1.00  0.00     0.000 C 
BRANCH   9  10
ATOM     10  C   UNL     1      17.181 -34.340  19.449  1.00  0.00     0.006 C 
BRANCH  10  11
ATOM     11  C   UNL     1      16.158 -35.300  20.068  1.00  0.00     0.053 C 
BRANCH  11  12
ATOM     12  C   UNL     1      15.292 -34.576  21.049  1.00  0.00     0.041 C 
ATOM     13  O   UNL     1      14.484 -33.696  20.651  1.00  0.00    -0.550 OA
ATOM     14  O   UNL     1      15.411 -34.838  22.408  1.00  0.00    -0.550 OA
ENDBRANCH  11  12
ENDBRANCH  10  11
ENDBRANCH   9  10
ENDBRANCH   8   9
ENDBRANCH   1   8
TORSDOF 9
ENDMDL
MODEL 7
REMARK VINA RESULT:    -4.196      2.026      3.020
REMARK INTER + INTRA:          -6.874
REMARK INTER:                  -5.865
REMARK INTRA:                  -1.009
REMARK UNBOUND:                -0.470
REMARK SMILES O=C([O-])CCCCCCCCC(=O)[O-]
REMARK SMILES IDX 7 1 6 2 5 3 4 4 2 5 1 6 3 7 8 8 9 9 10 10 11 11 12 12 13 13
REMARK SMILES IDX 14 14
REMARK H PARENT
REMARK Flexibility Score: inf
ROOT
ATOM      1  C   UNL     1      18.816 -33.991  20.000  1.00  0.00     0.000 C 
ENDROOT
BRANCH   1   2
ATOM      2  C   UNL     1      17.609 -34.270  19.090  1.00  0.00     0.000 C 
BRANCH   2   3
ATOM      3  C   UNL     1      16.906 -35.598  19.422  1.00  0.00     0.006 C 
BRANCH   3   4
ATOM      4  C   UNL     1      17.584 -36.408  20.540  1.00  0.00     0.053 C 
BRANCH   4   5
ATOM      5  C   UNL     1      17.947 -37.789  20.090  1.00  0.00     0.041 C 
ATOM      6  O   UNL     1      18.067 -38.719  20.929  1.00  0.00    -0.550 OA
ATOM      7  O   UNL     1      18.126 -38.054  18.738  1.00  0.00    -0.550 OA
ENDBRANCH   4   5
ENDBRANCH   3   4
ENDBRANCH   2   3
ENDBRANCH   1   2
BRANCH   1   8
ATOM      8  C   UNL     1      18.628 -32.738  20.874  1.00  0.00     0.000 C 
BRANCH   8   9
ATOM      9  C   UNL     1      17.173 -32.243  20.996  1.00  0.00     0.000 C 
BRANCH   9  10
ATOM     10  C   UNL     1      16.456 -32.635  22.302  1.00  0.00     0.006 C 
BRANCH  10  11
ATOM     11  C   UNL     1      15.326 -33.647  22.081  1.00  0.00     0.053 C 
BRANCH  11  12
ATOM     12  C   UNL     1      14.279 -33.070  21.180  1.00  0.00     0.041 C 
ATOM     13  O   UNL     1      13.564 -32.112  21.574  1.00  0.00    -0.550 OA
ATOM     14  O   UNL     1      14.060 -33.623  19.926  1.00  0.00    -0.550 OA
ENDBRANCH  11  12
ENDBRANCH  10  11
ENDBRANCH   9  10
ENDBRANCH   8   9
ENDBRANCH   1   8
TORSDOF 9
ENDMDL
MODEL 8
REMARK VINA RESULT:    -4.157      1.624      2.178
REMARK INTER + INTRA:          -6.815
REMARK INTER:                  -5.935
REMARK INTRA:                  -0.880
REMARK UNBOUND:                -0.470
REMARK SMILES O=C([O-])CCCCCCCCC(=O)[O-]
REMARK SMILES IDX 7 1 6 2 5 3 4 4 2 5 1 6 3 7 8 8 9 9 10 10 11 11 12 12 13 13
REMARK SMILES IDX 14 14
REMARK H PARENT
REMARK Flexibility Score: inf
ROOT
ATOM      1  C   UNL     1      16.573 -33.686  22.637  1.00  0.00     0.000 C 
ENDROOT
BRANCH   1   2
ATOM      2  C   UNL     1      15.800 -34.905  22.105  1.00  0.00     0.000 C 
BRANCH   2   3
ATOM      3  C   UNL     1      15.327 -34.723  20.652  1.00  0.00     0.006 C 
BRANCH   3   4
ATOM      4  C   UNL     1      16.463 -34.711  19.616  1.00  0.00     0.053 C 
BRANCH   4   5
ATOM      5  C   UNL     1      17.297 -35.952  19.686  1.00  0.00     0.041 C 
ATOM      6  O   UNL     1      16.808 -37.065  19.359  1.00  0.00    -0.550 OA
ATOM      7  O   UNL     1      18.625 -35.876  20.088  1.00  0.00    -0.550 OA
ENDBRANCH   4   5
ENDBRANCH   3   4
ENDBRANCH   2   3
ENDBRANCH   1   2
BRANCH   1   8
ATOM      8  C   UNL     1      16.242 -33.363  24.105  1.00  0.00     0.000 C 
BRANCH   8   9
ATOM      9  C   UNL     1      14.767 -33.004  24.374  1.00  0.00     0.000 C 
BRANCH   9  10
ATOM     10  C   UNL     1      14.335 -31.606  23.893  1.00  0.00     0.006 C 
BRANCH  10  11
ATOM     11  C   UNL     1      13.157 -31.651  22.913  1.00  0.00     0.053 C 
BRANCH  11  12
ATOM     12  C   UNL     1      13.647 -31.550  21.504  1.00  0.00     0.041 C 
ATOM     13  O   UNL     1      12.965 -32.031  20.560  1.00  0.00    -0.550 OA
ATOM     14  O   UNL     1      14.881 -30.971  21.236  1.00  0.00    -0.550 OA
ENDBRANCH  11  12
ENDBRANCH  10  11
ENDBRANCH   9  10
ENDBRANCH   8   9
ENDBRANCH   1   8
TORSDOF 9
ENDMDL
MODEL 9
REMARK VINA RESULT:    -4.142      2.175      6.742
REMARK INTER + INTRA:          -6.791
REMARK INTER:                  -6.062
REMARK INTRA:                  -0.730
REMARK UNBOUND:                -0.470
REMARK SMILES O=C([O-])CCCCCCCCC(=O)[O-]
REMARK SMILES IDX 7 1 6 2 5 3 4 4 2 5 1 6 3 7 8 8 9 9 10 10 11 11 12 12 13 13
REMARK SMILES IDX 14 14
REMARK H PARENT
REMARK Flexibility Score: inf
ROOT
ATOM      1  C   UNL     1      19.220 -32.408  20.991  1.00  0.00     0.000 C 
ENDROOT
BRANCH   1   2
ATOM      2  C   UNL     1      17.926 -31.587  20.859  1.00  0.00     0.000 C 
BRANCH   2   3
ATOM      3  C   UNL     1      16.684 -32.349  21.356  1.00  0.00     0.006 C 
BRANCH   3   4
ATOM      4  C   UNL     1      15.421 -31.480  21.483  1.00  0.00     0.053 C 
BRANCH   4   5
ATOM      5  C   UNL     1      14.177 -32.253  21.173  1.00  0.00     0.041 C 
ATOM      6  O   UNL     1      14.253 -33.444  20.773  1.00  0.00    -0.550 OA
ATOM      7  O   UNL     1      12.931 -31.665  21.351  1.00  0.00    -0.550 OA
ENDBRANCH   4   5
ENDBRANCH   3   4
ENDBRANCH   2   3
ENDBRANCH   1   2
BRANCH   1   8
ATOM      8  C   UNL     1      18.966 -33.926  20.989  1.00  0.00     0.000 C 
BRANCH   8   9
ATOM      9  C   UNL     1      19.045 -34.596  19.603  1.00  0.00     0.000 C 
BRANCH   9  10
ATOM     10  C   UNL     1      17.687 -34.868  18.930  1.00  0.00     0.006 C 
BRANCH  10  11
ATOM     11  C   UNL     1      16.827 -35.871  19.708  1.00  0.00     0.053 C 
BRANCH  11  12
ATOM     12  C   UNL     1      17.438 -37.235  19.654  1.00  0.00     0.041 C 
ATOM     13  O   UNL     1      17.844 -37.789  20.710  1.00  0.00    -0.550 OA
ATOM     14  O   UNL     1      17.605 -37.874  18.433  1.00  0.00    -0.550 OA
ENDBRANCH  11  12
ENDBRANCH  10  11
ENDBRANCH   9  10
ENDBRANCH   8   9
ENDBRANCH   1   8
TORSDOF 9
ENDMDL
