MODEL 1
REMARK VINA RESULT:    -5.609      0.000      0.000
REMARK INTER + INTRA:          -6.727
REMARK INTER:                  -6.592
REMARK INTRA:                  -0.135
REMARK UNBOUND:                -0.135
REMARK SMILES O=C([O-])C=Cc1ccc(O)c(O)c1
REMARK SMILES IDX 6 1 13 2 7 3 11 4 8 5 9 6 5 7 4 8 2 9 1 10 3 11 12 12 10 14
REMARK H PARENT 12 13 10 15
REMARK Flexibility Score: inf
ROOT
ATOM      1  C   UNL     1      27.231  23.508  49.161  1.00  0.00    -0.022 A 
ATOM      2  C   UNL     1      26.769  24.222  50.285  1.00  0.00     0.058 A 
ATOM      3  C   UNL     1      27.550  22.149  49.306  1.00  0.00     0.012 A 
ATOM      4  C   UNL     1      26.608  23.579  51.522  1.00  0.00     0.157 A 
ATOM      5  C   UNL     1      27.387  21.506  50.537  1.00  0.00     0.051 A 
ATOM      6  C   UNL     1      26.915  22.213  51.645  1.00  0.00     0.157 A 
ENDROOT
BRANCH   1   7
ATOM      7  C   UNL     1      27.430  24.147  47.837  1.00  0.00     0.010 C 
ATOM      8  C   UNL     1      26.703  23.849  46.751  1.00  0.00     0.025 C 
BRANCH   8   9
ATOM      9  C   UNL     1      26.937  24.494  45.447  1.00  0.00     0.064 C 
ATOM     10  O   UNL     1      28.100  24.619  44.981  1.00  0.00    -0.545 OA
ATOM     11  O   UNL     1      25.856  24.976  44.721  1.00  0.00    -0.545 OA
ENDBRANCH   8   9
ENDBRANCH   1   7
BRANCH   4  12
ATOM     12  O   UNL     1      26.148  24.292  52.628  1.00  0.00    -0.504 OA
ATOM     13  H   UNL     1      25.173  24.277  52.902  1.00  0.00     0.293 HD
ENDBRANCH   4  12
BRANCH   6  14
ATOM     14  O   UNL     1      26.760  21.545  52.860  1.00  0.00    -0.504 OA
ATOM     15  H   UNL     1      26.337  20.627  52.920  1.00  0.00     0.293 HD
ENDBRANCH   6  14
TORSDOF 4
ENDMDL
MODEL 2
REMARK VINA RESULT:    -5.528      1.669      2.420
REMARK INTER + INTRA:          -6.632
REMARK INTER:                  -6.489
REMARK INTRA:                  -0.143
REMARK UNBOUND:                -0.135
REMARK SMILES O=C([O-])C=Cc1ccc(O)c(O)c1
REMARK SMILES IDX 6 1 13 2 7 3 11 4 8 5 9 6 5 7 4 8 2 9 1 10 3 11 12 12 10 14
REMARK H PARENT 12 13 10 15
REMARK Flexibility Score: inf
ROOT
ATOM      1  C   UNL     1      27.207  23.670  50.262  1.00  0.00    -0.022 A 
ATOM      2  C   UNL     1      26.444  22.573  50.708  1.00  0.00     0.058 A 
ATOM      3  C   UNL     1      27.630  24.626  51.198  1.00  0.00     0.012 A 
ATOM      4  C   UNL     1      26.133  22.424  52.068  1.00  0.00     0.157 A 
ATOM      5  C   UNL     1      27.323  24.479  52.554  1.00  0.00     0.051 A 
ATOM      6  C   UNL     1      26.579  23.382  52.995  1.00  0.00     0.157 A 
ENDROOT
BRANCH   1   7
ATOM      7  C   UNL     1      27.550  23.877  48.833  1.00  0.00     0.010 C 
ATOM      8  C   UNL     1      28.757  24.278  48.408  1.00  0.00     0.025 C 
BRANCH   8   9
ATOM      9  C   UNL     1      29.058  24.485  46.981  1.00  0.00     0.064 C 
ATOM     10  O   UNL     1      30.192  24.884  46.605  1.00  0.00    -0.545 OA
ATOM     11  O   UNL     1      28.073  24.238  46.033  1.00  0.00    -0.545 OA
ENDBRANCH   8   9
ENDBRANCH   1   7
BRANCH   4  12
ATOM     12  O   UNL     1      25.380  21.334  52.500  1.00  0.00    -0.504 OA
ATOM     13  H   UNL     1      24.555  21.452  53.075  1.00  0.00     0.293 HD
ENDBRANCH   4  12
BRANCH   6  14
ATOM     14  O   UNL     1      26.290  23.259  54.354  1.00  0.00    -0.504 OA
ATOM     15  H   UNL     1      26.917  23.604  55.071  1.00  0.00     0.293 HD
ENDBRANCH   6  14
TORSDOF 4
ENDMDL
MODEL 3
REMARK VINA RESULT:    -5.353      1.711      1.718
REMARK INTER + INTRA:          -6.427
REMARK INTER:                  -6.302
REMARK INTRA:                  -0.125
REMARK UNBOUND:                -0.135
REMARK SMILES O=C([O-])C=Cc1ccc(O)c(O)c1
REMARK SMILES IDX 6 1 13 2 7 3 11 4 8 5 9 6 5 7 4 8 2 9 1 10 3 11 12 12 10 14
REMARK H PARENT 12 13 10 15
REMARK Flexibility Score: inf
ROOT
ATOM      1  C   UNL     1      28.459  23.986  49.530  1.00  0.00    -0.022 A 
ATOM      2  C   UNL     1      27.732  24.656  50.534  1.00  0.00     0.058 A 
ATOM      3  C   UNL     1      29.449  23.066  49.911  1.00  0.00     0.012 A 
ATOM      4  C   UNL     1      27.974  24.389  51.890  1.00  0.00     0.157 A 
ATOM      5  C   UNL     1      29.690  22.797  51.261  1.00  0.00     0.051 A 
ATOM      6  C   UNL     1      28.957  23.452  52.254  1.00  0.00     0.157 A 
ENDROOT
BRANCH   1   7
ATOM      7  C   UNL     1      28.248  24.242  48.084  1.00  0.00     0.010 C 
ATOM      8  C   UNL     1      27.135  23.895  47.422  1.00  0.00     0.025 C 
BRANCH   8   9
ATOM      9  C   UNL     1      26.966  24.155  45.982  1.00  0.00     0.064 C 
ATOM     10  O   UNL     1      27.945  24.467  45.255  1.00  0.00    -0.545 OA
ATOM     11  O   UNL     1      25.701  24.055  45.415  1.00  0.00    -0.545 OA
ENDBRANCH   8   9
ENDBRANCH   1   7
BRANCH   4  12
ATOM     12  O   UNL     1      27.247  25.055  52.876  1.00  0.00    -0.504 OA
ATOM     13  H   UNL     1      27.018  26.038  52.794  1.00  0.00     0.293 HD
ENDBRANCH   4  12
BRANCH   6  14
ATOM     14  O   UNL     1      29.217  23.163  53.592  1.00  0.00    -0.504 OA
ATOM     15  H   UNL     1      28.872  22.322  54.039  1.00  0.00     0.293 HD
ENDBRANCH   6  14
TORSDOF 4
ENDMDL
MODEL 4
REMARK VINA RESULT:    -5.329     10.685     12.646
REMARK INTER + INTRA:          -6.398
REMARK INTER:                  -6.269
REMARK INTRA:                  -0.129
REMARK UNBOUND:                -0.135
REMARK SMILES O=C([O-])C=Cc1ccc(O)c(O)c1
REMARK SMILES IDX 6 1 13 2 7 3 11 4 8 5 9 6 5 7 4 8 2 9 1 10 3 11 12 12 10 14
REMARK H PARENT 12 13 10 15
REMARK Flexibility Score: inf
ROOT
ATOM      1  C   UNL     1      20.014  23.931  39.697  1.00  0.00    -0.022 A 
ATOM      2  C   UNL     1      19.450  23.933  38.406  1.00  0.00     0.058 A 
ATOM      3  C   UNL     1      20.582  22.744  40.186  1.00  0.00     0.012 A 
ATOM      4  C   UNL     1      19.477  22.775  37.613  1.00  0.00     0.157 A 
ATOM      5  C   UNL     1      20.612  21.591  39.397  1.00  0.00     0.051 A 
ATOM      6  C   UNL     1      20.065  21.600  38.111  1.00  0.00     0.157 A 
ENDROOT
BRANCH   1   7
ATOM      7  C   UNL     1      19.998  25.124  40.578  1.00  0.00     0.010 C 
ATOM      8  C   UNL     1      20.978  26.040  40.608  1.00  0.00     0.025 C 
BRANCH   8   9
ATOM      9  C   UNL     1      20.934  27.207  41.505  1.00  0.00     0.064 C 
ATOM     10  O   UNL     1      20.259  27.188  42.569  1.00  0.00    -0.545 OA
ATOM     11  O   UNL     1      21.649  28.351  41.172  1.00  0.00    -0.545 OA
ENDBRANCH   8   9
ENDBRANCH   1   7
BRANCH   4  12
ATOM     12  O   UNL     1      18.919  22.788  36.336  1.00  0.00    -0.504 OA
ATOM     13  H   UNL     1      19.081  23.554  35.693  1.00  0.00     0.293 HD
ENDBRANCH   4  12
BRANCH   6  14
ATOM     14  O   UNL     1      20.111  20.436  37.345  1.00  0.00    -0.504 OA
ATOM     15  H   UNL     1      19.581  19.609  37.589  1.00  0.00     0.293 HD
ENDBRANCH   6  14
TORSDOF 4
ENDMDL
MODEL 5
REMARK VINA RESULT:    -5.308      1.882      2.460
REMARK INTER + INTRA:          -6.373
REMARK INTER:                  -6.249
REMARK INTRA:                  -0.124
REMARK UNBOUND:                -0.135
REMARK SMILES O=C([O-])C=Cc1ccc(O)c(O)c1
REMARK SMILES IDX 6 1 13 2 7 3 11 4 8 5 9 6 5 7 4 8 2 9 1 10 3 11 12 12 10 14
REMARK H PARENT 12 13 10 15
REMARK Flexibility Score: inf
ROOT
ATOM      1  C   UNL     1      27.258  23.701  50.634  1.00  0.00    -0.022 A 
ATOM      2  C   UNL     1      27.786  24.552  51.625  1.00  0.00     0.058 A 
ATOM      3  C   UNL     1      26.451  22.622  51.026  1.00  0.00     0.012 A 
ATOM      4  C   UNL     1      27.489  24.339  52.981  1.00  0.00     0.157 A 
ATOM      5  C   UNL     1      26.153  22.410  52.376  1.00  0.00     0.051 A 
ATOM      6  C   UNL     1      26.665  23.263  53.355  1.00  0.00     0.157 A 
ENDROOT
BRANCH   1   7
ATOM      7  C   UNL     1      27.553  23.878  49.190  1.00  0.00     0.010 C 
ATOM      8  C   UNL     1      28.756  24.231  48.714  1.00  0.00     0.025 C 
BRANCH   8   9
ATOM      9  C   UNL     1      29.009  24.409  47.274  1.00  0.00     0.064 C 
ATOM     10  O   UNL     1      28.101  24.215  46.423  1.00  0.00    -0.545 OA
ATOM     11  O   UNL     1      30.272  24.797  46.847  1.00  0.00    -0.545 OA
ENDBRANCH   8   9
ENDBRANCH   1   7
BRANCH   4  12
ATOM     12  O   UNL     1      28.014  25.187  53.954  1.00  0.00    -0.504 OA
ATOM     13  H   UNL     1      27.628  26.109  54.119  1.00  0.00     0.293 HD
ENDBRANCH   4  12
BRANCH   6  14
ATOM     14  O   UNL     1      26.349  23.029  54.693  1.00  0.00    -0.504 OA
ATOM     15  H   UNL     1      26.911  23.396  55.451  1.00  0.00     0.293 HD
ENDBRANCH   6  14
TORSDOF 4
ENDMDL
MODEL 6
REMARK VINA RESULT:    -5.228     10.271     11.656
REMARK INTER + INTRA:          -6.280
REMARK INTER:                  -6.144
REMARK INTRA:                  -0.136
REMARK UNBOUND:                -0.135
REMARK SMILES O=C([O-])C=Cc1ccc(O)c(O)c1
REMARK SMILES IDX 6 1 13 2 7 3 11 4 8 5 9 6 5 7 4 8 2 9 1 10 3 11 12 12 10 14
REMARK H PARENT 12 13 10 15
REMARK Flexibility Score: inf
ROOT
ATOM      1  C   UNL     1      19.903  25.510  40.379  1.00  0.00    -0.022 A 
ATOM      2  C   UNL     1      20.992  26.389  40.548  1.00  0.00     0.058 A 
ATOM      3  C   UNL     1      18.920  25.450  41.378  1.00  0.00     0.012 A 
ATOM      4  C   UNL     1      21.078  27.209  41.683  1.00  0.00     0.157 A 
ATOM      5  C   UNL     1      19.002  26.268  42.509  1.00  0.00     0.051 A 
ATOM      6  C   UNL     1      20.075  27.149  42.666  1.00  0.00     0.157 A 
ENDROOT
BRANCH   1   7
ATOM      7  C   UNL     1      19.775  24.615  39.202  1.00  0.00     0.010 C 
ATOM      8  C   UNL     1      19.775  23.276  39.282  1.00  0.00     0.025 C 
BRANCH   8   9
ATOM      9  C   UNL     1      19.658  22.418  38.091  1.00  0.00     0.064 C 
ATOM     10  O   UNL     1      19.053  22.813  37.059  1.00  0.00    -0.545 OA
ATOM     11  O   UNL     1      20.224  21.149  38.106  1.00  0.00    -0.545 OA
ENDBRANCH   8   9
ENDBRANCH   1   7
BRANCH   4  12
ATOM     12  O   UNL     1      22.157  28.077  41.840  1.00  0.00    -0.504 OA
ATOM     13  H   UNL     1      23.034  27.767  42.239  1.00  0.00     0.293 HD
ENDBRANCH   4  12
BRANCH   6  14
ATOM     14  O   UNL     1      20.130  27.954  43.803  1.00  0.00    -0.504 OA
ATOM     15  H   UNL     1      19.768  28.900  43.812  1.00  0.00     0.293 HD
ENDBRANCH   6  14
TORSDOF 4
ENDMDL
MODEL 7
REMARK VINA RESULT:    -5.215     11.117     12.666
REMARK INTER + INTRA:          -6.265
REMARK INTER:                  -6.144
REMARK INTRA:                  -0.121
REMARK UNBOUND:                -0.135
REMARK SMILES O=C([O-])C=Cc1ccc(O)c(O)c1
REMARK SMILES IDX 6 1 13 2 7 3 11 4 8 5 9 6 5 7 4 8 2 9 1 10 3 11 12 12 10 14
REMARK H PARENT 12 13 10 15
REMARK Flexibility Score: inf
ROOT
ATOM      1  C   UNL     1      19.186  24.208  39.985  1.00  0.00    -0.022 A 
ATOM      2  C   UNL     1      20.070  23.255  40.529  1.00  0.00     0.058 A 
ATOM      3  C   UNL     1      18.805  24.087  38.639  1.00  0.00     0.012 A 
ATOM      4  C   UNL     1      20.541  22.189  39.748  1.00  0.00     0.157 A 
ATOM      5  C   UNL     1      19.271  23.024  37.860  1.00  0.00     0.051 A 
ATOM      6  C   UNL     1      20.135  22.073  38.407  1.00  0.00     0.157 A 
ENDROOT
BRANCH   1   7
ATOM      7  C   UNL     1      18.672  25.359  40.767  1.00  0.00     0.010 C 
ATOM      8  C   UNL     1      18.291  25.276  42.050  1.00  0.00     0.025 C 
BRANCH   8   9
ATOM      9  C   UNL     1      17.772  26.438  42.792  1.00  0.00     0.064 C 
ATOM     10  O   UNL     1      16.693  26.995  42.460  1.00  0.00    -0.545 OA
ATOM     11  O   UNL     1      18.488  26.929  43.877  1.00  0.00    -0.545 OA
ENDBRANCH   8   9
ENDBRANCH   1   7
BRANCH   4  12
ATOM     12  O   UNL     1      21.413  21.250  40.296  1.00  0.00    -0.504 OA
ATOM     13  H   UNL     1      21.096  20.558  40.965  1.00  0.00     0.293 HD
ENDBRANCH   4  12
BRANCH   6  14
ATOM     14  O   UNL     1      20.583  21.022  37.607  1.00  0.00    -0.504 OA
ATOM     15  H   UNL     1      20.612  21.089  36.597  1.00  0.00     0.293 HD
ENDBRANCH   6  14
TORSDOF 4
ENDMDL
MODEL 8
REMARK VINA RESULT:    -5.210      1.326      5.936
REMARK INTER + INTRA:          -6.259
REMARK INTER:                  -6.139
REMARK INTRA:                  -0.120
REMARK UNBOUND:                -0.135
REMARK SMILES O=C([O-])C=Cc1ccc(O)c(O)c1
REMARK SMILES IDX 6 1 13 2 7 3 11 4 8 5 9 6 5 7 4 8 2 9 1 10 3 11 12 12 10 14
REMARK H PARENT 12 13 10 15
REMARK Flexibility Score: inf
ROOT
ATOM      1  C   UNL     1      27.935  23.859  48.744  1.00  0.00    -0.022 A 
ATOM      2  C   UNL     1      26.831  23.610  47.904  1.00  0.00     0.058 A 
ATOM      3  C   UNL     1      29.117  24.361  48.178  1.00  0.00     0.012 A 
ATOM      4  C   UNL     1      26.904  23.882  46.530  1.00  0.00     0.157 A 
ATOM      5  C   UNL     1      29.191  24.635  46.809  1.00  0.00     0.051 A 
ATOM      6  C   UNL     1      28.090  24.401  45.982  1.00  0.00     0.157 A 
ENDROOT
BRANCH   1   7
ATOM      7  C   UNL     1      27.911  23.576  50.200  1.00  0.00     0.010 C 
ATOM      8  C   UNL     1      27.079  24.179  51.062  1.00  0.00     0.025 C 
BRANCH   8   9
ATOM      9  C   UNL     1      27.092  23.882  52.505  1.00  0.00     0.064 C 
ATOM     10  O   UNL     1      26.324  23.015  52.999  1.00  0.00    -0.545 OA
ATOM     11  O   UNL     1      27.966  24.571  53.336  1.00  0.00    -0.545 OA
ENDBRANCH   8   9
ENDBRANCH   1   7
BRANCH   4  12
ATOM     12  O   UNL     1      25.805  23.635  45.708  1.00  0.00    -0.504 OA
ATOM     13  H   UNL     1      25.847  22.959  44.956  1.00  0.00     0.293 HD
ENDBRANCH   4  12
BRANCH   6  14
ATOM     14  O   UNL     1      28.191  24.686  44.621  1.00  0.00    -0.504 OA
ATOM     15  H   UNL     1      27.498  25.242  44.134  1.00  0.00     0.293 HD
ENDBRANCH   6  14
TORSDOF 4
ENDMDL
MODEL 9
REMARK VINA RESULT:    -5.142      2.119      2.832
REMARK INTER + INTRA:          -6.178
REMARK INTER:                  -6.048
REMARK INTRA:                  -0.131
REMARK UNBOUND:                -0.135
REMARK SMILES O=C([O-])C=Cc1ccc(O)c(O)c1
REMARK SMILES IDX 6 1 13 2 7 3 11 4 8 5 9 6 5 7 4 8 2 9 1 10 3 11 12 12 10 14
REMARK H PARENT 12 13 10 15
REMARK Flexibility Score: inf
ROOT
ATOM      1  C   UNL     1      28.764  23.743  49.201  1.00  0.00    -0.022 A 
ATOM      2  C   UNL     1      29.580  22.634  49.500  1.00  0.00     0.058 A 
ATOM      3  C   UNL     1      28.238  24.501  50.259  1.00  0.00     0.012 A 
ATOM      4  C   UNL     1      29.882  22.307  50.831  1.00  0.00     0.157 A 
ATOM      5  C   UNL     1      28.539  24.178  51.585  1.00  0.00     0.051 A 
ATOM      6  C   UNL     1      29.360  23.087  51.878  1.00  0.00     0.157 A 
ENDROOT
BRANCH   1   7
ATOM      7  C   UNL     1      28.407  24.121  47.812  1.00  0.00     0.010 C 
ATOM      8  C   UNL     1      27.229  23.832  47.242  1.00  0.00     0.025 C 
BRANCH   8   9
ATOM      9  C   UNL     1      26.913  24.212  45.854  1.00  0.00     0.064 C 
ATOM     10  O   UNL     1      25.732  24.171  45.418  1.00  0.00    -0.545 OA
ATOM     11  O   UNL     1      27.938  24.621  45.009  1.00  0.00    -0.545 OA
ENDBRANCH   8   9
ENDBRANCH   1   7
BRANCH   4  12
ATOM     12  O   UNL     1      30.692  21.209  51.117  1.00  0.00    -0.504 OA
ATOM     13  H   UNL     1      30.370  20.449  51.702  1.00  0.00     0.293 HD
ENDBRANCH   4  12
BRANCH   6  14
ATOM     14  O   UNL     1      29.645  22.789  53.210  1.00  0.00    -0.504 OA
ATOM     15  H   UNL     1      30.402  22.170  53.473  1.00  0.00     0.293 HD
ENDBRANCH   6  14
TORSDOF 4
ENDMDL
