MODEL 1
REMARK VINA RESULT:    -1.890      0.000      0.000
REMARK INTER + INTRA:          -1.890
REMARK INTER:                  -1.890
REMARK INTRA:                   0.000
REMARK UNBOUND:                 0.000
REMARK SMILES CC(=O)[O-]
REMARK SMILES IDX 1 1 2 2 3 3 4 4
REMARK H PARENT
REMARK Flexibility Score: inf
ROOT
ATOM      1  C   UNL     1      60.751  -0.176  96.747  1.00  0.00     0.063 C 
ATOM      2  C   UNL     1      60.362  -0.256  95.311  1.00  0.00     0.038 C 
ATOM      3  O   UNL     1      59.370   0.393  94.887  1.00  0.00    -0.550 OA
ATOM      4  O   UNL     1      61.125  -1.005  94.424  1.00  0.00    -0.550 OA
ENDROOT
TORSDOF 0
ENDMDL
MODEL 2
REMARK VINA RESULT:    -1.885      0.109      1.618
REMARK INTER + INTRA:          -1.885
REMARK INTER:                  -1.885
REMARK INTRA:                   0.000
REMARK UNBOUND:                 0.000
REMARK SMILES CC(=O)[O-]
REMARK SMILES IDX 1 1 2 2 3 3 4 4
REMARK H PARENT
REMARK Flexibility Score: inf
ROOT
ATOM      1  C   UNL     1      60.750  -0.114  96.749  1.00  0.00     0.063 C 
ATOM      2  C   UNL     1      60.412  -0.268  95.306  1.00  0.00     0.038 C 
ATOM      3  O   UNL     1      61.125  -0.992  94.563  1.00  0.00    -0.550 OA
ATOM      4  O   UNL     1      59.277   0.343  94.788  1.00  0.00    -0.550 OA
ENDROOT
TORSDOF 0
ENDMDL
MODEL 3
REMARK VINA RESULT:    -1.851      1.721      2.014
REMARK INTER + INTRA:          -1.851
REMARK INTER:                  -1.851
REMARK INTRA:                   0.000
REMARK UNBOUND:                 0.000
REMARK SMILES CC(=O)[O-]
REMARK SMILES IDX 1 1 2 2 3 3 4 4
REMARK H PARENT
REMARK Flexibility Score: inf
ROOT
ATOM      1  C   UNL     1      61.078  -0.988  94.865  1.00  0.00     0.063 C 
ATOM      2  C   UNL     1      60.239  -0.424  95.960  1.00  0.00     0.038 C 
ATOM      3  O   UNL     1      59.071  -0.854  96.148  1.00  0.00    -0.550 OA
ATOM      4  O   UNL     1      60.764   0.540  96.812  1.00  0.00    -0.550 OA
ENDROOT
TORSDOF 0
ENDMDL
MODEL 4
REMARK VINA RESULT:    -1.847      1.785      2.135
REMARK INTER + INTRA:          -1.847
REMARK INTER:                  -1.847
REMARK INTRA:                   0.000
REMARK UNBOUND:                 0.000
REMARK SMILES CC(=O)[O-]
REMARK SMILES IDX 1 1 2 2 3 3 4 4
REMARK H PARENT
REMARK Flexibility Score: inf
ROOT
ATOM      1  C   UNL     1      61.090  -0.964  94.901  1.00  0.00     0.063 C 
ATOM      2  C   UNL     1      60.293  -0.427  96.040  1.00  0.00     0.038 C 
ATOM      3  O   UNL     1      60.782   0.453  96.795  1.00  0.00    -0.550 OA
ATOM      4  O   UNL     1      58.987  -0.857  96.239  1.00  0.00    -0.550 OA
ENDROOT
TORSDOF 0
ENDMDL
MODEL 5
REMARK VINA RESULT:    -1.789      1.510      1.623
REMARK INTER + INTRA:          -1.789
REMARK INTER:                  -1.789
REMARK INTRA:                   0.000
REMARK UNBOUND:                 0.000
REMARK SMILES CC(=O)[O-]
REMARK SMILES IDX 1 1 2 2 3 3 4 4
REMARK H PARENT
REMARK Flexibility Score: inf
ROOT
ATOM      1  C   UNL     1      58.831  -0.620  96.023  1.00  0.00     0.063 C 
ATOM      2  C   UNL     1      60.233  -0.126  95.914  1.00  0.00     0.038 C 
ATOM      3  O   UNL     1      60.686   0.685  96.763  1.00  0.00    -0.550 OA
ATOM      4  O   UNL     1      61.062  -0.602  94.906  1.00  0.00    -0.550 OA
ENDROOT
TORSDOF 0
ENDMDL
MODEL 6
REMARK VINA RESULT:    -1.615      1.987      2.216
REMARK INTER + INTRA:          -1.615
REMARK INTER:                  -1.615
REMARK INTRA:                   0.000
REMARK UNBOUND:                 0.000
REMARK SMILES CC(=O)[O-]
REMARK SMILES IDX 1 1 2 2 3 3 4 4
REMARK H PARENT
REMARK Flexibility Score: inf
ROOT
ATOM      1  C   UNL     1      60.761  -0.680  94.952  1.00  0.00     0.063 C 
ATOM      2  C   UNL     1      60.634  -1.531  93.735  1.00  0.00     0.038 C 
ATOM      3  O   UNL     1      60.329  -1.012  92.630  1.00  0.00    -0.550 OA
ATOM      4  O   UNL     1      60.905  -2.892  93.805  1.00  0.00    -0.550 OA
ENDROOT
TORSDOF 0
ENDMDL
MODEL 7
REMARK VINA RESULT:    -1.607     22.279     22.637
REMARK INTER + INTRA:          -1.607
REMARK INTER:                  -1.607
REMARK INTRA:                   0.000
REMARK UNBOUND:                 0.000
REMARK SMILES CC(=O)[O-]
REMARK SMILES IDX 1 1 2 2 3 3 4 4
REMARK H PARENT
REMARK Flexibility Score: inf
ROOT
ATOM      1  C   UNL     1      48.376  -8.119  78.812  1.00  0.00     0.063 C 
ATOM      2  C   UNL     1      48.305  -7.351  77.537  1.00  0.00     0.038 C 
ATOM      3  O   UNL     1      47.235  -7.321  76.875  1.00  0.00    -0.550 OA
ATOM      4  O   UNL     1      49.404  -6.621  77.102  1.00  0.00    -0.550 OA
ENDROOT
TORSDOF 0
ENDMDL
MODEL 8
REMARK VINA RESULT:    -1.482     21.960     22.396
REMARK INTER + INTRA:          -1.482
REMARK INTER:                  -1.482
REMARK INTRA:                   0.000
REMARK UNBOUND:                 0.000
REMARK SMILES CC(=O)[O-]
REMARK SMILES IDX 1 1 2 2 3 3 4 4
REMARK H PARENT
REMARK Flexibility Score: inf
ROOT
ATOM      1  C   UNL     1      47.883  -7.283  76.875  1.00  0.00     0.063 C 
ATOM      2  C   UNL     1      48.846  -6.226  77.295  1.00  0.00     0.038 C 
ATOM      3  O   UNL     1      49.877  -6.533  77.949  1.00  0.00    -0.550 OA
ATOM      4  O   UNL     1      48.637  -4.905  76.919  1.00  0.00    -0.550 OA
ENDROOT
TORSDOF 0
ENDMDL
MODEL 9
REMARK VINA RESULT:    -0.273     13.300     13.692
REMARK INTER + INTRA:          -0.273
REMARK INTER:                  -0.273
REMARK INTRA:                   0.000
REMARK UNBOUND:                 0.000
REMARK SMILES CC(=O)[O-]
REMARK SMILES IDX 1 1 2 2 3 3 4 4
REMARK H PARENT
REMARK Flexibility Score: inf
ROOT
ATOM      1  C   UNL     1      60.673   6.655  82.308  1.00  0.00     0.063 C 
ATOM      2  C   UNL     1      60.945   6.762  83.769  1.00  0.00     0.038 C 
ATOM      3  O   UNL     1      60.965   7.890  84.328  1.00  0.00    -0.550 OA
ATOM      4  O   UNL     1      61.125   5.614  84.530  1.00  0.00    -0.550 OA
ENDROOT
TORSDOF 0
ENDMDL
