MODEL 1
REMARK VINA RESULT:    -3.349      0.000      0.000
REMARK INTER + INTRA:          -7.702
REMARK INTER:                  -5.796
REMARK INTRA:                  -1.906
REMARK UNBOUND:                -1.906
REMARK SMILES CCCCCCCCCCCCCCO
REMARK SMILES IDX 8 1 7 2 6 3 5 4 4 5 3 6 2 7 1 8 9 9 10 10 11 11 12 12 13 13
REMARK SMILES IDX 14 14 15 15
REMARK H PARENT 15 16
REMARK Flexibility Score: inf
ROOT
ATOM      1  C   UNL     1     127.072 146.341 120.562  1.00  0.00     0.000 C 
ENDROOT
BRANCH   1   2
ATOM      2  C   UNL     1     127.383 145.305 119.467  1.00  0.00    -0.000 C 
BRANCH   2   3
ATOM      3  C   UNL     1     127.287 143.858 119.980  1.00  0.00    -0.000 C 
BRANCH   3   4
ATOM      4  C   UNL     1     128.634 143.116 119.911  1.00  0.00    -0.000 C 
BRANCH   4   5
ATOM      5  C   UNL     1     129.795 144.036 119.500  1.00  0.00    -0.000 C 
BRANCH   5   6
ATOM      6  C   UNL     1     130.740 144.355 120.671  1.00  0.00    -0.000 C 
BRANCH   6   7
ATOM      7  C   UNL     1     130.818 145.860 120.972  1.00  0.00    -0.003 C 
ATOM      8  C   UNL     1     130.922 146.713 119.707  1.00  0.00     0.004 C 
ENDBRANCH   6   7
ENDBRANCH   5   6
ENDBRANCH   4   5
ENDBRANCH   3   4
ENDBRANCH   2   3
ENDBRANCH   1   2
BRANCH   1   9
ATOM      9  C   UNL     1     127.163 145.748 121.978  1.00  0.00     0.000 C 
BRANCH   9  10
ATOM     10  C   UNL     1     127.848 146.694 122.975  1.00  0.00     0.000 C 
BRANCH  10  11
ATOM     11  C   UNL     1     128.222 145.954 124.266  1.00  0.00     0.000 C 
BRANCH  11  12
ATOM     12  C   UNL     1     128.903 144.613 123.954  1.00  0.00     0.002 C 
BRANCH  12  13
ATOM     13  C   UNL     1     128.557 143.522 124.979  1.00  0.00     0.028 C 
BRANCH  13  14
ATOM     14  C   UNL     1     128.219 142.177 124.324  1.00  0.00     0.156 C 
BRANCH  14  15
ATOM     15  O   UNL     1     127.436 142.381 123.179  1.00  0.00    -0.396 OA
ATOM     16  H   UNL     1     127.914 143.050 122.623  1.00  0.00     0.210 HD
ENDBRANCH  14  15
ENDBRANCH  13  14
ENDBRANCH  12  13
ENDBRANCH  11  12
ENDBRANCH  10  11
ENDBRANCH   9  10
ENDBRANCH   1   9
TORSDOF 13
ENDMDL
MODEL 2
REMARK VINA RESULT:    -3.303      1.875      3.552
REMARK INTER + INTRA:          -7.622
REMARK INTER:                  -5.677
REMARK INTRA:                  -1.945
REMARK UNBOUND:                -1.906
REMARK SMILES CCCCCCCCCCCCCCO
REMARK SMILES IDX 8 1 7 2 6 3 5 4 4 5 3 6 2 7 1 8 9 9 10 10 11 11 12 12 13 13
REMARK SMILES IDX 14 14 15 15
REMARK H PARENT 15 16
REMARK Flexibility Score: inf
ROOT
ATOM      1  C   UNL     1     128.911 145.308 123.324  1.00  0.00     0.000 C 
ENDROOT
BRANCH   1   2
ATOM      2  C   UNL     1     128.096 146.508 122.810  1.00  0.00    -0.000 C 
BRANCH   2   3
ATOM      3  C   UNL     1     126.929 146.082 121.901  1.00  0.00    -0.000 C 
BRANCH   3   4
ATOM      4  C   UNL     1     127.120 146.536 120.443  1.00  0.00    -0.000 C 
BRANCH   4   5
ATOM      5  C   UNL     1     127.167 145.356 119.459  1.00  0.00    -0.000 C 
BRANCH   5   6
ATOM      6  C   UNL     1     128.597 145.029 118.995  1.00  0.00    -0.000 C 
BRANCH   6   7
ATOM      7  C   UNL     1     129.633 146.029 119.531  1.00  0.00    -0.003 C 
ATOM      8  C   UNL     1     130.886 145.347 120.081  1.00  0.00     0.004 C 
ENDBRANCH   6   7
ENDBRANCH   5   6
ENDBRANCH   4   5
ENDBRANCH   3   4
ENDBRANCH   2   3
ENDBRANCH   1   2
BRANCH   1   9
ATOM      9  C   UNL     1     128.293 143.959 122.922  1.00  0.00     0.000 C 
BRANCH   9  10
ATOM     10  C   UNL     1     129.330 142.974 122.362  1.00  0.00     0.000 C 
BRANCH  10  11
ATOM     11  C   UNL     1     128.815 142.301 121.083  1.00  0.00     0.000 C 
BRANCH  11  12
ATOM     12  C   UNL     1     127.301 142.052 121.164  1.00  0.00     0.002 C 
BRANCH  12  13
ATOM     13  C   UNL     1     126.875 140.764 120.443  1.00  0.00     0.028 C 
BRANCH  13  14
ATOM     14  C   UNL     1     127.369 139.496 121.149  1.00  0.00     0.156 C 
BRANCH  14  15
ATOM     15  O   UNL     1     127.460 139.717 122.531  1.00  0.00    -0.396 OA
ATOM     16  H   UNL     1     127.156 140.649 122.690  1.00  0.00     0.210 HD
ENDBRANCH  14  15
ENDBRANCH  13  14
ENDBRANCH  12  13
ENDBRANCH  11  12
ENDBRANCH  10  11
ENDBRANCH   9  10
ENDBRANCH   1   9
TORSDOF 13
ENDMDL
MODEL 3
REMARK VINA RESULT:    -3.260      2.857      4.202
REMARK INTER + INTRA:          -7.549
REMARK INTER:                  -5.520
REMARK INTRA:                  -2.029
REMARK UNBOUND:                -1.906
REMARK SMILES CCCCCCCCCCCCCCO
REMARK SMILES IDX 8 1 7 2 6 3 5 4 4 5 3 6 2 7 1 8 9 9 10 10 11 11 12 12 13 13
REMARK SMILES IDX 14 14 15 15
REMARK H PARENT 15 16
REMARK Flexibility Score: inf
ROOT
ATOM      1  C   UNL     1     127.174 145.784 121.562  1.00  0.00     0.000 C 
ENDROOT
BRANCH   1   2
ATOM      2  C   UNL     1     127.022 146.481 120.199  1.00  0.00    -0.000 C 
BRANCH   2   3
ATOM      3  C   UNL     1     127.222 145.517 119.017  1.00  0.00    -0.000 C 
BRANCH   3   4
ATOM      4  C   UNL     1     127.625 144.103 119.469  1.00  0.00    -0.000 C 
BRANCH   4   5
ATOM      5  C   UNL     1     129.030 143.706 118.987  1.00  0.00    -0.000 C 
BRANCH   5   6
ATOM      6  C   UNL     1     129.737 142.740 119.953  1.00  0.00    -0.000 C 
BRANCH   6   7
ATOM      7  C   UNL     1     131.265 142.895 119.926  1.00  0.00    -0.003 C 
ATOM      8  C   UNL     1     131.904 142.716 121.303  1.00  0.00     0.004 C 
ENDBRANCH   6   7
ENDBRANCH   5   6
ENDBRANCH   4   5
ENDBRANCH   3   4
ENDBRANCH   2   3
ENDBRANCH   1   2
BRANCH   1   9
ATOM      9  C   UNL     1     128.320 146.373 122.401  1.00  0.00     0.000 C 
BRANCH   9  10
ATOM     10  C   UNL     1     129.589 145.508 122.363  1.00  0.00     0.000 C 
BRANCH  10  11
ATOM     11  C   UNL     1     130.810 146.344 121.957  1.00  0.00     0.000 C 
BRANCH  11  12
ATOM     12  C   UNL     1     130.823 146.601 120.443  1.00  0.00     0.002 C 
BRANCH  12  13
ATOM     13  C   UNL     1     132.233 146.508 119.840  1.00  0.00     0.028 C 
BRANCH  13  14
ATOM     14  C   UNL     1     133.326 146.362 120.904  1.00  0.00     0.156 C 
BRANCH  14  15
ATOM     15  O   UNL     1     134.559 146.792 120.394  1.00  0.00    -0.396 OA
ATOM     16  H   UNL     1     135.204 146.764 121.148  1.00  0.00     0.210 HD
ENDBRANCH  14  15
ENDBRANCH  13  14
ENDBRANCH  12  13
ENDBRANCH  11  12
ENDBRANCH  10  11
ENDBRANCH   9  10
ENDBRANCH   1   9
TORSDOF 13
ENDMDL
MODEL 4
REMARK VINA RESULT:    -3.241      1.482      4.002
REMARK INTER + INTRA:          -7.515
REMARK INTER:                  -5.822
REMARK INTRA:                  -1.693
REMARK UNBOUND:                -1.906
REMARK SMILES CCCCCCCCCCCCCCO
REMARK SMILES IDX 8 1 7 2 6 3 5 4 4 5 3 6 2 7 1 8 9 9 10 10 11 11 12 12 13 13
REMARK SMILES IDX 14 14 15 15
REMARK H PARENT 15 16
REMARK Flexibility Score: inf
ROOT
ATOM      1  C   UNL     1     128.514 144.665 119.007  1.00  0.00     0.000 C 
ENDROOT
BRANCH   1   2
ATOM      2  C   UNL     1     128.236 145.995 119.730  1.00  0.00    -0.000 C 
BRANCH   2   3
ATOM      3  C   UNL     1     126.875 146.003 120.448  1.00  0.00    -0.000 C 
BRANCH   3   4
ATOM      4  C   UNL     1     127.009 146.226 121.965  1.00  0.00    -0.000 C 
BRANCH   4   5
ATOM      5  C   UNL     1     128.469 146.168 122.444  1.00  0.00    -0.000 C 
BRANCH   5   6
ATOM      6  C   UNL     1     128.585 145.988 123.967  1.00  0.00    -0.000 C 
BRANCH   6   7
ATOM      7  C   UNL     1     127.214 145.874 124.652  1.00  0.00    -0.003 C 
ATOM      8  C   UNL     1     127.284 145.162 126.004  1.00  0.00     0.004 C 
ENDBRANCH   6   7
ENDBRANCH   5   6
ENDBRANCH   4   5
ENDBRANCH   3   4
ENDBRANCH   2   3
ENDBRANCH   1   2
BRANCH   1   9
ATOM      9  C   UNL     1     129.724 143.918 119.593  1.00  0.00     0.000 C 
BRANCH   9  10
ATOM     10  C   UNL     1     129.355 142.537 120.156  1.00  0.00     0.000 C 
BRANCH  10  11
ATOM     11  C   UNL     1     127.839 142.413 120.355  1.00  0.00     0.000 C 
BRANCH  11  12
ATOM     12  C   UNL     1     127.505 141.983 121.791  1.00  0.00     0.002 C 
BRANCH  12  13
ATOM     13  C   UNL     1     128.537 142.485 122.812  1.00  0.00     0.028 C 
BRANCH  13  14
ATOM     14  C   UNL     1     128.217 142.046 124.246  1.00  0.00     0.156 C 
BRANCH  14  15
ATOM     15  O   UNL     1     128.129 140.648 124.315  1.00  0.00    -0.396 OA
ATOM     16  H   UNL     1     128.959 140.291 123.904  1.00  0.00     0.210 HD
ENDBRANCH  14  15
ENDBRANCH  13  14
ENDBRANCH  12  13
ENDBRANCH  11  12
ENDBRANCH  10  11
ENDBRANCH   9  10
ENDBRANCH   1   9
TORSDOF 13
ENDMDL
MODEL 5
REMARK VINA RESULT:    -3.240      3.171      5.630
REMARK INTER + INTRA:          -7.514
REMARK INTER:                  -5.978
REMARK INTRA:                  -1.536
REMARK UNBOUND:                -1.906
REMARK SMILES CCCCCCCCCCCCCCO
REMARK SMILES IDX 8 1 7 2 6 3 5 4 4 5 3 6 2 7 1 8 9 9 10 10 11 11 12 12 13 13
REMARK SMILES IDX 14 14 15 15
REMARK H PARENT 15 16
REMARK Flexibility Score: inf
ROOT
ATOM      1  C   UNL     1     130.554 144.059 121.595  1.00  0.00     0.000 C 
ENDROOT
BRANCH   1   2
ATOM      2  C   UNL     1     129.496 143.003 121.232  1.00  0.00    -0.000 C 
BRANCH   2   3
ATOM      3  C   UNL     1     129.078 143.070 119.753  1.00  0.00    -0.000 C 
BRANCH   3   4
ATOM      4  C   UNL     1     127.652 143.618 119.565  1.00  0.00    -0.000 C 
BRANCH   4   5
ATOM      5  C   UNL     1     127.632 144.988 118.869  1.00  0.00    -0.000 C 
BRANCH   5   6
ATOM      6  C   UNL     1     127.315 146.140 119.839  1.00  0.00    -0.000 C 
BRANCH   6   7
ATOM      7  C   UNL     1     126.916 145.640 121.236  1.00  0.00    -0.003 C 
ATOM      8  C   UNL     1     127.607 146.411 122.361  1.00  0.00     0.004 C 
ENDBRANCH   6   7
ENDBRANCH   5   6
ENDBRANCH   4   5
ENDBRANCH   3   4
ENDBRANCH   2   3
ENDBRANCH   1   2
BRANCH   1   9
ATOM      9  C   UNL     1     131.149 144.748 120.355  1.00  0.00     0.000 C 
BRANCH   9  10
ATOM     10  C   UNL     1     130.823 146.248 120.295  1.00  0.00     0.000 C 
BRANCH  10  11
ATOM     11  C   UNL     1     131.998 147.042 119.709  1.00  0.00     0.000 C 
BRANCH  11  12
ATOM     12  C   UNL     1     133.341 146.479 120.199  1.00  0.00     0.002 C 
BRANCH  12  13
ATOM     13  C   UNL     1     134.387 146.386 119.077  1.00  0.00     0.028 C 
BRANCH  13  14
ATOM     14  C   UNL     1     135.826 146.420 119.602  1.00  0.00     0.156 C 
BRANCH  14  15
ATOM     15  O   UNL     1     135.883 147.125 120.813  1.00  0.00    -0.396 OA
ATOM     16  H   UNL     1     136.455 146.592 121.425  1.00  0.00     0.210 HD
ENDBRANCH  14  15
ENDBRANCH  13  14
ENDBRANCH  12  13
ENDBRANCH  11  12
ENDBRANCH  10  11
ENDBRANCH   9  10
ENDBRANCH   1   9
TORSDOF 13
ENDMDL
MODEL 6
REMARK VINA RESULT:    -3.208      2.531      4.499
REMARK INTER + INTRA:          -7.459
REMARK INTER:                  -6.302
REMARK INTRA:                  -1.157
REMARK UNBOUND:                -1.906
REMARK SMILES CCCCCCCCCCCCCCO
REMARK SMILES IDX 8 1 7 2 6 3 5 4 4 5 3 6 2 7 1 8 9 9 10 10 11 11 12 12 13 13
REMARK SMILES IDX 14 14 15 15
REMARK H PARENT 15 16
REMARK Flexibility Score: inf
ROOT
ATOM      1  C   UNL     1     130.623 144.851 119.924  1.00  0.00     0.000 C 
ENDROOT
BRANCH   1   2
ATOM      2  C   UNL     1     130.500 146.373 119.740  1.00  0.00    -0.000 C 
BRANCH   2   3
ATOM      3  C   UNL     1     131.864 147.084 119.775  1.00  0.00    -0.000 C 
BRANCH   3   4
ATOM      4  C   UNL     1     132.718 146.667 120.986  1.00  0.00    -0.000 C 
BRANCH   4   5
ATOM      5  C   UNL     1     134.165 146.323 120.597  1.00  0.00    -0.000 C 
BRANCH   5   6
ATOM      6  C   UNL     1     134.382 146.311 119.074  1.00  0.00    -0.000 C 
BRANCH   6   7
ATOM      7  C   UNL     1     135.014 145.000 118.580  1.00  0.00    -0.003 C 
ATOM      8  C   UNL     1     134.040 143.822 118.615  1.00  0.00     0.004 C 
ENDBRANCH   6   7
ENDBRANCH   5   6
ENDBRANCH   4   5
ENDBRANCH   3   4
ENDBRANCH   2   3
ENDBRANCH   1   2
BRANCH   1   9
ATOM      9  C   UNL     1     129.292 144.119 119.684  1.00  0.00     0.000 C 
BRANCH   9  10
ATOM     10  C   UNL     1     128.327 144.917 118.794  1.00  0.00     0.000 C 
BRANCH  10  11
ATOM     11  C   UNL     1     127.170 145.494 119.619  1.00  0.00     0.000 C 
BRANCH  11  12
ATOM     12  C   UNL     1     127.266 145.053 121.087  1.00  0.00     0.002 C 
BRANCH  12  13
ATOM     13  C   UNL     1     127.451 146.238 122.048  1.00  0.00     0.028 C 
BRANCH  13  14
ATOM     14  C   UNL     1     128.726 146.125 122.891  1.00  0.00     0.156 C 
BRANCH  14  15
ATOM     15  O   UNL     1     128.745 147.125 123.874  1.00  0.00    -0.396 OA
ATOM     16  H   UNL     1     129.584 147.639 123.740  1.00  0.00     0.210 HD
ENDBRANCH  14  15
ENDBRANCH  13  14
ENDBRANCH  12  13
ENDBRANCH  11  12
ENDBRANCH  10  11
ENDBRANCH   9  10
ENDBRANCH   1   9
TORSDOF 13
ENDMDL
MODEL 7
REMARK VINA RESULT:    -3.204      1.242      3.251
REMARK INTER + INTRA:          -7.452
REMARK INTER:                  -5.560
REMARK INTRA:                  -1.892
REMARK UNBOUND:                -1.906
REMARK SMILES CCCCCCCCCCCCCCO
REMARK SMILES IDX 8 1 7 2 6 3 5 4 4 5 3 6 2 7 1 8 9 9 10 10 11 11 12 12 13 13
REMARK SMILES IDX 14 14 15 15
REMARK H PARENT 15 16
REMARK Flexibility Score: inf
ROOT
ATOM      1  C   UNL     1     127.047 145.624 121.380  1.00  0.00     0.000 C 
ENDROOT
BRANCH   1   2
ATOM      2  C   UNL     1     127.369 146.750 122.378  1.00  0.00    -0.000 C 
BRANCH   2   3
ATOM      3  C   UNL     1     128.661 146.485 123.170  1.00  0.00    -0.000 C 
BRANCH   3   4
ATOM      4  C   UNL     1     129.238 145.083 122.907  1.00  0.00    -0.000 C 
BRANCH   4   5
ATOM      5  C   UNL     1     130.658 145.130 122.318  1.00  0.00    -0.000 C 
BRANCH   5   6
ATOM      6  C   UNL     1     130.895 146.375 121.446  1.00  0.00    -0.000 C 
BRANCH   6   7
ATOM      7  C   UNL     1     131.120 146.024 119.967  1.00  0.00    -0.003 C 
ATOM      8  C   UNL     1     131.474 144.551 119.754  1.00  0.00     0.004 C 
ENDBRANCH   6   7
ENDBRANCH   5   6
ENDBRANCH   4   5
ENDBRANCH   3   4
ENDBRANCH   2   3
ENDBRANCH   1   2
BRANCH   1   9
ATOM      9  C   UNL     1     127.394 146.003 119.931  1.00  0.00     0.000 C 
BRANCH   9  10
ATOM     10  C   UNL     1     127.787 144.788 119.077  1.00  0.00     0.000 C 
BRANCH  10  11
ATOM     11  C   UNL     1     127.250 143.489 119.691  1.00  0.00     0.000 C 
BRANCH  11  12
ATOM     12  C   UNL     1     128.396 142.619 120.228  1.00  0.00     0.002 C 
BRANCH  12  13
ATOM     13  C   UNL     1     127.894 141.417 121.043  1.00  0.00     0.028 C 
BRANCH  13  14
ATOM     14  C   UNL     1     128.478 141.374 122.460  1.00  0.00     0.156 C 
BRANCH  14  15
ATOM     15  O   UNL     1     127.625 142.032 123.356  1.00  0.00    -0.396 OA
ATOM     16  H   UNL     1     126.699 141.876 123.033  1.00  0.00     0.210 HD
ENDBRANCH  14  15
ENDBRANCH  13  14
ENDBRANCH  12  13
ENDBRANCH  11  12
ENDBRANCH  10  11
ENDBRANCH   9  10
ENDBRANCH   1   9
TORSDOF 13
ENDMDL
MODEL 8
REMARK VINA RESULT:    -3.196      2.295      3.877
REMARK INTER + INTRA:          -7.438
REMARK INTER:                  -5.654
REMARK INTRA:                  -1.784
REMARK UNBOUND:                -1.906
REMARK SMILES CCCCCCCCCCCCCCO
REMARK SMILES IDX 8 1 7 2 6 3 5 4 4 5 3 6 2 7 1 8 9 9 10 10 11 11 12 12 13 13
REMARK SMILES IDX 14 14 15 15
REMARK H PARENT 15 16
REMARK Flexibility Score: inf
ROOT
ATOM      1  C   UNL     1     126.972 145.695 121.351  1.00  0.00     0.000 C 
ENDROOT
BRANCH   1   2
ATOM      2  C   UNL     1     126.875 146.401 119.987  1.00  0.00    -0.000 C 
BRANCH   2   3
ATOM      3  C   UNL     1     127.673 145.676 118.889  1.00  0.00    -0.000 C 
BRANCH   3   4
ATOM      4  C   UNL     1     127.603 144.144 119.021  1.00  0.00    -0.000 C 
BRANCH   4   5
ATOM      5  C   UNL     1     128.966 143.518 119.358  1.00  0.00    -0.000 C 
BRANCH   5   6
ATOM      6  C   UNL     1     128.881 142.496 120.504  1.00  0.00    -0.000 C 
BRANCH   6   7
ATOM      7  C   UNL     1     127.431 142.150 120.877  1.00  0.00    -0.003 C 
ATOM      8  C   UNL     1     127.055 140.710 120.524  1.00  0.00     0.004 C 
ENDBRANCH   6   7
ENDBRANCH   5   6
ENDBRANCH   4   5
ENDBRANCH   3   4
ENDBRANCH   2   3
ENDBRANCH   1   2
BRANCH   1   9
ATOM      9  C   UNL     1     127.096 146.687 122.520  1.00  0.00     0.000 C 
BRANCH   9  10
ATOM     10  C   UNL     1     128.502 146.704 123.138  1.00  0.00     0.000 C 
BRANCH  10  11
ATOM     11  C   UNL     1     129.268 145.419 122.797  1.00  0.00     0.000 C 
BRANCH  11  12
ATOM     12  C   UNL     1     130.692 145.737 122.320  1.00  0.00     0.002 C 
BRANCH  12  13
ATOM     13  C   UNL     1     130.716 146.414 120.941  1.00  0.00     0.028 C 
BRANCH  13  14
ATOM     14  C   UNL     1     131.875 145.931 120.061  1.00  0.00     0.156 C 
BRANCH  14  15
ATOM     15  O   UNL     1     132.839 145.283 120.845  1.00  0.00    -0.396 OA
ATOM     16  H   UNL     1     132.416 145.105 121.726  1.00  0.00     0.210 HD
ENDBRANCH  14  15
ENDBRANCH  13  14
ENDBRANCH  12  13
ENDBRANCH  11  12
ENDBRANCH  10  11
ENDBRANCH   9  10
ENDBRANCH   1   9
TORSDOF 13
ENDMDL
MODEL 9
REMARK VINA RESULT:    -3.194      2.425      4.679
REMARK INTER + INTRA:          -7.434
REMARK INTER:                  -5.322
REMARK INTRA:                  -2.113
REMARK UNBOUND:                -1.906
REMARK SMILES CCCCCCCCCCCCCCO
REMARK SMILES IDX 8 1 7 2 6 3 5 4 4 5 3 6 2 7 1 8 9 9 10 10 11 11 12 12 13 13
REMARK SMILES IDX 14 14 15 15
REMARK H PARENT 15 16
REMARK Flexibility Score: inf
ROOT
ATOM      1  C   UNL     1     128.534 144.587 118.741  1.00  0.00     0.000 C 
ENDROOT
BRANCH   1   2
ATOM      2  C   UNL     1     127.202 145.014 119.383  1.00  0.00    -0.000 C 
BRANCH   2   3
ATOM      3  C   UNL     1     127.247 144.975 120.920  1.00  0.00    -0.000 C 
BRANCH   3   4
ATOM      4  C   UNL     1     127.128 146.373 121.551  1.00  0.00    -0.000 C 
BRANCH   4   5
ATOM      5  C   UNL     1     128.171 146.614 122.654  1.00  0.00    -0.000 C 
BRANCH   5   6
ATOM      6  C   UNL     1     128.692 145.305 123.272  1.00  0.00    -0.000 C 
BRANCH   6   7
ATOM      7  C   UNL     1     130.152 145.414 123.738  1.00  0.00    -0.003 C 
ATOM      8  C   UNL     1     130.959 144.146 123.460  1.00  0.00     0.004 C 
ENDBRANCH   6   7
ENDBRANCH   5   6
ENDBRANCH   4   5
ENDBRANCH   3   4
ENDBRANCH   2   3
ENDBRANCH   1   2
BRANCH   1   9
ATOM      9  C   UNL     1     129.503 143.960 119.758  1.00  0.00     0.000 C 
BRANCH   9  10
ATOM     10  C   UNL     1     130.872 144.656 119.780  1.00  0.00     0.000 C 
BRANCH  10  11
ATOM     11  C   UNL     1     130.712 146.182 119.817  1.00  0.00     0.000 C 
BRANCH  11  12
ATOM     12  C   UNL     1     131.751 146.822 120.750  1.00  0.00     0.002 C 
BRANCH  12  13
ATOM     13  C   UNL     1     133.031 145.980 120.874  1.00  0.00     0.028 C 
BRANCH  13  14
ATOM     14  C   UNL     1     133.956 146.468 121.995  1.00  0.00     0.156 C 
BRANCH  14  15
ATOM     15  O   UNL     1     133.212 147.125 122.984  1.00  0.00    -0.396 OA
ATOM     16  H   UNL     1     132.561 146.463 123.336  1.00  0.00     0.210 HD
ENDBRANCH  14  15
ENDBRANCH  13  14
ENDBRANCH  12  13
ENDBRANCH  11  12
ENDBRANCH  10  11
ENDBRANCH   9  10
ENDBRANCH   1   9
TORSDOF 13
ENDMDL
