MODEL 1
REMARK VINA RESULT:    -5.244      0.000      0.000
REMARK INTER + INTRA:          -5.772
REMARK INTER:                  -5.551
REMARK INTRA:                  -0.222
REMARK UNBOUND:                -0.222
REMARK SMILES CC1=C[C@H]2C(=C(C)CC[C@@H]2C(C)C)CC1
REMARK SMILES IDX 1 1 2 2 3 3 4 4 10 5 9 6 8 7 6 8 5 9 14 10 15 11 7 12 11 13
REMARK SMILES IDX 12 14 13 15
REMARK H PARENT
REMARK Flexibility Score: inf
ROOT
ATOM      1  C   UNL     1      19.183  62.753  13.821  1.00  0.00     0.039 C 
ATOM      2  C   UNL     1      20.384  63.120  14.649  1.00  0.00    -0.076 C 
ATOM      3  C   UNL     1      21.595  62.620  14.306  1.00  0.00    -0.020 C 
ATOM      4  C   UNL     1      22.878  62.970  15.047  1.00  0.00     0.041 C 
ATOM      5  C   UNL     1      23.974  61.856  14.874  1.00  0.00     0.003 C 
ATOM      6  C   UNL     1      24.796  61.689  16.172  1.00  0.00     0.009 C 
ATOM      7  C   UNL     1      23.880  61.474  17.369  1.00  0.00     0.031 C 
ATOM      8  C   UNL     1      22.956  62.646  17.557  1.00  0.00    -0.073 C 
ATOM      9  C   UNL     1      22.512  63.341  16.477  1.00  0.00    -0.064 C 
ATOM     10  C   UNL     1      21.466  64.429  16.561  1.00  0.00     0.036 C 
ATOM     11  C   UNL     1      20.167  63.915  15.928  1.00  0.00     0.035 C 
ATOM     12  C   UNL     1      22.488  62.964  18.958  1.00  0.00     0.039 C 
ENDROOT
BRANCH   5  13
ATOM     13  C   UNL     1      24.925  62.145  13.656  1.00  0.00    -0.013 C 
ATOM     14  C   UNL     1      24.819  61.065  12.561  1.00  0.00     0.007 C 
ATOM     15  C   UNL     1      24.659  63.517  13.011  1.00  0.00     0.007 C 
ENDBRANCH   5  13
TORSDOF 1
ENDMDL
MODEL 2
REMARK VINA RESULT:    -5.040      1.303      4.857
REMARK INTER + INTRA:          -5.556
REMARK INTER:                  -5.253
REMARK INTRA:                  -0.303
REMARK UNBOUND:                -0.222
REMARK SMILES CC1=C[C@H]2C(=C(C)CC[C@@H]2C(C)C)CC1
REMARK SMILES IDX 1 1 2 2 3 3 4 4 10 5 9 6 8 7 6 8 5 9 14 10 15 11 7 12 11 13
REMARK SMILES IDX 12 14 13 15
REMARK H PARENT
REMARK Flexibility Score: inf
ROOT
ATOM      1  C   UNL     1      25.125  60.493  14.979  1.00  0.00     0.039 C 
ATOM      2  C   UNL     1      24.237  61.663  15.300  1.00  0.00    -0.076 C 
ATOM      3  C   UNL     1      23.978  61.953  16.599  1.00  0.00    -0.020 C 
ATOM      4  C   UNL     1      23.135  63.145  17.031  1.00  0.00     0.041 C 
ATOM      5  C   UNL     1      22.499  62.923  18.451  1.00  0.00     0.003 C 
ATOM      6  C   UNL     1      21.084  63.540  18.521  1.00  0.00     0.009 C 
ATOM      7  C   UNL     1      20.219  63.040  17.372  1.00  0.00     0.031 C 
ATOM      8  C   UNL     1      20.819  63.413  16.044  1.00  0.00    -0.073 C 
ATOM      9  C   UNL     1      22.169  63.474  15.902  1.00  0.00    -0.064 C 
ATOM     10  C   UNL     1      22.856  63.689  14.573  1.00  0.00     0.036 C 
ATOM     11  C   UNL     1      23.540  62.383  14.155  1.00  0.00     0.035 C 
ATOM     12  C   UNL     1      19.883  63.635  14.879  1.00  0.00     0.039 C 
ENDROOT
BRANCH   5  13
ATOM     13  C   UNL     1      23.404  63.498  19.602  1.00  0.00    -0.013 C 
ATOM     14  C   UNL     1      23.774  64.977  19.372  1.00  0.00     0.007 C 
ATOM     15  C   UNL     1      22.749  63.372  20.988  1.00  0.00     0.007 C 
ENDBRANCH   5  13
TORSDOF 1
ENDMDL
MODEL 3
REMARK VINA RESULT:    -4.979      1.442      3.739
REMARK INTER + INTRA:          -5.491
REMARK INTER:                  -5.222
REMARK INTRA:                  -0.270
REMARK UNBOUND:                -0.222
REMARK SMILES CC1=C[C@H]2C(=C(C)CC[C@@H]2C(C)C)CC1
REMARK SMILES IDX 1 1 2 2 3 3 4 4 10 5 9 6 8 7 6 8 5 9 14 10 15 11 7 12 11 13
REMARK SMILES IDX 12 14 13 15
REMARK H PARENT
REMARK Flexibility Score: inf
ROOT
ATOM      1  C   UNL     1      22.776  65.841  19.399  1.00  0.00     0.039 C 
ATOM      2  C   UNL     1      22.213  64.807  18.463  1.00  0.00    -0.076 C 
ATOM      3  C   UNL     1      23.050  64.172  17.607  1.00  0.00    -0.020 C 
ATOM      4  C   UNL     1      22.590  63.076  16.657  1.00  0.00     0.041 C 
ATOM      5  C   UNL     1      23.542  62.946  15.412  1.00  0.00     0.003 C 
ATOM      6  C   UNL     1      22.737  62.601  14.139  1.00  0.00     0.009 C 
ATOM      7  C   UNL     1      21.592  63.585  13.941  1.00  0.00     0.031 C 
ATOM      8  C   UNL     1      20.644  63.550  15.108  1.00  0.00    -0.073 C 
ATOM      9  C   UNL     1      21.114  63.298  16.357  1.00  0.00    -0.064 C 
ATOM     10  C   UNL     1      20.262  63.395  17.602  1.00  0.00     0.036 C 
ATOM     11  C   UNL     1      20.703  64.623  18.407  1.00  0.00     0.035 C 
ATOM     12  C   UNL     1      19.192  63.879  14.853  1.00  0.00     0.039 C 
ENDROOT
BRANCH   5  13
ATOM     13  C   UNL     1      24.679  61.885  15.645  1.00  0.00    -0.013 C 
ATOM     14  C   UNL     1      24.431  61.027  16.902  1.00  0.00     0.007 C 
ATOM     15  C   UNL     1      24.864  60.943  14.442  1.00  0.00     0.007 C 
ENDBRANCH   5  13
TORSDOF 1
ENDMDL
MODEL 4
REMARK VINA RESULT:    -4.962      1.148      4.301
REMARK INTER + INTRA:          -5.474
REMARK INTER:                  -5.156
REMARK INTRA:                  -0.318
REMARK UNBOUND:                -0.222
REMARK SMILES CC1=C[C@H]2C(=C(C)CC[C@@H]2C(C)C)CC1
REMARK SMILES IDX 1 1 2 2 3 3 4 4 10 5 9 6 8 7 6 8 5 9 14 10 15 11 7 12 11 13
REMARK SMILES IDX 12 14 13 15
REMARK H PARENT
REMARK Flexibility Score: inf
ROOT
ATOM      1  C   UNL     1      24.923  65.012  11.959  1.00  0.00     0.039 C 
ATOM      2  C   UNL     1      24.274  64.003  12.866  1.00  0.00    -0.076 C 
ATOM      3  C   UNL     1      23.045  64.270  13.371  1.00  0.00    -0.020 C 
ATOM      4  C   UNL     1      22.281  63.294  14.255  1.00  0.00     0.041 C 
ATOM      5  C   UNL     1      21.234  64.031  15.166  1.00  0.00     0.003 C 
ATOM      6  C   UNL     1      21.140  63.354  16.552  1.00  0.00     0.009 C 
ATOM      7  C   UNL     1      22.519  63.219  17.183  1.00  0.00     0.031 C 
ATOM      8  C   UNL     1      23.425  62.380  16.322  1.00  0.00    -0.073 C 
ATOM      9  C   UNL     1      23.295  62.411  14.970  1.00  0.00    -0.064 C 
ATOM     10  C   UNL     1      24.256  61.724  14.026  1.00  0.00     0.036 C 
ATOM     11  C   UNL     1      25.085  62.792  13.303  1.00  0.00     0.035 C 
ATOM     12  C   UNL     1      24.512  61.583  17.002  1.00  0.00     0.039 C 
ENDROOT
BRANCH   5  13
ATOM     13  C   UNL     1      19.813  64.104  14.495  1.00  0.00    -0.013 C 
ATOM     14  C   UNL     1      19.384  62.756  13.883  1.00  0.00     0.007 C 
ATOM     15  C   UNL     1      18.719  64.561  15.477  1.00  0.00     0.007 C 
ENDBRANCH   5  13
TORSDOF 1
ENDMDL
MODEL 5
REMARK VINA RESULT:    -4.801      1.221      4.191
REMARK INTER + INTRA:          -5.303
REMARK INTER:                  -5.137
REMARK INTRA:                  -0.167
REMARK UNBOUND:                -0.222
REMARK SMILES CC1=C[C@H]2C(=C(C)CC[C@@H]2C(C)C)CC1
REMARK SMILES IDX 1 1 2 2 3 3 4 4 10 5 9 6 8 7 6 8 5 9 14 10 15 11 7 12 11 13
REMARK SMILES IDX 12 14 13 15
REMARK H PARENT
REMARK Flexibility Score: inf
ROOT
ATOM      1  C   UNL     1      24.824  61.482  13.080  1.00  0.00     0.039 C 
ATOM      2  C   UNL     1      24.028  61.942  14.270  1.00  0.00    -0.076 C 
ATOM      3  C   UNL     1      22.893  62.654  14.064  1.00  0.00    -0.020 C 
ATOM      4  C   UNL     1      21.990  63.122  15.196  1.00  0.00     0.041 C 
ATOM      5  C   UNL     1      21.139  64.377  14.782  1.00  0.00     0.003 C 
ATOM      6  C   UNL     1      20.968  65.343  15.975  1.00  0.00     0.009 C 
ATOM      7  C   UNL     1      22.319  65.688  16.589  1.00  0.00     0.031 C 
ATOM      8  C   UNL     1      23.013  64.452  17.093  1.00  0.00    -0.073 C 
ATOM      9  C   UNL     1      22.841  63.268  16.450  1.00  0.00    -0.064 C 
ATOM     10  C   UNL     1      23.616  62.016  16.793  1.00  0.00     0.036 C 
ATOM     11  C   UNL     1      24.607  61.724  15.660  1.00  0.00     0.035 C 
ATOM     12  C   UNL     1      23.951  64.595  18.267  1.00  0.00     0.039 C 
ENDROOT
BRANCH   5  13
ATOM     13  C   UNL     1      19.735  63.973  14.199  1.00  0.00    -0.013 C 
ATOM     14  C   UNL     1      19.551  62.445  14.119  1.00  0.00     0.007 C 
ATOM     15  C   UNL     1      18.567  64.561  15.011  1.00  0.00     0.007 C 
ENDBRANCH   5  13
TORSDOF 1
ENDMDL
MODEL 6
REMARK VINA RESULT:    -4.797      1.597      3.649
REMARK INTER + INTRA:          -5.300
REMARK INTER:                  -5.160
REMARK INTRA:                  -0.140
REMARK UNBOUND:                -0.222
REMARK SMILES CC1=C[C@H]2C(=C(C)CC[C@@H]2C(C)C)CC1
REMARK SMILES IDX 1 1 2 2 3 3 4 4 10 5 9 6 8 7 6 8 5 9 14 10 15 11 7 12 11 13
REMARK SMILES IDX 12 14 13 15
REMARK H PARENT
REMARK Flexibility Score: inf
ROOT
ATOM      1  C   UNL     1      20.257  63.502  17.806  1.00  0.00     0.039 C 
ATOM      2  C   UNL     1      20.623  63.430  16.349  1.00  0.00    -0.076 C 
ATOM      3  C   UNL     1      21.903  63.148  16.007  1.00  0.00    -0.020 C 
ATOM      4  C   UNL     1      22.364  63.002  14.564  1.00  0.00     0.041 C 
ATOM      5  C   UNL     1      23.904  63.281  14.413  1.00  0.00     0.003 C 
ATOM      6  C   UNL     1      24.203  64.002  13.079  1.00  0.00     0.009 C 
ATOM      7  C   UNL     1      23.333  65.243  12.929  1.00  0.00     0.031 C 
ATOM      8  C   UNL     1      21.873  64.881  12.939  1.00  0.00    -0.073 C 
ATOM      9  C   UNL     1      21.439  63.833  13.686  1.00  0.00    -0.064 C 
ATOM     10  C   UNL     1      19.977  63.496  13.875  1.00  0.00     0.036 C 
ATOM     11  C   UNL     1      19.577  63.828  15.317  1.00  0.00     0.035 C 
ATOM     12  C   UNL     1      20.919  65.760  12.165  1.00  0.00     0.039 C 
ENDROOT
BRANCH   5  13
ATOM     13  C   UNL     1      24.758  61.965  14.528  1.00  0.00    -0.013 C 
ATOM     14  C   UNL     1      24.683  61.339  15.935  1.00  0.00     0.007 C 
ATOM     15  C   UNL     1      24.341  60.899  13.499  1.00  0.00     0.007 C 
ENDBRANCH   5  13
TORSDOF 1
ENDMDL
MODEL 7
REMARK VINA RESULT:    -4.690      1.931      5.716
REMARK INTER + INTRA:          -5.185
REMARK INTER:                  -4.930
REMARK INTRA:                  -0.256
REMARK UNBOUND:                -0.222
REMARK SMILES CC1=C[C@H]2C(=C(C)CC[C@@H]2C(C)C)CC1
REMARK SMILES IDX 1 1 2 2 3 3 4 4 10 5 9 6 8 7 6 8 5 9 14 10 15 11 7 12 11 13
REMARK SMILES IDX 12 14 13 15
REMARK H PARENT
REMARK Flexibility Score: inf
ROOT
ATOM      1  C   UNL     1      21.734  63.497  19.915  1.00  0.00     0.039 C 
ATOM      2  C   UNL     1      21.626  63.911  18.473  1.00  0.00    -0.076 C 
ATOM      3  C   UNL     1      20.398  64.139  17.947  1.00  0.00    -0.020 C 
ATOM      4  C   UNL     1      20.184  64.610  16.515  1.00  0.00     0.041 C 
ATOM      5  C   UNL     1      18.756  64.223  15.982  1.00  0.00     0.003 C 
ATOM      6  C   UNL     1      18.813  63.851  14.483  1.00  0.00     0.009 C 
ATOM      7  C   UNL     1      19.875  62.790  14.229  1.00  0.00     0.031 C 
ATOM      8  C   UNL     1      21.238  63.286  14.632  1.00  0.00    -0.073 C 
ATOM      9  C   UNL     1      21.366  64.140  15.680  1.00  0.00    -0.064 C 
ATOM     10  C   UNL     1      22.702  64.565  16.247  1.00  0.00     0.036 C 
ATOM     11  C   UNL     1      22.886  63.908  17.620  1.00  0.00     0.035 C 
ATOM     12  C   UNL     1      22.437  62.745  13.890  1.00  0.00     0.039 C 
ENDROOT
BRANCH   5  13
ATOM     13  C   UNL     1      17.704  65.367  16.223  1.00  0.00    -0.013 C 
ATOM     14  C   UNL     1      17.005  65.804  14.920  1.00  0.00     0.007 C 
ATOM     15  C   UNL     1      16.623  64.969  17.244  1.00  0.00     0.007 C 
ENDBRANCH   5  13
TORSDOF 1
ENDMDL
MODEL 8
REMARK VINA RESULT:    -4.671      1.931      4.712
REMARK INTER + INTRA:          -5.165
REMARK INTER:                  -4.910
REMARK INTRA:                  -0.256
REMARK UNBOUND:                -0.222
REMARK SMILES CC1=C[C@H]2C(=C(C)CC[C@@H]2C(C)C)CC1
REMARK SMILES IDX 1 1 2 2 3 3 4 4 10 5 9 6 8 7 6 8 5 9 14 10 15 11 7 12 11 13
REMARK SMILES IDX 12 14 13 15
REMARK H PARENT
REMARK Flexibility Score: inf
ROOT
ATOM      1  C   UNL     1      17.236  65.529  15.268  1.00  0.00     0.039 C 
ATOM      2  C   UNL     1      18.417  64.612  15.435  1.00  0.00    -0.076 C 
ATOM      3  C   UNL     1      19.149  64.686  16.573  1.00  0.00    -0.020 C 
ATOM      4  C   UNL     1      20.329  63.769  16.860  1.00  0.00     0.041 C 
ATOM      5  C   UNL     1      21.335  64.417  17.880  1.00  0.00     0.003 C 
ATOM      6  C   UNL     1      22.792  64.046  17.525  1.00  0.00     0.009 C 
ATOM      7  C   UNL     1      23.093  64.372  16.068  1.00  0.00     0.031 C 
ATOM      8  C   UNL     1      22.185  63.606  15.145  1.00  0.00    -0.073 C 
ATOM      9  C   UNL     1      20.914  63.318  15.529  1.00  0.00    -0.064 C 
ATOM     10  C   UNL     1      19.890  62.691  14.611  1.00  0.00     0.036 C 
ATOM     11  C   UNL     1      18.834  63.745  14.256  1.00  0.00     0.035 C 
ATOM     12  C   UNL     1      22.706  63.247  13.774  1.00  0.00     0.039 C 
ENDROOT
BRANCH   5  13
ATOM     13  C   UNL     1      21.014  64.013  19.366  1.00  0.00    -0.013 C 
ATOM     14  C   UNL     1      22.193  63.285  20.043  1.00  0.00     0.007 C 
ATOM     15  C   UNL     1      20.627  65.222  20.236  1.00  0.00     0.007 C 
ENDBRANCH   5  13
TORSDOF 1
ENDMDL
MODEL 9
REMARK VINA RESULT:    -4.658      1.925      4.352
REMARK INTER + INTRA:          -5.152
REMARK INTER:                  -4.896
REMARK INTRA:                  -0.256
REMARK UNBOUND:                -0.222
REMARK SMILES CC1=C[C@H]2C(=C(C)CC[C@@H]2C(C)C)CC1
REMARK SMILES IDX 1 1 2 2 3 3 4 4 10 5 9 6 8 7 6 8 5 9 14 10 15 11 7 12 11 13
REMARK SMILES IDX 12 14 13 15
REMARK H PARENT
REMARK Flexibility Score: inf
ROOT
ATOM      1  C   UNL     1      17.322  65.439  17.445  1.00  0.00     0.039 C 
ATOM      2  C   UNL     1      18.282  64.720  16.537  1.00  0.00    -0.076 C 
ATOM      3  C   UNL     1      19.482  64.329  17.030  1.00  0.00    -0.020 C 
ATOM      4  C   UNL     1      20.502  63.552  16.210  1.00  0.00     0.041 C 
ATOM      5  C   UNL     1      21.963  63.751  16.757  1.00  0.00     0.003 C 
ATOM      6  C   UNL     1      22.982  63.794  15.596  1.00  0.00     0.009 C 
ATOM      7  C   UNL     1      22.568  64.821  14.551  1.00  0.00     0.031 C 
ATOM      8  C   UNL     1      21.222  64.485  13.969  1.00  0.00    -0.073 C 
ATOM      9  C   UNL     1      20.280  63.884  14.741  1.00  0.00    -0.064 C 
ATOM     10  C   UNL     1      18.857  63.651  14.287  1.00  0.00     0.036 C 
ATOM     11  C   UNL     1      17.931  64.595  15.062  1.00  0.00     0.035 C 
ATOM     12  C   UNL     1      20.939  64.907  12.547  1.00  0.00     0.039 C 
ENDROOT
BRANCH   5  13
ATOM     13  C   UNL     1      22.362  62.641  17.796  1.00  0.00    -0.013 C 
ATOM     14  C   UNL     1      23.717  61.984  17.460  1.00  0.00     0.007 C 
ATOM     15  C   UNL     1      22.427  63.176  19.237  1.00  0.00     0.007 C 
ENDBRANCH   5  13
TORSDOF 1
ENDMDL
