MODEL 1
REMARK VINA RESULT:    -3.113      0.000      0.000
REMARK INTER + INTRA:          -4.289
REMARK INTER:                  -4.023
REMARK INTRA:                  -0.266
REMARK UNBOUND:                -0.266
REMARK SMILES CCCCCCC(=O)[O-]
REMARK SMILES IDX 5 1 6 2 7 3 8 4 9 5 4 6 3 7 2 8 1 9
REMARK H PARENT
REMARK Flexibility Score: inf
ROOT
ATOM      1  C   UNL     1      70.251  15.717  77.234  1.00  0.00     0.006 C 
ENDROOT
BRANCH   1   2
ATOM      2  C   UNL     1      71.071  15.038  78.343  1.00  0.00     0.053 C 
BRANCH   2   3
ATOM      3  C   UNL     1      70.603  15.430  79.711  1.00  0.00     0.041 C 
ATOM      4  O   UNL     1      71.438  15.625  80.633  1.00  0.00    -0.550 OA
ATOM      5  O   UNL     1      69.245  15.546  79.975  1.00  0.00    -0.550 OA
ENDBRANCH   2   3
ENDBRANCH   1   2
BRANCH   1   6
ATOM      6  C   UNL     1      69.837  14.780  76.084  1.00  0.00     0.000 C 
BRANCH   6   7
ATOM      7  C   UNL     1      68.366  14.339  76.176  1.00  0.00    -0.000 C 
BRANCH   7   8
ATOM      8  C   UNL     1      67.479  15.391  76.860  1.00  0.00    -0.003 C 
ATOM      9  C   UNL     1      66.580  16.140  75.875  1.00  0.00     0.004 C 
ENDBRANCH   7   8
ENDBRANCH   6   7
ENDBRANCH   1   6
TORSDOF 5
ENDMDL
MODEL 2
REMARK VINA RESULT:    -3.048      2.045      4.020
REMARK INTER + INTRA:          -4.205
REMARK INTER:                  -3.858
REMARK INTRA:                  -0.348
REMARK UNBOUND:                -0.266
REMARK SMILES CCCCCCC(=O)[O-]
REMARK SMILES IDX 5 1 6 2 7 3 8 4 9 5 4 6 3 7 2 8 1 9
REMARK H PARENT
REMARK Flexibility Score: inf
ROOT
ATOM      1  C   UNL     1      68.193  14.368  76.079  1.00  0.00     0.006 C 
ENDROOT
BRANCH   1   2
ATOM      2  C   UNL     1      67.229  15.560  76.182  1.00  0.00     0.053 C 
BRANCH   2   3
ATOM      3  C   UNL     1      66.371  15.487  77.408  1.00  0.00     0.041 C 
ATOM      4  O   UNL     1      66.818  15.882  78.517  1.00  0.00    -0.550 OA
ATOM      5  O   UNL     1      65.092  14.953  77.331  1.00  0.00    -0.550 OA
ENDBRANCH   2   3
ENDBRANCH   1   2
BRANCH   1   6
ATOM      6  C   UNL     1      69.680  14.736  76.246  1.00  0.00     0.000 C 
BRANCH   6   7
ATOM      7  C   UNL     1      69.885  16.199  76.676  1.00  0.00    -0.000 C 
BRANCH   7   8
ATOM      8  C   UNL     1      70.374  16.321  78.128  1.00  0.00    -0.003 C 
ATOM      9  C   UNL     1      70.871  14.993  78.701  1.00  0.00     0.004 C 
ENDBRANCH   7   8
ENDBRANCH   6   7
ENDBRANCH   1   6
TORSDOF 5
ENDMDL
MODEL 3
REMARK VINA RESULT:    -3.043      1.583      2.091
REMARK INTER + INTRA:          -4.198
REMARK INTER:                  -3.979
REMARK INTRA:                  -0.219
REMARK UNBOUND:                -0.266
REMARK SMILES CCCCCCC(=O)[O-]
REMARK SMILES IDX 5 1 6 2 7 3 8 4 9 5 4 6 3 7 2 8 1 9
REMARK H PARENT
REMARK Flexibility Score: inf
ROOT
ATOM      1  C   UNL     1      69.580  14.697  76.149  1.00  0.00     0.006 C 
ENDROOT
BRANCH   1   2
ATOM      2  C   UNL     1      69.898  16.028  76.848  1.00  0.00     0.053 C 
BRANCH   2   3
ATOM      3  C   UNL     1      70.695  15.832  78.100  1.00  0.00     0.041 C 
ATOM      4  O   UNL     1      70.904  14.672  78.543  1.00  0.00    -0.550 OA
ATOM      5  O   UNL     1      71.179  16.932  78.797  1.00  0.00    -0.550 OA
ENDBRANCH   2   3
ENDBRANCH   1   2
BRANCH   1   6
ATOM      6  C   UNL     1      68.081  14.348  76.097  1.00  0.00     0.000 C 
BRANCH   6   7
ATOM      7  C   UNL     1      67.202  15.397  76.800  1.00  0.00    -0.000 C 
BRANCH   7   8
ATOM      8  C   UNL     1      65.724  14.981  76.859  1.00  0.00    -0.003 C 
ATOM      9  C   UNL     1      65.438  13.692  76.086  1.00  0.00     0.004 C 
ENDBRANCH   7   8
ENDBRANCH   6   7
ENDBRANCH   1   6
TORSDOF 5
ENDMDL
MODEL 4
REMARK VINA RESULT:    -2.986      2.311      3.899
REMARK INTER + INTRA:          -4.125
REMARK INTER:                  -3.735
REMARK INTRA:                  -0.390
REMARK UNBOUND:                -0.266
REMARK SMILES CCCCCCC(=O)[O-]
REMARK SMILES IDX 5 1 6 2 7 3 8 4 9 5 4 6 3 7 2 8 1 9
REMARK H PARENT
REMARK Flexibility Score: inf
ROOT
ATOM      1  C   UNL     1      70.197  15.054  76.243  1.00  0.00     0.006 C 
ENDROOT
BRANCH   1   2
ATOM      2  C   UNL     1      68.767  14.492  76.256  1.00  0.00     0.053 C 
BRANCH   2   3
ATOM      3  C   UNL     1      67.756  15.532  76.628  1.00  0.00     0.041 C 
ATOM      4  O   UNL     1      68.068  16.752  76.614  1.00  0.00    -0.550 OA
ATOM      5  O   UNL     1      66.479  15.153  77.021  1.00  0.00    -0.550 OA
ENDBRANCH   2   3
ENDBRANCH   1   2
BRANCH   1   6
ATOM      6  C   UNL     1      71.026  14.714  77.496  1.00  0.00     0.000 C 
BRANCH   6   7
ATOM      7  C   UNL     1      71.139  15.899  78.472  1.00  0.00    -0.000 C 
BRANCH   7   8
ATOM      8  C   UNL     1      70.663  15.541  79.889  1.00  0.00    -0.003 C 
ATOM      9  C   UNL     1      69.152  15.700  80.065  1.00  0.00     0.004 C 
ENDBRANCH   7   8
ENDBRANCH   6   7
ENDBRANCH   1   6
TORSDOF 5
ENDMDL
MODEL 5
REMARK VINA RESULT:    -2.969      1.317      1.885
REMARK INTER + INTRA:          -4.103
REMARK INTER:                  -3.761
REMARK INTRA:                  -0.343
REMARK UNBOUND:                -0.266
REMARK SMILES CCCCCCC(=O)[O-]
REMARK SMILES IDX 5 1 6 2 7 3 8 4 9 5 4 6 3 7 2 8 1 9
REMARK H PARENT
REMARK Flexibility Score: inf
ROOT
ATOM      1  C   UNL     1      71.248  15.833  78.540  1.00  0.00     0.006 C 
ENDROOT
BRANCH   1   2
ATOM      2  C   UNL     1      70.690  15.477  79.927  1.00  0.00     0.053 C 
BRANCH   2   3
ATOM      3  C   UNL     1      69.261  15.896  80.085  1.00  0.00     0.041 C 
ATOM      4  O   UNL     1      68.785  16.809  79.359  1.00  0.00    -0.550 OA
ATOM      5  O   UNL     1      68.464  15.303  81.055  1.00  0.00    -0.550 OA
ENDBRANCH   2   3
ENDBRANCH   1   2
BRANCH   1   6
ATOM      6  C   UNL     1      71.011  14.757  77.464  1.00  0.00     0.000 C 
BRANCH   6   7
ATOM      7  C   UNL     1      70.093  15.243  76.329  1.00  0.00    -0.000 C 
BRANCH   7   8
ATOM      8  C   UNL     1      68.803  14.414  76.221  1.00  0.00    -0.003 C 
ATOM      9  C   UNL     1      67.544  15.237  76.494  1.00  0.00     0.004 C 
ENDBRANCH   7   8
ENDBRANCH   6   7
ENDBRANCH   1   6
TORSDOF 5
ENDMDL
MODEL 6
REMARK VINA RESULT:    -2.872      2.195      3.789
REMARK INTER + INTRA:          -3.977
REMARK INTER:                  -3.576
REMARK INTRA:                  -0.402
REMARK UNBOUND:                -0.266
REMARK SMILES CCCCCCC(=O)[O-]
REMARK SMILES IDX 5 1 6 2 7 3 8 4 9 5 4 6 3 7 2 8 1 9
REMARK H PARENT
REMARK Flexibility Score: inf
ROOT
ATOM      1  C   UNL     1      68.204  15.406  77.063  1.00  0.00     0.006 C 
ENDROOT
BRANCH   1   2
ATOM      2  C   UNL     1      67.820  16.834  76.643  1.00  0.00     0.053 C 
BRANCH   2   3
ATOM      3  C   UNL     1      68.814  17.848  77.117  1.00  0.00     0.041 C 
ATOM      4  O   UNL     1      69.712  18.267  76.339  1.00  0.00    -0.550 OA
ATOM      5  O   UNL     1      68.771  18.306  78.428  1.00  0.00    -0.550 OA
ENDBRANCH   2   3
ENDBRANCH   1   2
BRANCH   1   6
ATOM      6  C   UNL     1      69.228  14.725  76.135  1.00  0.00     0.000 C 
BRANCH   6   7
ATOM      7  C   UNL     1      70.656  14.749  76.707  1.00  0.00    -0.000 C 
BRANCH   7   8
ATOM      8  C   UNL     1      70.673  14.849  78.240  1.00  0.00    -0.003 C 
ATOM      9  C   UNL     1      71.762  15.789  78.762  1.00  0.00     0.004 C 
ENDBRANCH   7   8
ENDBRANCH   6   7
ENDBRANCH   1   6
TORSDOF 5
ENDMDL
MODEL 7
REMARK VINA RESULT:    -2.822      3.028      4.999
REMARK INTER + INTRA:          -3.913
REMARK INTER:                  -3.772
REMARK INTRA:                  -0.141
REMARK UNBOUND:                -0.266
REMARK SMILES CCCCCCC(=O)[O-]
REMARK SMILES IDX 5 1 6 2 7 3 8 4 9 5 4 6 3 7 2 8 1 9
REMARK H PARENT
REMARK Flexibility Score: inf
ROOT
ATOM      1  C   UNL     1      67.439  14.929  76.394  1.00  0.00     0.006 C 
ENDROOT
BRANCH   1   2
ATOM      2  C   UNL     1      66.331  13.999  75.875  1.00  0.00     0.053 C 
BRANCH   2   3
ATOM      3  C   UNL     1      65.018  14.256  76.548  1.00  0.00     0.041 C 
ATOM      4  O   UNL     1      63.941  13.941  75.976  1.00  0.00    -0.550 OA
ATOM      5  O   UNL     1      64.982  14.873  77.791  1.00  0.00    -0.550 OA
ENDBRANCH   2   3
ENDBRANCH   1   2
BRANCH   1   6
ATOM      6  C   UNL     1      68.864  14.362  76.252  1.00  0.00     0.000 C 
BRANCH   6   7
ATOM      7  C   UNL     1      69.944  15.457  76.266  1.00  0.00    -0.000 C 
BRANCH   7   8
ATOM      8  C   UNL     1      70.126  16.085  77.657  1.00  0.00    -0.003 C 
ATOM      9  C   UNL     1      70.767  15.126  78.662  1.00  0.00     0.004 C 
ENDBRANCH   7   8
ENDBRANCH   6   7
ENDBRANCH   1   6
TORSDOF 5
ENDMDL
MODEL 8
REMARK VINA RESULT:    -2.806     20.554     21.951
REMARK INTER + INTRA:          -3.892
REMARK INTER:                  -3.508
REMARK INTRA:                  -0.384
REMARK UNBOUND:                -0.266
REMARK SMILES CCCCCCC(=O)[O-]
REMARK SMILES IDX 5 1 6 2 7 3 8 4 9 5 4 6 3 7 2 8 1 9
REMARK H PARENT
REMARK Flexibility Score: inf
ROOT
ATOM      1  C   UNL     1      70.247  29.769  96.054  1.00  0.00     0.006 C 
ENDROOT
BRANCH   1   2
ATOM      2  C   UNL     1      69.520  28.424  95.900  1.00  0.00     0.053 C 
BRANCH   2   3
ATOM      3  C   UNL     1      68.045  28.599  95.710  1.00  0.00     0.041 C 
ATOM      4  O   UNL     1      67.571  29.735  95.444  1.00  0.00    -0.550 OA
ATOM      5  O   UNL     1      67.190  27.514  95.860  1.00  0.00    -0.550 OA
ENDBRANCH   2   3
ENDBRANCH   1   2
BRANCH   1   6
ATOM      6  C   UNL     1      71.004  30.230  94.794  1.00  0.00     0.000 C 
BRANCH   6   7
ATOM      7  C   UNL     1      71.311  29.073  93.828  1.00  0.00    -0.000 C 
BRANCH   7   8
ATOM      8  C   UNL     1      70.857  29.372  92.391  1.00  0.00    -0.003 C 
ATOM      9  C   UNL     1      69.336  29.372  92.236  1.00  0.00     0.004 C 
ENDBRANCH   7   8
ENDBRANCH   6   7
ENDBRANCH   1   6
TORSDOF 5
ENDMDL
MODEL 9
REMARK VINA RESULT:    -2.749      1.491      2.235
REMARK INTER + INTRA:          -3.818
REMARK INTER:                  -3.412
REMARK INTRA:                  -0.407
REMARK UNBOUND:                -0.266
REMARK SMILES CCCCCCC(=O)[O-]
REMARK SMILES IDX 5 1 6 2 7 3 8 4 9 5 4 6 3 7 2 8 1 9
REMARK H PARENT
REMARK Flexibility Score: inf
ROOT
ATOM      1  C   UNL     1      69.506  17.840  78.186  1.00  0.00     0.006 C 
ENDROOT
BRANCH   1   2
ATOM      2  C   UNL     1      70.796  17.384  78.885  1.00  0.00     0.053 C 
BRANCH   2   3
ATOM      3  C   UNL     1      70.555  16.245  79.827  1.00  0.00     0.041 C 
ATOM      4  O   UNL     1      70.964  15.089  79.540  1.00  0.00    -0.550 OA
ATOM      5  O   UNL     1      69.851  16.453  81.005  1.00  0.00    -0.550 OA
ENDBRANCH   2   3
ENDBRANCH   1   2
BRANCH   1   6
ATOM      6  C   UNL     1      69.253  17.175  76.819  1.00  0.00     0.000 C 
BRANCH   6   7
ATOM      7  C   UNL     1      68.240  16.020  76.899  1.00  0.00    -0.000 C 
BRANCH   7   8
ATOM      8  C   UNL     1      68.813  14.698  76.365  1.00  0.00    -0.003 C 
ATOM      9  C   UNL     1      70.322  14.758  76.127  1.00  0.00     0.004 C 
ENDBRANCH   7   8
ENDBRANCH   6   7
ENDBRANCH   1   6
TORSDOF 5
ENDMDL
