MODEL 1
REMARK VINA RESULT:    -7.720      0.000      0.000
REMARK INTER + INTRA:          -8.623
REMARK INTER:                  -8.623
REMARK INTRA:                   0.000
REMARK UNBOUND:                 0.000
REMARK SMILES Oc1cc(O)c2c(ccc3ccc(O)c(O)c32)c1
REMARK SMILES IDX 9 1 8 2 7 3 18 4 2 5 3 6 4 7 6 8 17 9 10 10 11 11 12 12
REMARK SMILES IDX 13 13 15 14 16 15 1 17 5 19 14 21
REMARK H PARENT 16 16 1 18 5 20 14 22
REMARK Flexibility Score: inf
ROOT
ATOM      1  C   UNL     1      -1.912  45.600   3.608  1.00  0.00     0.009 A 
ATOM      2  C   UNL     1      -0.629  45.968   3.993  1.00  0.00     0.009 A 
ATOM      3  C   UNL     1       0.446  45.802   3.114  1.00  0.00    -0.010 A 
ATOM      4  C   UNL     1       1.743  46.111   3.554  1.00  0.00     0.055 A 
ATOM      5  C   UNL     1       2.846  45.833   2.751  1.00  0.00     0.119 A 
ATOM      6  C   UNL     1       2.664  45.189   1.527  1.00  0.00     0.093 A 
ATOM      7  C   UNL     1       1.380  44.851   1.078  1.00  0.00     0.127 A 
ATOM      8  C   UNL     1       0.234  45.280   1.807  1.00  0.00     0.035 A 
ATOM      9  C   UNL     1      -1.114  45.120   1.344  1.00  0.00     0.039 A 
ATOM     10  C   UNL     1      -2.169  45.187   2.297  1.00  0.00    -0.014 A 
ATOM     11  C   UNL     1      -3.483  44.883   1.919  1.00  0.00     0.013 A 
ATOM     12  C   UNL     1      -3.779  44.569   0.598  1.00  0.00     0.051 A 
ATOM     13  C   UNL     1      -2.792  44.642  -0.383  1.00  0.00     0.158 A 
ATOM     14  C   UNL     1      -1.473  45.009  -0.030  1.00  0.00     0.166 A 
ENDROOT
BRANCH  14  15
ATOM     15  O   UNL     1      -0.561  45.384  -1.020  1.00  0.00    -0.504 OA
ATOM     16  H   UNL     1       0.089  46.152  -0.924  1.00  0.00     0.293 HD
ENDBRANCH  14  15
BRANCH   5  17
ATOM     17  O   UNL     1       4.123  46.167   3.197  1.00  0.00    -0.508 OA
ATOM     18  H   UNL     1       4.853  46.445   2.552  1.00  0.00     0.293 HD
ENDBRANCH   5  17
BRANCH   7  19
ATOM     19  O   UNL     1       1.264  44.013  -0.031  1.00  0.00    -0.507 OA
ATOM     20  H   UNL     1       1.916  43.256  -0.201  1.00  0.00     0.293 HD
ENDBRANCH   7  19
BRANCH  13  21
ATOM     21  O   UNL     1      -3.159  44.352  -1.699  1.00  0.00    -0.504 OA
ATOM     22  H   UNL     1      -2.737  43.613  -2.245  1.00  0.00     0.293 HD
ENDBRANCH  13  21
TORSDOF 4
ENDMDL
MODEL 2
REMARK VINA RESULT:    -7.691      2.049      3.036
REMARK INTER + INTRA:          -8.590
REMARK INTER:                  -8.590
REMARK INTRA:                   0.000
REMARK UNBOUND:                 0.000
REMARK SMILES Oc1cc(O)c2c(ccc3ccc(O)c(O)c32)c1
REMARK SMILES IDX 9 1 8 2 7 3 18 4 2 5 3 6 4 7 6 8 17 9 10 10 11 11 12 12
REMARK SMILES IDX 13 13 15 14 16 15 1 17 5 19 14 21
REMARK H PARENT 16 16 1 18 5 20 14 22
REMARK Flexibility Score: inf
ROOT
ATOM      1  C   UNL     1      -0.291  44.615  -0.642  1.00  0.00     0.009 A 
ATOM      2  C   UNL     1       0.994  44.593  -0.113  1.00  0.00     0.009 A 
ATOM      3  C   UNL     1       1.216  44.963   1.218  1.00  0.00    -0.010 A 
ATOM      4  C   UNL     1       2.531  45.005   1.706  1.00  0.00     0.055 A 
ATOM      5  C   UNL     1       2.795  45.495   2.983  1.00  0.00     0.119 A 
ATOM      6  C   UNL     1       1.752  46.002   3.757  1.00  0.00     0.093 A 
ATOM      7  C   UNL     1       0.433  45.991   3.280  1.00  0.00     0.127 A 
ATOM      8  C   UNL     1       0.125  45.340   2.052  1.00  0.00     0.035 A 
ATOM      9  C   UNL     1      -1.209  45.141   1.566  1.00  0.00     0.039 A 
ATOM     10  C   UNL     1      -1.392  44.875   0.179  1.00  0.00    -0.014 A 
ATOM     11  C   UNL     1      -2.681  44.828  -0.368  1.00  0.00     0.013 A 
ATOM     12  C   UNL     1      -3.796  44.983   0.448  1.00  0.00     0.051 A 
ATOM     13  C   UNL     1      -3.650  45.094   1.829  1.00  0.00     0.158 A 
ATOM     14  C   UNL     1      -2.359  45.080   2.405  1.00  0.00     0.166 A 
ENDROOT
BRANCH  14  15
ATOM     15  O   UNL     1      -2.206  44.880   3.780  1.00  0.00    -0.504 OA
ATOM     16  H   UNL     1      -2.141  45.631   4.453  1.00  0.00     0.293 HD
ENDBRANCH  14  15
BRANCH   5  17
ATOM     17  O   UNL     1       4.105  45.507   3.457  1.00  0.00    -0.508 OA
ATOM     18  H   UNL     1       4.407  46.170   4.160  1.00  0.00     0.293 HD
ENDBRANCH   5  17
BRANCH   7  19
ATOM     19  O   UNL     1      -0.532  46.709   3.985  1.00  0.00    -0.507 OA
ATOM     20  H   UNL     1      -0.835  47.630   3.692  1.00  0.00     0.293 HD
ENDBRANCH   7  19
BRANCH  13  21
ATOM     21  O   UNL     1      -4.810  45.209   2.599  1.00  0.00    -0.504 OA
ATOM     22  H   UNL     1      -5.607  45.767   2.326  1.00  0.00     0.293 HD
ENDBRANCH  13  21
TORSDOF 4
ENDMDL
MODEL 3
REMARK VINA RESULT:    -6.803      1.402      4.950
REMARK INTER + INTRA:          -7.598
REMARK INTER:                  -7.598
REMARK INTRA:                   0.000
REMARK UNBOUND:                 0.000
REMARK SMILES Oc1cc(O)c2c(ccc3ccc(O)c(O)c32)c1
REMARK SMILES IDX 9 1 8 2 7 3 18 4 2 5 3 6 4 7 6 8 17 9 10 10 11 11 12 12
REMARK SMILES IDX 13 13 15 14 16 15 1 17 5 19 14 21
REMARK H PARENT 16 16 1 18 5 20 14 22
REMARK Flexibility Score: inf
ROOT
ATOM      1  C   UNL     1      -1.984  45.992   2.201  1.00  0.00     0.009 A 
ATOM      2  C   UNL     1      -2.623  45.618   1.026  1.00  0.00     0.009 A 
ATOM      3  C   UNL     1      -1.878  45.193  -0.079  1.00  0.00    -0.010 A 
ATOM      4  C   UNL     1      -2.543  44.893  -1.278  1.00  0.00     0.055 A 
ATOM      5  C   UNL     1      -1.821  44.595  -2.431  1.00  0.00     0.119 A 
ATOM      6  C   UNL     1      -0.427  44.653  -2.407  1.00  0.00     0.093 A 
ATOM      7  C   UNL     1       0.257  44.973  -1.226  1.00  0.00     0.127 A 
ATOM      8  C   UNL     1      -0.459  45.112  -0.003  1.00  0.00     0.035 A 
ATOM      9  C   UNL     1       0.168  45.280   1.276  1.00  0.00     0.039 A 
ATOM     10  C   UNL     1      -0.603  45.822   2.343  1.00  0.00    -0.014 A 
ATOM     11  C   UNL     1       0.006  46.147   3.561  1.00  0.00     0.013 A 
ATOM     12  C   UNL     1       1.357  45.892   3.761  1.00  0.00     0.051 A 
ATOM     13  C   UNL     1       2.102  45.226   2.789  1.00  0.00     0.158 A 
ATOM     14  C   UNL     1       1.487  44.833   1.578  1.00  0.00     0.166 A 
ENDROOT
BRANCH  14  15
ATOM     15  O   UNL     1       2.118  43.910   0.739  1.00  0.00    -0.504 OA
ATOM     16  H   UNL     1       3.077  43.612   0.851  1.00  0.00     0.293 HD
ENDBRANCH  14  15
BRANCH   5  17
ATOM     17  O   UNL     1      -2.500  44.278  -3.606  1.00  0.00    -0.508 OA
ATOM     18  H   UNL     1      -2.128  44.524  -4.515  1.00  0.00     0.293 HD
ENDBRANCH   5  17
BRANCH   7  19
ATOM     19  O   UNL     1       1.623  45.242  -1.303  1.00  0.00    -0.507 OA
ATOM     20  H   UNL     1       2.145  45.121  -2.163  1.00  0.00     0.293 HD
ENDBRANCH   7  19
BRANCH  13  21
ATOM     21  O   UNL     1       3.446  44.965   3.063  1.00  0.00    -0.504 OA
ATOM     22  H   UNL     1       3.766  44.134   3.542  1.00  0.00     0.293 HD
ENDBRANCH  13  21
TORSDOF 4
ENDMDL
MODEL 4
REMARK VINA RESULT:    -6.738      2.428      5.528
REMARK INTER + INTRA:          -7.526
REMARK INTER:                  -7.526
REMARK INTRA:                   0.000
REMARK UNBOUND:                 0.000
REMARK SMILES Oc1cc(O)c2c(ccc3ccc(O)c(O)c32)c1
REMARK SMILES IDX 9 1 8 2 7 3 18 4 2 5 3 6 4 7 6 8 17 9 10 10 11 11 12 12
REMARK SMILES IDX 13 13 15 14 16 15 1 17 5 19 14 21
REMARK H PARENT 16 16 1 18 5 20 14 22
REMARK Flexibility Score: inf
ROOT
ATOM      1  C   UNL     1      -0.911  44.229   0.391  1.00  0.00     0.009 A 
ATOM      2  C   UNL     1      -2.226  44.342   0.824  1.00  0.00     0.009 A 
ATOM      3  C   UNL     1      -2.507  44.808   2.112  1.00  0.00    -0.010 A 
ATOM      4  C   UNL     1      -3.840  44.841   2.552  1.00  0.00     0.055 A 
ATOM      5  C   UNL     1      -4.140  45.174   3.871  1.00  0.00     0.119 A 
ATOM      6  C   UNL     1      -3.106  45.418   4.774  1.00  0.00     0.093 A 
ATOM      7  C   UNL     1      -1.767  45.368   4.361  1.00  0.00     0.127 A 
ATOM      8  C   UNL     1      -1.451  45.198   2.984  1.00  0.00     0.035 A 
ATOM      9  C   UNL     1      -0.123  45.293   2.450  1.00  0.00     0.039 A 
ATOM     10  C   UNL     1       0.141  44.704   1.181  1.00  0.00    -0.014 A 
ATOM     11  C   UNL     1       1.451  44.636   0.692  1.00  0.00     0.013 A 
ATOM     12  C   UNL     1       2.500  45.193   1.414  1.00  0.00     0.051 A 
ATOM     13  C   UNL     1       2.251  45.905   2.585  1.00  0.00     0.158 A 
ATOM     14  C   UNL     1       0.926  46.039   3.061  1.00  0.00     0.166 A 
ENDROOT
BRANCH  14  15
ATOM     15  O   UNL     1       0.625  46.990   4.040  1.00  0.00    -0.504 OA
ATOM     16  H   UNL     1      -0.309  47.325   4.229  1.00  0.00     0.293 HD
ENDBRANCH  14  15
BRANCH   5  17
ATOM     17  O   UNL     1      -5.470  45.223   4.282  1.00  0.00    -0.508 OA
ATOM     18  H   UNL     1      -6.071  44.409   4.229  1.00  0.00     0.293 HD
ENDBRANCH   5  17
BRANCH   7  19
ATOM     19  O   UNL     1      -0.771  45.392   5.338  1.00  0.00    -0.507 OA
ATOM     20  H   UNL     1      -0.986  45.524   6.319  1.00  0.00     0.293 HD
ENDBRANCH   7  19
BRANCH  13  21
ATOM     21  O   UNL     1       3.342  46.474   3.247  1.00  0.00    -0.504 OA
ATOM     22  H   UNL     1       4.301  46.344   2.953  1.00  0.00     0.293 HD
ENDBRANCH  13  21
TORSDOF 4
ENDMDL
MODEL 5
REMARK VINA RESULT:    -6.651      2.295      3.936
REMARK INTER + INTRA:          -7.429
REMARK INTER:                  -7.429
REMARK INTRA:                   0.000
REMARK UNBOUND:                 0.000
REMARK SMILES Oc1cc(O)c2c(ccc3ccc(O)c(O)c32)c1
REMARK SMILES IDX 9 1 8 2 7 3 18 4 2 5 3 6 4 7 6 8 17 9 10 10 11 11 12 12
REMARK SMILES IDX 13 13 15 14 16 15 1 17 5 19 14 21
REMARK H PARENT 16 16 1 18 5 20 14 22
REMARK Flexibility Score: inf
ROOT
ATOM      1  C   UNL     1       1.630  44.591  -0.522  1.00  0.00     0.009 A 
ATOM      2  C   UNL     1       1.497  44.697   0.857  1.00  0.00     0.009 A 
ATOM      3  C   UNL     1       0.274  45.073   1.421  1.00  0.00    -0.010 A 
ATOM      4  C   UNL     1       0.186  45.246   2.811  1.00  0.00     0.055 A 
ATOM      5  C   UNL     1      -0.979  45.747   3.388  1.00  0.00     0.119 A 
ATOM      6  C   UNL     1      -2.043  46.133   2.573  1.00  0.00     0.093 A 
ATOM      7  C   UNL     1      -1.968  45.990   1.180  1.00  0.00     0.127 A 
ATOM      8  C   UNL     1      -0.855  45.325   0.591  1.00  0.00     0.035 A 
ATOM      9  C   UNL     1      -0.769  44.993  -0.802  1.00  0.00     0.039 A 
ATOM     10  C   UNL     1       0.515  44.726  -1.355  1.00  0.00    -0.014 A 
ATOM     11  C   UNL     1       0.667  44.550  -2.737  1.00  0.00     0.013 A 
ATOM     12  C   UNL     1      -0.442  44.579  -3.574  1.00  0.00     0.051 A 
ATOM     13  C   UNL     1      -1.725  44.689  -3.043  1.00  0.00     0.158 A 
ATOM     14  C   UNL     1      -1.902  44.803  -1.644  1.00  0.00     0.166 A 
ENDROOT
BRANCH  14  15
ATOM     15  O   UNL     1      -3.164  44.605  -1.078  1.00  0.00    -0.504 OA
ATOM     16  H   UNL     1      -3.655  45.304  -0.539  1.00  0.00     0.293 HD
ENDBRANCH  14  15
BRANCH   5  17
ATOM     17  O   UNL     1      -1.054  45.890   4.772  1.00  0.00    -0.508 OA
ATOM     18  H   UNL     1      -0.223  45.884   5.351  1.00  0.00     0.293 HD
ENDBRANCH   5  17
BRANCH   7  19
ATOM     19  O   UNL     1      -2.951  46.596   0.398  1.00  0.00    -0.507 OA
ATOM     20  H   UNL     1      -3.302  46.166  -0.449  1.00  0.00     0.293 HD
ENDBRANCH   7  19
BRANCH  13  21
ATOM     21  O   UNL     1      -2.802  44.673  -3.932  1.00  0.00    -0.504 OA
ATOM     22  H   UNL     1      -3.465  43.912  -3.992  1.00  0.00     0.293 HD
ENDBRANCH  13  21
TORSDOF 4
ENDMDL
MODEL 6
REMARK VINA RESULT:    -6.616      7.574      9.822
REMARK INTER + INTRA:          -7.390
REMARK INTER:                  -7.390
REMARK INTRA:                   0.000
REMARK UNBOUND:                 0.000
REMARK SMILES Oc1cc(O)c2c(ccc3ccc(O)c(O)c32)c1
REMARK SMILES IDX 9 1 8 2 7 3 18 4 2 5 3 6 4 7 6 8 17 9 10 10 11 11 12 12
REMARK SMILES IDX 13 13 15 14 16 15 1 17 5 19 14 21
REMARK H PARENT 16 16 1 18 5 20 14 22
REMARK Flexibility Score: inf
ROOT
ATOM      1  C   UNL     1       5.087  44.670   4.706  1.00  0.00     0.009 A 
ATOM      2  C   UNL     1       4.107  44.115   5.518  1.00  0.00     0.009 A 
ATOM      3  C   UNL     1       4.307  44.015   6.899  1.00  0.00    -0.010 A 
ATOM      4  C   UNL     1       3.333  43.382   7.687  1.00  0.00     0.055 A 
ATOM      5  C   UNL     1       3.562  43.149   9.042  1.00  0.00     0.119 A 
ATOM      6  C   UNL     1       4.791  43.495   9.603  1.00  0.00     0.093 A 
ATOM      7  C   UNL     1       5.786  44.108   8.829  1.00  0.00     0.127 A 
ATOM      8  C   UNL     1       5.505  44.505   7.491  1.00  0.00     0.035 A 
ATOM      9  C   UNL     1       6.403  45.276   6.680  1.00  0.00     0.039 A 
ATOM     10  C   UNL     1       6.226  45.257   5.268  1.00  0.00    -0.014 A 
ATOM     11  C   UNL     1       7.167  45.867   4.429  1.00  0.00     0.013 A 
ATOM     12  C   UNL     1       8.254  46.545   4.969  1.00  0.00     0.051 A 
ATOM     13  C   UNL     1       8.371  46.706   6.348  1.00  0.00     0.158 A 
ATOM     14  C   UNL     1       7.395  46.152   7.208  1.00  0.00     0.166 A 
ENDROOT
BRANCH  14  15
ATOM     15  O   UNL     1       7.325  46.558   8.543  1.00  0.00    -0.504 OA
ATOM     16  H   UNL     1       6.472  46.563   9.085  1.00  0.00     0.293 HD
ENDBRANCH  14  15
BRANCH   5  17
ATOM     17  O   UNL     1       2.574  42.539   9.811  1.00  0.00    -0.508 OA
ATOM     18  H   UNL     1       2.778  41.737  10.395  1.00  0.00     0.293 HD
ENDBRANCH   5  17
BRANCH   7  19
ATOM     19  O   UNL     1       7.067  44.226   9.368  1.00  0.00    -0.507 OA
ATOM     20  H   UNL     1       7.651  45.035   9.192  1.00  0.00     0.293 HD
ENDBRANCH   7  19
BRANCH  13  21
ATOM     21  O   UNL     1       9.465  47.430   6.829  1.00  0.00    -0.504 OA
ATOM     22  H   UNL     1      10.423  47.217   6.587  1.00  0.00     0.293 HD
ENDBRANCH  13  21
TORSDOF 4
ENDMDL
MODEL 7
REMARK VINA RESULT:    -6.475      6.708      9.290
REMARK INTER + INTRA:          -7.232
REMARK INTER:                  -7.232
REMARK INTRA:                   0.000
REMARK UNBOUND:                 0.000
REMARK SMILES Oc1cc(O)c2c(ccc3ccc(O)c(O)c32)c1
REMARK SMILES IDX 9 1 8 2 7 3 18 4 2 5 3 6 4 7 6 8 17 9 10 10 11 11 12 12
REMARK SMILES IDX 13 13 15 14 16 15 1 17 5 19 14 21
REMARK H PARENT 16 16 1 18 5 20 14 22
REMARK Flexibility Score: inf
ROOT
ATOM      1  C   UNL     1       5.214  47.058   2.953  1.00  0.00     0.009 A 
ATOM      2  C   UNL     1       4.776  47.503   1.713  1.00  0.00     0.009 A 
ATOM      3  C   UNL     1       5.697  47.926   0.748  1.00  0.00    -0.010 A 
ATOM      4  C   UNL     1       5.224  48.442  -0.468  1.00  0.00     0.055 A 
ATOM      5  C   UNL     1       6.109  48.991  -1.394  1.00  0.00     0.119 A 
ATOM      6  C   UNL     1       7.466  49.082  -1.082  1.00  0.00     0.093 A 
ATOM      7  C   UNL     1       7.956  48.592   0.137  1.00  0.00     0.127 A 
ATOM      8  C   UNL     1       7.094  47.877   1.017  1.00  0.00     0.035 A 
ATOM      9  C   UNL     1       7.540  47.206   2.203  1.00  0.00     0.039 A 
ATOM     10  C   UNL     1       6.580  46.897   3.208  1.00  0.00    -0.014 A 
ATOM     11  C   UNL     1       6.991  46.384   4.445  1.00  0.00     0.013 A 
ATOM     12  C   UNL     1       8.334  46.120   4.684  1.00  0.00     0.051 A 
ATOM     13  C   UNL     1       9.276  46.273   3.668  1.00  0.00     0.158 A 
ATOM     14  C   UNL     1       8.869  46.729   2.392  1.00  0.00     0.166 A 
ENDROOT
BRANCH  14  15
ATOM     15  O   UNL     1       9.723  46.595   1.295  1.00  0.00    -0.504 OA
ATOM     16  H   UNL     1      10.503  45.953   1.264  1.00  0.00     0.293 HD
ENDBRANCH  14  15
BRANCH   5  17
ATOM     17  O   UNL     1       5.623  49.479  -2.605  1.00  0.00    -0.508 OA
ATOM     18  H   UNL     1       5.242  48.860  -3.310  1.00  0.00     0.293 HD
ENDBRANCH   5  17
BRANCH   7  19
ATOM     19  O   UNL     1       9.265  48.907   0.500  1.00  0.00    -0.507 OA
ATOM     20  H   UNL     1       9.476  49.647   1.159  1.00  0.00     0.293 HD
ENDBRANCH   7  19
BRANCH  13  21
ATOM     21  O   UNL     1      10.605  45.956   3.958  1.00  0.00    -0.504 OA
ATOM     22  H   UNL     1      10.878  45.325   4.699  1.00  0.00     0.293 HD
ENDBRANCH  13  21
TORSDOF 4
ENDMDL
MODEL 8
REMARK VINA RESULT:    -6.406      7.610     10.051
REMARK INTER + INTRA:          -7.155
REMARK INTER:                  -7.155
REMARK INTRA:                   0.000
REMARK UNBOUND:                 0.000
REMARK SMILES Oc1cc(O)c2c(ccc3ccc(O)c(O)c32)c1
REMARK SMILES IDX 9 1 8 2 7 3 18 4 2 5 3 6 4 7 6 8 17 9 10 10 11 11 12 12
REMARK SMILES IDX 13 13 15 14 16 15 1 17 5 19 14 21
REMARK H PARENT 16 16 1 18 5 20 14 22
REMARK Flexibility Score: inf
ROOT
ATOM      1  C   UNL     1       4.432  44.018   7.571  1.00  0.00     0.009 A 
ATOM      2  C   UNL     1       4.635  44.055   8.945  1.00  0.00     0.009 A 
ATOM      3  C   UNL     1       5.831  44.555   9.470  1.00  0.00    -0.010 A 
ATOM      4  C   UNL     1       6.041  44.512  10.857  1.00  0.00     0.055 A 
ATOM      5  C   UNL     1       7.271  44.880  11.397  1.00  0.00     0.119 A 
ATOM      6  C   UNL     1       8.319  45.237  10.548  1.00  0.00     0.093 A 
ATOM      7  C   UNL     1       8.137  45.266   9.158  1.00  0.00     0.127 A 
ATOM      8  C   UNL     1       6.842  45.058   8.603  1.00  0.00     0.035 A 
ATOM      9  C   UNL     1       6.532  45.226   7.213  1.00  0.00     0.039 A 
ATOM     10  C   UNL     1       5.359  44.602   6.702  1.00  0.00    -0.014 A 
ATOM     11  C   UNL     1       5.098  44.608   5.326  1.00  0.00     0.013 A 
ATOM     12  C   UNL     1       5.952  45.270   4.452  1.00  0.00     0.051 A 
ATOM     13  C   UNL     1       7.025  46.013   4.940  1.00  0.00     0.158 A 
ATOM     14  C   UNL     1       7.266  46.072   6.333  1.00  0.00     0.166 A 
ENDROOT
BRANCH  14  15
ATOM     15  O   UNL     1       8.127  47.040   6.855  1.00  0.00    -0.504 OA
ATOM     16  H   UNL     1       8.713  47.636   6.288  1.00  0.00     0.293 HD
ENDBRANCH  14  15
BRANCH   5  17
ATOM     17  O   UNL     1       7.452  44.850  12.778  1.00  0.00    -0.508 OA
ATOM     18  H   UNL     1       6.958  45.488  13.390  1.00  0.00     0.293 HD
ENDBRANCH   5  17
BRANCH   7  19
ATOM     19  O   UNL     1       9.263  45.405   8.346  1.00  0.00    -0.507 OA
ATOM     20  H   UNL     1       9.355  46.165   7.683  1.00  0.00     0.293 HD
ENDBRANCH   7  19
BRANCH  13  21
ATOM     21  O   UNL     1       7.825  46.688   4.016  1.00  0.00    -0.504 OA
ATOM     22  H   UNL     1       8.467  46.221   3.389  1.00  0.00     0.293 HD
ENDBRANCH  13  21
TORSDOF 4
ENDMDL
MODEL 9
REMARK VINA RESULT:    -6.300      7.871     10.196
REMARK INTER + INTRA:          -7.036
REMARK INTER:                  -7.036
REMARK INTRA:                   0.000
REMARK UNBOUND:                 0.000
REMARK SMILES Oc1cc(O)c2c(ccc3ccc(O)c(O)c32)c1
REMARK SMILES IDX 9 1 8 2 7 3 18 4 2 5 3 6 4 7 6 8 17 9 10 10 11 11 12 12
REMARK SMILES IDX 13 13 15 14 16 15 1 17 5 19 14 21
REMARK H PARENT 16 16 1 18 5 20 14 22
REMARK Flexibility Score: inf
ROOT
ATOM      1  C   UNL     1       6.586  47.924   0.255  1.00  0.00     0.009 A 
ATOM      2  C   UNL     1       7.555  48.051  -0.733  1.00  0.00     0.009 A 
ATOM      3  C   UNL     1       8.908  47.885  -0.421  1.00  0.00    -0.010 A 
ATOM      4  C   UNL     1       9.871  48.094  -1.420  1.00  0.00     0.055 A 
ATOM      5  C   UNL     1      11.229  48.065  -1.110  1.00  0.00     0.119 A 
ATOM      6  C   UNL     1      11.631  47.886   0.215  1.00  0.00     0.093 A 
ATOM      7  C   UNL     1      10.684  47.698   1.232  1.00  0.00     0.127 A 
ATOM      8  C   UNL     1       9.305  47.556   0.906  1.00  0.00     0.035 A 
ATOM      9  C   UNL     1       8.292  47.204   1.857  1.00  0.00     0.039 A 
ATOM     10  C   UNL     1       6.935  47.496   1.539  1.00  0.00    -0.014 A 
ATOM     11  C   UNL     1       5.930  47.314   2.498  1.00  0.00     0.013 A 
ATOM     12  C   UNL     1       6.238  46.793   3.749  1.00  0.00     0.051 A 
ATOM     13  C   UNL     1       7.531  46.360   4.034  1.00  0.00     0.158 A 
ATOM     14  C   UNL     1       8.546  46.477   3.056  1.00  0.00     0.166 A 
ENDROOT
BRANCH  14  15
ATOM     15  O   UNL     1       9.748  45.780   3.205  1.00  0.00    -0.504 OA
ATOM     16  H   UNL     1      10.657  46.220   3.201  1.00  0.00     0.293 HD
ENDBRANCH  14  15
BRANCH   5  17
ATOM     17  O   UNL     1      12.170  48.253  -2.120  1.00  0.00    -0.508 OA
ATOM     18  H   UNL     1      12.320  49.162  -2.540  1.00  0.00     0.293 HD
ENDBRANCH   5  17
BRANCH   7  19
ATOM     19  O   UNL     1      11.116  47.753   2.557  1.00  0.00    -0.507 OA
ATOM     20  H   UNL     1      11.923  48.299   2.835  1.00  0.00     0.293 HD
ENDBRANCH   7  19
BRANCH  13  21
ATOM     21  O   UNL     1       7.771  45.811   5.296  1.00  0.00    -0.504 OA
ATOM     22  H   UNL     1       7.040  45.613   5.965  1.00  0.00     0.293 HD
ENDBRANCH  13  21
TORSDOF 4
ENDMDL
