MODEL 1
REMARK VINA RESULT:    -5.103      0.000      0.000
REMARK INTER + INTRA:          -6.609
REMARK INTER:                  -6.148
REMARK INTRA:                  -0.461
REMARK UNBOUND:                -0.461
REMARK SMILES O=c1c(O)c(-c2ccc(O)cc2O)oc2cc(O)cc(O)c12
REMARK SMILES IDX 5 1 3 2 2 3 1 4 22 5 20 6 19 7 17 8 16 9 15 10 14 11 6 12
REMARK SMILES IDX 8 13 7 14 9 15 11 16 12 17 10 18 13 20 4 22 21 24 18 26
REMARK H PARENT 10 19 13 21 4 23 21 25 18 27
REMARK Flexibility Score: inf
ROOT
ATOM      1  C   UNL     1      75.851  89.795  11.705  1.00  0.00     0.184 A 
ATOM      2  C   UNL     1      76.110  91.011  12.360  1.00  0.00     0.208 A 
ATOM      3  C   UNL     1      75.065  91.937  12.514  1.00  0.00     0.238 A 
ATOM      4  O   UNL     1      75.289  92.998  13.151  1.00  0.00    -0.285 OA
ATOM      5  C   UNL     1      73.782  91.643  11.995  1.00  0.00     0.111 A 
ATOM      6  C   UNL     1      72.661  92.525  12.059  1.00  0.00     0.134 A 
ATOM      7  C   UNL     1      71.406  92.080  11.625  1.00  0.00     0.093 A 
ATOM      8  C   UNL     1      71.245  90.807  11.070  1.00  0.00     0.123 A 
ATOM      9  C   UNL     1      72.346  89.962  10.949  1.00  0.00     0.094 A 
ATOM     10  C   UNL     1      73.603  90.364  11.406  1.00  0.00     0.146 A 
ATOM     11  O   UNL     1      74.622  89.523  11.282  1.00  0.00    -0.451 OA
ENDROOT
BRANCH   1  12
ATOM     12  C   UNL     1      76.912  88.784  11.486  1.00  0.00     0.063 A 
ATOM     13  C   UNL     1      78.751  87.910  10.152  1.00  0.00     0.047 A 
ATOM     14  C   UNL     1      77.768  88.878  10.375  1.00  0.00     0.020 A 
ATOM     15  C   UNL     1      78.887  86.831  11.029  1.00  0.00     0.119 A 
ATOM     16  C   UNL     1      78.031  86.720  12.131  1.00  0.00     0.093 A 
ATOM     17  C   UNL     1      77.043  87.688  12.364  1.00  0.00     0.130 A 
BRANCH  15  18
ATOM     18  O   UNL     1      79.871  85.875  10.794  1.00  0.00    -0.508 OA
ATOM     19  H   UNL     1      80.785  85.939  11.226  1.00  0.00     0.293 HD
ENDBRANCH  15  18
BRANCH  17  20
ATOM     20  O   UNL     1      76.201  87.570  13.470  1.00  0.00    -0.507 OA
ATOM     21  H   UNL     1      76.303  86.812  14.136  1.00  0.00     0.293 HD
ENDBRANCH  17  20
ENDBRANCH   1  12
BRANCH   2  22
ATOM     22  O   UNL     1      77.382  91.272  12.876  1.00  0.00    -0.502 OA
ATOM     23  H   UNL     1      78.214  90.808  12.534  1.00  0.00     0.293 HD
ENDBRANCH   2  22
BRANCH   6  24
ATOM     24  O   UNL     1      72.731  93.846  12.510  1.00  0.00    -0.507 OA
ATOM     25  H   UNL     1      71.933  94.429  12.710  1.00  0.00     0.293 HD
ENDBRANCH   6  24
BRANCH   8  26
ATOM     26  O   UNL     1      69.997  90.378  10.626  1.00  0.00    -0.508 OA
ATOM     27  H   UNL     1      69.748  90.395   9.644  1.00  0.00     0.293 HD
ENDBRANCH   8  26
TORSDOF 6
ENDMDL
MODEL 2
REMARK VINA RESULT:    -5.039      1.792      6.694
REMARK INTER + INTRA:          -6.531
REMARK INTER:                  -6.090
REMARK INTRA:                  -0.441
REMARK UNBOUND:                -0.461
REMARK SMILES O=c1c(O)c(-c2ccc(O)cc2O)oc2cc(O)cc(O)c12
REMARK SMILES IDX 5 1 3 2 2 3 1 4 22 5 20 6 19 7 17 8 16 9 15 10 14 11 6 12
REMARK SMILES IDX 8 13 7 14 9 15 11 16 12 17 10 18 13 20 4 22 21 24 18 26
REMARK H PARENT 10 19 13 21 4 23 21 25 18 27
REMARK Flexibility Score: inf
ROOT
ATOM      1  C   UNL     1      74.648  89.388  11.407  1.00  0.00     0.184 A 
ATOM      2  C   UNL     1      75.321  89.231  12.631  1.00  0.00     0.208 A 
ATOM      3  C   UNL     1      76.572  88.593  12.644  1.00  0.00     0.238 A 
ATOM      4  O   UNL     1      77.194  88.507  13.733  1.00  0.00    -0.285 OA
ATOM      5  C   UNL     1      77.125  88.103  11.436  1.00  0.00     0.111 A 
ATOM      6  C   UNL     1      78.366  87.406  11.337  1.00  0.00     0.134 A 
ATOM      7  C   UNL     1      78.877  87.079  10.075  1.00  0.00     0.093 A 
ATOM      8  C   UNL     1      78.159  87.367   8.911  1.00  0.00     0.123 A 
ATOM      9  C   UNL     1      76.918  87.994   9.001  1.00  0.00     0.094 A 
ATOM     10  C   UNL     1      76.400  88.365  10.243  1.00  0.00     0.146 A 
ATOM     11  O   UNL     1      75.220  88.972  10.283  1.00  0.00    -0.451 OA
ENDROOT
BRANCH   1  12
ATOM     12  C   UNL     1      73.315  90.029  11.325  1.00  0.00     0.063 A 
ATOM     13  C   UNL     1      70.929  90.003  11.803  1.00  0.00     0.047 A 
ATOM     14  C   UNL     1      72.191  89.413  11.904  1.00  0.00     0.020 A 
ATOM     15  C   UNL     1      70.768  91.208  11.116  1.00  0.00     0.119 A 
ATOM     16  C   UNL     1      71.878  91.823  10.524  1.00  0.00     0.093 A 
ATOM     17  C   UNL     1      73.150  91.240  10.622  1.00  0.00     0.130 A 
BRANCH  15  18
ATOM     18  O   UNL     1      69.503  91.784  11.024  1.00  0.00    -0.508 OA
ATOM     19  H   UNL     1      69.329  92.588  10.433  1.00  0.00     0.293 HD
ENDBRANCH  15  18
BRANCH  17  20
ATOM     20  O   UNL     1      74.249  91.867  10.034  1.00  0.00    -0.507 OA
ATOM     21  H   UNL     1      74.142  92.500   9.249  1.00  0.00     0.293 HD
ENDBRANCH  17  20
ENDBRANCH   1  12
BRANCH   2  22
ATOM     22  O   UNL     1      74.761  89.735  13.808  1.00  0.00    -0.502 OA
ATOM     23  H   UNL     1      75.234  90.420  14.386  1.00  0.00     0.293 HD
ENDBRANCH   2  22
BRANCH   6  24
ATOM     24  O   UNL     1      79.118  86.990  12.440  1.00  0.00    -0.507 OA
ATOM     25  H   UNL     1      80.100  87.178  12.570  1.00  0.00     0.293 HD
ENDBRANCH   6  24
BRANCH   8  26
ATOM     26  O   UNL     1      78.666  87.024   7.660  1.00  0.00    -0.508 OA
ATOM     27  H   UNL     1      78.063  86.925   6.852  1.00  0.00     0.293 HD
ENDBRANCH   8  26
TORSDOF 6
ENDMDL
MODEL 3
REMARK VINA RESULT:    -4.941      2.191      3.466
REMARK INTER + INTRA:          -6.413
REMARK INTER:                  -5.986
REMARK INTRA:                  -0.426
REMARK UNBOUND:                -0.461
REMARK SMILES O=c1c(O)c(-c2ccc(O)cc2O)oc2cc(O)cc(O)c12
REMARK SMILES IDX 5 1 3 2 2 3 1 4 22 5 20 6 19 7 17 8 16 9 15 10 14 11 6 12
REMARK SMILES IDX 8 13 7 14 9 15 11 16 12 17 10 18 13 20 4 22 21 24 18 26
REMARK H PARENT 10 19 13 21 4 23 21 25 18 27
REMARK Flexibility Score: inf
ROOT
ATOM      1  C   UNL     1      75.715  88.331  10.495  1.00  0.00     0.184 A 
ATOM      2  C   UNL     1      74.693  87.523  11.022  1.00  0.00     0.208 A 
ATOM      3  C   UNL     1      73.690  88.117  11.805  1.00  0.00     0.238 A 
ATOM      4  O   UNL     1      72.748  87.397  12.226  1.00  0.00    -0.285 OA
ATOM      5  C   UNL     1      73.732  89.507  12.067  1.00  0.00     0.111 A 
ATOM      6  C   UNL     1      72.791  90.208  12.880  1.00  0.00     0.134 A 
ATOM      7  C   UNL     1      72.857  91.604  12.966  1.00  0.00     0.093 A 
ATOM      8  C   UNL     1      73.870  92.319  12.321  1.00  0.00     0.123 A 
ATOM      9  C   UNL     1      74.829  91.638  11.574  1.00  0.00     0.094 A 
ATOM     10  C   UNL     1      74.768  90.249  11.439  1.00  0.00     0.146 A 
ATOM     11  O   UNL     1      75.694  89.641  10.708  1.00  0.00    -0.451 OA
ENDROOT
BRANCH   1  12
ATOM     12  C   UNL     1      76.817  87.766   9.683  1.00  0.00     0.063 A 
ATOM     13  C   UNL     1      77.629  86.831   7.587  1.00  0.00     0.047 A 
ATOM     14  C   UNL     1      76.597  87.390   8.345  1.00  0.00     0.020 A 
ATOM     15  C   UNL     1      78.889  86.629   8.154  1.00  0.00     0.119 A 
ATOM     16  C   UNL     1      79.115  86.986   9.488  1.00  0.00     0.093 A 
ATOM     17  C   UNL     1      78.087  87.550  10.257  1.00  0.00     0.130 A 
BRANCH  15  18
ATOM     18  O   UNL     1      79.907  86.071   7.384  1.00  0.00    -0.508 OA
ATOM     19  H   UNL     1      79.959  85.072   7.220  1.00  0.00     0.293 HD
ENDBRANCH  15  18
BRANCH  17  20
ATOM     20  O   UNL     1      78.327  87.908  11.584  1.00  0.00    -0.507 OA
ATOM     21  H   UNL     1      79.107  88.503  11.841  1.00  0.00     0.293 HD
ENDBRANCH  17  20
ENDBRANCH   1  12
BRANCH   2  22
ATOM     22  O   UNL     1      74.665  86.154  10.739  1.00  0.00    -0.502 OA
ATOM     23  H   UNL     1      73.884  85.562  10.992  1.00  0.00     0.293 HD
ENDBRANCH   2  22
BRANCH   6  24
ATOM     24  O   UNL     1      71.796  89.583  13.638  1.00  0.00    -0.507 OA
ATOM     25  H   UNL     1      71.268  88.777  13.341  1.00  0.00     0.293 HD
ENDBRANCH   6  24
BRANCH   8  26
ATOM     26  O   UNL     1      73.938  93.706  12.426  1.00  0.00    -0.508 OA
ATOM     27  H   UNL     1      73.337  94.309  11.876  1.00  0.00     0.293 HD
ENDBRANCH   8  26
TORSDOF 6
ENDMDL
MODEL 4
REMARK VINA RESULT:    -4.879      2.950      5.403
REMARK INTER + INTRA:          -6.338
REMARK INTER:                  -5.868
REMARK INTRA:                  -0.470
REMARK UNBOUND:                -0.461
REMARK SMILES O=c1c(O)c(-c2ccc(O)cc2O)oc2cc(O)cc(O)c12
REMARK SMILES IDX 5 1 3 2 2 3 1 4 22 5 20 6 19 7 17 8 16 9 15 10 14 11 6 12
REMARK SMILES IDX 8 13 7 14 9 15 11 16 12 17 10 18 13 20 4 22 21 24 18 26
REMARK H PARENT 10 19 13 21 4 23 21 25 18 27
REMARK Flexibility Score: inf
ROOT
ATOM      1  C   UNL     1      72.048  91.833  11.732  1.00  0.00     0.184 A 
ATOM      2  C   UNL     1      71.145  90.770  11.565  1.00  0.00     0.208 A 
ATOM      3  C   UNL     1      69.795  91.057  11.302  1.00  0.00     0.238 A 
ATOM      4  O   UNL     1      69.004  90.101  11.097  1.00  0.00    -0.285 OA
ATOM      5  C   UNL     1      69.363  92.403  11.230  1.00  0.00     0.111 A 
ATOM      6  C   UNL     1      68.013  92.810  11.009  1.00  0.00     0.134 A 
ATOM      7  C   UNL     1      67.721  94.168  10.829  1.00  0.00     0.093 A 
ATOM      8  C   UNL     1      68.722  95.139  10.927  1.00  0.00     0.123 A 
ATOM      9  C   UNL     1      70.033  94.755  11.202  1.00  0.00     0.094 A 
ATOM     10  C   UNL     1      70.361  93.406  11.350  1.00  0.00     0.146 A 
ATOM     11  O   UNL     1      71.624  93.084  11.599  1.00  0.00    -0.451 OA
ENDROOT
BRANCH   1  12
ATOM     12  C   UNL     1      73.479  91.601  12.036  1.00  0.00     0.063 A 
ATOM     13  C   UNL     1      75.253  91.182  13.648  1.00  0.00     0.047 A 
ATOM     14  C   UNL     1      73.900  91.372  13.358  1.00  0.00     0.020 A 
ATOM     15  C   UNL     1      76.205  91.227  12.627  1.00  0.00     0.119 A 
ATOM     16  C   UNL     1      75.799  91.468  11.310  1.00  0.00     0.093 A 
ATOM     17  C   UNL     1      74.443  91.658  11.008  1.00  0.00     0.130 A 
BRANCH  15  18
ATOM     18  O   UNL     1      77.550  91.035  12.934  1.00  0.00    -0.508 OA
ATOM     19  H   UNL     1      77.902  91.160  13.876  1.00  0.00     0.293 HD
ENDBRANCH  15  18
BRANCH  17  20
ATOM     20  O   UNL     1      74.051  91.891   9.689  1.00  0.00    -0.507 OA
ATOM     21  H   UNL     1      74.539  92.556   9.099  1.00  0.00     0.293 HD
ENDBRANCH  17  20
ENDBRANCH   1  12
BRANCH   2  22
ATOM     22  O   UNL     1      71.597  89.449  11.628  1.00  0.00    -0.502 OA
ATOM     23  H   UNL     1      71.578  88.907  12.483  1.00  0.00     0.293 HD
ENDBRANCH   2  22
BRANCH   6  24
ATOM     24  O   UNL     1      66.926  91.931  10.985  1.00  0.00    -0.507 OA
ATOM     25  H   UNL     1      66.462  91.567  11.803  1.00  0.00     0.293 HD
ENDBRANCH   6  24
BRANCH   8  26
ATOM     26  O   UNL     1      68.420  96.488  10.763  1.00  0.00    -0.508 OA
ATOM     27  H   UNL     1      67.505  96.859  10.991  1.00  0.00     0.293 HD
ENDBRANCH   8  26
TORSDOF 6
ENDMDL
MODEL 5
REMARK VINA RESULT:    -4.832      3.088      5.019
REMARK INTER + INTRA:          -6.282
REMARK INTER:                  -5.916
REMARK INTRA:                  -0.366
REMARK UNBOUND:                -0.461
REMARK SMILES O=c1c(O)c(-c2ccc(O)cc2O)oc2cc(O)cc(O)c12
REMARK SMILES IDX 5 1 3 2 2 3 1 4 22 5 20 6 19 7 17 8 16 9 15 10 14 11 6 12
REMARK SMILES IDX 8 13 7 14 9 15 11 16 12 17 10 18 13 20 4 22 21 24 18 26
REMARK H PARENT 10 19 13 21 4 23 21 25 18 27
REMARK Flexibility Score: inf
ROOT
ATOM      1  C   UNL     1      72.190  92.677  12.356  1.00  0.00     0.184 A 
ATOM      2  C   UNL     1      71.811  93.994  12.665  1.00  0.00     0.208 A 
ATOM      3  C   UNL     1      70.474  94.380  12.480  1.00  0.00     0.238 A 
ATOM      4  O   UNL     1      70.130  95.544  12.812  1.00  0.00    -0.285 OA
ATOM      5  C   UNL     1      69.537  93.449  11.969  1.00  0.00     0.111 A 
ATOM      6  C   UNL     1      68.166  93.743  11.703  1.00  0.00     0.134 A 
ATOM      7  C   UNL     1      67.300  92.711  11.320  1.00  0.00     0.093 A 
ATOM      8  C   UNL     1      67.771  91.410  11.129  1.00  0.00     0.123 A 
ATOM      9  C   UNL     1      69.120  91.126  11.328  1.00  0.00     0.094 A 
ATOM     10  C   UNL     1      70.001  92.126  11.746  1.00  0.00     0.146 A 
ATOM     11  O   UNL     1      71.276  91.810  11.936  1.00  0.00    -0.451 OA
ENDROOT
BRANCH   1  12
ATOM     12  C   UNL     1      73.588  92.211  12.505  1.00  0.00     0.063 A 
ATOM     13  C   UNL     1      75.531  91.781  13.906  1.00  0.00     0.047 A 
ATOM     14  C   UNL     1      74.204  92.193  13.769  1.00  0.00     0.020 A 
ATOM     15  C   UNL     1      76.266  91.391  12.784  1.00  0.00     0.119 A 
ATOM     16  C   UNL     1      75.668  91.418  11.519  1.00  0.00     0.093 A 
ATOM     17  C   UNL     1      74.335  91.828  11.372  1.00  0.00     0.130 A 
BRANCH  15  18
ATOM     18  O   UNL     1      77.589  90.982  12.937  1.00  0.00    -0.508 OA
ATOM     19  H   UNL     1      78.304  91.242  12.269  1.00  0.00     0.293 HD
ENDBRANCH  15  18
BRANCH  17  20
ATOM     20  O   UNL     1      73.749  91.843  10.106  1.00  0.00    -0.507 OA
ATOM     21  H   UNL     1      72.742  91.882   9.987  1.00  0.00     0.293 HD
ENDBRANCH  17  20
ENDBRANCH   1  12
BRANCH   2  22
ATOM     22  O   UNL     1      72.751  94.891  13.181  1.00  0.00    -0.502 OA
ATOM     23  H   UNL     1      73.317  94.679  13.994  1.00  0.00     0.293 HD
ENDBRANCH   2  22
BRANCH   6  24
ATOM     24  O   UNL     1      67.614  95.026  11.775  1.00  0.00    -0.507 OA
ATOM     25  H   UNL     1      67.464  95.632  10.983  1.00  0.00     0.293 HD
ENDBRANCH   6  24
BRANCH   8  26
ATOM     26  O   UNL     1      66.907  90.393  10.731  1.00  0.00    -0.508 OA
ATOM     27  H   UNL     1      66.814  89.536  11.265  1.00  0.00     0.293 HD
ENDBRANCH   8  26
TORSDOF 6
ENDMDL
MODEL 6
REMARK VINA RESULT:    -4.778     11.627     15.877
REMARK INTER + INTRA:          -6.217
REMARK INTER:                  -6.051
REMARK INTRA:                  -0.165
REMARK UNBOUND:                -0.461
REMARK SMILES O=c1c(O)c(-c2ccc(O)cc2O)oc2cc(O)cc(O)c12
REMARK SMILES IDX 5 1 3 2 2 3 1 4 22 5 20 6 19 7 17 8 16 9 15 10 14 11 6 12
REMARK SMILES IDX 8 13 7 14 9 15 11 16 12 17 10 18 13 20 4 22 21 24 18 26
REMARK H PARENT 10 19 13 21 4 23 21 25 18 27
REMARK Flexibility Score: inf
ROOT
ATOM      1  C   UNL     1      67.348 101.390   5.683  1.00  0.00     0.184 A 
ATOM      2  C   UNL     1      66.218 100.567   5.826  1.00  0.00     0.208 A 
ATOM      3  C   UNL     1      66.325  99.389   6.583  1.00  0.00     0.238 A 
ATOM      4  O   UNL     1      65.295  98.686   6.754  1.00  0.00    -0.285 OA
ATOM      5  C   UNL     1      67.564  99.039   7.170  1.00  0.00     0.111 A 
ATOM      6  C   UNL     1      67.797  97.849   7.924  1.00  0.00     0.134 A 
ATOM      7  C   UNL     1      69.028  97.668   8.566  1.00  0.00     0.093 A 
ATOM      8  C   UNL     1      70.057  98.603   8.428  1.00  0.00     0.123 A 
ATOM      9  C   UNL     1      69.859  99.739   7.646  1.00  0.00     0.094 A 
ATOM     10  C   UNL     1      68.631  99.965   7.023  1.00  0.00     0.146 A 
ATOM     11  O   UNL     1      68.480 101.066   6.296  1.00  0.00    -0.451 OA
ENDROOT
BRANCH   1  12
ATOM     12  C   UNL     1      67.312 102.633   4.879  1.00  0.00     0.063 A 
ATOM     13  C   UNL     1      66.208 104.710   4.253  1.00  0.00     0.047 A 
ATOM     14  C   UNL     1      66.258 103.552   5.032  1.00  0.00     0.020 A 
ATOM     15  C   UNL     1      67.203 104.965   3.306  1.00  0.00     0.119 A 
ATOM     16  C   UNL     1      68.249 104.051   3.135  1.00  0.00     0.093 A 
ATOM     17  C   UNL     1      68.309 102.886   3.914  1.00  0.00     0.130 A 
BRANCH  15  18
ATOM     18  O   UNL     1      67.139 106.125   2.538  1.00  0.00    -0.508 OA
ATOM     19  H   UNL     1      66.295 106.683   2.492  1.00  0.00     0.293 HD
ENDBRANCH  15  18
BRANCH  17  20
ATOM     20  O   UNL     1      69.361 101.986   3.739  1.00  0.00    -0.507 OA
ATOM     21  H   UNL     1      69.436 101.412   2.907  1.00  0.00     0.293 HD
ENDBRANCH  17  20
ENDBRANCH   1  12
BRANCH   2  22
ATOM     22  O   UNL     1      65.002 100.940   5.248  1.00  0.00    -0.502 OA
ATOM     23  H   UNL     1      64.116 100.836   5.728  1.00  0.00     0.293 HD
ENDBRANCH   2  22
BRANCH   6  24
ATOM     24  O   UNL     1      66.869  96.811   8.049  1.00  0.00    -0.507 OA
ATOM     25  H   UNL     1      66.667  96.131   7.333  1.00  0.00     0.293 HD
ENDBRANCH   6  24
BRANCH   8  26
ATOM     26  O   UNL     1      71.284  98.407   9.057  1.00  0.00    -0.508 OA
ATOM     27  H   UNL     1      71.710  97.489   9.115  1.00  0.00     0.293 HD
ENDBRANCH   8  26
TORSDOF 6
ENDMDL
MODEL 7
REMARK VINA RESULT:    -4.733      2.602      7.155
REMARK INTER + INTRA:          -6.163
REMARK INTER:                  -6.018
REMARK INTRA:                  -0.145
REMARK UNBOUND:                -0.461
REMARK SMILES O=c1c(O)c(-c2ccc(O)cc2O)oc2cc(O)cc(O)c12
REMARK SMILES IDX 5 1 3 2 2 3 1 4 22 5 20 6 19 7 17 8 16 9 15 10 14 11 6 12
REMARK SMILES IDX 8 13 7 14 9 15 11 16 12 17 10 18 13 20 4 22 21 24 18 26
REMARK H PARENT 10 19 13 21 4 23 21 25 18 27
REMARK Flexibility Score: inf
ROOT
ATOM      1  C   UNL     1      76.591  88.726  11.103  1.00  0.00     0.184 A 
ATOM      2  C   UNL     1      75.782  88.063  10.165  1.00  0.00     0.208 A 
ATOM      3  C   UNL     1      76.392  87.284   9.168  1.00  0.00     0.238 A 
ATOM      4  O   UNL     1      75.660  86.648   8.367  1.00  0.00    -0.285 OA
ATOM      5  C   UNL     1      77.803  87.194   9.111  1.00  0.00     0.111 A 
ATOM      6  C   UNL     1      78.529  86.467   8.121  1.00  0.00     0.134 A 
ATOM      7  C   UNL     1      79.919  86.342   8.235  1.00  0.00     0.093 A 
ATOM      8  C   UNL     1      80.616  86.973   9.269  1.00  0.00     0.123 A 
ATOM      9  C   UNL     1      79.922  87.735  10.207  1.00  0.00     0.094 A 
ATOM     10  C   UNL     1      78.532  87.848  10.140  1.00  0.00     0.146 A 
ATOM     11  O   UNL     1      77.909  88.574  11.060  1.00  0.00    -0.451 OA
ENDROOT
BRANCH   1  12
ATOM     12  C   UNL     1      76.014  89.583  12.165  1.00  0.00     0.063 A 
ATOM     13  C   UNL     1      74.348  89.962  13.899  1.00  0.00     0.047 A 
ATOM     14  C   UNL     1      74.910  89.142  12.917  1.00  0.00     0.020 A 
ATOM     15  C   UNL     1      74.872  91.234  14.137  1.00  0.00     0.119 A 
ATOM     16  C   UNL     1      75.961  91.689  13.385  1.00  0.00     0.093 A 
ATOM     17  C   UNL     1      76.534  90.873  12.399  1.00  0.00     0.130 A 
BRANCH  15  18
ATOM     18  O   UNL     1      74.300  92.039  15.120  1.00  0.00    -0.508 OA
ATOM     19  H   UNL     1      74.468  91.871  16.105  1.00  0.00     0.293 HD
ENDBRANCH  15  18
BRANCH  17  20
ATOM     20  O   UNL     1      77.624  91.336  11.661  1.00  0.00    -0.507 OA
ATOM     21  H   UNL     1      78.578  91.159  11.956  1.00  0.00     0.293 HD
ENDBRANCH  17  20
ENDBRANCH   1  12
BRANCH   2  22
ATOM     22  O   UNL     1      74.389  88.156  10.250  1.00  0.00    -0.502 OA
ATOM     23  H   UNL     1      73.889  89.018  10.065  1.00  0.00     0.293 HD
ENDBRANCH   2  22
BRANCH   6  24
ATOM     24  O   UNL     1      77.941  85.875   6.999  1.00  0.00    -0.507 OA
ATOM     25  H   UNL     1      77.242  86.312   6.418  1.00  0.00     0.293 HD
ENDBRANCH   6  24
BRANCH   8  26
ATOM     26  O   UNL     1      82.000  86.857   9.367  1.00  0.00    -0.508 OA
ATOM     27  H   UNL     1      82.622  87.446   8.824  1.00  0.00     0.293 HD
ENDBRANCH   8  26
TORSDOF 6
ENDMDL
MODEL 8
REMARK VINA RESULT:    -4.711      1.960      6.978
REMARK INTER + INTRA:          -6.136
REMARK INTER:                  -5.798
REMARK INTRA:                  -0.337
REMARK UNBOUND:                -0.461
REMARK SMILES O=c1c(O)c(-c2ccc(O)cc2O)oc2cc(O)cc(O)c12
REMARK SMILES IDX 5 1 3 2 2 3 1 4 22 5 20 6 19 7 17 8 16 9 15 10 14 11 6 12
REMARK SMILES IDX 8 13 7 14 9 15 11 16 12 17 10 18 13 20 4 22 21 24 18 26
REMARK H PARENT 10 19 13 21 4 23 21 25 18 27
REMARK Flexibility Score: inf
ROOT
ATOM      1  C   UNL     1      72.491  91.436  11.985  1.00  0.00     0.184 A 
ATOM      2  C   UNL     1      73.455  92.443  12.162  1.00  0.00     0.208 A 
ATOM      3  C   UNL     1      74.813  92.119  12.016  1.00  0.00     0.238 A 
ATOM      4  O   UNL     1      75.667  93.037  12.119  1.00  0.00    -0.285 OA
ATOM      5  C   UNL     1      75.191  90.788  11.715  1.00  0.00     0.111 A 
ATOM      6  C   UNL     1      76.539  90.338  11.584  1.00  0.00     0.134 A 
ATOM      7  C   UNL     1      76.793  89.028  11.159  1.00  0.00     0.093 A 
ATOM      8  C   UNL     1      75.746  88.133  10.923  1.00  0.00     0.123 A 
ATOM      9  C   UNL     1      74.428  88.546  11.106  1.00  0.00     0.094 A 
ATOM     10  C   UNL     1      74.143  89.856  11.494  1.00  0.00     0.146 A 
ATOM     11  O   UNL     1      72.873  90.211  11.644  1.00  0.00    -0.451 OA
ENDROOT
BRANCH   1  12
ATOM     12  C   UNL     1      71.043  91.704  12.149  1.00  0.00     0.063 A 
ATOM     13  C   UNL     1      68.977  91.438  13.407  1.00  0.00     0.047 A 
ATOM     14  C   UNL     1      70.348  91.210  13.267  1.00  0.00     0.020 A 
ATOM     15  C   UNL     1      68.278  92.152  12.431  1.00  0.00     0.119 A 
ATOM     16  C   UNL     1      68.957  92.636  11.306  1.00  0.00     0.093 A 
ATOM     17  C   UNL     1      70.334  92.415  11.158  1.00  0.00     0.130 A 
BRANCH  15  18
ATOM     18  O   UNL     1      66.912  92.371  12.586  1.00  0.00    -0.508 OA
ATOM     19  H   UNL     1      66.251  91.603  12.597  1.00  0.00     0.293 HD
ENDBRANCH  15  18
BRANCH  17  20
ATOM     20  O   UNL     1      71.000  92.909  10.036  1.00  0.00    -0.507 OA
ATOM     21  H   UNL     1      71.226  93.893   9.942  1.00  0.00     0.293 HD
ENDBRANCH  17  20
ENDBRANCH   1  12
BRANCH   2  22
ATOM     22  O   UNL     1      73.057  93.753  12.445  1.00  0.00    -0.502 OA
ATOM     23  H   UNL     1      72.496  94.302  11.804  1.00  0.00     0.293 HD
ENDBRANCH   2  22
BRANCH   6  24
ATOM     24  O   UNL     1      77.657  91.124  11.883  1.00  0.00    -0.507 OA
ATOM     25  H   UNL     1      77.830  92.044  11.509  1.00  0.00     0.293 HD
ENDBRANCH   6  24
BRANCH   8  26
ATOM     26  O   UNL     1      76.007  86.827  10.516  1.00  0.00    -0.508 OA
ATOM     27  H   UNL     1      76.110  86.073  11.186  1.00  0.00     0.293 HD
ENDBRANCH   8  26
TORSDOF 6
ENDMDL
MODEL 9
REMARK VINA RESULT:    -4.663     10.032     14.330
REMARK INTER + INTRA:          -6.078
REMARK INTER:                  -5.737
REMARK INTRA:                  -0.341
REMARK UNBOUND:                -0.461
REMARK SMILES O=c1c(O)c(-c2ccc(O)cc2O)oc2cc(O)cc(O)c12
REMARK SMILES IDX 5 1 3 2 2 3 1 4 22 5 20 6 19 7 17 8 16 9 15 10 14 11 6 12
REMARK SMILES IDX 8 13 7 14 9 15 11 16 12 17 10 18 13 20 4 22 21 24 18 26
REMARK H PARENT 10 19 13 21 4 23 21 25 18 27
REMARK Flexibility Score: inf
ROOT
ATOM      1  C   UNL     1      68.089 100.654   7.338  1.00  0.00     0.184 A 
ATOM      2  C   UNL     1      68.664 101.459   8.336  1.00  0.00     0.208 A 
ATOM      3  C   UNL     1      69.425 100.850   9.348  1.00  0.00     0.238 A 
ATOM      4  O   UNL     1      69.983 101.582  10.205  1.00  0.00    -0.285 OA
ATOM      5  C   UNL     1      69.586  99.444   9.357  1.00  0.00     0.111 A 
ATOM      6  C   UNL     1      70.303  98.717  10.355  1.00  0.00     0.134 A 
ATOM      7  C   UNL     1      70.506  97.341  10.197  1.00  0.00     0.093 A 
ATOM      8  C   UNL     1      69.961  96.654   9.108  1.00  0.00     0.123 A 
ATOM      9  C   UNL     1      69.209  97.345   8.160  1.00  0.00     0.094 A 
ATOM     10  C   UNL     1      69.021  98.724   8.272  1.00  0.00     0.146 A 
ATOM     11  O   UNL     1      68.308  99.345   7.341  1.00  0.00    -0.451 OA
ENDROOT
BRANCH   1  12
ATOM     12  C   UNL     1      67.254 101.228   6.257  1.00  0.00     0.063 A 
ATOM     13  C   UNL     1      66.996 102.740   4.367  1.00  0.00     0.047 A 
ATOM     14  C   UNL     1      67.791 102.178   5.369  1.00  0.00     0.020 A 
ATOM     15  C   UNL     1      65.655 102.371   4.243  1.00  0.00     0.119 A 
ATOM     16  C   UNL     1      65.107 101.437   5.130  1.00  0.00     0.093 A 
ATOM     17  C   UNL     1      65.897 100.865   6.137  1.00  0.00     0.130 A 
BRANCH  15  18
ATOM     18  O   UNL     1      64.876 102.941   3.239  1.00  0.00    -0.508 OA
ATOM     19  H   UNL     1      63.889 103.127   3.376  1.00  0.00     0.293 HD
ENDBRANCH  15  18
BRANCH  17  20
ATOM     20  O   UNL     1      65.340  99.930   7.010  1.00  0.00    -0.507 OA
ATOM     21  H   UNL     1      64.803  99.140   6.671  1.00  0.00     0.293 HD
ENDBRANCH  17  20
ENDBRANCH   1  12
BRANCH   2  22
ATOM     22  O   UNL     1      68.502 102.847   8.298  1.00  0.00    -0.502 OA
ATOM     23  H   UNL     1      67.968 103.352   8.994  1.00  0.00     0.293 HD
ENDBRANCH   2  22
BRANCH   6  24
ATOM     24  O   UNL     1      70.809  99.291  11.526  1.00  0.00    -0.507 OA
ATOM     25  H   UNL     1      71.343  98.797  12.224  1.00  0.00     0.293 HD
ENDBRANCH   6  24
BRANCH   8  26
ATOM     26  O   UNL     1      70.154  95.282   8.966  1.00  0.00    -0.508 OA
ATOM     27  H   UNL     1      69.737  94.764   8.201  1.00  0.00     0.293 HD
ENDBRANCH   8  26
TORSDOF 6
ENDMDL
