MODEL 1
REMARK VINA RESULT:    -5.622      0.000      0.000
REMARK INTER + INTRA:         -15.834
REMARK INTER:                 -14.167
REMARK INTRA:                  -1.667
REMARK UNBOUND:                -1.667
REMARK SMILES CCCCCCCCCCCCCCCCCCCCCCCCCCCC(=O)[O-]
REMARK SMILES IDX 15 1 16 2 17 3 18 4 19 5 20 6 21 7 22 8 23 9 24 10 25 11
REMARK SMILES IDX 26 12 27 13 28 14 29 15 30 16 14 17 13 18 12 19 11 20 10 21
REMARK SMILES IDX 9 22 8 23 7 24 6 25 5 26 4 27 3 28 2 29 1 30
REMARK H PARENT
REMARK Flexibility Score: inf
ROOT
ATOM      1  C   UNL     1      12.833  22.912  34.546  1.00  0.00     0.000 C 
ENDROOT
BRANCH   1   2
ATOM      2  C   UNL     1      12.407  21.618  35.258  1.00  0.00     0.000 C 
BRANCH   2   3
ATOM      3  C   UNL     1      11.403  21.873  36.397  1.00  0.00     0.000 C 
BRANCH   3   4
ATOM      4  C   UNL     1      12.057  22.477  37.657  1.00  0.00     0.000 C 
BRANCH   4   5
ATOM      5  C   UNL     1      11.125  22.542  38.883  1.00  0.00     0.000 C 
BRANCH   5   6
ATOM      6  C   UNL     1      10.457  21.211  39.273  1.00  0.00     0.000 C 
BRANCH   6   7
ATOM      7  C   UNL     1       9.946  21.130  40.726  1.00  0.00     0.000 C 
BRANCH   7   8
ATOM      8  C   UNL     1       9.313  22.427  41.263  1.00  0.00     0.000 C 
BRANCH   8   9
ATOM      9  C   UNL     1      10.216  23.155  42.269  1.00  0.00     0.000 C 
BRANCH   9  10
ATOM     10  C   UNL     1      11.386  22.261  42.704  1.00  0.00     0.000 C 
BRANCH  10  11
ATOM     11  C   UNL     1      12.519  23.051  43.383  1.00  0.00     0.000 C 
BRANCH  11  12
ATOM     12  C   UNL     1      12.121  23.641  44.753  1.00  0.00     0.006 C 
BRANCH  12  13
ATOM     13  C   UNL     1      13.211  23.430  45.813  1.00  0.00     0.053 C 
BRANCH  13  14
ATOM     14  C   UNL     1      13.345  21.977  46.147  1.00  0.00     0.041 C 
ATOM     15  O   UNL     1      12.404  21.371  46.721  1.00  0.00    -0.550 OA
ATOM     16  O   UNL     1      14.532  21.308  45.874  1.00  0.00    -0.550 OA
ENDBRANCH  13  14
ENDBRANCH  12  13
ENDBRANCH  11  12
ENDBRANCH  10  11
ENDBRANCH   9  10
ENDBRANCH   8   9
ENDBRANCH   7   8
ENDBRANCH   6   7
ENDBRANCH   5   6
ENDBRANCH   4   5
ENDBRANCH   3   4
ENDBRANCH   2   3
ENDBRANCH   1   2
BRANCH   1  17
ATOM     17  C   UNL     1      14.357  23.120  34.551  1.00  0.00     0.000 C 
BRANCH  17  18
ATOM     18  C   UNL     1      15.143  21.795  34.606  1.00  0.00     0.000 C 
BRANCH  18  19
ATOM     19  C   UNL     1      16.670  21.939  34.462  1.00  0.00     0.000 C 
BRANCH  19  20
ATOM     20  C   UNL     1      17.195  21.978  33.015  1.00  0.00     0.000 C 
BRANCH  20  21
ATOM     21  C   UNL     1      18.723  22.165  32.905  1.00  0.00     0.000 C 
BRANCH  21  22
ATOM     22  C   UNL     1      19.481  20.827  32.837  1.00  0.00    -0.000 C 
BRANCH  22  23
ATOM     23  C   UNL     1      20.774  20.845  33.671  1.00  0.00    -0.000 C 
BRANCH  23  24
ATOM     24  C   UNL     1      20.879  22.094  34.567  1.00  0.00    -0.000 C 
BRANCH  24  25
ATOM     25  C   UNL     1      20.875  21.745  36.065  1.00  0.00    -0.000 C 
BRANCH  25  26
ATOM     26  C   UNL     1      22.286  21.442  36.602  1.00  0.00    -0.000 C 
BRANCH  26  27
ATOM     27  C   UNL     1      23.374  22.276  35.907  1.00  0.00    -0.000 C 
BRANCH  27  28
ATOM     28  C   UNL     1      24.793  21.921  36.388  1.00  0.00    -0.000 C 
BRANCH  28  29
ATOM     29  C   UNL     1      25.450  23.064  37.177  1.00  0.00    -0.003 C 
ATOM     30  C   UNL     1      24.625  23.496  38.388  1.00  0.00     0.004 C 
ENDBRANCH  28  29
ENDBRANCH  27  28
ENDBRANCH  26  27
ENDBRANCH  25  26
ENDBRANCH  24  25
ENDBRANCH  23  24
ENDBRANCH  22  23
ENDBRANCH  21  22
ENDBRANCH  20  21
ENDBRANCH  19  20
ENDBRANCH  18  19
ENDBRANCH  17  18
ENDBRANCH   1  17
TORSDOF 26
ENDMDL
MODEL 2
REMARK VINA RESULT:    -5.536      6.274     10.997
REMARK INTER + INTRA:         -15.618
REMARK INTER:                 -11.688
REMARK INTRA:                  -3.930
REMARK UNBOUND:                -1.667
REMARK SMILES CCCCCCCCCCCCCCCCCCCCCCCCCCCC(=O)[O-]
REMARK SMILES IDX 15 1 16 2 17 3 18 4 19 5 20 6 21 7 22 8 23 9 24 10 25 11
REMARK SMILES IDX 26 12 27 13 28 14 29 15 30 16 14 17 13 18 12 19 11 20 10 21
REMARK SMILES IDX 9 22 8 23 7 24 6 25 5 26 4 27 3 28 2 29 1 30
REMARK H PARENT
REMARK Flexibility Score: inf
ROOT
ATOM      1  C   UNL     1      12.909  22.664  47.280  1.00  0.00     0.000 C 
ENDROOT
BRANCH   1   2
ATOM      2  C   UNL     1      12.790  21.825  45.997  1.00  0.00     0.000 C 
BRANCH   2   3
ATOM      3  C   UNL     1      14.089  21.070  45.662  1.00  0.00     0.000 C 
BRANCH   3   4
ATOM      4  C   UNL     1      14.931  21.767  44.574  1.00  0.00     0.000 C 
BRANCH   4   5
ATOM      5  C   UNL     1      16.426  21.906  44.925  1.00  0.00     0.000 C 
BRANCH   5   6
ATOM      6  C   UNL     1      16.840  23.267  45.513  1.00  0.00     0.000 C 
BRANCH   6   7
ATOM      7  C   UNL     1      16.531  23.459  47.012  1.00  0.00     0.000 C 
BRANCH   7   8
ATOM      8  C   UNL     1      17.770  23.609  47.914  1.00  0.00     0.000 C 
BRANCH   8   9
ATOM      9  C   UNL     1      18.313  22.258  48.403  1.00  0.00     0.000 C 
BRANCH   9  10
ATOM     10  C   UNL     1      19.811  22.351  48.725  1.00  0.00     0.000 C 
BRANCH  10  11
ATOM     11  C   UNL     1      20.451  23.652  48.209  1.00  0.00     0.000 C 
BRANCH  11  12
ATOM     12  C   UNL     1      21.361  23.444  46.980  1.00  0.00     0.006 C 
BRANCH  12  13
ATOM     13  C   UNL     1      20.640  23.768  45.664  1.00  0.00     0.053 C 
BRANCH  13  14
ATOM     14  C   UNL     1      20.812  22.652  44.681  1.00  0.00     0.041 C 
ATOM     15  O   UNL     1      21.870  21.972  44.676  1.00  0.00    -0.550 OA
ATOM     16  O   UNL     1      19.826  22.400  43.736  1.00  0.00    -0.550 OA
ENDBRANCH  13  14
ENDBRANCH  12  13
ENDBRANCH  11  12
ENDBRANCH  10  11
ENDBRANCH   9  10
ENDBRANCH   8   9
ENDBRANCH   7   8
ENDBRANCH   6   7
ENDBRANCH   5   6
ENDBRANCH   4   5
ENDBRANCH   3   4
ENDBRANCH   2   3
ENDBRANCH   1   2
BRANCH   1  17
ATOM     17  C   UNL     1      12.527  24.138  47.065  1.00  0.00     0.000 C 
BRANCH  17  18
ATOM     18  C   UNL     1      12.631  24.576  45.591  1.00  0.00     0.000 C 
BRANCH  18  19
ATOM     19  C   UNL     1      13.910  25.356  45.234  1.00  0.00     0.000 C 
BRANCH  19  20
ATOM     20  C   UNL     1      13.973  25.895  43.791  1.00  0.00     0.000 C 
BRANCH  20  21
ATOM     21  C   UNL     1      14.426  24.850  42.749  1.00  0.00     0.000 C 
BRANCH  21  22
ATOM     22  C   UNL     1      13.242  24.123  42.086  1.00  0.00    -0.000 C 
BRANCH  22  23
ATOM     23  C   UNL     1      13.116  24.457  40.589  1.00  0.00    -0.000 C 
BRANCH  23  24
ATOM     24  C   UNL     1      12.842  23.208  39.729  1.00  0.00    -0.000 C 
BRANCH  24  25
ATOM     25  C   UNL     1      12.653  21.939  40.578  1.00  0.00    -0.000 C 
BRANCH  25  26
ATOM     26  C   UNL     1      11.723  20.915  39.905  1.00  0.00    -0.000 C 
BRANCH  26  27
ATOM     27  C   UNL     1      10.271  21.021  40.398  1.00  0.00    -0.000 C 
BRANCH  27  28
ATOM     28  C   UNL     1      10.073  22.148  41.428  1.00  0.00    -0.000 C 
BRANCH  28  29
ATOM     29  C   UNL     1       8.903  23.076  41.069  1.00  0.00    -0.003 C 
ATOM     30  C   UNL     1       9.336  24.267  40.214  1.00  0.00     0.004 C 
ENDBRANCH  28  29
ENDBRANCH  27  28
ENDBRANCH  26  27
ENDBRANCH  25  26
ENDBRANCH  24  25
ENDBRANCH  23  24
ENDBRANCH  22  23
ENDBRANCH  21  22
ENDBRANCH  20  21
ENDBRANCH  19  20
ENDBRANCH  18  19
ENDBRANCH  17  18
ENDBRANCH   1  17
TORSDOF 26
ENDMDL
MODEL 3
REMARK VINA RESULT:    -5.521      2.943     10.938
REMARK INTER + INTRA:         -15.579
REMARK INTER:                 -13.200
REMARK INTRA:                  -2.379
REMARK UNBOUND:                -1.667
REMARK SMILES CCCCCCCCCCCCCCCCCCCCCCCCCCCC(=O)[O-]
REMARK SMILES IDX 15 1 16 2 17 3 18 4 19 5 20 6 21 7 22 8 23 9 24 10 25 11
REMARK SMILES IDX 26 12 27 13 28 14 29 15 30 16 14 17 13 18 12 19 11 20 10 21
REMARK SMILES IDX 9 22 8 23 7 24 6 25 5 26 4 27 3 28 2 29 1 30
REMARK H PARENT
REMARK Flexibility Score: inf
ROOT
ATOM      1  C   UNL     1      19.507  20.641  33.552  1.00  0.00     0.000 C 
ENDROOT
BRANCH   1   2
ATOM      2  C   UNL     1      20.834  20.921  34.275  1.00  0.00     0.000 C 
BRANCH   2   3
ATOM      3  C   UNL     1      20.729  22.093  35.269  1.00  0.00     0.000 C 
BRANCH   3   4
ATOM      4  C   UNL     1      21.956  22.212  36.196  1.00  0.00     0.000 C 
BRANCH   4   5
ATOM      5  C   UNL     1      23.307  21.992  35.487  1.00  0.00     0.000 C 
BRANCH   5   6
ATOM      6  C   UNL     1      24.551  22.394  36.299  1.00  0.00     0.000 C 
BRANCH   6   7
ATOM      7  C   UNL     1      25.189  21.264  37.132  1.00  0.00     0.000 C 
BRANCH   7   8
ATOM      8  C   UNL     1      24.871  21.311  38.638  1.00  0.00     0.000 C 
BRANCH   8   9
ATOM      9  C   UNL     1      24.499  22.720  39.121  1.00  0.00     0.000 C 
BRANCH   9  10
ATOM     10  C   UNL     1      23.056  22.759  39.645  1.00  0.00     0.000 C 
BRANCH  10  11
ATOM     11  C   UNL     1      22.631  21.442  40.319  1.00  0.00     0.000 C 
BRANCH  11  12
ATOM     12  C   UNL     1      21.180  21.027  39.996  1.00  0.00     0.006 C 
BRANCH  12  13
ATOM     13  C   UNL     1      21.120  19.847  39.016  1.00  0.00     0.053 C 
BRANCH  13  14
ATOM     14  C   UNL     1      19.902  19.943  38.152  1.00  0.00     0.041 C 
ATOM     15  O   UNL     1      19.156  20.954  38.220  1.00  0.00    -0.550 OA
ATOM     16  O   UNL     1      19.561  18.890  37.312  1.00  0.00    -0.550 OA
ENDBRANCH  13  14
ENDBRANCH  12  13
ENDBRANCH  11  12
ENDBRANCH  10  11
ENDBRANCH   9  10
ENDBRANCH   8   9
ENDBRANCH   7   8
ENDBRANCH   6   7
ENDBRANCH   5   6
ENDBRANCH   4   5
ENDBRANCH   3   4
ENDBRANCH   2   3
ENDBRANCH   1   2
BRANCH   1  17
ATOM     17  C   UNL     1      19.117  21.759  32.571  1.00  0.00     0.000 C 
BRANCH  17  18
ATOM     18  C   UNL     1      17.650  22.206  32.723  1.00  0.00     0.000 C 
BRANCH  18  19
ATOM     19  C   UNL     1      16.995  21.839  34.068  1.00  0.00     0.000 C 
BRANCH  19  20
ATOM     20  C   UNL     1      15.506  22.215  34.201  1.00  0.00     0.000 C 
BRANCH  20  21
ATOM     21  C   UNL     1      14.700  21.274  35.121  1.00  0.00     0.000 C 
BRANCH  21  22
ATOM     22  C   UNL     1      13.355  20.850  34.503  1.00  0.00    -0.000 C 
BRANCH  22  23
ATOM     23  C   UNL     1      12.208  21.799  34.892  1.00  0.00    -0.000 C 
BRANCH  23  24
ATOM     24  C   UNL     1      12.417  22.436  36.280  1.00  0.00    -0.000 C 
BRANCH  24  25
ATOM     25  C   UNL     1      11.519  21.804  37.357  1.00  0.00    -0.000 C 
BRANCH  25  26
ATOM     26  C   UNL     1      11.577  22.568  38.692  1.00  0.00    -0.000 C 
BRANCH  26  27
ATOM     27  C   UNL     1      10.369  22.275  39.595  1.00  0.00    -0.000 C 
BRANCH  27  28
ATOM     28  C   UNL     1      10.057  23.429  40.565  1.00  0.00    -0.000 C 
BRANCH  28  29
ATOM     29  C   UNL     1       9.617  22.932  41.950  1.00  0.00    -0.003 C 
ATOM     30  C   UNL     1      10.754  22.945  42.971  1.00  0.00     0.004 C 
ENDBRANCH  28  29
ENDBRANCH  27  28
ENDBRANCH  26  27
ENDBRANCH  25  26
ENDBRANCH  24  25
ENDBRANCH  23  24
ENDBRANCH  22  23
ENDBRANCH  21  22
ENDBRANCH  20  21
ENDBRANCH  19  20
ENDBRANCH  18  19
ENDBRANCH  17  18
ENDBRANCH   1  17
TORSDOF 26
ENDMDL
MODEL 4
REMARK VINA RESULT:    -5.492      1.217      3.038
REMARK INTER + INTRA:         -15.505
REMARK INTER:                 -13.567
REMARK INTRA:                  -1.938
REMARK UNBOUND:                -1.667
REMARK SMILES CCCCCCCCCCCCCCCCCCCCCCCCCCCC(=O)[O-]
REMARK SMILES IDX 15 1 16 2 17 3 18 4 19 5 20 6 21 7 22 8 23 9 24 10 25 11
REMARK SMILES IDX 26 12 27 13 28 14 29 15 30 16 14 17 13 18 12 19 11 20 10 21
REMARK SMILES IDX 9 22 8 23 7 24 6 25 5 26 4 27 3 28 2 29 1 30
REMARK H PARENT
REMARK Flexibility Score: inf
ROOT
ATOM      1  C   UNL     1      16.142  21.871  33.892  1.00  0.00     0.000 C 
ENDROOT
BRANCH   1   2
ATOM      2  C   UNL     1      15.390  21.528  35.188  1.00  0.00     0.000 C 
BRANCH   2   3
ATOM      3  C   UNL     1      14.043  20.831  34.923  1.00  0.00     0.000 C 
BRANCH   3   4
ATOM      4  C   UNL     1      12.885  21.822  34.688  1.00  0.00     0.000 C 
BRANCH   4   5
ATOM      5  C   UNL     1      12.515  22.665  35.925  1.00  0.00     0.000 C 
BRANCH   5   6
ATOM      6  C   UNL     1      12.367  21.877  37.239  1.00  0.00     0.000 C 
BRANCH   6   7
ATOM      7  C   UNL     1      10.953  21.882  37.855  1.00  0.00     0.000 C 
BRANCH   7   8
ATOM      8  C   UNL     1      10.826  22.659  39.179  1.00  0.00     0.000 C 
BRANCH   8   9
ATOM      9  C   UNL     1      10.124  21.848  40.277  1.00  0.00     0.000 C 
BRANCH   9  10
ATOM     10  C   UNL     1       9.369  22.770  41.245  1.00  0.00     0.000 C 
BRANCH  10  11
ATOM     11  C   UNL     1      10.045  22.867  42.624  1.00  0.00     0.000 C 
BRANCH  11  12
ATOM     12  C   UNL     1      11.579  22.702  42.569  1.00  0.00     0.006 C 
BRANCH  12  13
ATOM     13  C   UNL     1      12.273  23.330  43.786  1.00  0.00     0.053 C 
BRANCH  13  14
ATOM     14  C   UNL     1      12.746  22.268  44.728  1.00  0.00     0.041 C 
ATOM     15  O   UNL     1      13.609  21.431  44.356  1.00  0.00    -0.550 OA
ATOM     16  O   UNL     1      12.193  22.168  45.999  1.00  0.00    -0.550 OA
ENDBRANCH  13  14
ENDBRANCH  12  13
ENDBRANCH  11  12
ENDBRANCH  10  11
ENDBRANCH   9  10
ENDBRANCH   8   9
ENDBRANCH   7   8
ENDBRANCH   6   7
ENDBRANCH   5   6
ENDBRANCH   4   5
ENDBRANCH   3   4
ENDBRANCH   2   3
ENDBRANCH   1   2
BRANCH   1  17
ATOM     17  C   UNL     1      17.669  21.775  34.047  1.00  0.00     0.000 C 
BRANCH  17  18
ATOM     18  C   UNL     1      18.428  22.145  32.758  1.00  0.00     0.000 C 
BRANCH  18  19
ATOM     19  C   UNL     1      19.963  22.088  32.868  1.00  0.00     0.000 C 
BRANCH  19  20
ATOM     20  C   UNL     1      20.513  21.120  33.933  1.00  0.00     0.000 C 
BRANCH  20  21
ATOM     21  C   UNL     1      21.563  21.750  34.873  1.00  0.00     0.000 C 
BRANCH  21  22
ATOM     22  C   UNL     1      20.970  22.167  36.230  1.00  0.00    -0.000 C 
BRANCH  22  23
ATOM     23  C   UNL     1      20.635  20.957  37.119  1.00  0.00    -0.000 C 
BRANCH  23  24
ATOM     24  C   UNL     1      21.875  20.397  37.842  1.00  0.00    -0.000 C 
BRANCH  24  25
ATOM     25  C   UNL     1      21.864  20.701  39.349  1.00  0.00    -0.000 C 
BRANCH  25  26
ATOM     26  C   UNL     1      22.703  21.940  39.705  1.00  0.00    -0.000 C 
BRANCH  26  27
ATOM     27  C   UNL     1      24.103  21.909  39.071  1.00  0.00    -0.000 C 
BRANCH  27  28
ATOM     28  C   UNL     1      24.565  23.293  38.581  1.00  0.00    -0.000 C 
BRANCH  28  29
ATOM     29  C   UNL     1      24.975  23.287  37.100  1.00  0.00    -0.003 C 
ATOM     30  C   UNL     1      24.978  21.884  36.494  1.00  0.00     0.004 C 
ENDBRANCH  28  29
ENDBRANCH  27  28
ENDBRANCH  26  27
ENDBRANCH  25  26
ENDBRANCH  24  25
ENDBRANCH  23  24
ENDBRANCH  22  23
ENDBRANCH  21  22
ENDBRANCH  20  21
ENDBRANCH  19  20
ENDBRANCH  18  19
ENDBRANCH  17  18
ENDBRANCH   1  17
TORSDOF 26
ENDMDL
MODEL 5
REMARK VINA RESULT:    -5.482      3.564     11.004
REMARK INTER + INTRA:         -15.480
REMARK INTER:                 -13.124
REMARK INTRA:                  -2.356
REMARK UNBOUND:                -1.667
REMARK SMILES CCCCCCCCCCCCCCCCCCCCCCCCCCCC(=O)[O-]
REMARK SMILES IDX 15 1 16 2 17 3 18 4 19 5 20 6 21 7 22 8 23 9 24 10 25 11
REMARK SMILES IDX 26 12 27 13 28 14 29 15 30 16 14 17 13 18 12 19 11 20 10 21
REMARK SMILES IDX 9 22 8 23 7 24 6 25 5 26 4 27 3 28 2 29 1 30
REMARK H PARENT
REMARK Flexibility Score: inf
ROOT
ATOM      1  C   UNL     1      10.521  21.139  39.219  1.00  0.00     0.000 C 
ENDROOT
BRANCH   1   2
ATOM      2  C   UNL     1      11.238  22.368  38.639  1.00  0.00     0.000 C 
BRANCH   2   3
ATOM      3  C   UNL     1      11.625  22.185  37.160  1.00  0.00     0.000 C 
BRANCH   3   4
ATOM      4  C   UNL     1      13.004  21.520  36.973  1.00  0.00     0.000 C 
BRANCH   4   5
ATOM      5  C   UNL     1      13.148  20.723  35.661  1.00  0.00     0.000 C 
BRANCH   5   6
ATOM      6  C   UNL     1      13.971  21.414  34.558  1.00  0.00     0.000 C 
BRANCH   6   7
ATOM      7  C   UNL     1      14.863  22.579  35.033  1.00  0.00     0.000 C 
BRANCH   7   8
ATOM      8  C   UNL     1      16.370  22.267  35.073  1.00  0.00     0.000 C 
BRANCH   8   9
ATOM      9  C   UNL     1      16.896  21.716  33.739  1.00  0.00     0.000 C 
BRANCH   9  10
ATOM     10  C   UNL     1      18.198  22.418  33.329  1.00  0.00     0.000 C 
BRANCH  10  11
ATOM     11  C   UNL     1      19.227  21.454  32.713  1.00  0.00     0.000 C 
BRANCH  11  12
ATOM     12  C   UNL     1      20.075  20.707  33.764  1.00  0.00     0.006 C 
BRANCH  12  13
ATOM     13  C   UNL     1      21.304  21.518  34.199  1.00  0.00     0.053 C 
BRANCH  13  14
ATOM     14  C   UNL     1      21.242  21.822  35.663  1.00  0.00     0.041 C 
ATOM     15  O   UNL     1      22.183  21.471  36.422  1.00  0.00    -0.550 OA
ATOM     16  O   UNL     1      20.121  22.445  36.197  1.00  0.00    -0.550 OA
ENDBRANCH  13  14
ENDBRANCH  12  13
ENDBRANCH  11  12
ENDBRANCH  10  11
ENDBRANCH   9  10
ENDBRANCH   8   9
ENDBRANCH   7   8
ENDBRANCH   6   7
ENDBRANCH   5   6
ENDBRANCH   4   5
ENDBRANCH   3   4
ENDBRANCH   2   3
ENDBRANCH   1   2
BRANCH   1  17
ATOM     17  C   UNL     1       9.762  21.451  40.519  1.00  0.00     0.000 C 
BRANCH  17  18
ATOM     18  C   UNL     1       9.939  22.910  40.982  1.00  0.00     0.000 C 
BRANCH  18  19
ATOM     19  C   UNL     1      10.205  23.087  42.489  1.00  0.00     0.000 C 
BRANCH  19  20
ATOM     20  C   UNL     1      11.487  22.413  43.015  1.00  0.00     0.000 C 
BRANCH  20  21
ATOM     21  C   UNL     1      12.775  22.857  42.289  1.00  0.00     0.000 C 
BRANCH  21  22
ATOM     22  C   UNL     1      13.816  23.464  43.246  1.00  0.00    -0.000 C 
BRANCH  22  23
ATOM     23  C   UNL     1      13.350  24.802  43.845  1.00  0.00    -0.000 C 
BRANCH  23  24
ATOM     24  C   UNL     1      13.613  24.892  45.360  1.00  0.00    -0.000 C 
BRANCH  24  25
ATOM     25  C   UNL     1      12.497  24.236  46.191  1.00  0.00    -0.000 C 
BRANCH  25  26
ATOM     26  C   UNL     1      13.046  23.252  47.239  1.00  0.00    -0.000 C 
BRANCH  26  27
ATOM     27  C   UNL     1      14.423  22.687  46.856  1.00  0.00    -0.000 C 
BRANCH  27  28
ATOM     28  C   UNL     1      15.542  23.152  47.806  1.00  0.00    -0.000 C 
BRANCH  28  29
ATOM     29  C   UNL     1      16.942  22.979  47.197  1.00  0.00    -0.003 C 
ATOM     30  C   UNL     1      17.064  23.609  45.810  1.00  0.00     0.004 C 
ENDBRANCH  28  29
ENDBRANCH  27  28
ENDBRANCH  26  27
ENDBRANCH  25  26
ENDBRANCH  24  25
ENDBRANCH  23  24
ENDBRANCH  22  23
ENDBRANCH  21  22
ENDBRANCH  20  21
ENDBRANCH  19  20
ENDBRANCH  18  19
ENDBRANCH  17  18
ENDBRANCH   1  17
TORSDOF 26
ENDMDL
MODEL 6
REMARK VINA RESULT:    -5.476      3.549      7.654
REMARK INTER + INTRA:         -15.467
REMARK INTER:                 -14.069
REMARK INTRA:                  -1.399
REMARK UNBOUND:                -1.667
REMARK SMILES CCCCCCCCCCCCCCCCCCCCCCCCCCCC(=O)[O-]
REMARK SMILES IDX 15 1 16 2 17 3 18 4 19 5 20 6 21 7 22 8 23 9 24 10 25 11
REMARK SMILES IDX 26 12 27 13 28 14 29 15 30 16 14 17 13 18 12 19 11 20 10 21
REMARK SMILES IDX 9 22 8 23 7 24 6 25 5 26 4 27 3 28 2 29 1 30
REMARK H PARENT
REMARK Flexibility Score: inf
ROOT
ATOM      1  C   UNL     1      10.023  23.004  42.294  1.00  0.00     0.000 C 
ENDROOT
BRANCH   1   2
ATOM      2  C   UNL     1      11.461  22.583  42.641  1.00  0.00     0.000 C 
BRANCH   2   3
ATOM      3  C   UNL     1      11.997  23.292  43.898  1.00  0.00     0.000 C 
BRANCH   3   4
ATOM      4  C   UNL     1      12.922  22.398  44.749  1.00  0.00     0.000 C 
BRANCH   4   5
ATOM      5  C   UNL     1      12.485  22.257  46.220  1.00  0.00     0.000 C 
BRANCH   5   6
ATOM      6  C   UNL     1      13.378  22.979  47.245  1.00  0.00     0.000 C 
BRANCH   6   7
ATOM      7  C   UNL     1      14.731  23.483  46.701  1.00  0.00     0.000 C 
BRANCH   7   8
ATOM      8  C   UNL     1      15.925  22.547  46.968  1.00  0.00     0.000 C 
BRANCH   8   9
ATOM      9  C   UNL     1      17.144  23.290  47.533  1.00  0.00     0.000 C 
BRANCH   9  10
ATOM     10  C   UNL     1      18.072  22.329  48.290  1.00  0.00     0.000 C 
BRANCH  10  11
ATOM     11  C   UNL     1      19.415  22.974  48.672  1.00  0.00     0.000 C 
BRANCH  11  12
ATOM     12  C   UNL     1      19.947  23.959  47.609  1.00  0.00     0.006 C 
BRANCH  12  13
ATOM     13  C   UNL     1      21.244  23.461  46.955  1.00  0.00     0.053 C 
BRANCH  13  14
ATOM     14  C   UNL     1      20.963  22.881  45.605  1.00  0.00     0.041 C 
ATOM     15  O   UNL     1      19.798  22.918  45.131  1.00  0.00    -0.550 OA
ATOM     16  O   UNL     1      21.977  22.250  44.894  1.00  0.00    -0.550 OA
ENDBRANCH  13  14
ENDBRANCH  12  13
ENDBRANCH  11  12
ENDBRANCH  10  11
ENDBRANCH   9  10
ENDBRANCH   8   9
ENDBRANCH   7   8
ENDBRANCH   6   7
ENDBRANCH   5   6
ENDBRANCH   4   5
ENDBRANCH   3   4
ENDBRANCH   2   3
ENDBRANCH   1   2
BRANCH   1  17
ATOM     17  C   UNL     1       9.424  22.180  41.142  1.00  0.00     0.000 C 
BRANCH  17  18
ATOM     18  C   UNL     1      10.494  21.611  40.191  1.00  0.00     0.000 C 
BRANCH  18  19
ATOM     19  C   UNL     1      10.869  22.528  39.011  1.00  0.00     0.000 C 
BRANCH  19  20
ATOM     20  C   UNL     1      11.876  21.934  38.008  1.00  0.00     0.000 C 
BRANCH  20  21
ATOM     21  C   UNL     1      11.588  22.299  36.536  1.00  0.00     0.000 C 
BRANCH  21  22
ATOM     22  C   UNL     1      12.397  21.445  35.544  1.00  0.00    -0.000 C 
BRANCH  22  23
ATOM     23  C   UNL     1      13.127  22.301  34.495  1.00  0.00    -0.000 C 
BRANCH  23  24
ATOM     24  C   UNL     1      13.999  23.398  35.134  1.00  0.00    -0.000 C 
BRANCH  24  25
ATOM     25  C   UNL     1      15.481  22.995  35.218  1.00  0.00    -0.000 C 
BRANCH  25  26
ATOM     26  C   UNL     1      15.819  21.801  34.308  1.00  0.00    -0.000 C 
BRANCH  26  27
ATOM     27  C   UNL     1      17.134  21.998  33.537  1.00  0.00    -0.000 C 
BRANCH  27  28
ATOM     28  C   UNL     1      18.306  21.213  34.151  1.00  0.00    -0.000 C 
BRANCH  28  29
ATOM     29  C   UNL     1      19.519  22.105  34.455  1.00  0.00    -0.003 C 
ATOM     30  C   UNL     1      20.846  21.446  34.079  1.00  0.00     0.004 C 
ENDBRANCH  28  29
ENDBRANCH  27  28
ENDBRANCH  26  27
ENDBRANCH  25  26
ENDBRANCH  24  25
ENDBRANCH  23  24
ENDBRANCH  22  23
ENDBRANCH  21  22
ENDBRANCH  20  21
ENDBRANCH  19  20
ENDBRANCH  18  19
ENDBRANCH  17  18
ENDBRANCH   1  17
TORSDOF 26
ENDMDL
MODEL 7
REMARK VINA RESULT:    -5.473      4.862      9.375
REMARK INTER + INTRA:         -15.458
REMARK INTER:                 -12.850
REMARK INTRA:                  -2.608
REMARK UNBOUND:                -1.667
REMARK SMILES CCCCCCCCCCCCCCCCCCCCCCCCCCCC(=O)[O-]
REMARK SMILES IDX 15 1 16 2 17 3 18 4 19 5 20 6 21 7 22 8 23 9 24 10 25 11
REMARK SMILES IDX 26 12 27 13 28 14 29 15 30 16 14 17 13 18 12 19 11 20 10 21
REMARK SMILES IDX 9 22 8 23 7 24 6 25 5 26 4 27 3 28 2 29 1 30
REMARK H PARENT
REMARK Flexibility Score: inf
ROOT
ATOM      1  C   UNL     1      11.668  23.006  44.250  1.00  0.00     0.000 C 
ENDROOT
BRANCH   1   2
ATOM      2  C   UNL     1      12.933  22.272  44.722  1.00  0.00     0.000 C 
BRANCH   2   3
ATOM      3  C   UNL     1      12.763  21.638  46.115  1.00  0.00     0.000 C 
BRANCH   3   4
ATOM      4  C   UNL     1      12.933  22.651  47.266  1.00  0.00     0.000 C 
BRANCH   4   5
ATOM      5  C   UNL     1      14.074  23.665  47.052  1.00  0.00     0.000 C 
BRANCH   5   6
ATOM      6  C   UNL     1      15.426  23.275  47.677  1.00  0.00     0.000 C 
BRANCH   6   7
ATOM      7  C   UNL     1      16.626  23.280  46.708  1.00  0.00     0.000 C 
BRANCH   7   8
ATOM      8  C   UNL     1      16.810  21.983  45.899  1.00  0.00     0.000 C 
BRANCH   8   9
ATOM      9  C   UNL     1      17.740  22.167  44.690  1.00  0.00     0.000 C 
BRANCH   9  10
ATOM     10  C   UNL     1      18.962  23.019  45.061  1.00  0.00     0.000 C 
BRANCH  10  11
ATOM     11  C   UNL     1      20.178  22.171  45.471  1.00  0.00     0.000 C 
BRANCH  11  12
ATOM     12  C   UNL     1      21.038  22.824  46.574  1.00  0.00     0.006 C 
BRANCH  12  13
ATOM     13  C   UNL     1      20.305  23.977  47.275  1.00  0.00     0.053 C 
BRANCH  13  14
ATOM     14  C   UNL     1      19.972  23.607  48.686  1.00  0.00     0.041 C 
ATOM     15  O   UNL     1      20.058  24.466  49.602  1.00  0.00    -0.550 OA
ATOM     16  O   UNL     1      19.620  22.300  48.998  1.00  0.00    -0.550 OA
ENDBRANCH  13  14
ENDBRANCH  12  13
ENDBRANCH  11  12
ENDBRANCH  10  11
ENDBRANCH   9  10
ENDBRANCH   8   9
ENDBRANCH   7   8
ENDBRANCH   6   7
ENDBRANCH   5   6
ENDBRANCH   4   5
ENDBRANCH   3   4
ENDBRANCH   2   3
ENDBRANCH   1   2
BRANCH   1  17
ATOM     17  C   UNL     1      11.274  22.645  42.808  1.00  0.00     0.000 C 
BRANCH  17  18
ATOM     18  C   UNL     1       9.812  23.005  42.477  1.00  0.00     0.000 C 
BRANCH  18  19
ATOM     19  C   UNL     1       9.388  22.726  41.023  1.00  0.00     0.000 C 
BRANCH  19  20
ATOM     20  C   UNL     1       9.574  21.272  40.549  1.00  0.00     0.000 C 
BRANCH  20  21
ATOM     21  C   UNL     1      10.620  21.105  39.426  1.00  0.00     0.000 C 
BRANCH  21  22
ATOM     22  C   UNL     1      11.242  22.445  38.992  1.00  0.00    -0.000 C 
BRANCH  22  23
ATOM     23  C   UNL     1      12.769  22.354  38.826  1.00  0.00    -0.000 C 
BRANCH  23  24
ATOM     24  C   UNL     1      13.468  23.706  39.062  1.00  0.00    -0.000 C 
BRANCH  24  25
ATOM     25  C   UNL     1      14.467  24.054  37.945  1.00  0.00    -0.000 C 
BRANCH  25  26
ATOM     26  C   UNL     1      14.933  22.812  37.166  1.00  0.00    -0.000 C 
BRANCH  26  27
ATOM     27  C   UNL     1      14.742  22.959  35.648  1.00  0.00    -0.000 C 
BRANCH  27  28
ATOM     28  C   UNL     1      13.451  23.714  35.282  1.00  0.00    -0.000 C 
BRANCH  28  29
ATOM     29  C   UNL     1      12.616  22.976  34.224  1.00  0.00    -0.003 C 
ATOM     30  C   UNL     1      12.251  21.554  34.648  1.00  0.00     0.004 C 
ENDBRANCH  28  29
ENDBRANCH  27  28
ENDBRANCH  26  27
ENDBRANCH  25  26
ENDBRANCH  24  25
ENDBRANCH  23  24
ENDBRANCH  22  23
ENDBRANCH  21  22
ENDBRANCH  20  21
ENDBRANCH  19  20
ENDBRANCH  18  19
ENDBRANCH  17  18
ENDBRANCH   1  17
TORSDOF 26
ENDMDL
MODEL 8
REMARK VINA RESULT:    -5.457      2.881     11.077
REMARK INTER + INTRA:         -15.418
REMARK INTER:                 -13.748
REMARK INTRA:                  -1.669
REMARK UNBOUND:                -1.667
REMARK SMILES CCCCCCCCCCCCCCCCCCCCCCCCCCCC(=O)[O-]
REMARK SMILES IDX 15 1 16 2 17 3 18 4 19 5 20 6 21 7 22 8 23 9 24 10 25 11
REMARK SMILES IDX 26 12 27 13 28 14 29 15 30 16 14 17 13 18 12 19 11 20 10 21
REMARK SMILES IDX 9 22 8 23 7 24 6 25 5 26 4 27 3 28 2 29 1 30
REMARK H PARENT
REMARK Flexibility Score: inf
ROOT
ATOM      1  C   UNL     1      15.743  22.352  34.976  1.00  0.00     0.000 C 
ENDROOT
BRANCH   1   2
ATOM      2  C   UNL     1      16.673  21.895  33.840  1.00  0.00     0.000 C 
BRANCH   2   3
ATOM      3  C   UNL     1      18.106  22.438  33.995  1.00  0.00     0.000 C 
BRANCH   3   4
ATOM      4  C   UNL     1      19.015  22.097  32.797  1.00  0.00     0.000 C 
BRANCH   4   5
ATOM      5  C   UNL     1      19.895  20.849  33.007  1.00  0.00     0.000 C 
BRANCH   5   6
ATOM      6  C   UNL     1      20.656  20.797  34.344  1.00  0.00     0.000 C 
BRANCH   6   7
ATOM      7  C   UNL     1      21.718  21.897  34.541  1.00  0.00     0.000 C 
BRANCH   7   8
ATOM      8  C   UNL     1      22.036  22.235  36.009  1.00  0.00     0.000 C 
BRANCH   8   9
ATOM      9  C   UNL     1      23.201  21.406  36.569  1.00  0.00     0.000 C 
BRANCH   9  10
ATOM     10  C   UNL     1      24.513  22.202  36.527  1.00  0.00     0.000 C 
BRANCH  10  11
ATOM     11  C   UNL     1      24.747  23.032  37.802  1.00  0.00     0.000 C 
BRANCH  11  12
ATOM     12  C   UNL     1      24.702  22.193  39.097  1.00  0.00     0.006 C 
BRANCH  12  13
ATOM     13  C   UNL     1      23.970  22.921  40.234  1.00  0.00     0.053 C 
BRANCH  13  14
ATOM     14  C   UNL     1      22.541  23.168  39.865  1.00  0.00     0.041 C 
ATOM     15  O   UNL     1      22.105  24.345  39.780  1.00  0.00    -0.550 OA
ATOM     16  O   UNL     1      21.677  22.098  39.670  1.00  0.00    -0.550 OA
ENDBRANCH  13  14
ENDBRANCH  12  13
ENDBRANCH  11  12
ENDBRANCH  10  11
ENDBRANCH   9  10
ENDBRANCH   8   9
ENDBRANCH   7   8
ENDBRANCH   6   7
ENDBRANCH   5   6
ENDBRANCH   4   5
ENDBRANCH   3   4
ENDBRANCH   2   3
ENDBRANCH   1   2
BRANCH   1  17
ATOM     17  C   UNL     1      14.326  22.690  34.485  1.00  0.00     0.000 C 
BRANCH  17  18
ATOM     18  C   UNL     1      13.308  21.570  34.773  1.00  0.00     0.000 C 
BRANCH  18  19
ATOM     19  C   UNL     1      11.854  22.045  34.956  1.00  0.00     0.000 C 
BRANCH  19  20
ATOM     20  C   UNL     1      11.368  22.138  36.415  1.00  0.00     0.000 C 
BRANCH  20  21
ATOM     21  C   UNL     1      12.468  21.865  37.462  1.00  0.00     0.000 C 
BRANCH  21  22
ATOM     22  C   UNL     1      11.959  22.007  38.908  1.00  0.00    -0.000 C 
BRANCH  22  23
ATOM     23  C   UNL     1      10.482  21.600  39.049  1.00  0.00    -0.000 C 
BRANCH  23  24
ATOM     24  C   UNL     1      10.082  21.335  40.513  1.00  0.00    -0.000 C 
BRANCH  24  25
ATOM     25  C   UNL     1      11.267  21.484  41.483  1.00  0.00    -0.000 C 
BRANCH  25  26
ATOM     26  C   UNL     1      11.040  22.597  42.521  1.00  0.00    -0.000 C 
BRANCH  26  27
ATOM     27  C   UNL     1      12.355  23.174  43.067  1.00  0.00    -0.000 C 
BRANCH  27  28
ATOM     28  C   UNL     1      13.017  22.259  44.114  1.00  0.00    -0.000 C 
BRANCH  28  29
ATOM     29  C   UNL     1      12.253  22.238  45.446  1.00  0.00    -0.003 C 
ATOM     30  C   UNL     1      13.159  21.947  46.642  1.00  0.00     0.004 C 
ENDBRANCH  28  29
ENDBRANCH  27  28
ENDBRANCH  26  27
ENDBRANCH  25  26
ENDBRANCH  24  25
ENDBRANCH  23  24
ENDBRANCH  22  23
ENDBRANCH  21  22
ENDBRANCH  20  21
ENDBRANCH  19  20
ENDBRANCH  18  19
ENDBRANCH  17  18
ENDBRANCH   1  17
TORSDOF 26
ENDMDL
MODEL 9
REMARK VINA RESULT:    -5.440      1.423      3.033
REMARK INTER + INTRA:         -15.376
REMARK INTER:                 -13.991
REMARK INTRA:                  -1.385
REMARK UNBOUND:                -1.667
REMARK SMILES CCCCCCCCCCCCCCCCCCCCCCCCCCCC(=O)[O-]
REMARK SMILES IDX 15 1 16 2 17 3 18 4 19 5 20 6 21 7 22 8 23 9 24 10 25 11
REMARK SMILES IDX 26 12 27 13 28 14 29 15 30 16 14 17 13 18 12 19 11 20 10 21
REMARK SMILES IDX 9 22 8 23 7 24 6 25 5 26 4 27 3 28 2 29 1 30
REMARK H PARENT
REMARK Flexibility Score: inf
ROOT
ATOM      1  C   UNL     1      11.203  22.237  36.741  1.00  0.00     0.000 C 
ENDROOT
BRANCH   1   2
ATOM      2  C   UNL     1      11.668  22.225  38.206  1.00  0.00     0.000 C 
BRANCH   2   3
ATOM      3  C   UNL     1      10.516  21.947  39.190  1.00  0.00     0.000 C 
BRANCH   3   4
ATOM      4  C   UNL     1      10.126  23.181  40.029  1.00  0.00     0.000 C 
BRANCH   4   5
ATOM      5  C   UNL     1       9.462  22.842  41.379  1.00  0.00     0.000 C 
BRANCH   5   6
ATOM      6  C   UNL     1      10.418  22.775  42.584  1.00  0.00     0.000 C 
BRANCH   6   7
ATOM      7  C   UNL     1      11.901  23.055  42.266  1.00  0.00     0.000 C 
BRANCH   7   8
ATOM      8  C   UNL     1      12.805  23.235  43.499  1.00  0.00     0.000 C 
BRANCH   8   9
ATOM      9  C   UNL     1      12.009  23.328  44.809  1.00  0.00     0.000 C 
BRANCH   9  10
ATOM     10  C   UNL     1      12.587  22.383  45.872  1.00  0.00     0.000 C 
BRANCH  10  11
ATOM     11  C   UNL     1      12.803  23.075  47.230  1.00  0.00     0.000 C 
BRANCH  11  12
ATOM     12  C   UNL     1      14.277  23.080  47.687  1.00  0.00     0.006 C 
BRANCH  12  13
ATOM     13  C   UNL     1      15.223  23.587  46.589  1.00  0.00     0.053 C 
BRANCH  13  14
ATOM     14  C   UNL     1      16.265  22.559  46.278  1.00  0.00     0.041 C 
ATOM     15  O   UNL     1      17.336  22.524  46.938  1.00  0.00    -0.550 OA
ATOM     16  O   UNL     1      16.078  21.676  45.222  1.00  0.00    -0.550 OA
ENDBRANCH  13  14
ENDBRANCH  12  13
ENDBRANCH  11  12
ENDBRANCH  10  11
ENDBRANCH   9  10
ENDBRANCH   8   9
ENDBRANCH   7   8
ENDBRANCH   6   7
ENDBRANCH   5   6
ENDBRANCH   4   5
ENDBRANCH   3   4
ENDBRANCH   2   3
ENDBRANCH   1   2
BRANCH   1  17
ATOM     17  C   UNL     1      12.356  22.478  35.753  1.00  0.00     0.000 C 
BRANCH  17  18
ATOM     18  C   UNL     1      12.448  21.393  34.662  1.00  0.00     0.000 C 
BRANCH  18  19
ATOM     19  C   UNL     1      13.822  20.708  34.541  1.00  0.00     0.000 C 
BRANCH  19  20
ATOM     20  C   UNL     1      14.972  21.397  35.300  1.00  0.00     0.000 C 
BRANCH  20  21
ATOM     21  C   UNL     1      15.796  22.378  34.439  1.00  0.00     0.000 C 
BRANCH  21  22
ATOM     22  C   UNL     1      17.004  21.704  33.765  1.00  0.00    -0.000 C 
BRANCH  22  23
ATOM     23  C   UNL     1      18.286  21.824  34.608  1.00  0.00    -0.000 C 
BRANCH  23  24
ATOM     24  C   UNL     1      19.131  20.536  34.581  1.00  0.00    -0.000 C 
BRANCH  24  25
ATOM     25  C   UNL     1      20.435  20.706  33.783  1.00  0.00    -0.000 C 
BRANCH  25  26
ATOM     26  C   UNL     1      21.390  21.726  34.427  1.00  0.00    -0.000 C 
BRANCH  26  27
ATOM     27  C   UNL     1      21.608  21.468  35.926  1.00  0.00    -0.000 C 
BRANCH  27  28
ATOM     28  C   UNL     1      23.037  21.805  36.386  1.00  0.00    -0.000 C 
BRANCH  28  29
ATOM     29  C   UNL     1      23.552  20.842  37.467  1.00  0.00    -0.003 C 
ATOM     30  C   UNL     1      24.808  21.359  38.168  1.00  0.00     0.004 C 
ENDBRANCH  28  29
ENDBRANCH  27  28
ENDBRANCH  26  27
ENDBRANCH  25  26
ENDBRANCH  24  25
ENDBRANCH  23  24
ENDBRANCH  22  23
ENDBRANCH  21  22
ENDBRANCH  20  21
ENDBRANCH  19  20
ENDBRANCH  18  19
ENDBRANCH  17  18
ENDBRANCH   1  17
TORSDOF 26
ENDMDL
