MODEL 1
REMARK VINA RESULT:    -4.539      0.000      0.000
REMARK INTER + INTRA:          -8.054
REMARK INTER:                  -6.926
REMARK INTRA:                  -1.128
REMARK UNBOUND:                -1.128
REMARK SMILES CCCCCCCCCCC(=O)[O-]
REMARK SMILES IDX 7 1 8 2 9 3 10 4 11 5 12 6 13 7 6 8 5 9 4 10 3 11 2 12 1 13
REMARK H PARENT
REMARK Flexibility Score: inf
ROOT
ATOM      1  C   UNL     1      -1.448 -47.778  17.434  1.00  0.00     0.000 C 
ENDROOT
BRANCH   1   2
ATOM      2  C   UNL     1      -1.611 -46.649  18.464  1.00  0.00     0.000 C 
BRANCH   2   3
ATOM      3  C   UNL     1      -2.126 -45.366  17.796  1.00  0.00     0.006 C 
BRANCH   3   4
ATOM      4  C   UNL     1      -1.695 -45.262  16.327  1.00  0.00     0.053 C 
BRANCH   4   5
ATOM      5  C   UNL     1      -2.782 -44.696  15.467  1.00  0.00     0.041 C 
ATOM      6  O   UNL     1      -2.573 -43.660  14.782  1.00  0.00    -0.550 OA
ATOM      7  O   UNL     1      -4.036 -45.293  15.446  1.00  0.00    -0.550 OA
ENDBRANCH   4   5
ENDBRANCH   3   4
ENDBRANCH   2   3
ENDBRANCH   1   2
BRANCH   1   8
ATOM      8  C   UNL     1      -2.373 -48.974  17.712  1.00  0.00     0.000 C 
BRANCH   8   9
ATOM      9  C   UNL     1      -3.694 -48.894  16.927  1.00  0.00    -0.000 C 
BRANCH   9  10
ATOM     10  C   UNL     1      -4.923 -48.817  17.848  1.00  0.00    -0.000 C 
BRANCH  10  11
ATOM     11  C   UNL     1      -4.546 -48.680  19.333  1.00  0.00    -0.000 C 
BRANCH  11  12
ATOM     12  C   UNL     1      -4.770 -47.258  19.869  1.00  0.00    -0.003 C 
ATOM     13  C   UNL     1      -5.513 -46.364  18.877  1.00  0.00     0.004 C 
ENDBRANCH  11  12
ENDBRANCH  10  11
ENDBRANCH   9  10
ENDBRANCH   8   9
ENDBRANCH   1   8
TORSDOF 9
ENDMDL
MODEL 2
REMARK VINA RESULT:    -4.509      2.160      4.293
REMARK INTER + INTRA:          -8.010
REMARK INTER:                  -6.904
REMARK INTRA:                  -1.105
REMARK UNBOUND:                -1.128
REMARK SMILES CCCCCCCCCCC(=O)[O-]
REMARK SMILES IDX 7 1 8 2 9 3 10 4 11 5 12 6 13 7 6 8 5 9 4 10 3 11 2 12 1 13
REMARK H PARENT
REMARK Flexibility Score: inf
ROOT
ATOM      1  C   UNL     1      -4.982 -48.672  17.757  1.00  0.00     0.000 C 
ENDROOT
BRANCH   1   2
ATOM      2  C   UNL     1      -4.545 -48.867  19.218  1.00  0.00     0.000 C 
BRANCH   2   3
ATOM      3  C   UNL     1      -4.584 -47.537  19.985  1.00  0.00     0.006 C 
BRANCH   3   4
ATOM      4  C   UNL     1      -5.297 -46.431  19.195  1.00  0.00     0.053 C 
BRANCH   4   5
ATOM      5  C   UNL     1      -5.559 -45.223  20.041  1.00  0.00     0.041 C 
ATOM      6  O   UNL     1      -6.193 -45.335  21.124  1.00  0.00    -0.550 OA
ATOM      7  O   UNL     1      -5.134 -43.971  19.619  1.00  0.00    -0.550 OA
ENDBRANCH   4   5
ENDBRANCH   3   4
ENDBRANCH   2   3
ENDBRANCH   1   2
BRANCH   1   8
ATOM      8  C   UNL     1      -3.832 -48.882  16.759  1.00  0.00     0.000 C 
BRANCH   8   9
ATOM      9  C   UNL     1      -2.464 -49.004  17.453  1.00  0.00    -0.000 C 
BRANCH   9  10
ATOM     10  C   UNL     1      -1.550 -47.801  17.168  1.00  0.00    -0.000 C 
BRANCH  10  11
ATOM     11  C   UNL     1      -1.656 -46.705  18.242  1.00  0.00    -0.000 C 
BRANCH  11  12
ATOM     12  C   UNL     1      -2.044 -45.339  17.653  1.00  0.00    -0.003 C 
ATOM     13  C   UNL     1      -1.939 -45.302  16.129  1.00  0.00     0.004 C 
ENDBRANCH  11  12
ENDBRANCH  10  11
ENDBRANCH   9  10
ENDBRANCH   8   9
ENDBRANCH   1   8
TORSDOF 9
ENDMDL
MODEL 3
REMARK VINA RESULT:    -4.415      1.951      3.943
REMARK INTER + INTRA:          -7.866
REMARK INTER:                  -6.661
REMARK INTRA:                  -1.205
REMARK UNBOUND:                -1.128
REMARK SMILES CCCCCCCCCCC(=O)[O-]
REMARK SMILES IDX 7 1 8 2 9 3 10 4 11 5 12 6 13 7 6 8 5 9 4 10 3 11 2 12 1 13
REMARK H PARENT
REMARK Flexibility Score: inf
ROOT
ATOM      1  C   UNL     1      -4.744 -48.409  17.826  1.00  0.00     0.000 C 
ENDROOT
BRANCH   1   2
ATOM      2  C   UNL     1      -4.449 -48.496  19.331  1.00  0.00     0.000 C 
BRANCH   2   3
ATOM      3  C   UNL     1      -4.732 -47.155  20.025  1.00  0.00     0.006 C 
BRANCH   3   4
ATOM      4  C   UNL     1      -4.600 -45.965  19.065  1.00  0.00     0.053 C 
BRANCH   4   5
ATOM      5  C   UNL     1      -3.476 -45.056  19.458  1.00  0.00     0.041 C 
ATOM      6  O   UNL     1      -3.581 -43.812  19.292  1.00  0.00    -0.550 OA
ATOM      7  O   UNL     1      -2.302 -45.585  19.977  1.00  0.00    -0.550 OA
ENDBRANCH   4   5
ENDBRANCH   3   4
ENDBRANCH   2   3
ENDBRANCH   1   2
BRANCH   1   8
ATOM      8  C   UNL     1      -3.581 -48.924  16.961  1.00  0.00     0.000 C 
BRANCH   8   9
ATOM      9  C   UNL     1      -2.240 -48.921  17.715  1.00  0.00    -0.000 C 
BRANCH   9  10
ATOM     10  C   UNL     1      -1.401 -47.666  17.420  1.00  0.00    -0.000 C 
BRANCH  10  11
ATOM     11  C   UNL     1      -1.905 -46.888  16.194  1.00  0.00    -0.000 C 
BRANCH  11  12
ATOM     12  C   UNL     1      -1.677 -45.374  16.323  1.00  0.00    -0.003 C 
ATOM     13  C   UNL     1      -2.780 -44.551  15.658  1.00  0.00     0.004 C 
ENDBRANCH  11  12
ENDBRANCH  10  11
ENDBRANCH   9  10
ENDBRANCH   8   9
ENDBRANCH   1   8
TORSDOF 9
ENDMDL
MODEL 4
REMARK VINA RESULT:    -4.398      1.854      4.293
REMARK INTER + INTRA:          -7.840
REMARK INTER:                  -6.584
REMARK INTRA:                  -1.256
REMARK UNBOUND:                -1.128
REMARK SMILES CCCCCCCCCCC(=O)[O-]
REMARK SMILES IDX 7 1 8 2 9 3 10 4 11 5 12 6 13 7 6 8 5 9 4 10 3 11 2 12 1 13
REMARK H PARENT
REMARK Flexibility Score: inf
ROOT
ATOM      1  C   UNL     1      -1.582 -47.817  17.642  1.00  0.00     0.000 C 
ENDROOT
BRANCH   1   2
ATOM      2  C   UNL     1      -2.556 -48.993  17.817  1.00  0.00     0.000 C 
BRANCH   2   3
ATOM      3  C   UNL     1      -3.791 -48.567  18.625  1.00  0.00     0.006 C 
BRANCH   3   4
ATOM      4  C   UNL     1      -5.016 -48.327  17.733  1.00  0.00     0.053 C 
BRANCH   4   5
ATOM      5  C   UNL     1      -5.609 -46.970  17.955  1.00  0.00     0.041 C 
ATOM      6  O   UNL     1      -6.289 -46.420  17.049  1.00  0.00    -0.550 OA
ATOM      7  O   UNL     1      -5.383 -46.298  19.149  1.00  0.00    -0.550 OA
ENDBRANCH   4   5
ENDBRANCH   3   4
ENDBRANCH   2   3
ENDBRANCH   1   2
BRANCH   1   8
ATOM      8  C   UNL     1      -1.874 -46.655  18.606  1.00  0.00     0.000 C 
BRANCH   8   9
ATOM      9  C   UNL     1      -2.152 -45.333  17.869  1.00  0.00    -0.000 C 
BRANCH   9  10
ATOM     10  C   UNL     1      -1.729 -45.382  16.391  1.00  0.00    -0.000 C 
BRANCH  10  11
ATOM     11  C   UNL     1      -2.603 -44.490  15.493  1.00  0.00    -0.000 C 
BRANCH  11  12
ATOM     12  C   UNL     1      -3.772 -45.260  14.858  1.00  0.00    -0.003 C 
ATOM     13  C   UNL     1      -3.491 -46.756  14.725  1.00  0.00     0.004 C 
ENDBRANCH  11  12
ENDBRANCH  10  11
ENDBRANCH   9  10
ENDBRANCH   8   9
ENDBRANCH   1   8
TORSDOF 9
ENDMDL
MODEL 5
REMARK VINA RESULT:    -4.316      2.654      3.743
REMARK INTER + INTRA:          -7.715
REMARK INTER:                  -6.534
REMARK INTRA:                  -1.181
REMARK UNBOUND:                -1.128
REMARK SMILES CCCCCCCCCCC(=O)[O-]
REMARK SMILES IDX 7 1 8 2 9 3 10 4 11 5 12 6 13 7 6 8 5 9 4 10 3 11 2 12 1 13
REMARK H PARENT
REMARK Flexibility Score: inf
ROOT
ATOM      1  C   UNL     1      -2.000 -45.320  17.176  1.00  0.00     0.000 C 
ENDROOT
BRANCH   1   2
ATOM      2  C   UNL     1      -2.421 -45.464  18.647  1.00  0.00     0.000 C 
BRANCH   2   3
ATOM      3  C   UNL     1      -3.603 -44.539  18.972  1.00  0.00     0.006 C 
BRANCH   3   4
ATOM      4  C   UNL     1      -4.957 -45.202  18.685  1.00  0.00     0.053 C 
BRANCH   4   5
ATOM      5  C   UNL     1      -5.775 -45.358  19.929  1.00  0.00     0.041 C 
ATOM      6  O   UNL     1      -5.410 -46.158  20.831  1.00  0.00    -0.550 OA
ATOM      7  O   UNL     1      -6.957 -44.645  20.079  1.00  0.00    -0.550 OA
ENDBRANCH   4   5
ENDBRANCH   3   4
ENDBRANCH   2   3
ENDBRANCH   1   2
BRANCH   1   8
ATOM      8  C   UNL     1      -1.959 -46.667  16.435  1.00  0.00     0.000 C 
BRANCH   8   9
ATOM      9  C   UNL     1      -1.417 -47.808  17.314  1.00  0.00    -0.000 C 
BRANCH   9  10
ATOM     10  C   UNL     1      -2.380 -49.005  17.385  1.00  0.00    -0.000 C 
BRANCH  10  11
ATOM     11  C   UNL     1      -3.744 -48.711  16.738  1.00  0.00    -0.000 C 
BRANCH  11  12
ATOM     12  C   UNL     1      -4.896 -48.742  17.754  1.00  0.00    -0.003 C 
ATOM     13  C   UNL     1      -4.415 -48.986  19.184  1.00  0.00     0.004 C 
ENDBRANCH  11  12
ENDBRANCH  10  11
ENDBRANCH   9  10
ENDBRANCH   8   9
ENDBRANCH   1   8
TORSDOF 9
ENDMDL
MODEL 6
REMARK VINA RESULT:    -4.275      2.244      3.613
REMARK INTER + INTRA:          -7.651
REMARK INTER:                  -6.375
REMARK INTRA:                  -1.276
REMARK UNBOUND:                -1.128
REMARK SMILES CCCCCCCCCCC(=O)[O-]
REMARK SMILES IDX 7 1 8 2 9 3 10 4 11 5 12 6 13 7 6 8 5 9 4 10 3 11 2 12 1 13
REMARK H PARENT
REMARK Flexibility Score: inf
ROOT
ATOM      1  C   UNL     1      -1.992 -45.336  16.398  1.00  0.00     0.000 C 
ENDROOT
BRANCH   1   2
ATOM      2  C   UNL     1      -3.074 -45.302  15.307  1.00  0.00     0.000 C 
BRANCH   2   3
ATOM      3  C   UNL     1      -3.870 -46.615  15.282  1.00  0.00     0.006 C 
BRANCH   3   4
ATOM      4  C   UNL     1      -3.502 -47.496  14.081  1.00  0.00     0.053 C 
BRANCH   4   5
ATOM      5  C   UNL     1      -2.878 -48.789  14.508  1.00  0.00     0.041 C 
ATOM      6  O   UNL     1      -1.625 -48.890  14.592  1.00  0.00    -0.550 OA
ATOM      7  O   UNL     1      -3.677 -49.891  14.783  1.00  0.00    -0.550 OA
ENDBRANCH   4   5
ENDBRANCH   3   4
ENDBRANCH   2   3
ENDBRANCH   1   2
BRANCH   1   8
ATOM      8  C   UNL     1      -2.570 -45.178  17.814  1.00  0.00     0.000 C 
BRANCH   8   9
ATOM      9  C   UNL     1      -2.203 -46.354  18.736  1.00  0.00    -0.000 C 
BRANCH   9  10
ATOM     10  C   UNL     1      -1.602 -47.542  17.967  1.00  0.00    -0.000 C 
BRANCH  10  11
ATOM     11  C   UNL     1      -2.451 -48.819  18.086  1.00  0.00    -0.000 C 
BRANCH  11  12
ATOM     12  C   UNL     1      -3.799 -48.567  18.780  1.00  0.00    -0.003 C 
ATOM     13  C   UNL     1      -4.994 -48.891  17.884  1.00  0.00     0.004 C 
ENDBRANCH  11  12
ENDBRANCH  10  11
ENDBRANCH   9  10
ENDBRANCH   8   9
ENDBRANCH   1   8
TORSDOF 9
ENDMDL
MODEL 7
REMARK VINA RESULT:    -4.267      2.005      4.246
REMARK INTER + INTRA:          -7.639
REMARK INTER:                  -6.443
REMARK INTRA:                  -1.197
REMARK UNBOUND:                -1.128
REMARK SMILES CCCCCCCCCCC(=O)[O-]
REMARK SMILES IDX 7 1 8 2 9 3 10 4 11 5 12 6 13 7 6 8 5 9 4 10 3 11 2 12 1 13
REMARK H PARENT
REMARK Flexibility Score: inf
ROOT
ATOM      1  C   UNL     1      -3.490 -48.687  16.626  1.00  0.00     0.000 C 
ENDROOT
BRANCH   1   2
ATOM      2  C   UNL     1      -4.786 -49.069  17.358  1.00  0.00     0.000 C 
BRANCH   2   3
ATOM      3  C   UNL     1      -5.001 -48.181  18.592  1.00  0.00     0.006 C 
BRANCH   3   4
ATOM      4  C   UNL     1      -5.431 -46.756  18.215  1.00  0.00     0.053 C 
BRANCH   4   5
ATOM      5  C   UNL     1      -5.390 -45.833  19.394  1.00  0.00     0.041 C 
ATOM      6  O   UNL     1      -5.157 -46.286  20.545  1.00  0.00    -0.550 OA
ATOM      7  O   UNL     1      -5.642 -44.478  19.225  1.00  0.00    -0.550 OA
ENDBRANCH   4   5
ENDBRANCH   3   4
ENDBRANCH   2   3
ENDBRANCH   1   2
BRANCH   1   8
ATOM      8  C   UNL     1      -2.234 -48.916  17.482  1.00  0.00     0.000 C 
BRANCH   8   9
ATOM      9  C   UNL     1      -1.319 -47.680  17.531  1.00  0.00    -0.000 C 
BRANCH   9  10
ATOM     10  C   UNL     1      -1.782 -46.644  18.569  1.00  0.00    -0.000 C 
BRANCH  10  11
ATOM     11  C   UNL     1      -2.027 -45.255  17.955  1.00  0.00    -0.000 C 
BRANCH  11  12
ATOM     12  C   UNL     1      -1.759 -45.225  16.442  1.00  0.00    -0.003 C 
ATOM     13  C   UNL     1      -2.973 -44.763  15.637  1.00  0.00     0.004 C 
ENDBRANCH  11  12
ENDBRANCH  10  11
ENDBRANCH   9  10
ENDBRANCH   8   9
ENDBRANCH   1   8
TORSDOF 9
ENDMDL
MODEL 8
REMARK VINA RESULT:    -4.227      2.184      4.399
REMARK INTER + INTRA:          -7.579
REMARK INTER:                  -6.327
REMARK INTRA:                  -1.252
REMARK UNBOUND:                -1.128
REMARK SMILES CCCCCCCCCCC(=O)[O-]
REMARK SMILES IDX 7 1 8 2 9 3 10 4 11 5 12 6 13 7 6 8 5 9 4 10 3 11 2 12 1 13
REMARK H PARENT
REMARK Flexibility Score: inf
ROOT
ATOM      1  C   UNL     1      -4.328 -48.172  19.236  1.00  0.00     0.000 C 
ENDROOT
BRANCH   1   2
ATOM      2  C   UNL     1      -4.987 -48.797  17.996  1.00  0.00     0.000 C 
BRANCH   2   3
ATOM      3  C   UNL     1      -3.952 -49.035  16.886  1.00  0.00     0.006 C 
BRANCH   3   4
ATOM      4  C   UNL     1      -2.513 -49.016  17.419  1.00  0.00     0.053 C 
BRANCH   4   5
ATOM      5  C   UNL     1      -1.510 -49.163  16.316  1.00  0.00     0.041 C 
ATOM      6  O   UNL     1      -0.503 -48.407  16.272  1.00  0.00    -0.550 OA
ATOM      7  O   UNL     1      -1.703 -50.112  15.321  1.00  0.00    -0.550 OA
ENDBRANCH   4   5
ENDBRANCH   3   4
ENDBRANCH   2   3
ENDBRANCH   1   2
BRANCH   1   8
ATOM      8  C   UNL     1      -4.959 -46.827  19.629  1.00  0.00     0.000 C 
BRANCH   8   9
ATOM      9  C   UNL     1      -3.937 -45.677  19.645  1.00  0.00    -0.000 C 
BRANCH   9  10
ATOM     10  C   UNL     1      -3.601 -45.167  18.234  1.00  0.00    -0.000 C 
BRANCH  10  11
ATOM     11  C   UNL     1      -2.144 -45.452  17.830  1.00  0.00    -0.000 C 
BRANCH  11  12
ATOM     12  C   UNL     1      -1.887 -45.193  16.337  1.00  0.00    -0.003 C 
ATOM     13  C   UNL     1      -2.975 -45.782  15.440  1.00  0.00     0.004 C 
ENDBRANCH  11  12
ENDBRANCH  10  11
ENDBRANCH   9  10
ENDBRANCH   8   9
ENDBRANCH   1   8
TORSDOF 9
ENDMDL
MODEL 9
REMARK VINA RESULT:    -4.194      0.957      2.631
REMARK INTER + INTRA:          -7.529
REMARK INTER:                  -6.282
REMARK INTRA:                  -1.247
REMARK UNBOUND:                -1.128
REMARK SMILES CCCCCCCCCCC(=O)[O-]
REMARK SMILES IDX 7 1 8 2 9 3 10 4 11 5 12 6 13 7 6 8 5 9 4 10 3 11 2 12 1 13
REMARK H PARENT
REMARK Flexibility Score: inf
ROOT
ATOM      1  C   UNL     1      -3.238 -46.020  19.586  1.00  0.00     0.000 C 
ENDROOT
BRANCH   1   2
ATOM      2  C   UNL     1      -3.180 -44.920  18.515  1.00  0.00     0.000 C 
BRANCH   2   3
ATOM      3  C   UNL     1      -2.109 -45.236  17.461  1.00  0.00     0.006 C 
BRANCH   3   4
ATOM      4  C   UNL     1      -2.720 -45.549  16.088  1.00  0.00     0.053 C 
BRANCH   4   5
ATOM      5  C   UNL     1      -3.068 -44.301  15.336  1.00  0.00     0.041 C 
ATOM      6  O   UNL     1      -2.161 -43.611  14.801  1.00  0.00    -0.550 OA
ATOM      7  O   UNL     1      -4.390 -43.882  15.256  1.00  0.00    -0.550 OA
ENDBRANCH   4   5
ENDBRANCH   3   4
ENDBRANCH   2   3
ENDBRANCH   1   2
BRANCH   1   8
ATOM      8  C   UNL     1      -4.597 -46.737  19.629  1.00  0.00     0.000 C 
BRANCH   8   9
ATOM      9  C   UNL     1      -4.493 -48.225  19.254  1.00  0.00    -0.000 C 
BRANCH   9  10
ATOM     10  C   UNL     1      -4.845 -48.488  17.781  1.00  0.00    -0.000 C 
BRANCH  10  11
ATOM     11  C   UNL     1      -3.647 -49.002  16.965  1.00  0.00    -0.000 C 
BRANCH  11  12
ATOM     12  C   UNL     1      -2.340 -48.999  17.773  1.00  0.00    -0.003 C 
ATOM     13  C   UNL     1      -1.101 -48.851  16.892  1.00  0.00     0.004 C 
ENDBRANCH  11  12
ENDBRANCH  10  11
ENDBRANCH   9  10
ENDBRANCH   8   9
ENDBRANCH   1   8
TORSDOF 9
ENDMDL
