MODEL 1
REMARK VINA RESULT:    35.467      0.000      0.000
REMARK INTER + INTRA:          41.389
REMARK INTER:                  41.687
REMARK INTRA:                  -0.299
REMARK UNBOUND:                -0.299
REMARK SMILES O=c1c(O)c(-c2ccc(O)cc2)oc2cc(O)cc(O)c12
REMARK SMILES IDX 5 1 3 2 2 3 1 4 21 5 19 6 18 7 16 8 15 9 14 10 13 11 6 12
REMARK SMILES IDX 7 13 8 14 9 15 12 16 11 17 10 18 4 20 20 22 17 24
REMARK H PARENT 10 19 4 21 20 23 17 25
REMARK Flexibility Score: inf
ROOT
ATOM      1  C   UNL     1      16.025  49.890  58.860  1.00  0.00     0.180 A 
ATOM      2  C   UNL     1      15.056  50.804  58.411  1.00  0.00     0.208 A 
ATOM      3  C   UNL     1      14.949  52.052  59.046  1.00  0.00     0.238 A 
ATOM      4  O   UNL     1      14.116  52.885  58.604  1.00  0.00    -0.285 OA
ATOM      5  C   UNL     1      15.803  52.365  60.131  1.00  0.00     0.111 A 
ATOM      6  C   UNL     1      15.757  53.584  60.873  1.00  0.00     0.134 A 
ATOM      7  C   UNL     1      16.735  53.839  61.841  1.00  0.00     0.093 A 
ATOM      8  C   UNL     1      17.719  52.893  62.140  1.00  0.00     0.123 A 
ATOM      9  C   UNL     1      17.736  51.677  61.462  1.00  0.00     0.094 A 
ATOM     10  C   UNL     1      16.795  51.407  60.465  1.00  0.00     0.146 A 
ATOM     11  O   UNL     1      16.854  50.240  59.836  1.00  0.00    -0.452 OA
ENDROOT
BRANCH   1  12
ATOM     12  C   UNL     1      16.181  48.546  58.259  1.00  0.00     0.021 A 
ATOM     13  C   UNL     1      15.461  47.439  58.744  1.00  0.00     0.016 A 
ATOM     14  C   UNL     1      15.643  46.174  58.176  1.00  0.00     0.047 A 
ATOM     15  C   UNL     1      16.551  45.997  57.128  1.00  0.00     0.115 A 
ATOM     16  C   UNL     1      17.106  48.356  57.219  1.00  0.00     0.016 A 
ATOM     17  C   UNL     1      17.286  47.091  56.652  1.00  0.00     0.047 A 
BRANCH  15  18
ATOM     18  O   UNL     1      16.721  44.731  56.571  1.00  0.00    -0.508 OA
ATOM     19  H   UNL     1      17.161  43.980  57.087  1.00  0.00     0.293 HD
ENDBRANCH  15  18
ENDBRANCH   1  12
BRANCH   2  20
ATOM     20  O   UNL     1      14.237  50.483  57.324  1.00  0.00    -0.502 OA
ATOM     21  H   UNL     1      14.502  49.795  56.629  1.00  0.00     0.293 HD
ENDBRANCH   2  20
BRANCH   6  22
ATOM     22  O   UNL     1      14.763  54.554  60.718  1.00  0.00    -0.507 OA
ATOM     23  H   UNL     1      13.827  54.372  60.387  1.00  0.00     0.293 HD
ENDBRANCH   6  22
BRANCH   8  24
ATOM     24  O   UNL     1      18.679  53.150  63.117  1.00  0.00    -0.508 OA
ATOM     25  H   UNL     1      19.447  52.511  63.285  1.00  0.00     0.293 HD
ENDBRANCH   8  24
TORSDOF 5
ENDMDL
MODEL 2
REMARK VINA RESULT:    35.476      1.770      2.890
REMARK INTER + INTRA:          41.399
REMARK INTER:                  41.560
REMARK INTRA:                  -0.161
REMARK UNBOUND:                -0.299
REMARK SMILES O=c1c(O)c(-c2ccc(O)cc2)oc2cc(O)cc(O)c12
REMARK SMILES IDX 5 1 3 2 2 3 1 4 21 5 19 6 18 7 16 8 15 9 14 10 13 11 6 12
REMARK SMILES IDX 7 13 8 14 9 15 12 16 11 17 10 18 4 20 20 22 17 24
REMARK H PARENT 10 19 4 21 20 23 17 25
REMARK Flexibility Score: inf
ROOT
ATOM      1  C   UNL     1      15.840  49.212  59.548  1.00  0.00     0.180 A 
ATOM      2  C   UNL     1      15.434  49.058  60.885  1.00  0.00     0.208 A 
ATOM      3  C   UNL     1      15.091  50.198  61.629  1.00  0.00     0.238 A 
ATOM      4  O   UNL     1      14.677  50.047  62.808  1.00  0.00    -0.285 OA
ATOM      5  C   UNL     1      15.171  51.479  61.032  1.00  0.00     0.111 A 
ATOM      6  C   UNL     1      14.885  52.706  61.703  1.00  0.00     0.134 A 
ATOM      7  C   UNL     1      14.871  53.903  60.978  1.00  0.00     0.093 A 
ATOM      8  C   UNL     1      15.197  53.926  59.619  1.00  0.00     0.123 A 
ATOM      9  C   UNL     1      15.535  52.742  58.970  1.00  0.00     0.094 A 
ATOM     10  C   UNL     1      15.523  51.526  59.657  1.00  0.00     0.146 A 
ATOM     11  O   UNL     1      15.841  50.420  58.997  1.00  0.00    -0.452 OA
ENDROOT
BRANCH   1  12
ATOM     12  C   UNL     1      16.242  48.061  58.708  1.00  0.00     0.021 A 
ATOM     13  C   UNL     1      17.569  47.905  58.266  1.00  0.00     0.016 A 
ATOM     14  C   UNL     1      17.920  46.822  57.453  1.00  0.00     0.047 A 
ATOM     15  C   UNL     1      16.952  45.892  57.061  1.00  0.00     0.115 A 
ATOM     16  C   UNL     1      15.271  47.134  58.293  1.00  0.00     0.016 A 
ATOM     17  C   UNL     1      15.625  46.052  57.480  1.00  0.00     0.047 A 
BRANCH  15  18
ATOM     18  O   UNL     1      17.317  44.818  56.252  1.00  0.00    -0.508 OA
ATOM     19  H   UNL     1      18.163  44.838  55.696  1.00  0.00     0.293 HD
ENDBRANCH  15  18
ENDBRANCH   1  12
BRANCH   2  20
ATOM     20  O   UNL     1      15.341  47.782  61.448  1.00  0.00    -0.502 OA
ATOM     21  H   UNL     1      14.458  47.377  61.735  1.00  0.00     0.293 HD
ENDBRANCH   2  20
BRANCH   6  22
ATOM     22  O   UNL     1      14.638  52.803  63.075  1.00  0.00    -0.507 OA
ATOM     23  H   UNL     1      15.210  53.316  63.729  1.00  0.00     0.293 HD
ENDBRANCH   6  22
BRANCH   8  24
ATOM     24  O   UNL     1      15.197  55.125  58.909  1.00  0.00    -0.508 OA
ATOM     25  H   UNL     1      14.808  55.973  59.302  1.00  0.00     0.293 HD
ENDBRANCH   8  24
TORSDOF 5
ENDMDL
MODEL 3
REMARK VINA RESULT:    36.709      1.842      2.862
REMARK INTER + INTRA:          42.849
REMARK INTER:                  43.035
REMARK INTRA:                  -0.187
REMARK UNBOUND:                -0.299
REMARK SMILES O=c1c(O)c(-c2ccc(O)cc2)oc2cc(O)cc(O)c12
REMARK SMILES IDX 5 1 3 2 2 3 1 4 21 5 19 6 18 7 16 8 15 9 14 10 13 11 6 12
REMARK SMILES IDX 7 13 8 14 9 15 12 16 11 17 10 18 4 20 20 22 17 24
REMARK H PARENT 10 19 4 21 20 23 17 25
REMARK Flexibility Score: inf
ROOT
ATOM      1  C   UNL     1      16.795  49.635  59.470  1.00  0.00     0.180 A 
ATOM      2  C   UNL     1      17.875  50.516  59.652  1.00  0.00     0.208 A 
ATOM      3  C   UNL     1      17.711  51.631  60.489  1.00  0.00     0.238 A 
ATOM      4  O   UNL     1      18.699  52.386  60.690  1.00  0.00    -0.285 OA
ATOM      5  C   UNL     1      16.466  51.859  61.123  1.00  0.00     0.111 A 
ATOM      6  C   UNL     1      16.176  52.978  61.961  1.00  0.00     0.134 A 
ATOM      7  C   UNL     1      14.953  53.033  62.639  1.00  0.00     0.093 A 
ATOM      8  C   UNL     1      13.983  52.044  62.459  1.00  0.00     0.123 A 
ATOM      9  C   UNL     1      14.234  50.979  61.598  1.00  0.00     0.094 A 
ATOM     10  C   UNL     1      15.459  50.877  60.934  1.00  0.00     0.146 A 
ATOM     11  O   UNL     1      15.661  49.841  60.130  1.00  0.00    -0.452 OA
ENDROOT
BRANCH   1  12
ATOM     12  C   UNL     1      16.882  48.453  58.583  1.00  0.00     0.021 A 
ATOM     13  C   UNL     1      16.163  48.389  57.375  1.00  0.00     0.016 A 
ATOM     14  C   UNL     1      16.242  47.251  56.565  1.00  0.00     0.047 A 
ATOM     15  C   UNL     1      17.027  46.162  56.955  1.00  0.00     0.115 A 
ATOM     16  C   UNL     1      17.652  47.346  58.978  1.00  0.00     0.016 A 
ATOM     17  C   UNL     1      17.730  46.211  58.166  1.00  0.00     0.047 A 
BRANCH  15  18
ATOM     18  O   UNL     1      17.097  45.037  56.137  1.00  0.00    -0.508 OA
ATOM     19  H   UNL     1      17.528  44.177  56.455  1.00  0.00     0.293 HD
ENDBRANCH  15  18
ENDBRANCH   1  12
BRANCH   2  20
ATOM     20  O   UNL     1      19.102  50.260  59.034  1.00  0.00    -0.502 OA
ATOM     21  H   UNL     1      19.195  49.620  58.254  1.00  0.00     0.293 HD
ENDBRANCH   2  20
BRANCH   6  22
ATOM     22  O   UNL     1      17.038  54.064  62.137  1.00  0.00    -0.507 OA
ATOM     23  H   UNL     1      17.219  54.519  63.019  1.00  0.00     0.293 HD
ENDBRANCH   6  22
BRANCH   8  24
ATOM     24  O   UNL     1      12.762  52.115  63.126  1.00  0.00    -0.508 OA
ATOM     25  H   UNL     1      11.915  51.734  62.723  1.00  0.00     0.293 HD
ENDBRANCH   8  24
TORSDOF 5
ENDMDL
