MODEL 1
REMARK VINA RESULT:    -2.292      0.000      0.000
REMARK INTER + INTRA:          -4.082
REMARK INTER:                  -3.029
REMARK INTRA:                  -1.053
REMARK UNBOUND:                -1.053
REMARK SMILES CC[C@@H](C=C[C@H](C)[C@H]1CC[C@H]2[C@@H]3CC=C4C[C@H](O)CC[C@]4(C)[C@H]3CC[C@]12C)C(C)C
REMARK SMILES IDX 6 1 7 2 5 3 4 4 3 5 2 6 1 7 28 8 29 9 30 10 8 11 9 12 26 13
REMARK SMILES IDX 10 14 11 15 25 16 27 17 12 18 24 19 23 20 13 21 21 22 14 23
REMARK SMILES IDX 15 24 20 25 22 26 16 27 19 28 17 29 18 30
REMARK H PARENT 18 31
REMARK Flexibility Score: inf
ROOT
ATOM      1  C   UNL     1     131.169 130.293 111.659  1.00  0.00     0.012 C 
ATOM      2  C   UNL     1     132.432 129.586 111.130  1.00  0.00     0.012 C 
ENDROOT
BRANCH   1   3
ATOM      3  C   UNL     1     130.063 130.198 110.630  1.00  0.00    -0.028 C 
ATOM      4  C   UNL     1     129.175 131.187 110.431  1.00  0.00    -0.027 C 
BRANCH   4   5
ATOM      5  C   UNL     1     128.079 131.078 109.391  1.00  0.00     0.014 C 
BRANCH   5   6
ATOM      6  C   UNL     1     126.982 132.128 109.696  1.00  0.00     0.004 C 
ATOM      7  C   UNL     1     127.558 133.471 110.155  1.00  0.00     0.004 C 
ENDBRANCH   5   6
BRANCH   5   8
ATOM      8  C   UNL     1     127.515 129.622 109.368  1.00  0.00    -0.011 C 
ATOM      9  C   UNL     1     125.988 129.593 109.173  1.00  0.00     0.008 C 
ATOM     10  C   UNL     1     128.174 128.786 108.253  1.00  0.00     0.008 C 
ENDBRANCH   5   8
ENDBRANCH   4   5
ENDBRANCH   1   3
BRANCH   1  11
ATOM     11  C   UNL     1     130.662 129.843 113.076  1.00  0.00     0.002 C 
ATOM     12  C   UNL     1     131.511 128.791 113.837  1.00  0.00     0.005 C 
ATOM     13  C   UNL     1     130.418 130.962 114.121  1.00  0.00    -0.026 C 
ATOM     14  C   UNL     1     131.268 129.044 115.337  1.00  0.00     0.005 C 
ATOM     15  C   UNL     1     130.178 130.109 115.374  1.00  0.00    -0.001 C 
ATOM     16  C   UNL     1     129.143 131.802 113.884  1.00  0.00     0.007 C 
ATOM     17  C   UNL     1     131.667 131.892 114.242  1.00  0.00     0.012 C 
ATOM     18  C   UNL     1     129.995 130.951 116.655  1.00  0.00     0.000 C 
ATOM     19  C   UNL     1     128.815 132.687 115.110  1.00  0.00     0.005 C 
ATOM     20  C   UNL     1     128.770 131.897 116.460  1.00  0.00     0.003 C 
ATOM     21  C   UNL     1     129.744 130.036 117.864  1.00  0.00     0.031 C 
ATOM     22  C   UNL     1     128.537 132.806 117.729  1.00  0.00    -0.008 C 
ATOM     23  C   UNL     1     129.260 130.784 119.073  1.00  0.00    -0.027 C 
ATOM     24  C   UNL     1     128.600 131.962 119.013  1.00  0.00    -0.065 C 
ATOM     25  C   UNL     1     127.122 133.461 117.626  1.00  0.00     0.014 C 
ATOM     26  C   UNL     1     129.612 133.922 117.834  1.00  0.00     0.016 C 
ATOM     27  C   UNL     1     128.059 132.552 120.304  1.00  0.00     0.063 C 
ATOM     28  C   UNL     1     126.647 134.125 118.929  1.00  0.00     0.033 C 
ATOM     29  C   UNL     1     126.656 133.133 120.101  1.00  0.00     0.118 C 
BRANCH  29  30
ATOM     30  O   UNL     1     125.743 132.089 119.869  1.00  0.00    -0.393 OA
ATOM     31  H   UNL     1     126.210 131.419 119.306  1.00  0.00     0.210 HD
ENDBRANCH  29  30
ENDBRANCH   1  11
TORSDOF 6
ENDMDL
MODEL 2
REMARK VINA RESULT:    -1.702      1.701      3.079
REMARK INTER + INTRA:          -3.303
REMARK INTER:                  -2.945
REMARK INTRA:                  -0.358
REMARK UNBOUND:                -1.053
REMARK SMILES CC[C@@H](C=C[C@H](C)[C@H]1CC[C@H]2[C@@H]3CC=C4C[C@H](O)CC[C@]4(C)[C@H]3CC[C@]12C)C(C)C
REMARK SMILES IDX 6 1 7 2 5 3 4 4 3 5 2 6 1 7 28 8 29 9 30 10 8 11 9 12 26 13
REMARK SMILES IDX 10 14 11 15 25 16 27 17 12 18 24 19 23 20 13 21 21 22 14 23
REMARK SMILES IDX 15 24 20 25 22 26 16 27 19 28 17 29 18 30
REMARK H PARENT 18 31
REMARK Flexibility Score: inf
ROOT
ATOM      1  C   UNL     1     131.670 128.868 112.685  1.00  0.00     0.012 C 
ATOM      2  C   UNL     1     131.179 127.605 113.420  1.00  0.00     0.012 C 
ENDROOT
BRANCH   1   3
ATOM      3  C   UNL     1     131.166 128.855 111.258  1.00  0.00    -0.028 C 
ATOM      4  C   UNL     1     129.956 128.378 110.923  1.00  0.00    -0.027 C 
BRANCH   4   5
ATOM      5  C   UNL     1     129.465 128.380 109.490  1.00  0.00     0.014 C 
BRANCH   5   6
ATOM      6  C   UNL     1     128.200 129.267 109.387  1.00  0.00     0.004 C 
ATOM      7  C   UNL     1     128.438 130.698 109.879  1.00  0.00     0.004 C 
ENDBRANCH   5   6
BRANCH   5   8
ATOM      8  C   UNL     1     129.200 126.915 109.019  1.00  0.00    -0.011 C 
ATOM      9  C   UNL     1     130.232 126.443 107.978  1.00  0.00     0.008 C 
ATOM     10  C   UNL     1     129.213 125.936 110.210  1.00  0.00     0.008 C 
ENDBRANCH   5   8
ENDBRANCH   4   5
ENDBRANCH   1   3
BRANCH   1  11
ATOM     11  C   UNL     1     131.359 130.241 113.380  1.00  0.00     0.002 C 
ATOM     12  C   UNL     1     130.747 131.364 112.502  1.00  0.00     0.005 C 
ATOM     13  C   UNL     1     130.448 130.202 114.635  1.00  0.00    -0.026 C 
ATOM     14  C   UNL     1     129.916 132.250 113.450  1.00  0.00     0.005 C 
ATOM     15  C   UNL     1     130.214 131.704 114.842  1.00  0.00    -0.001 C 
ATOM     16  C   UNL     1     131.129 129.661 115.912  1.00  0.00     0.007 C 
ATOM     17  C   UNL     1     129.134 129.411 114.343  1.00  0.00     0.012 C 
ATOM     18  C   UNL     1     129.234 132.013 115.994  1.00  0.00     0.000 C 
ATOM     19  C   UNL     1     130.265 129.926 117.167  1.00  0.00     0.005 C 
ATOM     20  C   UNL     1     129.813 131.417 117.315  1.00  0.00     0.003 C 
ATOM     21  C   UNL     1     129.060 133.531 116.155  1.00  0.00     0.031 C 
ATOM     22  C   UNL     1     128.847 131.677 118.535  1.00  0.00    -0.008 C 
ATOM     23  C   UNL     1     128.369 133.908 117.434  1.00  0.00    -0.027 C 
ATOM     24  C   UNL     1     128.381 133.143 118.548  1.00  0.00    -0.065 C 
ATOM     25  C   UNL     1     129.619 131.382 119.861  1.00  0.00     0.014 C 
ATOM     26  C   UNL     1     127.586 130.773 118.466  1.00  0.00     0.016 C 
ATOM     27  C   UNL     1     127.746 133.698 119.811  1.00  0.00     0.063 C 
ATOM     28  C   UNL     1     128.901 131.882 121.125  1.00  0.00     0.033 C 
ATOM     29  C   UNL     1     128.600 133.386 121.043  1.00  0.00     0.118 C 
BRANCH  29  30
ATOM     30  O   UNL     1     129.795 134.125 120.987  1.00  0.00    -0.393 OA
ATOM     31  H   UNL     1     129.994 134.420 121.913  1.00  0.00     0.210 HD
ENDBRANCH  29  30
ENDBRANCH   1  11
TORSDOF 6
ENDMDL
MODEL 3
REMARK VINA RESULT:    -1.677      1.552      3.171
REMARK INTER + INTRA:          -3.270
REMARK INTER:                  -3.509
REMARK INTRA:                   0.239
REMARK UNBOUND:                -1.053
REMARK SMILES CC[C@@H](C=C[C@H](C)[C@H]1CC[C@H]2[C@@H]3CC=C4C[C@H](O)CC[C@]4(C)[C@H]3CC[C@]12C)C(C)C
REMARK SMILES IDX 6 1 7 2 5 3 4 4 3 5 2 6 1 7 28 8 29 9 30 10 8 11 9 12 26 13
REMARK SMILES IDX 10 14 11 15 25 16 27 17 12 18 24 19 23 20 13 21 21 22 14 23
REMARK SMILES IDX 15 24 20 25 22 26 16 27 19 28 17 29 18 30
REMARK H PARENT 18 31
REMARK Flexibility Score: inf
ROOT
ATOM      1  C   UNL     1     131.489 128.936 112.501  1.00  0.00     0.012 C 
ATOM      2  C   UNL     1     131.938 127.767 113.399  1.00  0.00     0.012 C 
ENDROOT
BRANCH   1   3
ATOM      3  C   UNL     1     130.299 128.511 111.668  1.00  0.00    -0.028 C 
ATOM      4  C   UNL     1     129.909 129.180 110.571  1.00  0.00    -0.027 C 
BRANCH   4   5
ATOM      5  C   UNL     1     128.719 128.735 109.745  1.00  0.00     0.014 C 
BRANCH   5   6
ATOM      6  C   UNL     1     129.207 127.797 108.613  1.00  0.00     0.004 C 
ATOM      7  C   UNL     1     129.603 126.408 109.123  1.00  0.00     0.004 C 
ENDBRANCH   5   6
BRANCH   5   8
ATOM      8  C   UNL     1     127.962 129.984 109.193  1.00  0.00    -0.011 C 
ATOM      9  C   UNL     1     126.512 129.655 108.791  1.00  0.00     0.008 C 
ATOM     10  C   UNL     1     127.943 131.126 110.228  1.00  0.00     0.008 C 
ENDBRANCH   5   8
ENDBRANCH   4   5
ENDBRANCH   1   3
BRANCH   1  11
ATOM     11  C   UNL     1     131.212 130.302 113.224  1.00  0.00     0.002 C 
ATOM     12  C   UNL     1     130.531 131.424 112.395  1.00  0.00     0.005 C 
ATOM     13  C   UNL     1     130.386 130.246 114.536  1.00  0.00    -0.026 C 
ATOM     14  C   UNL     1     129.757 132.296 113.402  1.00  0.00     0.005 C 
ATOM     15  C   UNL     1     130.152 131.745 114.768  1.00  0.00    -0.001 C 
ATOM     16  C   UNL     1     131.156 129.704 115.761  1.00  0.00     0.007 C 
ATOM     17  C   UNL     1     129.064 129.443 114.327  1.00  0.00     0.012 C 
ATOM     18  C   UNL     1     129.247 132.037 115.984  1.00  0.00     0.000 C 
ATOM     19  C   UNL     1     130.374 129.953 117.073  1.00  0.00     0.005 C 
ATOM     20  C   UNL     1     129.918 131.439 117.260  1.00  0.00     0.003 C 
ATOM     21  C   UNL     1     129.069 133.552 116.166  1.00  0.00     0.031 C 
ATOM     22  C   UNL     1     129.033 131.682 118.543  1.00  0.00    -0.008 C 
ATOM     23  C   UNL     1     128.460 133.914 117.491  1.00  0.00    -0.027 C 
ATOM     24  C   UNL     1     128.554 133.143 118.597  1.00  0.00    -0.065 C 
ATOM     25  C   UNL     1     129.894 131.387 119.813  1.00  0.00     0.014 C 
ATOM     26  C   UNL     1     127.779 130.765 118.551  1.00  0.00     0.016 C 
ATOM     27  C   UNL     1     127.998 133.683 119.902  1.00  0.00     0.063 C 
ATOM     28  C   UNL     1     129.256 131.872 121.125  1.00  0.00     0.033 C 
ATOM     29  C   UNL     1     128.936 133.373 121.073  1.00  0.00     0.118 C 
BRANCH  29  30
ATOM     30  O   UNL     1     130.116 134.125 120.943  1.00  0.00    -0.393 OA
ATOM     31  H   UNL     1     129.970 134.978 121.428  1.00  0.00     0.210 HD
ENDBRANCH  29  30
ENDBRANCH   1  11
TORSDOF 6
ENDMDL
MODEL 4
REMARK VINA RESULT:    -1.243      1.574      2.317
REMARK INTER + INTRA:          -2.696
REMARK INTER:                  -2.571
REMARK INTRA:                  -0.125
REMARK UNBOUND:                -1.053
REMARK SMILES CC[C@@H](C=C[C@H](C)[C@H]1CC[C@H]2[C@@H]3CC=C4C[C@H](O)CC[C@]4(C)[C@H]3CC[C@]12C)C(C)C
REMARK SMILES IDX 6 1 7 2 5 3 4 4 3 5 2 6 1 7 28 8 29 9 30 10 8 11 9 12 26 13
REMARK SMILES IDX 10 14 11 15 25 16 27 17 12 18 24 19 23 20 13 21 21 22 14 23
REMARK SMILES IDX 15 24 20 25 22 26 16 27 19 28 17 29 18 30
REMARK H PARENT 18 31
REMARK Flexibility Score: inf
ROOT
ATOM      1  C   UNL     1     130.857 130.164 111.111  1.00  0.00     0.012 C 
ATOM      2  C   UNL     1     132.313 130.656 111.000  1.00  0.00     0.012 C 
ENDROOT
BRANCH   1   3
ATOM      3  C   UNL     1     130.604 129.084 110.081  1.00  0.00    -0.028 C 
ATOM      4  C   UNL     1     129.621 128.178 110.211  1.00  0.00    -0.027 C 
BRANCH   4   5
ATOM      5  C   UNL     1     129.377 127.108 109.166  1.00  0.00     0.014 C 
BRANCH   5   6
ATOM      6  C   UNL     1     128.269 127.587 108.197  1.00  0.00     0.004 C 
ATOM      7  C   UNL     1     128.072 129.106 108.224  1.00  0.00     0.004 C 
ENDBRANCH   5   6
BRANCH   5   8
ATOM      8  C   UNL     1     129.012 125.760 109.864  1.00  0.00    -0.011 C 
ATOM      9  C   UNL     1     129.896 124.596 109.380  1.00  0.00     0.008 C 
ATOM     10  C   UNL     1     129.136 125.874 111.396  1.00  0.00     0.008 C 
ENDBRANCH   5   8
ENDBRANCH   4   5
ENDBRANCH   1   3
BRANCH   1  11
ATOM     11  C   UNL     1     130.385 129.705 112.537  1.00  0.00     0.002 C 
ATOM     12  C   UNL     1     131.147 128.525 113.196  1.00  0.00     0.005 C 
ATOM     13  C   UNL     1     130.338 130.791 113.643  1.00  0.00    -0.026 C 
ATOM     14  C   UNL     1     131.025 128.729 114.718  1.00  0.00     0.005 C 
ATOM     15  C   UNL     1     130.073 129.909 114.871  1.00  0.00    -0.001 C 
ATOM     16  C   UNL     1     129.159 131.784 113.525  1.00  0.00     0.007 C 
ATOM     17  C   UNL     1     131.692 131.563 113.722  1.00  0.00     0.012 C 
ATOM     18  C   UNL     1     130.067 130.701 116.196  1.00  0.00     0.000 C 
ATOM     19  C   UNL     1     129.011 132.637 114.806  1.00  0.00     0.005 C 
ATOM     20  C   UNL     1     128.953 131.791 116.122  1.00  0.00     0.003 C 
ATOM     21  C   UNL     1     129.781 129.762 117.378  1.00  0.00     0.031 C 
ATOM     22  C   UNL     1     128.904 132.656 117.440  1.00  0.00    -0.008 C 
ATOM     23  C   UNL     1     129.461 130.499 118.647  1.00  0.00    -0.027 C 
ATOM     24  C   UNL     1     128.943 131.747 118.680  1.00  0.00    -0.065 C 
ATOM     25  C   UNL     1     127.574 133.475 117.457  1.00  0.00     0.014 C 
ATOM     26  C   UNL     1     130.109 133.634 117.523  1.00  0.00     0.016 C 
ATOM     27  C   UNL     1     128.553 132.330 120.027  1.00  0.00     0.063 C 
ATOM     28  C   UNL     1     127.259 134.123 118.816  1.00  0.00     0.033 C 
ATOM     29  C   UNL     1     127.219 133.079 119.941  1.00  0.00     0.118 C 
BRANCH  29  30
ATOM     30  O   UNL     1     126.177 132.160 119.724  1.00  0.00    -0.393 OA
ATOM     31  H   UNL     1     125.354 132.566 120.100  1.00  0.00     0.210 HD
ENDBRANCH  29  30
ENDBRANCH   1  11
TORSDOF 6
ENDMDL
MODEL 5
REMARK VINA RESULT:    -1.147      1.498      2.605
REMARK INTER + INTRA:          -2.569
REMARK INTER:                  -2.922
REMARK INTRA:                   0.353
REMARK UNBOUND:                -1.053
REMARK SMILES CC[C@@H](C=C[C@H](C)[C@H]1CC[C@H]2[C@@H]3CC=C4C[C@H](O)CC[C@]4(C)[C@H]3CC[C@]12C)C(C)C
REMARK SMILES IDX 6 1 7 2 5 3 4 4 3 5 2 6 1 7 28 8 29 9 30 10 8 11 9 12 26 13
REMARK SMILES IDX 10 14 11 15 25 16 27 17 12 18 24 19 23 20 13 21 21 22 14 23
REMARK SMILES IDX 15 24 20 25 22 26 16 27 19 28 17 29 18 30
REMARK H PARENT 18 31
REMARK Flexibility Score: inf
ROOT
ATOM      1  C   UNL     1     131.260 129.194 112.074  1.00  0.00     0.012 C 
ATOM      2  C   UNL     1     130.736 127.905 112.735  1.00  0.00     0.012 C 
ENDROOT
BRANCH   1   3
ATOM      3  C   UNL     1     130.495 129.458 110.795  1.00  0.00    -0.028 C 
ATOM      4  C   UNL     1     129.358 130.173 110.768  1.00  0.00    -0.027 C 
BRANCH   4   5
ATOM      5  C   UNL     1     128.610 130.435 109.477  1.00  0.00     0.014 C 
BRANCH   5   6
ATOM      6  C   UNL     1     127.839 131.772 109.598  1.00  0.00     0.004 C 
ATOM      7  C   UNL     1     127.720 132.259 111.045  1.00  0.00     0.004 C 
ENDBRANCH   5   6
BRANCH   5   8
ATOM      8  C   UNL     1     127.664 129.233 109.161  1.00  0.00    -0.011 C 
ATOM      9  C   UNL     1     126.252 129.694 108.760  1.00  0.00     0.008 C 
ATOM     10  C   UNL     1     128.239 128.353 108.033  1.00  0.00     0.008 C 
ENDBRANCH   5   8
ENDBRANCH   4   5
ENDBRANCH   1   3
BRANCH   1  11
ATOM     11  C   UNL     1     131.301 130.475 112.982  1.00  0.00     0.002 C 
ATOM     12  C   UNL     1     131.035 131.842 112.299  1.00  0.00     0.005 C 
ATOM     13  C   UNL     1     130.370 130.483 114.223  1.00  0.00    -0.026 C 
ATOM     14  C   UNL     1     130.437 132.758 113.384  1.00  0.00     0.005 C 
ATOM     15  C   UNL     1     130.535 131.942 114.669  1.00  0.00    -0.001 C 
ATOM     16  C   UNL     1     130.842 129.588 115.391  1.00  0.00     0.007 C 
ATOM     17  C   UNL     1     128.905 130.125 113.822  1.00  0.00     0.012 C 
ATOM     18  C   UNL     1     129.633 132.317 115.865  1.00  0.00     0.000 C 
ATOM     19  C   UNL     1     130.037 129.874 116.680  1.00  0.00     0.005 C 
ATOM     20  C   UNL     1     129.990 131.390 117.068  1.00  0.00     0.003 C 
ATOM     21  C   UNL     1     129.860 133.782 116.267  1.00  0.00     0.031 C 
ATOM     22  C   UNL     1     129.087 131.703 118.324  1.00  0.00    -0.008 C 
ATOM     23  C   UNL     1     129.251 134.125 117.597  1.00  0.00    -0.027 C 
ATOM     24  C   UNL     1     129.024 133.219 118.575  1.00  0.00    -0.065 C 
ATOM     25  C   UNL     1     129.710 131.011 119.578  1.00  0.00     0.014 C 
ATOM     26  C   UNL     1     127.635 131.189 118.123  1.00  0.00     0.016 C 
ATOM     27  C   UNL     1     128.516 133.719 119.916  1.00  0.00     0.063 C 
ATOM     28  C   UNL     1     129.107 131.480 120.913  1.00  0.00     0.033 C 
ATOM     29  C   UNL     1     129.217 133.003 121.075  1.00  0.00     0.118 C 
BRANCH  29  30
ATOM     30  O   UNL     1     130.565 133.397 121.125  1.00  0.00    -0.393 OA
ATOM     31  H   UNL     1     130.923 133.087 121.997  1.00  0.00     0.210 HD
ENDBRANCH  29  30
ENDBRANCH   1  11
TORSDOF 6
ENDMDL
MODEL 6
REMARK VINA RESULT:     0.595      2.704      8.321
REMARK INTER + INTRA:          -0.268
REMARK INTER:                   1.062
REMARK INTRA:                  -1.330
REMARK UNBOUND:                -1.053
REMARK SMILES CC[C@@H](C=C[C@H](C)[C@H]1CC[C@H]2[C@@H]3CC=C4C[C@H](O)CC[C@]4(C)[C@H]3CC[C@]12C)C(C)C
REMARK SMILES IDX 6 1 7 2 5 3 4 4 3 5 2 6 1 7 28 8 29 9 30 10 8 11 9 12 26 13
REMARK SMILES IDX 10 14 11 15 25 16 27 17 12 18 24 19 23 20 13 21 21 22 14 23
REMARK SMILES IDX 15 24 20 25 22 26 16 27 19 28 17 29 18 30
REMARK H PARENT 18 31
REMARK Flexibility Score: inf
ROOT
ATOM      1  C   UNL     1     129.345 132.759 118.972  1.00  0.00     0.012 C 
ATOM      2  C   UNL     1     129.306 134.125 119.684  1.00  0.00     0.012 C 
ENDROOT
BRANCH   1   3
ATOM      3  C   UNL     1     128.869 131.677 119.919  1.00  0.00    -0.028 C 
ATOM      4  C   UNL     1     128.452 130.474 119.490  1.00  0.00    -0.027 C 
BRANCH   4   5
ATOM      5  C   UNL     1     127.986 129.401 120.453  1.00  0.00     0.014 C 
BRANCH   5   6
ATOM      6  C   UNL     1     129.154 128.422 120.727  1.00  0.00     0.004 C 
ATOM      7  C   UNL     1     129.965 128.100 119.468  1.00  0.00     0.004 C 
ENDBRANCH   5   6
BRANCH   5   8
ATOM      8  C   UNL     1     126.731 128.677 119.871  1.00  0.00    -0.011 C 
ATOM      9  C   UNL     1     126.283 127.495 120.749  1.00  0.00     0.008 C 
ATOM     10  C   UNL     1     125.549 129.653 119.710  1.00  0.00     0.008 C 
ENDBRANCH   5   8
ENDBRANCH   4   5
ENDBRANCH   1   3
BRANCH   1  11
ATOM     11  C   UNL     1     128.596 132.670 117.594  1.00  0.00     0.002 C 
ATOM     12  C   UNL     1     127.789 133.915 117.139  1.00  0.00     0.005 C 
ATOM     13  C   UNL     1     129.452 132.299 116.354  1.00  0.00    -0.026 C 
ATOM     14  C   UNL     1     127.777 133.883 115.599  1.00  0.00     0.005 C 
ATOM     15  C   UNL     1     128.428 132.552 115.239  1.00  0.00    -0.001 C 
ATOM     16  C   UNL     1     129.863 130.812 116.275  1.00  0.00     0.007 C 
ATOM     17  C   UNL     1     130.710 133.218 116.252  1.00  0.00     0.012 C 
ATOM     18  C   UNL     1     129.014 132.362 113.824  1.00  0.00     0.000 C 
ATOM     19  C   UNL     1     130.450 130.464 114.887  1.00  0.00     0.005 C 
ATOM     20  C   UNL     1     129.537 130.898 113.692  1.00  0.00     0.003 C 
ATOM     21  C   UNL     1     127.934 132.614 112.760  1.00  0.00     0.031 C 
ATOM     22  C   UNL     1     130.172 130.639 112.271  1.00  0.00    -0.008 C 
ATOM     23  C   UNL     1     128.344 132.156 111.390  1.00  0.00    -0.027 C 
ATOM     24  C   UNL     1     129.249 131.178 111.164  1.00  0.00    -0.065 C 
ATOM     25  C   UNL     1     130.350 129.100 112.071  1.00  0.00     0.014 C 
ATOM     26  C   UNL     1     131.552 131.337 112.129  1.00  0.00     0.016 C 
ATOM     27  C   UNL     1     129.484 130.728 109.733  1.00  0.00     0.063 C 
ATOM     28  C   UNL     1     130.673 128.692 110.624  1.00  0.00     0.033 C 
ATOM     29  C   UNL     1     129.607 129.204 109.645  1.00  0.00     0.118 C 
BRANCH  29  30
ATOM     30  O   UNL     1     128.361 128.615 109.920  1.00  0.00    -0.393 OA
ATOM     31  H   UNL     1     127.879 129.232 110.529  1.00  0.00     0.210 HD
ENDBRANCH  29  30
ENDBRANCH   1  11
TORSDOF 6
ENDMDL
MODEL 7
REMARK VINA RESULT:     0.611      2.567      8.565
REMARK INTER + INTRA:          -0.246
REMARK INTER:                   0.121
REMARK INTRA:                  -0.367
REMARK UNBOUND:                -1.053
REMARK SMILES CC[C@@H](C=C[C@H](C)[C@H]1CC[C@H]2[C@@H]3CC=C4C[C@H](O)CC[C@]4(C)[C@H]3CC[C@]12C)C(C)C
REMARK SMILES IDX 6 1 7 2 5 3 4 4 3 5 2 6 1 7 28 8 29 9 30 10 8 11 9 12 26 13
REMARK SMILES IDX 10 14 11 15 25 16 27 17 12 18 24 19 23 20 13 21 21 22 14 23
REMARK SMILES IDX 15 24 20 25 22 26 16 27 19 28 17 29 18 30
REMARK H PARENT 18 31
REMARK Flexibility Score: inf
ROOT
ATOM      1  C   UNL     1     130.396 132.509 117.205  1.00  0.00     0.012 C 
ATOM      2  C   UNL     1     131.310 133.748 117.149  1.00  0.00     0.012 C 
ENDROOT
BRANCH   1   3
ATOM      3  C   UNL     1     129.661 132.477 118.528  1.00  0.00    -0.028 C 
ATOM      4  C   UNL     1     128.448 131.917 118.667  1.00  0.00    -0.027 C 
BRANCH   4   5
ATOM      5  C   UNL     1     127.729 131.888 120.000  1.00  0.00     0.014 C 
BRANCH   5   6
ATOM      6  C   UNL     1     126.505 130.947 119.898  1.00  0.00     0.004 C 
ATOM      7  C   UNL     1     126.839 129.608 119.233  1.00  0.00     0.004 C 
ENDBRANCH   5   6
BRANCH   5   8
ATOM      8  C   UNL     1     127.328 133.339 120.416  1.00  0.00    -0.011 C 
ATOM      9  C   UNL     1     128.514 134.125 121.003  1.00  0.00     0.008 C 
ATOM     10  C   UNL     1     126.756 134.124 119.219  1.00  0.00     0.008 C 
ENDBRANCH   5   8
ENDBRANCH   4   5
ENDBRANCH   1   3
BRANCH   1  11
ATOM     11  C   UNL     1     129.403 132.322 116.003  1.00  0.00     0.002 C 
ATOM     12  C   UNL     1     128.557 133.551 115.578  1.00  0.00     0.005 C 
ATOM     13  C   UNL     1     130.003 131.796 114.673  1.00  0.00    -0.026 C 
ATOM     14  C   UNL     1     128.258 133.372 114.077  1.00  0.00     0.005 C 
ATOM     15  C   UNL     1     128.797 131.985 113.743  1.00  0.00    -0.001 C 
ATOM     16  C   UNL     1     130.355 130.291 114.673  1.00  0.00     0.007 C 
ATOM     17  C   UNL     1     131.243 132.644 114.249  1.00  0.00     0.012 C 
ATOM     18  C   UNL     1     129.104 131.634 112.272  1.00  0.00     0.000 C 
ATOM     19  C   UNL     1     130.664 129.786 113.244  1.00  0.00     0.005 C 
ATOM     20  C   UNL     1     129.556 130.142 112.197  1.00  0.00     0.003 C 
ATOM     21  C   UNL     1     127.853 131.830 111.403  1.00  0.00     0.031 C 
ATOM     22  C   UNL     1     129.909 129.721 110.719  1.00  0.00    -0.008 C 
ATOM     23  C   UNL     1     127.989 131.226 110.035  1.00  0.00    -0.027 C 
ATOM     24  C   UNL     1     128.811 130.191 109.750  1.00  0.00    -0.065 C 
ATOM     25  C   UNL     1     130.008 128.163 110.649  1.00  0.00     0.014 C 
ATOM     26  C   UNL     1     131.256 130.341 110.257  1.00  0.00     0.016 C 
ATOM     27  C   UNL     1     128.764 129.597 108.353  1.00  0.00     0.063 C 
ATOM     28  C   UNL     1     130.046 127.605 109.217  1.00  0.00     0.033 C 
ATOM     29  C   UNL     1     128.830 128.067 108.401  1.00  0.00     0.118 C 
BRANCH  29  30
ATOM     30  O   UNL     1     127.642 127.562 108.958  1.00  0.00    -0.393 OA
ATOM     31  H   UNL     1     127.335 126.828 108.365  1.00  0.00     0.210 HD
ENDBRANCH  29  30
ENDBRANCH   1  11
TORSDOF 6
ENDMDL
MODEL 8
REMARK VINA RESULT:     0.652      2.686      8.653
REMARK INTER + INTRA:          -0.192
REMARK INTER:                   0.798
REMARK INTRA:                  -0.990
REMARK UNBOUND:                -1.053
REMARK SMILES CC[C@@H](C=C[C@H](C)[C@H]1CC[C@H]2[C@@H]3CC=C4C[C@H](O)CC[C@]4(C)[C@H]3CC[C@]12C)C(C)C
REMARK SMILES IDX 6 1 7 2 5 3 4 4 3 5 2 6 1 7 28 8 29 9 30 10 8 11 9 12 26 13
REMARK SMILES IDX 10 14 11 15 25 16 27 17 12 18 24 19 23 20 13 21 21 22 14 23
REMARK SMILES IDX 15 24 20 25 22 26 16 27 19 28 17 29 18 30
REMARK H PARENT 18 31
REMARK Flexibility Score: inf
ROOT
ATOM      1  C   UNL     1     130.425 132.628 116.717  1.00  0.00     0.012 C 
ATOM      2  C   UNL     1     130.821 134.101 116.935  1.00  0.00     0.012 C 
ENDROOT
BRANCH   1   3
ATOM      3  C   UNL     1     129.939 132.034 118.022  1.00  0.00    -0.028 C 
ATOM      4  C   UNL     1     128.720 132.293 118.523  1.00  0.00    -0.027 C 
BRANCH   4   5
ATOM      5  C   UNL     1     128.246 131.683 119.827  1.00  0.00     0.014 C 
BRANCH   5   6
ATOM      6  C   UNL     1     129.264 132.018 120.944  1.00  0.00     0.004 C 
ATOM      7  C   UNL     1     129.481 133.524 121.117  1.00  0.00     0.004 C 
ENDBRANCH   5   6
BRANCH   5   8
ATOM      8  C   UNL     1     128.047 130.144 119.649  1.00  0.00    -0.011 C 
ATOM      9  C   UNL     1     128.935 129.329 120.606  1.00  0.00     0.008 C 
ATOM     10  C   UNL     1     126.576 129.743 119.873  1.00  0.00     0.008 C 
ENDBRANCH   5   8
ENDBRANCH   4   5
ENDBRANCH   1   3
BRANCH   1  11
ATOM     11  C   UNL     1     129.409 132.345 115.555  1.00  0.00     0.002 C 
ATOM     12  C   UNL     1     128.488 133.512 115.111  1.00  0.00     0.005 C 
ATOM     13  C   UNL     1     129.996 131.800 114.227  1.00  0.00    -0.026 C 
ATOM     14  C   UNL     1     128.155 133.261 113.628  1.00  0.00     0.005 C 
ATOM     15  C   UNL     1     128.755 131.891 113.329  1.00  0.00    -0.001 C 
ATOM     16  C   UNL     1     130.426 130.316 114.271  1.00  0.00     0.007 C 
ATOM     17  C   UNL     1     131.178 132.693 113.734  1.00  0.00     0.012 C 
ATOM     18  C   UNL     1     129.038 131.500 111.862  1.00  0.00     0.000 C 
ATOM     19  C   UNL     1     130.719 129.772 112.853  1.00  0.00     0.005 C 
ATOM     20  C   UNL     1     129.564 130.032 111.829  1.00  0.00     0.003 C 
ATOM     21  C   UNL     1     127.753 131.599 111.026  1.00  0.00     0.031 C 
ATOM     22  C   UNL     1     129.895 129.572 110.356  1.00  0.00    -0.008 C 
ATOM     23  C   UNL     1     127.881 130.950 109.677  1.00  0.00    -0.027 C 
ATOM     24  C   UNL     1     128.747 129.949 109.405  1.00  0.00    -0.065 C 
ATOM     25  C   UNL     1     130.073 128.020 110.341  1.00  0.00     0.014 C 
ATOM     26  C   UNL     1     131.194 130.241 109.831  1.00  0.00     0.016 C 
ATOM     27  C   UNL     1     128.690 129.299 108.034  1.00  0.00     0.063 C 
ATOM     28  C   UNL     1     130.098 127.409 108.930  1.00  0.00     0.033 C 
ATOM     29  C   UNL     1     128.836 127.777 108.136  1.00  0.00     0.118 C 
BRANCH  29  30
ATOM     30  O   UNL     1     127.693 127.235 108.748  1.00  0.00    -0.393 OA
ATOM     31  H   UNL     1     127.122 127.999 109.019  1.00  0.00     0.210 HD
ENDBRANCH  29  30
ENDBRANCH   1  11
TORSDOF 6
ENDMDL
