MODEL 1
REMARK VINA RESULT:    -2.368      0.000      0.000
REMARK INTER + INTRA:          -2.826
REMARK INTER:                  -2.783
REMARK INTRA:                  -0.043
REMARK UNBOUND:                -0.043
REMARK SMILES CCCCC(=O)[O-]
REMARK SMILES IDX 4 1 5 2 6 3 7 4 3 5 2 6 1 7
REMARK H PARENT
REMARK Flexibility Score: inf
ROOT
ATOM      1  C   UNL     1       3.808   0.448   3.518  1.00  0.00     0.053 C 
ENDROOT
BRANCH   1   2
ATOM      2  C   UNL     1       2.358   0.511   3.879  1.00  0.00     0.041 C 
ATOM      3  O   UNL     1       1.785  -0.494   4.378  1.00  0.00    -0.550 OA
ATOM      4  O   UNL     1       1.626   1.663   3.619  1.00  0.00    -0.550 OA
ENDBRANCH   1   2
BRANCH   1   5
ATOM      5  C   UNL     1       4.654   0.115   4.750  1.00  0.00     0.006 C 
BRANCH   5   6
ATOM      6  C   UNL     1       5.604   1.269   5.094  1.00  0.00    -0.003 C 
ATOM      7  C   UNL     1       5.303   1.837   6.477  1.00  0.00     0.004 C 
ENDBRANCH   5   6
ENDBRANCH   1   5
TORSDOF 3
ENDMDL
MODEL 2
REMARK VINA RESULT:    -2.208      2.999      5.169
REMARK INTER + INTRA:          -2.638
REMARK INTER:                  -2.579
REMARK INTRA:                  -0.059
REMARK UNBOUND:                -0.043
REMARK SMILES CCCCC(=O)[O-]
REMARK SMILES IDX 4 1 5 2 6 3 7 4 3 5 2 6 1 7
REMARK H PARENT
REMARK Flexibility Score: inf
ROOT
ATOM      1  C   UNL     1       1.708  -0.219   1.971  1.00  0.00     0.053 C 
ENDROOT
BRANCH   1   2
ATOM      2  C   UNL     1       1.699   0.313   3.369  1.00  0.00     0.041 C 
ATOM      3  O   UNL     1       1.746  -0.478   4.349  1.00  0.00    -0.550 OA
ATOM      4  O   UNL     1       1.590   1.680   3.592  1.00  0.00    -0.550 OA
ENDBRANCH   1   2
BRANCH   1   5
ATOM      5  C   UNL     1       0.440   0.207   1.227  1.00  0.00     0.006 C 
BRANCH   5   6
ATOM      6  C   UNL     1      -0.682  -0.820   1.419  1.00  0.00    -0.003 C 
ATOM      7  C   UNL     1      -1.933  -0.422   0.642  1.00  0.00     0.004 C 
ENDBRANCH   5   6
ENDBRANCH   1   5
TORSDOF 3
ENDMDL
MODEL 3
REMARK VINA RESULT:    -2.203      7.937      9.242
REMARK INTER + INTRA:          -2.633
REMARK INTER:                  -2.584
REMARK INTRA:                  -0.048
REMARK UNBOUND:                -0.043
REMARK SMILES CCCCC(=O)[O-]
REMARK SMILES IDX 4 1 5 2 6 3 7 4 3 5 2 6 1 7
REMARK H PARENT
REMARK Flexibility Score: inf
ROOT
ATOM      1  C   UNL     1      -0.597  -7.013   3.372  1.00  0.00     0.053 C 
ENDROOT
BRANCH   1   2
ATOM      2  C   UNL     1      -0.919  -5.804   4.191  1.00  0.00     0.041 C 
ATOM      3  O   UNL     1      -1.484  -5.928   5.310  1.00  0.00    -0.550 OA
ATOM      4  O   UNL     1      -0.640  -4.535   3.698  1.00  0.00    -0.550 OA
ENDBRANCH   1   2
BRANCH   1   5
ATOM      5  C   UNL     1      -1.481  -7.067   2.124  1.00  0.00     0.006 C 
BRANCH   5   6
ATOM      6  C   UNL     1      -0.659  -6.807   0.855  1.00  0.00    -0.003 C 
ATOM      7  C   UNL     1      -1.544  -6.823  -0.388  1.00  0.00     0.004 C 
ENDBRANCH   5   6
ENDBRANCH   1   5
TORSDOF 3
ENDMDL
MODEL 4
REMARK VINA RESULT:    -2.179      2.985      5.015
REMARK INTER + INTRA:          -2.604
REMARK INTER:                  -2.491
REMARK INTRA:                  -0.114
REMARK UNBOUND:                -0.043
REMARK SMILES CCCCC(=O)[O-]
REMARK SMILES IDX 4 1 5 2 6 3 7 4 3 5 2 6 1 7
REMARK H PARENT
REMARK Flexibility Score: inf
ROOT
ATOM      1  C   UNL     1       1.568   0.015   1.876  1.00  0.00     0.053 C 
ENDROOT
BRANCH   1   2
ATOM      2  C   UNL     1       1.623   0.480   3.296  1.00  0.00     0.041 C 
ATOM      3  O   UNL     1       1.594   1.712   3.560  1.00  0.00    -0.550 OA
ATOM      4  O   UNL     1       1.754  -0.443   4.326  1.00  0.00    -0.550 OA
ENDBRANCH   1   2
BRANCH   1   5
ATOM      5  C   UNL     1       0.122  -0.015   1.376  1.00  0.00     0.006 C 
BRANCH   5   6
ATOM      6  C   UNL     1      -0.579  -1.313   1.796  1.00  0.00    -0.003 C 
ATOM      7  C   UNL     1       0.290  -2.531   1.497  1.00  0.00     0.004 C 
ENDBRANCH   5   6
ENDBRANCH   1   5
TORSDOF 3
ENDMDL
MODEL 5
REMARK VINA RESULT:    -2.130      0.898      1.558
REMARK INTER + INTRA:          -2.546
REMARK INTER:                  -2.455
REMARK INTRA:                  -0.091
REMARK UNBOUND:                -0.043
REMARK SMILES CCCCC(=O)[O-]
REMARK SMILES IDX 4 1 5 2 6 3 7 4 3 5 2 6 1 7
REMARK H PARENT
REMARK Flexibility Score: inf
ROOT
ATOM      1  C   UNL     1       3.838   0.472   3.710  1.00  0.00     0.053 C 
ENDROOT
BRANCH   1   2
ATOM      2  C   UNL     1       2.358   0.508   3.921  1.00  0.00     0.041 C 
ATOM      3  O   UNL     1       1.756  -0.507   4.364  1.00  0.00    -0.550 OA
ATOM      4  O   UNL     1       1.635   1.645   3.583  1.00  0.00    -0.550 OA
ENDBRANCH   1   2
BRANCH   1   5
ATOM      5  C   UNL     1       4.574   0.789   5.014  1.00  0.00     0.006 C 
BRANCH   5   6
ATOM      6  C   UNL     1       5.685  -0.234   5.281  1.00  0.00    -0.003 C 
ATOM      7  C   UNL     1       5.175  -1.661   5.105  1.00  0.00     0.004 C 
ENDBRANCH   5   6
ENDBRANCH   1   5
TORSDOF 3
ENDMDL
MODEL 6
REMARK VINA RESULT:    -2.114      6.256      6.958
REMARK INTER + INTRA:          -2.528
REMARK INTER:                  -2.394
REMARK INTRA:                  -0.134
REMARK UNBOUND:                -0.043
REMARK SMILES CCCCC(=O)[O-]
REMARK SMILES IDX 4 1 5 2 6 3 7 4 3 5 2 6 1 7
REMARK H PARENT
REMARK Flexibility Score: inf
ROOT
ATOM      1  C   UNL     1       0.856  -5.945   5.205  1.00  0.00     0.053 C 
ENDROOT
BRANCH   1   2
ATOM      2  C   UNL     1      -0.521  -5.454   4.888  1.00  0.00     0.041 C 
ATOM      3  O   UNL     1      -1.510  -5.876   5.544  1.00  0.00    -0.550 OA
ATOM      4  O   UNL     1      -0.719  -4.566   3.838  1.00  0.00    -0.550 OA
ENDBRANCH   1   2
BRANCH   1   5
ATOM      5  C   UNL     1       1.225  -5.611   6.652  1.00  0.00     0.006 C 
BRANCH   5   6
ATOM      6  C   UNL     1       1.249  -4.094   6.879  1.00  0.00    -0.003 C 
ATOM      7  C   UNL     1       0.456  -3.711   8.124  1.00  0.00     0.004 C 
ENDBRANCH   5   6
ENDBRANCH   1   5
TORSDOF 3
ENDMDL
MODEL 7
REMARK VINA RESULT:    -1.999      9.545     10.809
REMARK INTER + INTRA:          -2.393
REMARK INTER:                  -2.304
REMARK INTRA:                  -0.089
REMARK UNBOUND:                -0.043
REMARK SMILES CCCCC(=O)[O-]
REMARK SMILES IDX 4 1 5 2 6 3 7 4 3 5 2 6 1 7
REMARK H PARENT
REMARK Flexibility Score: inf
ROOT
ATOM      1  C   UNL     1      -6.749  -1.583   2.026  1.00  0.00     0.053 C 
ENDROOT
BRANCH   1   2
ATOM      2  C   UNL     1      -5.649  -0.910   2.782  1.00  0.00     0.041 C 
ATOM      3  O   UNL     1      -4.516  -0.758   2.252  1.00  0.00    -0.550 OA
ATOM      4  O   UNL     1      -5.858  -0.493   4.091  1.00  0.00    -0.550 OA
ENDBRANCH   1   2
BRANCH   1   5
ATOM      5  C   UNL     1      -6.726  -1.160   0.555  1.00  0.00     0.006 C 
BRANCH   5   6
ATOM      6  C   UNL     1      -6.556  -2.374  -0.365  1.00  0.00    -0.003 C 
ATOM      7  C   UNL     1      -5.285  -2.259  -1.202  1.00  0.00     0.004 C 
ENDBRANCH   5   6
ENDBRANCH   1   5
TORSDOF 3
ENDMDL
MODEL 8
REMARK VINA RESULT:    -1.963      2.692      3.527
REMARK INTER + INTRA:          -2.350
REMARK INTER:                  -2.321
REMARK INTRA:                  -0.029
REMARK UNBOUND:                -0.043
REMARK SMILES CCCCC(=O)[O-]
REMARK SMILES IDX 4 1 5 2 6 3 7 4 3 5 2 6 1 7
REMARK H PARENT
REMARK Flexibility Score: inf
ROOT
ATOM      1  C   UNL     1       1.465  -0.671   3.246  1.00  0.00     0.053 C 
ENDROOT
BRANCH   1   2
ATOM      2  C   UNL     1       1.374   0.743   2.767  1.00  0.00     0.041 C 
ATOM      3  O   UNL     1       1.580   1.697   3.564  1.00  0.00    -0.550 OA
ATOM      4  O   UNL     1       1.015   1.009   1.451  1.00  0.00    -0.550 OA
ENDBRANCH   1   2
BRANCH   1   5
ATOM      5  C   UNL     1       2.496  -0.791   4.372  1.00  0.00     0.006 C 
BRANCH   5   6
ATOM      6  C   UNL     1       2.996  -2.234   4.509  1.00  0.00    -0.003 C 
ATOM      7  C   UNL     1       1.847  -3.229   4.387  1.00  0.00     0.004 C 
ENDBRANCH   5   6
ENDBRANCH   1   5
TORSDOF 3
ENDMDL
MODEL 9
REMARK VINA RESULT:    -1.946      1.926      3.006
REMARK INTER + INTRA:          -2.330
REMARK INTER:                  -2.221
REMARK INTRA:                  -0.109
REMARK UNBOUND:                -0.043
REMARK SMILES CCCCC(=O)[O-]
REMARK SMILES IDX 4 1 5 2 6 3 7 4 3 5 2 6 1 7
REMARK H PARENT
REMARK Flexibility Score: inf
ROOT
ATOM      1  C   UNL     1       3.670   0.359   3.300  1.00  0.00     0.053 C 
ENDROOT
BRANCH   1   2
ATOM      2  C   UNL     1       2.269   0.493   3.806  1.00  0.00     0.041 C 
ATOM      3  O   UNL     1       1.704  -0.481   4.371  1.00  0.00    -0.550 OA
ATOM      4  O   UNL     1       1.570   1.678   3.613  1.00  0.00    -0.550 OA
ENDBRANCH   1   2
BRANCH   1   5
ATOM      5  C   UNL     1       3.702   0.478   1.774  1.00  0.00     0.006 C 
BRANCH   5   6
ATOM      6  C   UNL     1       4.411   1.766   1.337  1.00  0.00    -0.003 C 
ATOM      7  C   UNL     1       3.425   2.756   0.724  1.00  0.00     0.004 C 
ENDBRANCH   5   6
ENDBRANCH   1   5
TORSDOF 3
ENDMDL
