MODEL 1
REMARK VINA RESULT:    -1.661      0.000      0.000
REMARK INTER + INTRA:          -3.379
REMARK INTER:                  -3.215
REMARK INTRA:                  -0.164
REMARK UNBOUND:                -0.164
REMARK SMILES CCCCCCCCCCCCCCCCCC(=O)[O-]
REMARK SMILES IDX 10 1 11 2 12 3 13 4 14 5 15 6 16 7 17 8 18 9 19 10 20 11
REMARK SMILES IDX 9 12 8 13 7 14 6 15 5 16 4 17 3 18 2 19 1 20
REMARK H PARENT
REMARK Flexibility Score: inf
ROOT
ATOM      1  C   UNL     1     -16.869  -1.350  -2.469  1.00  0.00     0.000 C 
ENDROOT
BRANCH   1   2
ATOM      2  C   UNL     1     -16.541  -2.769  -1.966  1.00  0.00     0.000 C 
BRANCH   2   3
ATOM      3  C   UNL     1     -16.553  -3.864  -3.050  1.00  0.00     0.000 C 
BRANCH   3   4
ATOM      4  C   UNL     1     -15.644  -5.073  -2.759  1.00  0.00     0.000 C 
BRANCH   4   5
ATOM      5  C   UNL     1     -14.194  -4.669  -2.447  1.00  0.00     0.000 C 
BRANCH   5   6
ATOM      6  C   UNL     1     -13.308  -4.624  -3.702  1.00  0.00     0.000 C 
BRANCH   6   7
ATOM      7  C   UNL     1     -14.041  -5.125  -4.960  1.00  0.00     0.006 C 
BRANCH   7   8
ATOM      8  C   UNL     1     -13.918  -4.141  -6.131  1.00  0.00     0.053 C 
BRANCH   8   9
ATOM      9  C   UNL     1     -15.096  -3.217  -6.205  1.00  0.00     0.041 C 
ATOM     10  O   UNL     1     -16.240  -3.669  -6.473  1.00  0.00    -0.550 OA
ATOM     11  O   UNL     1     -14.933  -1.862  -5.952  1.00  0.00    -0.550 OA
ENDBRANCH   8   9
ENDBRANCH   7   8
ENDBRANCH   6   7
ENDBRANCH   5   6
ENDBRANCH   4   5
ENDBRANCH   3   4
ENDBRANCH   2   3
ENDBRANCH   1   2
BRANCH   1  12
ATOM     12  C   UNL     1     -17.100  -0.326  -1.337  1.00  0.00     0.000 C 
BRANCH  12  13
ATOM     13  C   UNL     1     -16.142   0.874  -1.424  1.00  0.00    -0.000 C 
BRANCH  13  14
ATOM     14  C   UNL     1     -16.288   1.835  -0.223  1.00  0.00    -0.000 C 
BRANCH  14  15
ATOM     15  C   UNL     1     -15.252   1.595   0.892  1.00  0.00    -0.000 C 
BRANCH  15  16
ATOM     16  C   UNL     1     -14.815   0.129   1.073  1.00  0.00    -0.000 C 
BRANCH  16  17
ATOM     17  C   UNL     1     -15.965  -0.859   1.346  1.00  0.00    -0.000 C 
BRANCH  17  18
ATOM     18  C   UNL     1     -17.125  -0.223   2.131  1.00  0.00    -0.000 C 
BRANCH  18  19
ATOM     19  C   UNL     1     -16.948  -0.354   3.652  1.00  0.00    -0.003 C 
ATOM     20  C   UNL     1     -16.944   0.999   4.364  1.00  0.00     0.004 C 
ENDBRANCH  18  19
ENDBRANCH  17  18
ENDBRANCH  16  17
ENDBRANCH  15  16
ENDBRANCH  14  15
ENDBRANCH  13  14
ENDBRANCH  12  13
ENDBRANCH   1  12
TORSDOF 16
ENDMDL
MODEL 2
REMARK VINA RESULT:    -1.284      3.585      8.282
REMARK INTER + INTRA:          -2.649
REMARK INTER:                  -3.154
REMARK INTRA:                   0.506
REMARK UNBOUND:                -0.164
REMARK SMILES CCCCCCCCCCCCCCCCCC(=O)[O-]
REMARK SMILES IDX 10 1 11 2 12 3 13 4 14 5 15 6 16 7 17 8 18 9 19 10 20 11
REMARK SMILES IDX 9 12 8 13 7 14 6 15 5 16 4 17 3 18 2 19 1 20
REMARK H PARENT
REMARK Flexibility Score: inf
ROOT
ATOM      1  C   UNL     1     -16.848  -0.183  -2.472  1.00  0.00     0.000 C 
ENDROOT
BRANCH   1   2
ATOM      2  C   UNL     1     -16.821   0.246  -0.992  1.00  0.00     0.000 C 
BRANCH   2   3
ATOM      3  C   UNL     1     -16.021   1.531  -0.701  1.00  0.00     0.000 C 
BRANCH   3   4
ATOM      4  C   UNL     1     -14.675   1.308   0.013  1.00  0.00     0.000 C 
BRANCH   4   5
ATOM      5  C   UNL     1     -14.832   0.638   1.388  1.00  0.00     0.000 C 
BRANCH   5   6
ATOM      6  C   UNL     1     -15.510  -0.739   1.302  1.00  0.00     0.000 C 
BRANCH   6   7
ATOM      7  C   UNL     1     -16.980  -0.703   1.756  1.00  0.00     0.006 C 
BRANCH   7   8
ATOM      8  C   UNL     1     -17.125  -0.934   3.266  1.00  0.00     0.053 C 
BRANCH   8   9
ATOM      9  C   UNL     1     -17.113   0.355   4.028  1.00  0.00     0.041 C 
ATOM     10  O   UNL     1     -17.067   0.347   5.287  1.00  0.00    -0.550 OA
ATOM     11  O   UNL     1     -17.125   1.566   3.348  1.00  0.00    -0.550 OA
ENDBRANCH   8   9
ENDBRANCH   7   8
ENDBRANCH   6   7
ENDBRANCH   5   6
ENDBRANCH   4   5
ENDBRANCH   3   4
ENDBRANCH   2   3
ENDBRANCH   1   2
BRANCH   1  12
ATOM     12  C   UNL     1     -17.042  -1.702  -2.674  1.00  0.00     0.000 C 
BRANCH  12  13
ATOM     13  C   UNL     1     -15.757  -2.401  -3.151  1.00  0.00    -0.000 C 
BRANCH  13  14
ATOM     14  C   UNL     1     -15.300  -3.518  -2.187  1.00  0.00    -0.000 C 
BRANCH  14  15
ATOM     15  C   UNL     1     -14.683  -4.736  -2.900  1.00  0.00    -0.000 C 
BRANCH  15  16
ATOM     16  C   UNL     1     -13.376  -4.452  -3.664  1.00  0.00    -0.000 C 
BRANCH  16  17
ATOM     17  C   UNL     1     -13.361  -4.942  -5.124  1.00  0.00    -0.000 C 
BRANCH  17  18
ATOM     18  C   UNL     1     -14.764  -4.992  -5.752  1.00  0.00    -0.000 C 
BRANCH  18  19
ATOM     19  C   UNL     1     -14.729  -4.879  -7.284  1.00  0.00    -0.003 C 
ATOM     20  C   UNL     1     -15.764  -3.893  -7.826  1.00  0.00     0.004 C 
ENDBRANCH  18  19
ENDBRANCH  17  18
ENDBRANCH  16  17
ENDBRANCH  15  16
ENDBRANCH  14  15
ENDBRANCH  13  14
ENDBRANCH  12  13
ENDBRANCH   1  12
TORSDOF 16
ENDMDL
MODEL 3
REMARK VINA RESULT:    -1.189      1.609      2.045
REMARK INTER + INTRA:          -2.466
REMARK INTER:                  -1.416
REMARK INTRA:                  -1.050
REMARK UNBOUND:                -0.164
REMARK SMILES CCCCCCCCCCCCCCCCCC(=O)[O-]
REMARK SMILES IDX 10 1 11 2 12 3 13 4 14 5 15 6 16 7 17 8 18 9 19 10 20 11
REMARK SMILES IDX 9 12 8 13 7 14 6 15 5 16 4 17 3 18 2 19 1 20
REMARK H PARENT
REMARK Flexibility Score: inf
ROOT
ATOM      1  C   UNL     1     -16.152  -0.655  -3.220  1.00  0.00     0.000 C 
ENDROOT
BRANCH   1   2
ATOM      2  C   UNL     1     -17.043  -1.893  -3.446  1.00  0.00     0.000 C 
BRANCH   2   3
ATOM      3  C   UNL     1     -16.973  -2.957  -2.335  1.00  0.00     0.000 C 
BRANCH   3   4
ATOM      4  C   UNL     1     -16.573  -4.366  -2.812  1.00  0.00     0.000 C 
BRANCH   4   5
ATOM      5  C   UNL     1     -16.483  -4.476  -4.343  1.00  0.00     0.000 C 
BRANCH   5   6
ATOM      6  C   UNL     1     -15.146  -5.068  -4.817  1.00  0.00     0.000 C 
BRANCH   6   7
ATOM      7  C   UNL     1     -14.352  -4.094  -5.706  1.00  0.00     0.006 C 
BRANCH   7   8
ATOM      8  C   UNL     1     -13.599  -4.819  -6.829  1.00  0.00     0.053 C 
BRANCH   8   9
ATOM      9  C   UNL     1     -14.442  -4.964  -8.058  1.00  0.00     0.041 C 
ATOM     10  O   UNL     1     -13.904  -4.986  -9.197  1.00  0.00    -0.550 OA
ATOM     11  O   UNL     1     -15.819  -5.103  -7.945  1.00  0.00    -0.550 OA
ENDBRANCH   8   9
ENDBRANCH   7   8
ENDBRANCH   6   7
ENDBRANCH   5   6
ENDBRANCH   4   5
ENDBRANCH   3   4
ENDBRANCH   2   3
ENDBRANCH   1   2
BRANCH   1  12
ATOM     12  C   UNL     1     -16.920   0.574  -2.688  1.00  0.00     0.000 C 
BRANCH  12  13
ATOM     13  C   UNL     1     -16.325   1.119  -1.379  1.00  0.00    -0.000 C 
BRANCH  13  14
ATOM     14  C   UNL     1     -17.125   0.671  -0.135  1.00  0.00    -0.000 C 
BRANCH  14  15
ATOM     15  C   UNL     1     -17.086  -0.848   0.113  1.00  0.00    -0.000 C 
BRANCH  15  16
ATOM     16  C   UNL     1     -15.838  -1.356   0.860  1.00  0.00    -0.000 C 
BRANCH  16  17
ATOM     17  C   UNL     1     -15.339  -0.433   1.988  1.00  0.00    -0.000 C 
BRANCH  17  18
ATOM     18  C   UNL     1     -15.999  -0.737   3.344  1.00  0.00    -0.000 C 
BRANCH  18  19
ATOM     19  C   UNL     1     -17.123   0.254   3.686  1.00  0.00    -0.003 C 
ATOM     20  C   UNL     1     -16.784   1.139   4.885  1.00  0.00     0.004 C 
ENDBRANCH  18  19
ENDBRANCH  17  18
ENDBRANCH  16  17
ENDBRANCH  15  16
ENDBRANCH  14  15
ENDBRANCH  13  14
ENDBRANCH  12  13
ENDBRANCH   1  12
TORSDOF 16
ENDMDL
MODEL 4
REMARK VINA RESULT:    -0.450      2.713      8.124
REMARK INTER + INTRA:          -1.035
REMARK INTER:                  -0.176
REMARK INTRA:                  -0.860
REMARK UNBOUND:                -0.164
REMARK SMILES CCCCCCCCCCCCCCCCCC(=O)[O-]
REMARK SMILES IDX 10 1 11 2 12 3 13 4 14 5 15 6 16 7 17 8 18 9 19 10 20 11
REMARK SMILES IDX 9 12 8 13 7 14 6 15 5 16 4 17 3 18 2 19 1 20
REMARK H PARENT
REMARK Flexibility Score: inf
ROOT
ATOM      1  C   UNL     1     -17.002  -0.732  -3.195  1.00  0.00     0.000 C 
ENDROOT
BRANCH   1   2
ATOM      2  C   UNL     1     -16.695  -0.439  -1.713  1.00  0.00     0.000 C 
BRANCH   2   3
ATOM      3  C   UNL     1     -15.628   0.645  -1.471  1.00  0.00     0.000 C 
BRANCH   3   4
ATOM      4  C   UNL     1     -15.905   1.572  -0.273  1.00  0.00     0.000 C 
BRANCH   4   5
ATOM      5  C   UNL     1     -17.122   1.128   0.556  1.00  0.00     0.000 C 
BRANCH   5   6
ATOM      6  C   UNL     1     -16.986   1.483   2.045  1.00  0.00     0.000 C 
BRANCH   6   7
ATOM      7  C   UNL     1     -16.727   0.246   2.924  1.00  0.00     0.006 C 
BRANCH   7   8
ATOM      8  C   UNL     1     -16.393  -0.997   2.089  1.00  0.00     0.053 C 
BRANCH   8   9
ATOM      9  C   UNL     1     -14.962  -0.999   1.645  1.00  0.00     0.041 C 
ATOM     10  O   UNL     1     -14.613  -1.663   0.634  1.00  0.00    -0.550 OA
ATOM     11  O   UNL     1     -14.020  -0.246   2.333  1.00  0.00    -0.550 OA
ENDBRANCH   8   9
ENDBRANCH   7   8
ENDBRANCH   6   7
ENDBRANCH   5   6
ENDBRANCH   4   5
ENDBRANCH   3   4
ENDBRANCH   2   3
ENDBRANCH   1   2
BRANCH   1  12
ATOM     12  C   UNL     1     -15.993  -1.691  -3.861  1.00  0.00     0.000 C 
BRANCH  12  13
ATOM     13  C   UNL     1     -16.452  -3.159  -3.808  1.00  0.00    -0.000 C 
BRANCH  13  14
ATOM     14  C   UNL     1     -15.562  -4.024  -2.889  1.00  0.00    -0.000 C 
BRANCH  14  15
ATOM     15  C   UNL     1     -14.786  -5.125  -3.636  1.00  0.00    -0.000 C 
BRANCH  15  16
ATOM     16  C   UNL     1     -13.511  -4.650  -4.358  1.00  0.00    -0.000 C 
BRANCH  16  17
ATOM     17  C   UNL     1     -13.426  -5.041  -5.846  1.00  0.00    -0.000 C 
BRANCH  17  18
ATOM     18  C   UNL     1     -14.434  -4.278  -6.722  1.00  0.00    -0.000 C 
BRANCH  18  19
ATOM     19  C   UNL     1     -14.924  -5.112  -7.917  1.00  0.00    -0.003 C 
ATOM     20  C   UNL     1     -16.336  -4.732  -8.361  1.00  0.00     0.004 C 
ENDBRANCH  18  19
ENDBRANCH  17  18
ENDBRANCH  16  17
ENDBRANCH  15  16
ENDBRANCH  14  15
ENDBRANCH  13  14
ENDBRANCH  12  13
ENDBRANCH   1  12
TORSDOF 16
ENDMDL
MODEL 5
REMARK VINA RESULT:    -0.230      2.559      7.663
REMARK INTER + INTRA:          -0.609
REMARK INTER:                  -0.989
REMARK INTRA:                   0.380
REMARK UNBOUND:                -0.164
REMARK SMILES CCCCCCCCCCCCCCCCCC(=O)[O-]
REMARK SMILES IDX 10 1 11 2 12 3 13 4 14 5 15 6 16 7 17 8 18 9 19 10 20 11
REMARK SMILES IDX 9 12 8 13 7 14 6 15 5 16 4 17 3 18 2 19 1 20
REMARK H PARENT
REMARK Flexibility Score: inf
ROOT
ATOM      1  C   UNL     1     -16.632  -1.387  -4.156  1.00  0.00     0.000 C 
ENDROOT
BRANCH   1   2
ATOM      2  C   UNL     1     -16.856  -0.917  -2.706  1.00  0.00     0.000 C 
BRANCH   2   3
ATOM      3  C   UNL     1     -16.747  -2.022  -1.638  1.00  0.00     0.000 C 
BRANCH   3   4
ATOM      4  C   UNL     1     -17.098  -1.577  -0.207  1.00  0.00     0.000 C 
BRANCH   4   5
ATOM      5  C   UNL     1     -15.921  -1.728   0.771  1.00  0.00     0.000 C 
BRANCH   5   6
ATOM      6  C   UNL     1     -15.377  -0.375   1.259  1.00  0.00     0.000 C 
BRANCH   6   7
ATOM      7  C   UNL     1     -16.436   0.448   2.014  1.00  0.00     0.006 C 
BRANCH   7   8
ATOM      8  C   UNL     1     -16.647   1.832   1.388  1.00  0.00     0.053 C 
BRANCH   8   9
ATOM      9  C   UNL     1     -16.140   1.887  -0.021  1.00  0.00     0.041 C 
ATOM     10  O   UNL     1     -16.934   1.743  -0.987  1.00  0.00    -0.550 OA
ATOM     11  O   UNL     1     -14.794   2.124  -0.266  1.00  0.00    -0.550 OA
ENDBRANCH   8   9
ENDBRANCH   7   8
ENDBRANCH   6   7
ENDBRANCH   5   6
ENDBRANCH   4   5
ENDBRANCH   3   4
ENDBRANCH   2   3
ENDBRANCH   1   2
BRANCH   1  12
ATOM     12  C   UNL     1     -15.492  -2.418  -4.306  1.00  0.00     0.000 C 
BRANCH  12  13
ATOM     13  C   UNL     1     -15.888  -3.812  -3.791  1.00  0.00    -0.000 C 
BRANCH  13  14
ATOM     14  C   UNL     1     -14.815  -4.427  -2.866  1.00  0.00    -0.000 C 
BRANCH  14  15
ATOM     15  C   UNL     1     -13.372  -4.210  -3.359  1.00  0.00    -0.000 C 
BRANCH  15  16
ATOM     16  C   UNL     1     -13.237  -3.891  -4.860  1.00  0.00    -0.000 C 
BRANCH  16  17
ATOM     17  C   UNL     1     -13.163  -5.125  -5.779  1.00  0.00    -0.000 C 
BRANCH  17  18
ATOM     18  C   UNL     1     -13.724  -4.856  -7.186  1.00  0.00    -0.000 C 
BRANCH  18  19
ATOM     19  C   UNL     1     -15.259  -4.793  -7.205  1.00  0.00    -0.003 C 
ATOM     20  C   UNL     1     -15.790  -3.605  -8.008  1.00  0.00     0.004 C 
ENDBRANCH  18  19
ENDBRANCH  17  18
ENDBRANCH  16  17
ENDBRANCH  15  16
ENDBRANCH  14  15
ENDBRANCH  13  14
ENDBRANCH  12  13
ENDBRANCH   1  12
TORSDOF 16
ENDMDL
MODEL 6
REMARK VINA RESULT:     0.904     14.498     16.521
REMARK INTER + INTRA:           1.586
REMARK INTER:                   2.282
REMARK INTRA:                  -0.696
REMARK UNBOUND:                -0.164
REMARK SMILES CCCCCCCCCCCCCCCCCC(=O)[O-]
REMARK SMILES IDX 10 1 11 2 12 3 13 4 14 5 15 6 16 7 17 8 18 9 19 10 20 11
REMARK SMILES IDX 9 12 8 13 7 14 6 15 5 16 4 17 3 18 2 19 1 20
REMARK H PARENT
REMARK Flexibility Score: inf
ROOT
ATOM      1  C   UNL     1      -1.405  -0.141   4.130  1.00  0.00     0.000 C 
ENDROOT
BRANCH   1   2
ATOM      2  C   UNL     1      -2.635   0.681   4.564  1.00  0.00     0.000 C 
BRANCH   2   3
ATOM      3  C   UNL     1      -2.799   2.035   3.849  1.00  0.00     0.000 C 
BRANCH   3   4
ATOM      4  C   UNL     1      -3.657   1.993   2.571  1.00  0.00     0.000 C 
BRANCH   4   5
ATOM      5  C   UNL     1      -3.236   3.046   1.533  1.00  0.00     0.000 C 
BRANCH   5   6
ATOM      6  C   UNL     1      -4.369   4.029   1.193  1.00  0.00     0.000 C 
BRANCH   6   7
ATOM      7  C   UNL     1      -5.654   3.313   0.743  1.00  0.00     0.006 C 
BRANCH   7   8
ATOM      8  C   UNL     1      -6.900   3.859   1.453  1.00  0.00     0.053 C 
BRANCH   8   9
ATOM      9  C   UNL     1      -8.159   3.477   0.738  1.00  0.00     0.041 C 
ATOM     10  O   UNL     1      -8.464   2.264   0.594  1.00  0.00    -0.550 OA
ATOM     11  O   UNL     1      -9.011   4.462   0.255  1.00  0.00    -0.550 OA
ENDBRANCH   8   9
ENDBRANCH   7   8
ENDBRANCH   6   7
ENDBRANCH   5   6
ENDBRANCH   4   5
ENDBRANCH   3   4
ENDBRANCH   2   3
ENDBRANCH   1   2
BRANCH   1  12
ATOM     12  C   UNL     1      -0.125   0.187   4.929  1.00  0.00     0.000 C 
BRANCH  12  13
ATOM     13  C   UNL     1       0.582   1.453   4.416  1.00  0.00    -0.000 C 
BRANCH  13  14
ATOM     14  C   UNL     1       1.929   1.140   3.727  1.00  0.00    -0.000 C 
BRANCH  14  15
ATOM     15  C   UNL     1       3.112   1.020   4.705  1.00  0.00    -0.000 C 
BRANCH  15  16
ATOM     16  C   UNL     1       2.732   1.060   6.197  1.00  0.00    -0.000 C 
BRANCH  16  17
ATOM     17  C   UNL     1       3.124  -0.196   6.998  1.00  0.00    -0.000 C 
BRANCH  17  18
ATOM     18  C   UNL     1       2.748  -1.504   6.280  1.00  0.00    -0.000 C 
BRANCH  18  19
ATOM     19  C   UNL     1       3.092  -2.751   7.110  1.00  0.00    -0.003 C 
ATOM     20  C   UNL     1       2.459  -2.727   8.501  1.00  0.00     0.004 C 
ENDBRANCH  18  19
ENDBRANCH  17  18
ENDBRANCH  16  17
ENDBRANCH  15  16
ENDBRANCH  14  15
ENDBRANCH  13  14
ENDBRANCH  12  13
ENDBRANCH   1  12
TORSDOF 16
ENDMDL
MODEL 7
REMARK VINA RESULT:     0.966      2.337      7.134
REMARK INTER + INTRA:           1.706
REMARK INTER:                   2.077
REMARK INTRA:                  -0.370
REMARK UNBOUND:                -0.164
REMARK SMILES CCCCCCCCCCCCCCCCCC(=O)[O-]
REMARK SMILES IDX 10 1 11 2 12 3 13 4 14 5 15 6 16 7 17 8 18 9 19 10 20 11
REMARK SMILES IDX 9 12 8 13 7 14 6 15 5 16 4 17 3 18 2 19 1 20
REMARK H PARENT
REMARK Flexibility Score: inf
ROOT
ATOM      1  C   UNL     1     -16.676  -0.548  -2.759  1.00  0.00     0.000 C 
ENDROOT
BRANCH   1   2
ATOM      2  C   UNL     1     -17.005   0.531  -1.709  1.00  0.00     0.000 C 
BRANCH   2   3
ATOM      3  C   UNL     1     -15.843   0.897  -0.766  1.00  0.00     0.000 C 
BRANCH   3   4
ATOM      4  C   UNL     1     -16.196   0.886   0.733  1.00  0.00     0.000 C 
BRANCH   4   5
ATOM      5  C   UNL     1     -15.573  -0.303   1.484  1.00  0.00     0.000 C 
BRANCH   5   6
ATOM      6  C   UNL     1     -15.784  -1.640   0.756  1.00  0.00     0.000 C 
BRANCH   6   7
ATOM      7  C   UNL     1     -14.457  -2.318   0.371  1.00  0.00     0.006 C 
BRANCH   7   8
ATOM      8  C   UNL     1     -14.483  -2.872  -1.059  1.00  0.00     0.053 C 
BRANCH   8   9
ATOM      9  C   UNL     1     -14.080  -4.314  -1.103  1.00  0.00     0.041 C 
ATOM     10  O   UNL     1     -14.701  -5.124  -1.840  1.00  0.00    -0.550 OA
ATOM     11  O   UNL     1     -13.000  -4.757  -0.351  1.00  0.00    -0.550 OA
ENDBRANCH   8   9
ENDBRANCH   7   8
ENDBRANCH   6   7
ENDBRANCH   5   6
ENDBRANCH   4   5
ENDBRANCH   3   4
ENDBRANCH   2   3
ENDBRANCH   1   2
BRANCH   1  12
ATOM     12  C   UNL     1     -17.124  -1.969  -2.353  1.00  0.00     0.000 C 
BRANCH  12  13
ATOM     13  C   UNL     1     -16.824  -3.014  -3.440  1.00  0.00    -0.000 C 
BRANCH  13  14
ATOM     14  C   UNL     1     -16.521  -2.370  -4.811  1.00  0.00    -0.000 C 
BRANCH  14  15
ATOM     15  C   UNL     1     -15.162  -2.787  -5.405  1.00  0.00    -0.000 C 
BRANCH  15  16
ATOM     16  C   UNL     1     -14.318  -3.717  -4.513  1.00  0.00    -0.000 C 
BRANCH  16  17
ATOM     17  C   UNL     1     -13.248  -4.535  -5.261  1.00  0.00    -0.000 C 
BRANCH  17  18
ATOM     18  C   UNL     1     -13.445  -4.522  -6.787  1.00  0.00    -0.000 C 
BRANCH  18  19
ATOM     19  C   UNL     1     -14.794  -5.124  -7.211  1.00  0.00    -0.003 C 
ATOM     20  C   UNL     1     -15.128  -4.847  -8.677  1.00  0.00     0.004 C 
ENDBRANCH  18  19
ENDBRANCH  17  18
ENDBRANCH  16  17
ENDBRANCH  15  16
ENDBRANCH  14  15
ENDBRANCH  13  14
ENDBRANCH  12  13
ENDBRANCH   1  12
TORSDOF 16
ENDMDL
