MODEL 1
REMARK VINA RESULT:    -5.769      0.000      0.000
REMARK INTER + INTRA:          -6.319
REMARK INTER:                  -6.106
REMARK INTRA:                  -0.212
REMARK UNBOUND:                -0.212
REMARK SMILES CC1=C[C@@H]2C(=C(C)CC[C@H]2C(C)C)CC1
REMARK SMILES IDX 1 1 2 2 3 3 4 4 10 5 9 6 8 7 6 8 5 9 14 10 15 11 7 12 11 13
REMARK SMILES IDX 12 14 13 15
REMARK H PARENT
REMARK Flexibility Score: inf
ROOT
ATOM      1  C   UNL     1      30.853   7.296  27.751  1.00  0.00     0.039 C 
ATOM      2  C   UNL     1      30.747   8.262  28.898  1.00  0.00    -0.076 C 
ATOM      3  C   UNL     1      31.216   7.923  30.114  1.00  0.00    -0.020 C 
ATOM      4  C   UNL     1      31.154   8.927  31.249  1.00  0.00     0.041 C 
ATOM      5  C   UNL     1      31.890   8.427  32.530  1.00  0.00     0.003 C 
ATOM      6  C   UNL     1      32.222   9.628  33.437  1.00  0.00     0.009 C 
ATOM      7  C   UNL     1      33.125  10.610  32.702  1.00  0.00     0.031 C 
ATOM      8  C   UNL     1      32.524  11.062  31.392  1.00  0.00    -0.073 C 
ATOM      9  C   UNL     1      31.661  10.267  30.698  1.00  0.00    -0.064 C 
ATOM     10  C   UNL     1      31.136  10.699  29.328  1.00  0.00     0.036 C 
ATOM     11  C   UNL     1      30.193   9.656  28.701  1.00  0.00     0.035 C 
ATOM     12  C   UNL     1      33.003  12.380  30.827  1.00  0.00     0.039 C 
ENDROOT
BRANCH   5  13
ATOM     13  C   UNL     1      31.133   7.326  33.357  1.00  0.00    -0.013 C 
ATOM     14  C   UNL     1      29.614   7.337  33.134  1.00  0.00     0.007 C 
ATOM     15  C   UNL     1      31.437   7.333  34.866  1.00  0.00     0.007 C 
ENDBRANCH   5  13
TORSDOF 1
ENDMDL
MODEL 2
REMARK VINA RESULT:    -5.720      1.469      4.296
REMARK INTER + INTRA:          -6.267
REMARK INTER:                  -6.014
REMARK INTRA:                  -0.253
REMARK UNBOUND:                -0.212
REMARK SMILES CC1=C[C@@H]2C(=C(C)CC[C@H]2C(C)C)CC1
REMARK SMILES IDX 1 1 2 2 3 3 4 4 10 5 9 6 8 7 6 8 5 9 14 10 15 11 7 12 11 13
REMARK SMILES IDX 12 14 13 15
REMARK H PARENT
REMARK Flexibility Score: inf
ROOT
ATOM      1  C   UNL     1      29.379   6.609  31.700  1.00  0.00     0.039 C 
ATOM      2  C   UNL     1      30.573   7.517  31.585  1.00  0.00    -0.076 C 
ATOM      3  C   UNL     1      30.553   8.555  30.729  1.00  0.00    -0.020 C 
ATOM      4  C   UNL     1      31.740   9.496  30.663  1.00  0.00     0.041 C 
ATOM      5  C   UNL     1      31.476  10.730  29.745  1.00  0.00     0.003 C 
ATOM      6  C   UNL     1      32.467  11.855  30.095  1.00  0.00     0.009 C 
ATOM      7  C   UNL     1      32.295  12.278  31.548  1.00  0.00     0.031 C 
ATOM      8  C   UNL     1      32.433  11.110  32.498  1.00  0.00    -0.073 C 
ATOM      9  C   UNL     1      32.127   9.841  32.107  1.00  0.00    -0.064 C 
ATOM     10  C   UNL     1      32.182   8.685  33.108  1.00  0.00     0.036 C 
ATOM     11  C   UNL     1      31.781   7.339  32.477  1.00  0.00     0.035 C 
ATOM     12  C   UNL     1      32.817  11.421  33.927  1.00  0.00     0.039 C 
ENDROOT
BRANCH   5  13
ATOM     13  C   UNL     1      31.516  10.443  28.201  1.00  0.00    -0.013 C 
ATOM     14  C   UNL     1      32.447  11.390  27.431  1.00  0.00     0.007 C 
ATOM     15  C   UNL     1      30.136  10.402  27.519  1.00  0.00     0.007 C 
ENDBRANCH   5  13
TORSDOF 1
ENDMDL
MODEL 3
REMARK VINA RESULT:    -5.647      1.033      4.289
REMARK INTER + INTRA:          -6.190
REMARK INTER:                  -5.900
REMARK INTRA:                  -0.290
REMARK UNBOUND:                -0.212
REMARK SMILES CC1=C[C@@H]2C(=C(C)CC[C@H]2C(C)C)CC1
REMARK SMILES IDX 1 1 2 2 3 3 4 4 10 5 9 6 8 7 6 8 5 9 14 10 15 11 7 12 11 13
REMARK SMILES IDX 12 14 13 15
REMARK H PARENT
REMARK Flexibility Score: inf
ROOT
ATOM      1  C   UNL     1      29.350   6.623  33.358  1.00  0.00     0.039 C 
ATOM      2  C   UNL     1      30.428   7.293  32.553  1.00  0.00    -0.076 C 
ATOM      3  C   UNL     1      30.139   7.841  31.358  1.00  0.00    -0.020 C 
ATOM      4  C   UNL     1      31.223   8.563  30.581  1.00  0.00     0.041 C 
ATOM      5  C   UNL     1      30.673   9.276  29.307  1.00  0.00     0.003 C 
ATOM      6  C   UNL     1      31.666  10.362  28.853  1.00  0.00     0.009 C 
ATOM      7  C   UNL     1      31.854  11.398  29.954  1.00  0.00     0.031 C 
ATOM      8  C   UNL     1      32.288  10.768  31.257  1.00  0.00    -0.073 C 
ATOM      9  C   UNL     1      31.952   9.484  31.569  1.00  0.00    -0.064 C 
ATOM     10  C   UNL     1      32.318   8.894  32.931  1.00  0.00     0.036 C 
ATOM     11  C   UNL     1      31.832   7.441  33.094  1.00  0.00     0.035 C 
ATOM     12  C   UNL     1      33.011  11.652  32.248  1.00  0.00     0.039 C 
ENDROOT
BRANCH   5  13
ATOM     13  C   UNL     1      30.328   8.329  28.101  1.00  0.00    -0.013 C 
ATOM     14  C   UNL     1      31.417   7.285  27.817  1.00  0.00     0.007 C 
ATOM     15  C   UNL     1      29.955   9.060  26.797  1.00  0.00     0.007 C 
ENDBRANCH   5  13
TORSDOF 1
ENDMDL
MODEL 4
REMARK VINA RESULT:    -5.644      1.457      3.156
REMARK INTER + INTRA:          -6.186
REMARK INTER:                  -5.985
REMARK INTRA:                  -0.201
REMARK UNBOUND:                -0.212
REMARK SMILES CC1=C[C@@H]2C(=C(C)CC[C@H]2C(C)C)CC1
REMARK SMILES IDX 1 1 2 2 3 3 4 4 10 5 9 6 8 7 6 8 5 9 14 10 15 11 7 12 11 13
REMARK SMILES IDX 12 14 13 15
REMARK H PARENT
REMARK Flexibility Score: inf
ROOT
ATOM      1  C   UNL     1      32.381  11.350  26.889  1.00  0.00     0.039 C 
ATOM      2  C   UNL     1      31.794  11.071  28.245  1.00  0.00    -0.076 C 
ATOM      3  C   UNL     1      31.527   9.806  28.619  1.00  0.00    -0.020 C 
ATOM      4  C   UNL     1      30.987   9.533  30.010  1.00  0.00     0.041 C 
ATOM      5  C   UNL     1      30.897   8.009  30.329  1.00  0.00     0.003 C 
ATOM      6  C   UNL     1      30.829   7.803  31.854  1.00  0.00     0.009 C 
ATOM      7  C   UNL     1      32.077   8.371  32.518  1.00  0.00     0.031 C 
ATOM      8  C   UNL     1      32.292   9.825  32.170  1.00  0.00    -0.073 C 
ATOM      9  C   UNL     1      31.839  10.346  30.995  1.00  0.00    -0.064 C 
ATOM     10  C   UNL     1      32.148  11.795  30.616  1.00  0.00     0.036 C 
ATOM     11  C   UNL     1      31.567  12.183  29.244  1.00  0.00     0.035 C 
ATOM     12  C   UNL     1      33.125  10.651  33.125  1.00  0.00     0.039 C 
ENDROOT
BRANCH   5  13
ATOM     13  C   UNL     1      29.714   7.243  29.633  1.00  0.00    -0.013 C 
ATOM     14  C   UNL     1      29.025   6.225  30.553  1.00  0.00     0.007 C 
ATOM     15  C   UNL     1      30.080   6.572  28.296  1.00  0.00     0.007 C 
ENDBRANCH   5  13
TORSDOF 1
ENDMDL
MODEL 5
REMARK VINA RESULT:    -5.616      1.633      5.633
REMARK INTER + INTRA:          -6.156
REMARK INTER:                  -5.870
REMARK INTRA:                  -0.287
REMARK UNBOUND:                -0.212
REMARK SMILES CC1=C[C@@H]2C(=C(C)CC[C@H]2C(C)C)CC1
REMARK SMILES IDX 1 1 2 2 3 3 4 4 10 5 9 6 8 7 6 8 5 9 14 10 15 11 7 12 11 13
REMARK SMILES IDX 12 14 13 15
REMARK H PARENT
REMARK Flexibility Score: inf
ROOT
ATOM      1  C   UNL     1      33.125  10.890  33.027  1.00  0.00     0.039 C 
ATOM      2  C   UNL     1      32.123  10.509  31.973  1.00  0.00    -0.076 C 
ATOM      3  C   UNL     1      32.379  10.758  30.674  1.00  0.00    -0.020 C 
ATOM      4  C   UNL     1      31.387  10.318  29.616  1.00  0.00     0.041 C 
ATOM      5  C   UNL     1      31.921  10.535  28.167  1.00  0.00     0.003 C 
ATOM      6  C   UNL     1      31.130   9.649  27.186  1.00  0.00     0.009 C 
ATOM      7  C   UNL     1      31.290   8.180  27.555  1.00  0.00     0.031 C 
ATOM      8  C   UNL     1      30.889   7.907  28.986  1.00  0.00    -0.073 C 
ATOM      9  C   UNL     1      30.984   8.873  29.944  1.00  0.00    -0.064 C 
ATOM     10  C   UNL     1      30.665   8.554  31.405  1.00  0.00     0.036 C 
ATOM     11  C   UNL     1      30.853   9.770  32.329  1.00  0.00     0.035 C 
ATOM     12  C   UNL     1      30.485   6.493  29.336  1.00  0.00     0.039 C 
ENDROOT
BRANCH   5  13
ATOM     13  C   UNL     1      31.920  12.023  27.663  1.00  0.00    -0.013 C 
ATOM     14  C   UNL     1      30.582  12.740  27.891  1.00  0.00     0.007 C 
ATOM     15  C   UNL     1      32.367  12.207  26.201  1.00  0.00     0.007 C 
ENDBRANCH   5  13
TORSDOF 1
ENDMDL
MODEL 6
REMARK VINA RESULT:    -5.364      1.606      4.476
REMARK INTER + INTRA:          -5.890
REMARK INTER:                  -5.653
REMARK INTRA:                  -0.238
REMARK UNBOUND:                -0.212
REMARK SMILES CC1=C[C@@H]2C(=C(C)CC[C@H]2C(C)C)CC1
REMARK SMILES IDX 1 1 2 2 3 3 4 4 10 5 9 6 8 7 6 8 5 9 14 10 15 11 7 12 11 13
REMARK SMILES IDX 12 14 13 15
REMARK H PARENT
REMARK Flexibility Score: inf
ROOT
ATOM      1  C   UNL     1      27.977   8.089  27.745  1.00  0.00     0.039 C 
ATOM      2  C   UNL     1      29.352   8.338  28.302  1.00  0.00    -0.076 C 
ATOM      3  C   UNL     1      29.809   9.597  28.437  1.00  0.00    -0.020 C 
ATOM      4  C   UNL     1      31.174   9.838  29.052  1.00  0.00     0.041 C 
ATOM      5  C   UNL     1      31.468  11.352  29.284  1.00  0.00     0.003 C 
ATOM      6  C   UNL     1      32.594  11.506  30.324  1.00  0.00     0.009 C 
ATOM      7  C   UNL     1      32.180  10.876  31.647  1.00  0.00     0.031 C 
ATOM      8  C   UNL     1      31.778   9.429  31.485  1.00  0.00    -0.073 C 
ATOM      9  C   UNL     1      31.266   8.964  30.310  1.00  0.00    -0.064 C 
ATOM     10  C   UNL     1      30.776   7.520  30.193  1.00  0.00     0.036 C 
ATOM     11  C   UNL     1      30.216   7.199  28.795  1.00  0.00     0.035 C 
ATOM     12  C   UNL     1      31.862   8.544  32.709  1.00  0.00     0.039 C 
ENDROOT
BRANCH   5  13
ATOM     13  C   UNL     1      31.814  12.178  27.994  1.00  0.00    -0.013 C 
ATOM     14  C   UNL     1      30.636  13.012  27.471  1.00  0.00     0.007 C 
ATOM     15  C   UNL     1      32.416  11.350  26.843  1.00  0.00     0.007 C 
ENDBRANCH   5  13
TORSDOF 1
ENDMDL
MODEL 7
REMARK VINA RESULT:    -5.355      1.155      1.863
REMARK INTER + INTRA:          -5.880
REMARK INTER:                  -5.625
REMARK INTRA:                  -0.255
REMARK UNBOUND:                -0.212
REMARK SMILES CC1=C[C@@H]2C(=C(C)CC[C@H]2C(C)C)CC1
REMARK SMILES IDX 1 1 2 2 3 3 4 4 10 5 9 6 8 7 6 8 5 9 14 10 15 11 7 12 11 13
REMARK SMILES IDX 12 14 13 15
REMARK H PARENT
REMARK Flexibility Score: inf
ROOT
ATOM      1  C   UNL     1      30.132   6.562  27.812  1.00  0.00     0.039 C 
ATOM      2  C   UNL     1      30.119   7.890  28.517  1.00  0.00    -0.076 C 
ATOM      3  C   UNL     1      30.855   8.072  29.629  1.00  0.00    -0.020 C 
ATOM      4  C   UNL     1      30.877   9.432  30.299  1.00  0.00     0.041 C 
ATOM      5  C   UNL     1      31.908   9.507  31.468  1.00  0.00     0.003 C 
ATOM      6  C   UNL     1      32.241  10.980  31.770  1.00  0.00     0.009 C 
ATOM      7  C   UNL     1      32.843  11.648  30.540  1.00  0.00     0.031 C 
ATOM      8  C   UNL     1      31.945  11.525  29.331  1.00  0.00    -0.073 C 
ATOM      9  C   UNL     1      31.081  10.479  29.195  1.00  0.00    -0.064 C 
ATOM     10  C   UNL     1      30.248  10.320  27.923  1.00  0.00     0.036 C 
ATOM     11  C   UNL     1      29.353   9.067  27.957  1.00  0.00     0.035 C 
ATOM     12  C   UNL     1      32.122  12.545  28.229  1.00  0.00     0.039 C 
ENDROOT
BRANCH   5  13
ATOM     13  C   UNL     1      31.481   8.774  32.791  1.00  0.00    -0.013 C 
ATOM     14  C   UNL     1      31.555   9.672  34.034  1.00  0.00     0.007 C 
ATOM     15  C   UNL     1      32.223   7.451  33.060  1.00  0.00     0.007 C 
ENDBRANCH   5  13
TORSDOF 1
ENDMDL
MODEL 8
REMARK VINA RESULT:    -5.254      1.469      3.809
REMARK INTER + INTRA:          -5.774
REMARK INTER:                  -5.486
REMARK INTRA:                  -0.288
REMARK UNBOUND:                -0.212
REMARK SMILES CC1=C[C@@H]2C(=C(C)CC[C@H]2C(C)C)CC1
REMARK SMILES IDX 1 1 2 2 3 3 4 4 10 5 9 6 8 7 6 8 5 9 14 10 15 11 7 12 11 13
REMARK SMILES IDX 12 14 13 15
REMARK H PARENT
REMARK Flexibility Score: inf
ROOT
ATOM      1  C   UNL     1      31.095  12.936  27.728  1.00  0.00     0.039 C 
ATOM      2  C   UNL     1      31.546  11.600  28.252  1.00  0.00    -0.076 C 
ATOM      3  C   UNL     1      31.176  11.195  29.481  1.00  0.00    -0.020 C 
ATOM      4  C   UNL     1      31.590   9.823  29.975  1.00  0.00     0.041 C 
ATOM      5  C   UNL     1      30.936   9.457  31.343  1.00  0.00     0.003 C 
ATOM      6  C   UNL     1      30.981   7.930  31.545  1.00  0.00     0.009 C 
ATOM      7  C   UNL     1      30.217   7.228  30.431  1.00  0.00     0.031 C 
ATOM      8  C   UNL     1      30.727   7.615  29.062  1.00  0.00    -0.073 C 
ATOM      9  C   UNL     1      31.309   8.828  28.841  1.00  0.00    -0.064 C 
ATOM     10  C   UNL     1      31.733   9.241  27.431  1.00  0.00     0.036 C 
ATOM     11  C   UNL     1      32.349  10.652  27.390  1.00  0.00     0.035 C 
ATOM     12  C   UNL     1      30.466   6.651  27.927  1.00  0.00     0.039 C 
ENDROOT
BRANCH   5  13
ATOM     13  C   UNL     1      31.545  10.181  32.598  1.00  0.00    -0.013 C 
ATOM     14  C   UNL     1      33.071  10.330  32.531  1.00  0.00     0.007 C 
ATOM     15  C   UNL     1      31.142   9.568  33.952  1.00  0.00     0.007 C 
ENDBRANCH   5  13
TORSDOF 1
ENDMDL
MODEL 9
REMARK VINA RESULT:    -5.189      1.615      4.166
REMARK INTER + INTRA:          -5.705
REMARK INTER:                  -5.462
REMARK INTRA:                  -0.243
REMARK UNBOUND:                -0.212
REMARK SMILES CC1=C[C@@H]2C(=C(C)CC[C@H]2C(C)C)CC1
REMARK SMILES IDX 1 1 2 2 3 3 4 4 10 5 9 6 8 7 6 8 5 9 14 10 15 11 7 12 11 13
REMARK SMILES IDX 12 14 13 15
REMARK H PARENT
REMARK Flexibility Score: inf
ROOT
ATOM      1  C   UNL     1      30.444  12.593  26.446  1.00  0.00     0.039 C 
ATOM      2  C   UNL     1      31.081  11.440  27.170  1.00  0.00    -0.076 C 
ATOM      3  C   UNL     1      31.110  11.417  28.515  1.00  0.00    -0.020 C 
ATOM      4  C   UNL     1      31.705  10.222  29.233  1.00  0.00     0.041 C 
ATOM      5  C   UNL     1      31.502  10.290  30.779  1.00  0.00     0.003 C 
ATOM      6  C   UNL     1      31.665   8.883  31.383  1.00  0.00     0.009 C 
ATOM      7  C   UNL     1      30.631   7.932  30.793  1.00  0.00     0.031 C 
ATOM      8  C   UNL     1      30.695   7.891  29.284  1.00  0.00    -0.073 C 
ATOM      9  C   UNL     1      31.137   8.962  28.565  1.00  0.00    -0.064 C 
ATOM     10  C   UNL     1      31.106   8.939  27.037  1.00  0.00     0.036 C 
ATOM     11  C   UNL     1      31.628  10.248  26.416  1.00  0.00     0.035 C 
ATOM     12  C   UNL     1      30.145   6.660  28.600  1.00  0.00     0.039 C 
ENDROOT
BRANCH   5  13
ATOM     13  C   UNL     1      32.429  11.308  31.536  1.00  0.00    -0.013 C 
ATOM     14  C   UNL     1      33.124  10.699  32.762  1.00  0.00     0.007 C 
ATOM     15  C   UNL     1      31.745  12.630  31.929  1.00  0.00     0.007 C 
ENDBRANCH   5  13
TORSDOF 1
ENDMDL
