MODEL 1
REMARK VINA RESULT:    -6.510      0.000      0.000
REMARK INTER + INTRA:          -7.777
REMARK INTER:                  -7.651
REMARK INTRA:                  -0.125
REMARK UNBOUND:                -0.125
REMARK SMILES O=C([O-])C=Cc1ccc(O)c(O)c1
REMARK SMILES IDX 6 1 13 2 7 3 11 4 8 5 9 6 5 7 4 8 2 9 1 10 3 11 12 12 10 14
REMARK H PARENT 12 13 10 15
REMARK Flexibility Score: inf
ROOT
ATOM      1  C   UNL     1     -36.138  71.747 -18.768  1.00  0.00    -0.022 A 
ATOM      2  C   UNL     1     -36.800  70.505 -18.685  1.00  0.00     0.058 A 
ATOM      3  C   UNL     1     -34.741  71.762 -18.910  1.00  0.00     0.012 A 
ATOM      4  C   UNL     1     -36.077  69.306 -18.769  1.00  0.00     0.157 A 
ATOM      5  C   UNL     1     -34.022  70.567 -18.995  1.00  0.00     0.051 A 
ATOM      6  C   UNL     1     -34.687  69.337 -18.927  1.00  0.00     0.157 A 
ENDROOT
BRANCH   1   7
ATOM      7  C   UNL     1     -36.856  73.043 -18.672  1.00  0.00     0.010 C 
ATOM      8  C   UNL     1     -37.711  73.489 -19.601  1.00  0.00     0.025 C 
BRANCH   8   9
ATOM      9  C   UNL     1     -38.392  74.787 -19.472  1.00  0.00     0.064 C 
ATOM     10  O   UNL     1     -39.191  75.162 -20.370  1.00  0.00    -0.545 OA
ATOM     11  O   UNL     1     -38.170  75.608 -18.371  1.00  0.00    -0.545 OA
ENDBRANCH   8   9
ENDBRANCH   1   7
BRANCH   4  12
ATOM     12  O   UNL     1     -36.734  68.079 -18.690  1.00  0.00    -0.504 OA
ATOM     13  H   UNL     1     -36.354  67.244 -19.122  1.00  0.00     0.293 HD
ENDBRANCH   4  12
BRANCH   6  14
ATOM     14  O   UNL     1     -33.973  68.143 -19.015  1.00  0.00    -0.504 OA
ATOM     15  H   UNL     1     -34.380  67.260 -18.728  1.00  0.00     0.293 HD
ENDBRANCH   6  14
TORSDOF 4
ENDMDL
MODEL 2
REMARK VINA RESULT:    -6.464      0.856      1.845
REMARK INTER + INTRA:          -7.723
REMARK INTER:                  -7.583
REMARK INTRA:                  -0.140
REMARK UNBOUND:                -0.125
REMARK SMILES O=C([O-])C=Cc1ccc(O)c(O)c1
REMARK SMILES IDX 6 1 13 2 7 3 11 4 8 5 9 6 5 7 4 8 2 9 1 10 3 11 12 12 10 14
REMARK H PARENT 12 13 10 15
REMARK Flexibility Score: inf
ROOT
ATOM      1  C   UNL     1     -36.578  71.884 -18.775  1.00  0.00    -0.022 A 
ATOM      2  C   UNL     1     -35.209  71.550 -18.840  1.00  0.00     0.058 A 
ATOM      3  C   UNL     1     -37.523  70.849 -18.681  1.00  0.00     0.012 A 
ATOM      4  C   UNL     1     -34.800  70.210 -18.784  1.00  0.00     0.157 A 
ATOM      5  C   UNL     1     -37.115  69.514 -18.624  1.00  0.00     0.051 A 
ATOM      6  C   UNL     1     -35.753  69.191 -18.673  1.00  0.00     0.157 A 
ENDROOT
BRANCH   1   7
ATOM      7  C   UNL     1     -37.063  73.285 -18.842  1.00  0.00     0.010 C 
ATOM      8  C   UNL     1     -38.044  73.694 -19.656  1.00  0.00     0.025 C 
BRANCH   8   9
ATOM      9  C   UNL     1     -38.485  75.097 -19.698  1.00  0.00     0.064 C 
ATOM     10  O   UNL     1     -38.884  75.591 -20.786  1.00  0.00    -0.545 OA
ATOM     11  O   UNL     1     -38.473  75.888 -18.554  1.00  0.00    -0.545 OA
ENDBRANCH   8   9
ENDBRANCH   1   7
BRANCH   4  12
ATOM     12  O   UNL     1     -33.446  69.883 -18.845  1.00  0.00    -0.504 OA
ATOM     13  H   UNL     1     -32.873  70.138 -19.640  1.00  0.00     0.293 HD
ENDBRANCH   4  12
BRANCH   6  14
ATOM     14  O   UNL     1     -35.341  67.861 -18.614  1.00  0.00    -0.504 OA
ATOM     15  H   UNL     1     -35.930  67.108 -18.950  1.00  0.00     0.293 HD
ENDBRANCH   6  14
TORSDOF 4
ENDMDL
MODEL 3
REMARK VINA RESULT:    -5.261      1.437      5.837
REMARK INTER + INTRA:          -6.309
REMARK INTER:                  -6.167
REMARK INTRA:                  -0.142
REMARK UNBOUND:                -0.125
REMARK SMILES O=C([O-])C=Cc1ccc(O)c(O)c1
REMARK SMILES IDX 6 1 13 2 7 3 11 4 8 5 9 6 5 7 4 8 2 9 1 10 3 11 12 12 10 14
REMARK H PARENT 12 13 10 15
REMARK Flexibility Score: inf
ROOT
ATOM      1  C   UNL     1     -36.479  70.567 -18.850  1.00  0.00    -0.022 A 
ATOM      2  C   UNL     1     -37.772  70.635 -19.409  1.00  0.00     0.058 A 
ATOM      3  C   UNL     1     -35.815  71.763 -18.530  1.00  0.00     0.012 A 
ATOM      4  C   UNL     1     -38.392  71.875 -19.617  1.00  0.00     0.157 A 
ATOM      5  C   UNL     1     -36.435  72.998 -18.736  1.00  0.00     0.051 A 
ATOM      6  C   UNL     1     -37.725  73.058 -19.278  1.00  0.00     0.157 A 
ENDROOT
BRANCH   1   7
ATOM      7  C   UNL     1     -35.775  69.281 -18.620  1.00  0.00     0.010 C 
ATOM      8  C   UNL     1     -34.528  69.031 -19.041  1.00  0.00     0.025 C 
BRANCH   8   9
ATOM      9  C   UNL     1     -33.872  67.735 -18.802  1.00  0.00     0.064 C 
ATOM     10  O   UNL     1     -34.574  66.698 -18.669  1.00  0.00    -0.545 OA
ATOM     11  O   UNL     1     -32.487  67.635 -18.723  1.00  0.00    -0.545 OA
ENDBRANCH   8   9
ENDBRANCH   1   7
BRANCH   4  12
ATOM     12  O   UNL     1     -39.672  71.940 -20.167  1.00  0.00    -0.504 OA
ATOM     13  H   UNL     1     -39.876  71.562 -21.085  1.00  0.00     0.293 HD
ENDBRANCH   4  12
BRANCH   6  14
ATOM     14  O   UNL     1     -38.348  74.288 -19.483  1.00  0.00    -0.504 OA
ATOM     15  H   UNL     1     -39.115  74.597 -18.899  1.00  0.00     0.293 HD
ENDBRANCH   6  14
TORSDOF 4
ENDMDL
MODEL 4
REMARK VINA RESULT:    -5.175      1.207      6.114
REMARK INTER + INTRA:          -6.208
REMARK INTER:                  -6.073
REMARK INTRA:                  -0.135
REMARK UNBOUND:                -0.125
REMARK SMILES O=C([O-])C=Cc1ccc(O)c(O)c1
REMARK SMILES IDX 6 1 13 2 7 3 11 4 8 5 9 6 5 7 4 8 2 9 1 10 3 11 12 12 10 14
REMARK H PARENT 12 13 10 15
REMARK Flexibility Score: inf
ROOT
ATOM      1  C   UNL     1     -37.510  73.182 -19.007  1.00  0.00    -0.022 A 
ATOM      2  C   UNL     1     -38.246  73.676 -20.104  1.00  0.00     0.058 A 
ATOM      3  C   UNL     1     -37.259  74.037 -17.921  1.00  0.00     0.012 A 
ATOM      4  C   UNL     1     -38.739  74.988 -20.098  1.00  0.00     0.157 A 
ATOM      5  C   UNL     1     -37.752  75.344 -17.915  1.00  0.00     0.051 A 
ATOM      6  C   UNL     1     -38.495  75.823 -19.001  1.00  0.00     0.157 A 
ENDROOT
BRANCH   1   7
ATOM      7  C   UNL     1     -36.957  71.806 -18.969  1.00  0.00     0.010 C 
ATOM      8  C   UNL     1     -35.647  71.532 -18.911  1.00  0.00     0.025 C 
BRANCH   8   9
ATOM      9  C   UNL     1     -35.142  70.150 -18.888  1.00  0.00     0.064 C 
ATOM     10  O   UNL     1     -34.000  69.898 -19.357  1.00  0.00    -0.545 OA
ATOM     11  O   UNL     1     -35.903  69.116 -18.355  1.00  0.00    -0.545 OA
ENDBRANCH   8   9
ENDBRANCH   1   7
BRANCH   4  12
ATOM     12  O   UNL     1     -39.469  75.473 -21.182  1.00  0.00    -0.504 OA
ATOM     13  H   UNL     1     -39.335  75.108 -22.118  1.00  0.00     0.293 HD
ENDBRANCH   4  12
BRANCH   6  14
ATOM     14  O   UNL     1     -38.990  77.125 -18.998  1.00  0.00    -0.504 OA
ATOM     15  H   UNL     1     -39.395  77.536 -18.165  1.00  0.00     0.293 HD
ENDBRANCH   6  14
TORSDOF 4
ENDMDL
MODEL 5
REMARK VINA RESULT:    -4.686      8.461      9.372
REMARK INTER + INTRA:          -5.633
REMARK INTER:                  -5.483
REMARK INTRA:                  -0.150
REMARK UNBOUND:                -0.125
REMARK SMILES O=C([O-])C=Cc1ccc(O)c(O)c1
REMARK SMILES IDX 6 1 13 2 7 3 11 4 8 5 9 6 5 7 4 8 2 9 1 10 3 11 12 12 10 14
REMARK H PARENT 12 13 10 15
REMARK Flexibility Score: inf
ROOT
ATOM      1  C   UNL     1     -36.003  75.561 -26.554  1.00  0.00    -0.022 A 
ATOM      2  C   UNL     1     -35.104  75.864 -25.510  1.00  0.00     0.058 A 
ATOM      3  C   UNL     1     -35.510  75.460 -27.864  1.00  0.00     0.012 A 
ATOM      4  C   UNL     1     -33.738  76.035 -25.775  1.00  0.00     0.157 A 
ATOM      5  C   UNL     1     -34.148  75.628 -28.128  1.00  0.00     0.051 A 
ATOM      6  C   UNL     1     -33.258  75.914 -27.085  1.00  0.00     0.157 A 
ENDROOT
BRANCH   1   7
ATOM      7  C   UNL     1     -37.459  75.383 -26.327  1.00  0.00     0.010 C 
ATOM      8  C   UNL     1     -38.375  75.432 -27.303  1.00  0.00     0.025 C 
BRANCH   8   9
ATOM      9  C   UNL     1     -39.811  75.262 -27.032  1.00  0.00     0.064 C 
ATOM     10  O   UNL     1     -40.420  76.123 -26.344  1.00  0.00    -0.545 OA
ATOM     11  O   UNL     1     -40.510  74.165 -27.524  1.00  0.00    -0.545 OA
ENDBRANCH   8   9
ENDBRANCH   1   7
BRANCH   4  12
ATOM     12  O   UNL     1     -32.850  76.331 -24.741  1.00  0.00    -0.504 OA
ATOM     13  H   UNL     1     -32.158  75.660 -24.428  1.00  0.00     0.293 HD
ENDBRANCH   4  12
BRANCH   6  14
ATOM     14  O   UNL     1     -31.899  76.081 -27.342  1.00  0.00    -0.504 OA
ATOM     15  H   UNL     1     -31.300  75.293 -27.559  1.00  0.00     0.293 HD
ENDBRANCH   6  14
TORSDOF 4
ENDMDL
MODEL 6
REMARK VINA RESULT:    -4.628      8.973     10.227
REMARK INTER + INTRA:          -5.565
REMARK INTER:                  -5.441
REMARK INTRA:                  -0.125
REMARK UNBOUND:                -0.125
REMARK SMILES O=C([O-])C=Cc1ccc(O)c(O)c1
REMARK SMILES IDX 6 1 13 2 7 3 11 4 8 5 9 6 5 7 4 8 2 9 1 10 3 11 12 12 10 14
REMARK H PARENT 12 13 10 15
REMARK Flexibility Score: inf
ROOT
ATOM      1  C   UNL     1     -37.691  75.605 -26.823  1.00  0.00    -0.022 A 
ATOM      2  C   UNL     1     -38.446  74.509 -27.290  1.00  0.00     0.058 A 
ATOM      3  C   UNL     1     -38.367  76.752 -26.376  1.00  0.00     0.012 A 
ATOM      4  C   UNL     1     -39.848  74.556 -27.283  1.00  0.00     0.157 A 
ATOM      5  C   UNL     1     -39.763  76.797 -26.367  1.00  0.00     0.051 A 
ATOM      6  C   UNL     1     -40.507  75.700 -26.818  1.00  0.00     0.157 A 
ENDROOT
BRANCH   1   7
ATOM      7  C   UNL     1     -36.207  75.609 -26.821  1.00  0.00     0.010 C 
ATOM      8  C   UNL     1     -35.459  74.592 -27.268  1.00  0.00     0.025 C 
BRANCH   8   9
ATOM      9  C   UNL     1     -33.989  74.634 -27.236  1.00  0.00     0.064 C 
ATOM     10  O   UNL     1     -33.350  73.668 -26.740  1.00  0.00    -0.545 OA
ATOM     11  O   UNL     1     -33.291  75.722 -27.747  1.00  0.00    -0.545 OA
ENDBRANCH   8   9
ENDBRANCH   1   7
BRANCH   4  12
ATOM     12  O   UNL     1     -40.593  73.470 -27.742  1.00  0.00    -0.504 OA
ATOM     13  H   UNL     1     -41.293  73.575 -28.467  1.00  0.00     0.293 HD
ENDBRANCH   4  12
BRANCH   6  14
ATOM     14  O   UNL     1     -41.900  75.740 -26.809  1.00  0.00    -0.504 OA
ATOM     15  H   UNL     1     -42.410  76.301 -26.137  1.00  0.00     0.293 HD
ENDBRANCH   6  14
TORSDOF 4
ENDMDL
MODEL 7
REMARK VINA RESULT:    -4.616      9.087      9.665
REMARK INTER + INTRA:          -5.551
REMARK INTER:                  -5.397
REMARK INTRA:                  -0.154
REMARK UNBOUND:                -0.125
REMARK SMILES O=C([O-])C=Cc1ccc(O)c(O)c1
REMARK SMILES IDX 6 1 13 2 7 3 11 4 8 5 9 6 5 7 4 8 2 9 1 10 3 11 12 12 10 14
REMARK H PARENT 12 13 10 15
REMARK Flexibility Score: inf
ROOT
ATOM      1  C   UNL     1     -39.830  73.499 -11.018  1.00  0.00    -0.022 A 
ATOM      2  C   UNL     1     -41.121  73.238 -11.523  1.00  0.00     0.058 A 
ATOM      3  C   UNL     1     -39.281  72.616 -10.074  1.00  0.00     0.012 A 
ATOM      4  C   UNL     1     -41.831  72.102 -11.109  1.00  0.00     0.157 A 
ATOM      5  C   UNL     1     -39.988  71.483  -9.663  1.00  0.00     0.051 A 
ATOM      6  C   UNL     1     -41.263  71.222 -10.180  1.00  0.00     0.157 A 
ENDROOT
BRANCH   1   7
ATOM      7  C   UNL     1     -39.043  74.693 -11.415  1.00  0.00     0.010 C 
ATOM      8  C   UNL     1     -37.994  75.156 -10.723  1.00  0.00     0.025 C 
BRANCH   8   9
ATOM      9  C   UNL     1     -37.249  76.352 -11.148  1.00  0.00     0.064 C 
ATOM     10  O   UNL     1     -37.546  76.915 -12.235  1.00  0.00    -0.545 OA
ATOM     11  O   UNL     1     -36.224  76.874 -10.368  1.00  0.00    -0.545 OA
ENDBRANCH   8   9
ENDBRANCH   1   7
BRANCH   4  12
ATOM     12  O   UNL     1     -43.105  71.844 -11.612  1.00  0.00    -0.504 OA
ATOM     13  H   UNL     1     -43.939  72.173 -11.140  1.00  0.00     0.293 HD
ENDBRANCH   4  12
BRANCH   6  14
ATOM     14  O   UNL     1     -41.971  70.092  -9.774  1.00  0.00    -0.504 OA
ATOM     15  H   UNL     1     -41.499  69.226  -9.542  1.00  0.00     0.293 HD
ENDBRANCH   6  14
TORSDOF 4
ENDMDL
MODEL 8
REMARK VINA RESULT:    -4.467      8.508      9.419
REMARK INTER + INTRA:          -5.376
REMARK INTER:                  -5.253
REMARK INTRA:                  -0.123
REMARK UNBOUND:                -0.125
REMARK SMILES O=C([O-])C=Cc1ccc(O)c(O)c1
REMARK SMILES IDX 6 1 13 2 7 3 11 4 8 5 9 6 5 7 4 8 2 9 1 10 3 11 12 12 10 14
REMARK H PARENT 12 13 10 15
REMARK Flexibility Score: inf
ROOT
ATOM      1  C   UNL     1     -36.646  75.677 -26.351  1.00  0.00    -0.022 A 
ATOM      2  C   UNL     1     -35.953  75.567 -27.575  1.00  0.00     0.058 A 
ATOM      3  C   UNL     1     -35.924  76.005 -25.192  1.00  0.00     0.012 A 
ATOM      4  C   UNL     1     -34.573  75.807 -27.635  1.00  0.00     0.157 A 
ATOM      5  C   UNL     1     -34.549  76.246 -25.254  1.00  0.00     0.051 A 
ATOM      6  C   UNL     1     -33.870  76.150 -26.475  1.00  0.00     0.157 A 
ENDROOT
BRANCH   1   7
ATOM      7  C   UNL     1     -38.103  75.422 -26.232  1.00  0.00     0.010 C 
ATOM      8  C   UNL     1     -38.912  75.228 -27.281  1.00  0.00     0.025 C 
BRANCH   8   9
ATOM      9  C   UNL     1     -40.355  74.990 -27.117  1.00  0.00     0.064 C 
ATOM     10  O   UNL     1     -40.868  73.936 -27.577  1.00  0.00    -0.545 OA
ATOM     11  O   UNL     1     -41.164  75.910 -26.459  1.00  0.00    -0.545 OA
ENDBRANCH   8   9
ENDBRANCH   1   7
BRANCH   4  12
ATOM     12  O   UNL     1     -33.891  75.701 -28.847  1.00  0.00    -0.504 OA
ATOM     13  H   UNL     1     -32.931  76.009 -28.944  1.00  0.00     0.293 HD
ENDBRANCH   4  12
BRANCH   6  14
ATOM     14  O   UNL     1     -32.500  76.391 -26.541  1.00  0.00    -0.504 OA
ATOM     15  H   UNL     1     -31.834  75.637 -26.662  1.00  0.00     0.293 HD
ENDBRANCH   6  14
TORSDOF 4
ENDMDL
