MODEL 1
REMARK VINA RESULT:    -4.381      0.000      0.000
REMARK INTER + INTRA:          -9.676
REMARK INTER:                  -8.096
REMARK INTRA:                  -1.580
REMARK UNBOUND:                -1.580
REMARK SMILES CCCCCCCCCCCCCCCCO
REMARK SMILES IDX 9 1 8 2 7 3 6 4 5 5 4 6 3 7 2 8 1 9 10 10 11 11 12 12 13 13
REMARK SMILES IDX 14 14 15 15 16 16 17 17
REMARK H PARENT 17 18
REMARK Flexibility Score: inf
ROOT
ATOM      1  C   UNL     1       8.090 -26.052  13.527  1.00  0.00     0.000 C 
ENDROOT
BRANCH   1   2
ATOM      2  C   UNL     1       7.080 -25.040  14.090  1.00  0.00    -0.000 C 
BRANCH   2   3
ATOM      3  C   UNL     1       7.711 -24.062  15.096  1.00  0.00    -0.000 C 
BRANCH   3   4
ATOM      4  C   UNL     1       7.348 -24.364  16.565  1.00  0.00    -0.000 C 
BRANCH   4   5
ATOM      5  C   UNL     1       8.400 -25.254  17.250  1.00  0.00    -0.000 C 
BRANCH   5   6
ATOM      6  C   UNL     1       8.046 -26.749  17.188  1.00  0.00    -0.000 C 
BRANCH   6   7
ATOM      7  C   UNL     1       9.282 -27.670  17.107  1.00  0.00    -0.000 C 
BRANCH   7   8
ATOM      8  C   UNL     1      10.583 -26.922  17.432  1.00  0.00    -0.003 C 
ATOM      9  C   UNL     1      11.448 -27.719  18.405  1.00  0.00     0.004 C 
ENDBRANCH   7   8
ENDBRANCH   6   7
ENDBRANCH   5   6
ENDBRANCH   4   5
ENDBRANCH   3   4
ENDBRANCH   2   3
ENDBRANCH   1   2
BRANCH   1  10
ATOM     10  C   UNL     1       9.544 -25.686  13.868  1.00  0.00     0.000 C 
BRANCH  10  11
ATOM     11  C   UNL     1      10.500 -26.888  13.755  1.00  0.00     0.000 C 
BRANCH  11  12
ATOM     12  C   UNL     1      11.978 -26.479  13.851  1.00  0.00     0.000 C 
BRANCH  12  13
ATOM     13  C   UNL     1      12.270 -25.148  13.139  1.00  0.00     0.000 C 
BRANCH  13  14
ATOM     14  C   UNL     1      13.251 -25.309  11.966  1.00  0.00     0.002 C 
BRANCH  14  15
ATOM     15  C   UNL     1      13.524 -23.985  11.235  1.00  0.00     0.028 C 
BRANCH  15  16
ATOM     16  C   UNL     1      14.554 -23.142  11.990  1.00  0.00     0.156 C 
BRANCH  16  17
ATOM     17  O   UNL     1      14.919 -22.024  11.228  1.00  0.00    -0.396 OA
ATOM     18  H   UNL     1      14.234 -21.930  10.515  1.00  0.00     0.210 HD
ENDBRANCH  16  17
ENDBRANCH  15  16
ENDBRANCH  14  15
ENDBRANCH  13  14
ENDBRANCH  12  13
ENDBRANCH  11  12
ENDBRANCH  10  11
ENDBRANCH   1  10
TORSDOF 15
ENDMDL
MODEL 2
REMARK VINA RESULT:    -4.376      2.795      7.099
REMARK INTER + INTRA:          -9.666
REMARK INTER:                  -8.136
REMARK INTRA:                  -1.531
REMARK UNBOUND:                -1.580
REMARK SMILES CCCCCCCCCCCCCCCCO
REMARK SMILES IDX 9 1 8 2 7 3 6 4 5 5 4 6 3 7 2 8 1 9 10 10 11 11 12 12 13 13
REMARK SMILES IDX 14 14 15 15 16 16 17 17
REMARK H PARENT 17 18
REMARK Flexibility Score: inf
ROOT
ATOM      1  C   UNL     1      12.499 -27.127  12.279  1.00  0.00     0.000 C 
ENDROOT
BRANCH   1   2
ATOM      2  C   UNL     1      13.964 -27.527  12.045  1.00  0.00    -0.000 C 
BRANCH   2   3
ATOM      3  C   UNL     1      14.386 -27.412  10.569  1.00  0.00    -0.000 C 
BRANCH   3   4
ATOM      4  C   UNL     1      13.748 -26.214   9.834  1.00  0.00    -0.000 C 
BRANCH   4   5
ATOM      5  C   UNL     1      14.575 -24.928   9.997  1.00  0.00    -0.000 C 
BRANCH   5   6
ATOM      6  C   UNL     1      13.847 -23.852  10.818  1.00  0.00    -0.000 C 
BRANCH   6   7
ATOM      7  C   UNL     1      14.705 -23.263  11.959  1.00  0.00    -0.000 C 
BRANCH   7   8
ATOM      8  C   UNL     1      15.447 -24.353  12.745  1.00  0.00    -0.003 C 
ATOM      9  C   UNL     1      16.860 -23.904  13.110  1.00  0.00     0.004 C 
ENDBRANCH   7   8
ENDBRANCH   6   7
ENDBRANCH   5   6
ENDBRANCH   4   5
ENDBRANCH   3   4
ENDBRANCH   2   3
ENDBRANCH   1   2
BRANCH   1  10
ATOM     10  C   UNL     1      12.338 -26.124  13.432  1.00  0.00     0.000 C 
BRANCH  10  11
ATOM     11  C   UNL     1      11.162 -26.473  14.363  1.00  0.00     0.000 C 
BRANCH  11  12
ATOM     12  C   UNL     1      10.113 -27.365  13.681  1.00  0.00     0.000 C 
BRANCH  12  13
ATOM     13  C   UNL     1       8.749 -26.668  13.536  1.00  0.00     0.000 C 
BRANCH  13  14
ATOM     14  C   UNL     1       8.785 -25.200  13.991  1.00  0.00     0.002 C 
BRANCH  14  15
ATOM     15  C   UNL     1       7.391 -24.648  14.326  1.00  0.00     0.028 C 
BRANCH  15  16
ATOM     16  C   UNL     1       7.314 -24.203  15.789  1.00  0.00     0.156 C 
BRANCH  16  17
ATOM     17  O   UNL     1       8.602 -24.055  16.320  1.00  0.00    -0.396 OA
ATOM     18  H   UNL     1       8.551 -23.322  16.988  1.00  0.00     0.210 HD
ENDBRANCH  16  17
ENDBRANCH  15  16
ENDBRANCH  14  15
ENDBRANCH  13  14
ENDBRANCH  12  13
ENDBRANCH  11  12
ENDBRANCH  10  11
ENDBRANCH   1  10
TORSDOF 15
ENDMDL
MODEL 3
REMARK VINA RESULT:    -4.269      3.269      7.137
REMARK INTER + INTRA:          -9.468
REMARK INTER:                  -8.398
REMARK INTRA:                  -1.071
REMARK UNBOUND:                -1.580
REMARK SMILES CCCCCCCCCCCCCCCCO
REMARK SMILES IDX 9 1 8 2 7 3 6 4 5 5 4 6 3 7 2 8 1 9 10 10 11 11 12 12 13 13
REMARK SMILES IDX 14 14 15 15 16 16 17 17
REMARK H PARENT 17 18
REMARK Flexibility Score: inf
ROOT
ATOM      1  C   UNL     1       9.944 -26.768  15.010  1.00  0.00     0.000 C 
ENDROOT
BRANCH   1   2
ATOM      2  C   UNL     1      10.146 -28.114  14.295  1.00  0.00    -0.000 C 
BRANCH   2   3
ATOM      3  C   UNL     1      11.025 -27.997  13.037  1.00  0.00    -0.000 C 
BRANCH   3   4
ATOM      4  C   UNL     1      12.442 -27.456  13.320  1.00  0.00    -0.000 C 
BRANCH   4   5
ATOM      5  C   UNL     1      12.886 -26.419  12.274  1.00  0.00    -0.000 C 
BRANCH   5   6
ATOM      6  C   UNL     1      13.521 -25.170  12.907  1.00  0.00    -0.000 C 
BRANCH   6   7
ATOM      7  C   UNL     1      13.462 -23.923  11.998  1.00  0.00    -0.000 C 
BRANCH   7   8
ATOM      8  C   UNL     1      14.822 -23.218  11.897  1.00  0.00    -0.003 C 
ATOM      9  C   UNL     1      15.912 -24.019  12.603  1.00  0.00     0.004 C 
ENDBRANCH   7   8
ENDBRANCH   6   7
ENDBRANCH   5   6
ENDBRANCH   4   5
ENDBRANCH   3   4
ENDBRANCH   2   3
ENDBRANCH   1   2
BRANCH   1  10
ATOM     10  C   UNL     1       9.424 -25.671  14.067  1.00  0.00     0.000 C 
BRANCH  10  11
ATOM     11  C   UNL     1       7.976 -25.924  13.606  1.00  0.00     0.000 C 
BRANCH  11  12
ATOM     12  C   UNL     1       6.937 -25.339  14.574  1.00  0.00     0.000 C 
BRANCH  12  13
ATOM     13  C   UNL     1       7.442 -24.075  15.291  1.00  0.00     0.000 C 
BRANCH  13  14
ATOM     14  C   UNL     1       7.356 -24.189  16.821  1.00  0.00     0.002 C 
BRANCH  14  15
ATOM     15  C   UNL     1       6.001 -24.731  17.301  1.00  0.00     0.028 C 
BRANCH  15  16
ATOM     16  C   UNL     1       5.262 -23.692  18.147  1.00  0.00     0.156 C 
BRANCH  16  17
ATOM     17  O   UNL     1       4.904 -22.590  17.360  1.00  0.00    -0.396 OA
ATOM     18  H   UNL     1       5.751 -22.160  17.070  1.00  0.00     0.210 HD
ENDBRANCH  16  17
ENDBRANCH  15  16
ENDBRANCH  14  15
ENDBRANCH  13  14
ENDBRANCH  12  13
ENDBRANCH  11  12
ENDBRANCH  10  11
ENDBRANCH   1  10
TORSDOF 15
ENDMDL
MODEL 4
REMARK VINA RESULT:    -4.257      3.180      6.940
REMARK INTER + INTRA:          -9.447
REMARK INTER:                  -8.000
REMARK INTRA:                  -1.447
REMARK UNBOUND:                -1.580
REMARK SMILES CCCCCCCCCCCCCCCCO
REMARK SMILES IDX 9 1 8 2 7 3 6 4 5 5 4 6 3 7 2 8 1 9 10 10 11 11 12 12 13 13
REMARK SMILES IDX 14 14 15 15 16 16 17 17
REMARK H PARENT 17 18
REMARK Flexibility Score: inf
ROOT
ATOM      1  C   UNL     1      10.321 -28.460  12.845  1.00  0.00     0.000 C 
ENDROOT
BRANCH   1   2
ATOM      2  C   UNL     1      11.856 -28.545  12.892  1.00  0.00    -0.000 C 
BRANCH   2   3
ATOM      3  C   UNL     1      12.536 -27.624  11.864  1.00  0.00    -0.000 C 
BRANCH   3   4
ATOM      4  C   UNL     1      13.936 -27.140  12.296  1.00  0.00    -0.000 C 
BRANCH   4   5
ATOM      5  C   UNL     1      13.864 -25.932  13.244  1.00  0.00    -0.000 C 
BRANCH   5   6
ATOM      6  C   UNL     1      13.047 -24.766  12.662  1.00  0.00    -0.000 C 
BRANCH   6   7
ATOM      7  C   UNL     1      13.919 -23.628  12.091  1.00  0.00    -0.000 C 
BRANCH   7   8
ATOM      8  C   UNL     1      13.915 -23.611  10.556  1.00  0.00    -0.003 C 
ATOM      9  C   UNL     1      15.037 -24.478   9.993  1.00  0.00     0.004 C 
ENDBRANCH   7   8
ENDBRANCH   6   7
ENDBRANCH   5   6
ENDBRANCH   4   5
ENDBRANCH   3   4
ENDBRANCH   2   3
ENDBRANCH   1   2
BRANCH   1  10
ATOM     10  C   UNL     1       9.721 -27.908  14.148  1.00  0.00     0.000 C 
BRANCH  10  11
ATOM     11  C   UNL     1      10.255 -26.507  14.500  1.00  0.00     0.000 C 
BRANCH  11  12
ATOM     12  C   UNL     1       9.377 -25.381  13.931  1.00  0.00     0.000 C 
BRANCH  12  13
ATOM     13  C   UNL     1       7.931 -25.834  13.669  1.00  0.00     0.000 C 
BRANCH  13  14
ATOM     14  C   UNL     1       6.941 -25.278  14.705  1.00  0.00     0.002 C 
BRANCH  14  15
ATOM     15  C   UNL     1       7.535 -24.133  15.539  1.00  0.00     0.028 C 
BRANCH  15  16
ATOM     16  C   UNL     1       6.773 -23.957  16.854  1.00  0.00     0.156 C 
BRANCH  16  17
ATOM     17  O   UNL     1       5.878 -22.884  16.757  1.00  0.00    -0.396 OA
ATOM     18  H   UNL     1       5.049 -23.241  16.341  1.00  0.00     0.210 HD
ENDBRANCH  16  17
ENDBRANCH  15  16
ENDBRANCH  14  15
ENDBRANCH  13  14
ENDBRANCH  12  13
ENDBRANCH  11  12
ENDBRANCH  10  11
ENDBRANCH   1  10
TORSDOF 15
ENDMDL
MODEL 5
REMARK VINA RESULT:    -4.199      2.057      6.273
REMARK INTER + INTRA:          -9.338
REMARK INTER:                  -7.847
REMARK INTRA:                  -1.491
REMARK UNBOUND:                -1.580
REMARK SMILES CCCCCCCCCCCCCCCCO
REMARK SMILES IDX 9 1 8 2 7 3 6 4 5 5 4 6 3 7 2 8 1 9 10 10 11 11 12 12 13 13
REMARK SMILES IDX 14 14 15 15 16 16 17 17
REMARK H PARENT 17 18
REMARK Flexibility Score: inf
ROOT
ATOM      1  C   UNL     1       8.730 -25.312  13.887  1.00  0.00     0.000 C 
ENDROOT
BRANCH   1   2
ATOM      2  C   UNL     1       9.004 -26.798  13.606  1.00  0.00    -0.000 C 
BRANCH   2   3
ATOM      3  C   UNL     1      10.503 -27.145  13.639  1.00  0.00    -0.000 C 
BRANCH   3   4
ATOM      4  C   UNL     1      11.427 -25.910  13.589  1.00  0.00    -0.000 C 
BRANCH   4   5
ATOM      5  C   UNL     1      12.911 -26.300  13.490  1.00  0.00    -0.000 C 
BRANCH   5   6
ATOM      6  C   UNL     1      13.640 -25.584  12.341  1.00  0.00    -0.000 C 
BRANCH   6   7
ATOM      7  C   UNL     1      13.595 -24.045  12.449  1.00  0.00    -0.000 C 
BRANCH   7   8
ATOM      8  C   UNL     1      14.647 -23.372  11.556  1.00  0.00    -0.003 C 
ATOM      9  C   UNL     1      14.859 -24.160  10.266  1.00  0.00     0.004 C 
ENDBRANCH   7   8
ENDBRANCH   6   7
ENDBRANCH   5   6
ENDBRANCH   4   5
ENDBRANCH   3   4
ENDBRANCH   2   3
ENDBRANCH   1   2
BRANCH   1  10
ATOM     10  C   UNL     1       7.291 -25.057  14.363  1.00  0.00     0.000 C 
BRANCH  10  11
ATOM     11  C   UNL     1       7.230 -24.172  15.621  1.00  0.00     0.000 C 
BRANCH  11  12
ATOM     12  C   UNL     1       7.902 -24.826  16.839  1.00  0.00     0.000 C 
BRANCH  12  13
ATOM     13  C   UNL     1       7.541 -26.315  16.982  1.00  0.00     0.000 C 
BRANCH  13  14
ATOM     14  C   UNL     1       8.779 -27.206  17.173  1.00  0.00     0.002 C 
BRANCH  14  15
ATOM     15  C   UNL     1      10.069 -26.396  17.371  1.00  0.00     0.028 C 
BRANCH  15  16
ATOM     16  C   UNL     1      11.307 -27.273  17.169  1.00  0.00     0.156 C 
BRANCH  16  17
ATOM     17  O   UNL     1      12.450 -26.475  17.032  1.00  0.00    -0.396 OA
ATOM     18  H   UNL     1      12.591 -26.344  16.057  1.00  0.00     0.210 HD
ENDBRANCH  16  17
ENDBRANCH  15  16
ENDBRANCH  14  15
ENDBRANCH  13  14
ENDBRANCH  12  13
ENDBRANCH  11  12
ENDBRANCH  10  11
ENDBRANCH   1  10
TORSDOF 15
ENDMDL
MODEL 6
REMARK VINA RESULT:    -4.162      1.728      3.279
REMARK INTER + INTRA:          -9.270
REMARK INTER:                  -7.840
REMARK INTRA:                  -1.430
REMARK UNBOUND:                -1.580
REMARK SMILES CCCCCCCCCCCCCCCCO
REMARK SMILES IDX 9 1 8 2 7 3 6 4 5 5 4 6 3 7 2 8 1 9 10 10 11 11 12 12 13 13
REMARK SMILES IDX 14 14 15 15 16 16 17 17
REMARK H PARENT 17 18
REMARK Flexibility Score: inf
ROOT
ATOM      1  C   UNL     1      11.442 -26.525  14.338  1.00  0.00     0.000 C 
ENDROOT
BRANCH   1   2
ATOM      2  C   UNL     1      10.253 -27.442  14.010  1.00  0.00    -0.000 C 
BRANCH   2   3
ATOM      3  C   UNL     1       8.993 -26.662  13.593  1.00  0.00    -0.000 C 
BRANCH   3   4
ATOM      4  C   UNL     1       9.002 -25.186  14.044  1.00  0.00    -0.000 C 
BRANCH   4   5
ATOM      5  C   UNL     1       7.606 -24.704  14.474  1.00  0.00    -0.000 C 
BRANCH   5   6
ATOM      6  C   UNL     1       7.583 -24.148  15.907  1.00  0.00    -0.000 C 
BRANCH   6   7
ATOM      7  C   UNL     1       8.201 -25.105  16.949  1.00  0.00    -0.000 C 
BRANCH   7   8
ATOM      8  C   UNL     1       7.340 -26.357  17.165  1.00  0.00    -0.003 C 
ATOM      9  C   UNL     1       8.187 -27.626  17.107  1.00  0.00     0.004 C 
ENDBRANCH   7   8
ENDBRANCH   6   7
ENDBRANCH   5   6
ENDBRANCH   4   5
ENDBRANCH   3   4
ENDBRANCH   2   3
ENDBRANCH   1   2
BRANCH   1  10
ATOM     10  C   UNL     1      12.408 -26.366  13.153  1.00  0.00     0.000 C 
BRANCH  10  11
ATOM     11  C   UNL     1      12.793 -24.897  12.895  1.00  0.00     0.000 C 
BRANCH  11  12
ATOM     12  C   UNL     1      14.314 -24.674  12.904  1.00  0.00     0.000 C 
BRANCH  12  13
ATOM     13  C   UNL     1      14.751 -23.552  11.947  1.00  0.00     0.000 C 
BRANCH  13  14
ATOM     14  C   UNL     1      14.125 -23.691  10.550  1.00  0.00     0.002 C 
BRANCH  14  15
ATOM     15  C   UNL     1      15.015 -24.480   9.576  1.00  0.00     0.028 C 
BRANCH  15  16
ATOM     16  C   UNL     1      14.656 -25.967   9.584  1.00  0.00     0.156 C 
BRANCH  16  17
ATOM     17  O   UNL     1      13.273 -26.133   9.432  1.00  0.00    -0.396 OA
ATOM     18  H   UNL     1      13.133 -26.567   8.550  1.00  0.00     0.210 HD
ENDBRANCH  16  17
ENDBRANCH  15  16
ENDBRANCH  14  15
ENDBRANCH  13  14
ENDBRANCH  12  13
ENDBRANCH  11  12
ENDBRANCH  10  11
ENDBRANCH   1  10
TORSDOF 15
ENDMDL
MODEL 7
REMARK VINA RESULT:    -4.150      2.953      7.020
REMARK INTER + INTRA:          -9.247
REMARK INTER:                  -7.935
REMARK INTRA:                  -1.312
REMARK UNBOUND:                -1.580
REMARK SMILES CCCCCCCCCCCCCCCCO
REMARK SMILES IDX 9 1 8 2 7 3 6 4 5 5 4 6 3 7 2 8 1 9 10 10 11 11 12 12 13 13
REMARK SMILES IDX 14 14 15 15 16 16 17 17
REMARK H PARENT 17 18
REMARK Flexibility Score: inf
ROOT
ATOM      1  C   UNL     1       8.333 -26.077  13.643  1.00  0.00     0.000 C 
ENDROOT
BRANCH   1   2
ATOM      2  C   UNL     1       9.713 -25.465  13.936  1.00  0.00    -0.000 C 
BRANCH   2   3
ATOM      3  C   UNL     1      10.788 -26.528  14.222  1.00  0.00    -0.000 C 
BRANCH   3   4
ATOM      4  C   UNL     1      11.939 -26.537  13.194  1.00  0.00    -0.000 C 
BRANCH   4   5
ATOM      5  C   UNL     1      12.862 -25.316  13.348  1.00  0.00    -0.000 C 
BRANCH   5   6
ATOM      6  C   UNL     1      12.959 -24.478  12.062  1.00  0.00    -0.000 C 
BRANCH   6   7
ATOM      7  C   UNL     1      14.121 -23.462  12.077  1.00  0.00    -0.000 C 
BRANCH   7   8
ATOM      8  C   UNL     1      15.404 -24.042  11.464  1.00  0.00    -0.003 C 
ATOM      9  C   UNL     1      15.106 -24.785  10.165  1.00  0.00     0.004 C 
ENDBRANCH   7   8
ENDBRANCH   6   7
ENDBRANCH   5   6
ENDBRANCH   4   5
ENDBRANCH   3   4
ENDBRANCH   2   3
ENDBRANCH   1   2
BRANCH   1  10
ATOM     10  C   UNL     1       7.178 -25.136  14.022  1.00  0.00     0.000 C 
BRANCH  10  11
ATOM     11  C   UNL     1       7.559 -24.150  15.142  1.00  0.00     0.000 C 
BRANCH  11  12
ATOM     12  C   UNL     1       6.993 -24.562  16.510  1.00  0.00     0.000 C 
BRANCH  12  13
ATOM     13  C   UNL     1       7.933 -25.507  17.278  1.00  0.00     0.000 C 
BRANCH  13  14
ATOM     14  C   UNL     1       7.461 -26.969  17.242  1.00  0.00     0.002 C 
BRANCH  14  15
ATOM     15  C   UNL     1       8.578 -27.944  16.843  1.00  0.00     0.028 C 
BRANCH  15  16
ATOM     16  C   UNL     1       8.750 -29.043  17.895  1.00  0.00     0.156 C 
BRANCH  16  17
ATOM     17  O   UNL     1       9.776 -28.705  18.787  1.00  0.00    -0.396 OA
ATOM     18  H   UNL     1       9.351 -28.214  19.538  1.00  0.00     0.210 HD
ENDBRANCH  16  17
ENDBRANCH  15  16
ENDBRANCH  14  15
ENDBRANCH  13  14
ENDBRANCH  12  13
ENDBRANCH  11  12
ENDBRANCH  10  11
ENDBRANCH   1  10
TORSDOF 15
ENDMDL
MODEL 8
REMARK VINA RESULT:    -4.112      2.963      7.042
REMARK INTER + INTRA:          -9.178
REMARK INTER:                  -7.681
REMARK INTRA:                  -1.497
REMARK UNBOUND:                -1.580
REMARK SMILES CCCCCCCCCCCCCCCCO
REMARK SMILES IDX 9 1 8 2 7 3 6 4 5 5 4 6 3 7 2 8 1 9 10 10 11 11 12 12 13 13
REMARK SMILES IDX 14 14 15 15 16 16 17 17
REMARK H PARENT 17 18
REMARK Flexibility Score: inf
ROOT
ATOM      1  C   UNL     1      12.381 -27.564  12.962  1.00  0.00     0.000 C 
ENDROOT
BRANCH   1   2
ATOM      2  C   UNL     1      12.910 -26.325  13.702  1.00  0.00    -0.000 C 
BRANCH   2   3
ATOM      3  C   UNL     1      12.480 -25.005  13.038  1.00  0.00    -0.000 C 
BRANCH   3   4
ATOM      4  C   UNL     1      13.662 -24.153  12.530  1.00  0.00    -0.000 C 
BRANCH   4   5
ATOM      5  C   UNL     1      13.756 -24.151  10.994  1.00  0.00    -0.000 C 
BRANCH   5   6
ATOM      6  C   UNL     1      15.010 -24.873  10.474  1.00  0.00    -0.000 C 
BRANCH   6   7
ATOM      7  C   UNL     1      14.776 -26.367  10.165  1.00  0.00    -0.000 C 
BRANCH   7   8
ATOM      8  C   UNL     1      13.366 -26.629   9.614  1.00  0.00    -0.003 C 
ATOM      9  C   UNL     1      13.274 -28.010   8.971  1.00  0.00     0.004 C 
ENDBRANCH   7   8
ENDBRANCH   6   7
ENDBRANCH   5   6
ENDBRANCH   4   5
ENDBRANCH   3   4
ENDBRANCH   2   3
ENDBRANCH   1   2
BRANCH   1  10
ATOM     10  C   UNL     1      10.893 -27.828  13.241  1.00  0.00     0.000 C 
BRANCH  10  11
ATOM     11  C   UNL     1      10.560 -27.817  14.745  1.00  0.00     0.000 C 
BRANCH  11  12
ATOM     12  C   UNL     1       9.279 -27.030  15.062  1.00  0.00     0.000 C 
BRANCH  12  13
ATOM     13  C   UNL     1       9.062 -25.845  14.105  1.00  0.00     0.000 C 
BRANCH  13  14
ATOM     14  C   UNL     1       7.578 -25.480  13.944  1.00  0.00     0.002 C 
BRANCH  14  15
ATOM     15  C   UNL     1       7.220 -24.142  14.608  1.00  0.00     0.028 C 
BRANCH  15  16
ATOM     16  C   UNL     1       7.006 -24.315  16.114  1.00  0.00     0.156 C 
BRANCH  16  17
ATOM     17  O   UNL     1       6.453 -23.150  16.663  1.00  0.00    -0.396 OA
ATOM     18  H   UNL     1       7.214 -22.554  16.889  1.00  0.00     0.210 HD
ENDBRANCH  16  17
ENDBRANCH  15  16
ENDBRANCH  14  15
ENDBRANCH  13  14
ENDBRANCH  12  13
ENDBRANCH  11  12
ENDBRANCH  10  11
ENDBRANCH   1  10
TORSDOF 15
ENDMDL
MODEL 9
REMARK VINA RESULT:    -4.067      3.111      6.928
REMARK INTER + INTRA:          -9.096
REMARK INTER:                  -7.146
REMARK INTRA:                  -1.949
REMARK UNBOUND:                -1.580
REMARK SMILES CCCCCCCCCCCCCCCCO
REMARK SMILES IDX 9 1 8 2 7 3 6 4 5 5 4 6 3 7 2 8 1 9 10 10 11 11 12 12 13 13
REMARK SMILES IDX 14 14 15 15 16 16 17 17
REMARK H PARENT 17 18
REMARK Flexibility Score: inf
ROOT
ATOM      1  C   UNL     1      12.089 -27.880  11.830  1.00  0.00     0.000 C 
ENDROOT
BRANCH   1   2
ATOM      2  C   UNL     1      13.405 -27.994  12.616  1.00  0.00    -0.000 C 
BRANCH   2   3
ATOM      3  C   UNL     1      13.904 -26.638  13.146  1.00  0.00    -0.000 C 
BRANCH   3   4
ATOM      4  C   UNL     1      12.771 -25.632  13.437  1.00  0.00    -0.000 C 
BRANCH   4   5
ATOM      5  C   UNL     1      13.049 -24.252  12.819  1.00  0.00    -0.000 C 
BRANCH   5   6
ATOM      6  C   UNL     1      13.101 -24.286  11.283  1.00  0.00    -0.000 C 
BRANCH   6   7
ATOM      7  C   UNL     1      14.401 -23.694  10.697  1.00  0.00    -0.000 C 
BRANCH   7   8
ATOM      8  C   UNL     1      15.135 -24.693   9.792  1.00  0.00    -0.003 C 
ATOM      9  C   UNL     1      14.261 -25.907   9.490  1.00  0.00     0.004 C 
ENDBRANCH   7   8
ENDBRANCH   6   7
ENDBRANCH   5   6
ENDBRANCH   4   5
ENDBRANCH   3   4
ENDBRANCH   2   3
ENDBRANCH   1   2
BRANCH   1  10
ATOM     10  C   UNL     1      10.998 -28.821  12.365  1.00  0.00     0.000 C 
BRANCH  10  11
ATOM     11  C   UNL     1       9.831 -28.063  13.025  1.00  0.00     0.000 C 
BRANCH  11  12
ATOM     12  C   UNL     1       9.993 -27.937  14.548  1.00  0.00     0.000 C 
BRANCH  12  13
ATOM     13  C   UNL     1       9.570 -26.555  15.074  1.00  0.00     0.000 C 
BRANCH  13  14
ATOM     14  C   UNL     1       9.086 -25.620  13.955  1.00  0.00     0.002 C 
BRANCH  14  15
ATOM     15  C   UNL     1       7.821 -24.838  14.340  1.00  0.00     0.028 C 
BRANCH  15  16
ATOM     16  C   UNL     1       7.147 -25.453  15.569  1.00  0.00     0.156 C 
BRANCH  16  17
ATOM     17  O   UNL     1       5.761 -25.527  15.375  1.00  0.00    -0.396 OA
ATOM     18  H   UNL     1       5.476 -24.645  15.020  1.00  0.00     0.210 HD
ENDBRANCH  16  17
ENDBRANCH  15  16
ENDBRANCH  14  15
ENDBRANCH  13  14
ENDBRANCH  12  13
ENDBRANCH  11  12
ENDBRANCH  10  11
ENDBRANCH   1  10
TORSDOF 15
ENDMDL
