MODEL 1
REMARK VINA RESULT:    -5.598      0.000      0.000
REMARK INTER + INTRA:          -8.082
REMARK INTER:                  -7.234
REMARK INTRA:                  -0.848
REMARK UNBOUND:                -0.848
REMARK SMILES CCCCC(=O)c1ccccc1C(=O)[O-]
REMARK SMILES IDX 4 1 5 2 6 3 7 4 12 5 11 6 10 7 8 8 9 9 13 10 14 11 15 12
REMARK SMILES IDX 3 13 2 14 1 15
REMARK H PARENT
REMARK Flexibility Score: inf
ROOT
ATOM      1  C   UNL     1     -32.137  40.595  40.665  1.00  0.00     0.081 C 
ENDROOT
BRANCH   1   2
ATOM      2  C   UNL     1     -33.504  41.093  40.274  1.00  0.00     0.163 C 
ATOM      3  O   UNL     1     -34.058  40.609  39.250  1.00  0.00    -0.294 OA
BRANCH   2   4
ATOM      4  C   UNL     1     -34.216  42.124  41.073  1.00  0.00     0.027 A 
ATOM      5  C   UNL     1     -34.431  43.443  40.584  1.00  0.00     0.008 A 
ATOM      6  C   UNL     1     -35.227  44.331  41.333  1.00  0.00     0.011 A 
ATOM      7  C   UNL     1     -35.769  43.944  42.559  1.00  0.00     0.001 A 
ATOM      8  C   UNL     1     -34.757  41.763  42.322  1.00  0.00     0.012 A 
ATOM      9  C   UNL     1     -35.525  42.667  43.057  1.00  0.00     0.001 A 
BRANCH   5  10
ATOM     10  C   UNL     1     -33.796  43.950  39.345  1.00  0.00     0.072 C 
ATOM     11  O   UNL     1     -32.657  44.488  39.390  1.00  0.00    -0.545 OA
ATOM     12  O   UNL     1     -34.415  43.787  38.111  1.00  0.00    -0.545 OA
ENDBRANCH   5  10
ENDBRANCH   2   4
ENDBRANCH   1   2
BRANCH   1  13
ATOM     13  C   UNL     1     -31.248  41.705  41.250  1.00  0.00     0.008 C 
BRANCH  13  14
ATOM     14  C   UNL     1     -30.517  41.263  42.527  1.00  0.00    -0.003 C 
ATOM     15  C   UNL     1     -31.337  41.589  43.771  1.00  0.00     0.004 C 
ENDBRANCH  13  14
ENDBRANCH   1  13
TORSDOF 5
ENDMDL
MODEL 2
REMARK VINA RESULT:    -5.584      7.617      9.269
REMARK INTER + INTRA:          -8.064
REMARK INTER:                  -7.218
REMARK INTRA:                  -0.845
REMARK UNBOUND:                -0.848
REMARK SMILES CCCCC(=O)c1ccccc1C(=O)[O-]
REMARK SMILES IDX 4 1 5 2 6 3 7 4 12 5 11 6 10 7 8 8 9 9 13 10 14 11 15 12
REMARK SMILES IDX 3 13 2 14 1 15
REMARK H PARENT
REMARK Flexibility Score: inf
ROOT
ATOM      1  C   UNL     1     -35.931  36.206  46.493  1.00  0.00     0.081 C 
ENDROOT
BRANCH   1   2
ATOM      2  C   UNL     1     -36.525  37.526  46.911  1.00  0.00     0.163 C 
ATOM      3  O   UNL     1     -36.035  38.126  47.906  1.00  0.00    -0.294 OA
BRANCH   2   4
ATOM      4  C   UNL     1     -37.659  38.140  46.171  1.00  0.00     0.027 A 
ATOM      5  C   UNL     1     -38.970  38.208  46.719  1.00  0.00     0.008 A 
ATOM      6  C   UNL     1     -39.967  38.920  46.024  1.00  0.00     0.011 A 
ATOM      7  C   UNL     1     -39.692  39.520  44.796  1.00  0.00     0.001 A 
ATOM      8  C   UNL     1     -37.410  38.737  44.919  1.00  0.00     0.012 A 
ATOM      9  C   UNL     1     -38.420  39.419  44.240  1.00  0.00     0.001 A 
BRANCH   5  10
ATOM     10  C   UNL     1     -39.354  37.502  47.964  1.00  0.00     0.072 C 
ATOM     11  O   UNL     1     -39.826  36.335  47.912  1.00  0.00    -0.545 OA
ATOM     12  O   UNL     1     -39.145  38.090  49.206  1.00  0.00    -0.545 OA
ENDBRANCH   5  10
ENDBRANCH   2   4
ENDBRANCH   1   2
BRANCH   1  13
ATOM     13  C   UNL     1     -37.002  35.158  46.149  1.00  0.00     0.008 C 
BRANCH  13  14
ATOM     14  C   UNL     1     -36.690  34.402  44.849  1.00  0.00    -0.003 C 
ATOM     15  C   UNL     1     -36.729  35.340  43.645  1.00  0.00     0.004 C 
ENDBRANCH  13  14
ENDBRANCH   1  13
TORSDOF 5
ENDMDL
MODEL 3
REMARK VINA RESULT:    -5.494      1.669      3.855
REMARK INTER + INTRA:          -7.948
REMARK INTER:                  -7.334
REMARK INTRA:                  -0.615
REMARK UNBOUND:                -0.848
REMARK SMILES CCCCC(=O)c1ccccc1C(=O)[O-]
REMARK SMILES IDX 4 1 5 2 6 3 7 4 12 5 11 6 10 7 8 8 9 9 13 10 14 11 15 12
REMARK SMILES IDX 3 13 2 14 1 15
REMARK H PARENT
REMARK Flexibility Score: inf
ROOT
ATOM      1  C   UNL     1     -34.798  44.259  40.409  1.00  0.00     0.081 C 
ENDROOT
BRANCH   1   2
ATOM      2  C   UNL     1     -35.025  42.845  40.878  1.00  0.00     0.163 C 
ATOM      3  O   UNL     1     -35.791  42.099  40.209  1.00  0.00    -0.294 OA
BRANCH   2   4
ATOM      4  C   UNL     1     -34.359  42.310  42.093  1.00  0.00     0.027 A 
ATOM      5  C   UNL     1     -33.062  41.726  42.048  1.00  0.00     0.008 A 
ATOM      6  C   UNL     1     -32.433  41.359  43.254  1.00  0.00     0.011 A 
ATOM      7  C   UNL     1     -33.081  41.528  44.477  1.00  0.00     0.001 A 
ATOM      8  C   UNL     1     -35.000  42.452  43.339  1.00  0.00     0.012 A 
ATOM      9  C   UNL     1     -34.366  42.062  44.519  1.00  0.00     0.001 A 
BRANCH   5  10
ATOM     10  C   UNL     1     -32.366  41.420  40.776  1.00  0.00     0.072 C 
ATOM     11  O   UNL     1     -31.305  42.028  40.471  1.00  0.00    -0.545 OA
ATOM     12  O   UNL     1     -32.838  40.423  39.931  1.00  0.00    -0.545 OA
ENDBRANCH   5  10
ENDBRANCH   2   4
ENDBRANCH   1   2
BRANCH   1  13
ATOM     13  C   UNL     1     -34.110  44.323  39.035  1.00  0.00     0.008 C 
BRANCH  13  14
ATOM     14  C   UNL     1     -32.705  44.940  39.107  1.00  0.00    -0.003 C 
ATOM     15  C   UNL     1     -32.367  45.689  37.822  1.00  0.00     0.004 C 
ENDBRANCH  13  14
ENDBRANCH   1  13
TORSDOF 5
ENDMDL
MODEL 4
REMARK VINA RESULT:    -5.463      7.322      8.521
REMARK INTER + INTRA:          -7.908
REMARK INTER:                  -6.809
REMARK INTRA:                  -1.098
REMARK UNBOUND:                -0.848
REMARK SMILES CCCCC(=O)c1ccccc1C(=O)[O-]
REMARK SMILES IDX 4 1 5 2 6 3 7 4 12 5 11 6 10 7 8 8 9 9 13 10 14 11 15 12
REMARK SMILES IDX 3 13 2 14 1 15
REMARK H PARENT
REMARK Flexibility Score: inf
ROOT
ATOM      1  C   UNL     1     -35.168  37.218  46.668  1.00  0.00     0.081 C 
ENDROOT
BRANCH   1   2
ATOM      2  C   UNL     1     -36.510  36.733  46.186  1.00  0.00     0.163 C 
ATOM      3  O   UNL     1     -36.787  35.507  46.291  1.00  0.00    -0.294 OA
BRANCH   2   4
ATOM      4  C   UNL     1     -37.514  37.663  45.607  1.00  0.00     0.027 A 
ATOM      5  C   UNL     1     -38.643  38.112  46.348  1.00  0.00     0.008 A 
ATOM      6  C   UNL     1     -39.483  39.094  45.789  1.00  0.00     0.011 A 
ATOM      7  C   UNL     1     -39.242  39.598  44.511  1.00  0.00     0.001 A 
ATOM      8  C   UNL     1     -37.302  38.173  44.311  1.00  0.00     0.012 A 
ATOM      9  C   UNL     1     -38.160  39.130  43.770  1.00  0.00     0.001 A 
BRANCH   5  10
ATOM     10  C   UNL     1     -39.016  37.538  47.662  1.00  0.00     0.072 C 
ATOM     11  O   UNL     1     -38.624  38.086  48.727  1.00  0.00    -0.545 OA
ATOM     12  O   UNL     1     -39.849  36.429  47.742  1.00  0.00    -0.545 OA
ENDBRANCH   5  10
ENDBRANCH   2   4
ENDBRANCH   1   2
BRANCH   1  13
ATOM     13  C   UNL     1     -35.271  38.497  47.515  1.00  0.00     0.008 C 
BRANCH  13  14
ATOM     14  C   UNL     1     -34.807  39.748  46.754  1.00  0.00    -0.003 C 
ATOM     15  C   UNL     1     -35.920  40.789  46.677  1.00  0.00     0.004 C 
ENDBRANCH  13  14
ENDBRANCH   1  13
TORSDOF 5
ENDMDL
MODEL 5
REMARK VINA RESULT:    -5.443      1.516      2.764
REMARK INTER + INTRA:          -7.882
REMARK INTER:                  -6.808
REMARK INTRA:                  -1.074
REMARK UNBOUND:                -0.848
REMARK SMILES CCCCC(=O)c1ccccc1C(=O)[O-]
REMARK SMILES IDX 4 1 5 2 6 3 7 4 12 5 11 6 10 7 8 8 9 9 13 10 14 11 15 12
REMARK SMILES IDX 3 13 2 14 1 15
REMARK H PARENT
REMARK Flexibility Score: inf
ROOT
ATOM      1  C   UNL     1     -32.969  39.853  40.430  1.00  0.00     0.081 C 
ENDROOT
BRANCH   1   2
ATOM      2  C   UNL     1     -32.664  41.264  40.864  1.00  0.00     0.163 C 
ATOM      3  O   UNL     1     -31.507  41.724  40.668  1.00  0.00    -0.294 OA
BRANCH   2   4
ATOM      4  C   UNL     1     -33.696  42.124  41.499  1.00  0.00     0.027 A 
ATOM      5  C   UNL     1     -34.317  43.198  40.803  1.00  0.00     0.008 A 
ATOM      6  C   UNL     1     -35.380  43.889  41.416  1.00  0.00     0.011 A 
ATOM      7  C   UNL     1     -35.800  43.557  42.704  1.00  0.00     0.001 A 
ATOM      8  C   UNL     1     -34.125  41.820  42.807  1.00  0.00     0.012 A 
ATOM      9  C   UNL     1     -35.166  42.532  43.401  1.00  0.00     0.001 A 
BRANCH   5  10
ATOM     10  C   UNL     1     -33.847  43.671  39.479  1.00  0.00     0.072 C 
ATOM     11  O   UNL     1     -34.390  43.246  38.425  1.00  0.00    -0.545 OA
ATOM     12  O   UNL     1     -32.845  44.629  39.382  1.00  0.00    -0.545 OA
ENDBRANCH   5  10
ENDBRANCH   2   4
ENDBRANCH   1   2
BRANCH   1  13
ATOM     13  C   UNL     1     -34.259  39.756  39.599  1.00  0.00     0.008 C 
BRANCH  13  14
ATOM     14  C   UNL     1     -35.425  39.146  40.391  1.00  0.00    -0.003 C 
ATOM     15  C   UNL     1     -36.625  40.089  40.416  1.00  0.00     0.004 C 
ENDBRANCH  13  14
ENDBRANCH   1  13
TORSDOF 5
ENDMDL
MODEL 6
REMARK VINA RESULT:    -5.426      7.226      9.387
REMARK INTER + INTRA:          -7.860
REMARK INTER:                  -7.222
REMARK INTRA:                  -0.638
REMARK UNBOUND:                -0.848
REMARK SMILES CCCCC(=O)c1ccccc1C(=O)[O-]
REMARK SMILES IDX 4 1 5 2 6 3 7 4 12 5 11 6 10 7 8 8 9 9 13 10 14 11 15 12
REMARK SMILES IDX 3 13 2 14 1 15
REMARK H PARENT
REMARK Flexibility Score: inf
ROOT
ATOM      1  C   UNL     1     -39.741  38.575  46.808  1.00  0.00     0.081 C 
ENDROOT
BRANCH   1   2
ATOM      2  C   UNL     1     -38.403  39.020  46.277  1.00  0.00     0.163 C 
ATOM      3  O   UNL     1     -37.746  39.877  46.928  1.00  0.00    -0.294 OA
BRANCH   2   4
ATOM      4  C   UNL     1     -37.838  38.464  45.020  1.00  0.00     0.027 A 
ATOM      5  C   UNL     1     -37.083  37.258  45.001  1.00  0.00     0.008 A 
ATOM      6  C   UNL     1     -36.690  36.715  43.762  1.00  0.00     0.011 A 
ATOM      7  C   UNL     1     -36.998  37.365  42.567  1.00  0.00     0.001 A 
ATOM      8  C   UNL     1     -38.121  39.112  43.802  1.00  0.00     0.012 A 
ATOM      9  C   UNL     1     -37.702  38.566  42.588  1.00  0.00     0.001 A 
BRANCH   5  10
ATOM     10  C   UNL     1     -36.630  36.578  46.237  1.00  0.00     0.072 C 
ATOM     11  O   UNL     1     -37.165  35.496  46.598  1.00  0.00    -0.545 OA
ATOM     12  O   UNL     1     -35.574  37.089  46.982  1.00  0.00    -0.545 OA
ENDBRANCH   5  10
ENDBRANCH   2   4
ENDBRANCH   1   2
BRANCH   1  13
ATOM     13  C   UNL     1     -39.626  37.814  48.139  1.00  0.00     0.008 C 
BRANCH  13  14
ATOM     14  C   UNL     1     -40.211  36.396  48.060  1.00  0.00    -0.003 C 
ATOM     15  C   UNL     1     -41.111  36.105  49.257  1.00  0.00     0.004 C 
ENDBRANCH  13  14
ENDBRANCH   1  13
TORSDOF 5
ENDMDL
MODEL 7
REMARK VINA RESULT:    -5.353      1.995      4.490
REMARK INTER + INTRA:          -7.765
REMARK INTER:                  -7.226
REMARK INTRA:                  -0.539
REMARK UNBOUND:                -0.848
REMARK SMILES CCCCC(=O)c1ccccc1C(=O)[O-]
REMARK SMILES IDX 4 1 5 2 6 3 7 4 12 5 11 6 10 7 8 8 9 9 13 10 14 11 15 12
REMARK SMILES IDX 3 13 2 14 1 15
REMARK H PARENT
REMARK Flexibility Score: inf
ROOT
ATOM      1  C   UNL     1     -34.689  43.216  40.074  1.00  0.00     0.081 C 
ENDROOT
BRANCH   1   2
ATOM      2  C   UNL     1     -33.937  41.928  40.286  1.00  0.00     0.163 C 
ATOM      3  O   UNL     1     -34.176  40.951  39.525  1.00  0.00    -0.294 OA
BRANCH   2   4
ATOM      4  C   UNL     1     -32.914  41.789  41.355  1.00  0.00     0.027 A 
ATOM      5  C   UNL     1     -33.270  41.617  42.723  1.00  0.00     0.008 A 
ATOM      6  C   UNL     1     -32.257  41.358  43.667  1.00  0.00     0.011 A 
ATOM      7  C   UNL     1     -30.918  41.309  43.283  1.00  0.00     0.001 A 
ATOM      8  C   UNL     1     -31.553  41.753  40.995  1.00  0.00     0.012 A 
ATOM      9  C   UNL     1     -30.566  41.517  41.952  1.00  0.00     0.001 A 
BRANCH   5  10
ATOM     10  C   UNL     1     -34.661  41.766  43.212  1.00  0.00     0.072 C 
ATOM     11  O   UNL     1     -35.060  42.873  43.661  1.00  0.00    -0.545 OA
ATOM     12  O   UNL     1     -35.559  40.708  43.129  1.00  0.00    -0.545 OA
ENDBRANCH   5  10
ENDBRANCH   2   4
ENDBRANCH   1   2
BRANCH   1  13
ATOM     13  C   UNL     1     -34.169  44.012  38.866  1.00  0.00     0.008 C 
BRANCH  13  14
ATOM     14  C   UNL     1     -32.899  44.813  39.190  1.00  0.00    -0.003 C 
ATOM     15  C   UNL     1     -32.455  45.648  37.992  1.00  0.00     0.004 C 
ENDBRANCH  13  14
ENDBRANCH   1  13
TORSDOF 5
ENDMDL
MODEL 8
REMARK VINA RESULT:    -5.334      7.525      9.417
REMARK INTER + INTRA:          -7.741
REMARK INTER:                  -7.114
REMARK INTRA:                  -0.627
REMARK UNBOUND:                -0.848
REMARK SMILES CCCCC(=O)c1ccccc1C(=O)[O-]
REMARK SMILES IDX 4 1 5 2 6 3 7 4 12 5 11 6 10 7 8 8 9 9 13 10 14 11 15 12
REMARK SMILES IDX 3 13 2 14 1 15
REMARK H PARENT
REMARK Flexibility Score: inf
ROOT
ATOM      1  C   UNL     1     -38.945  38.240  47.341  1.00  0.00     0.081 C 
ENDROOT
BRANCH   1   2
ATOM      2  C   UNL     1     -37.558  37.720  47.063  1.00  0.00     0.163 C 
ATOM      3  O   UNL     1     -36.607  38.102  47.797  1.00  0.00    -0.294 OA
BRANCH   2   4
ATOM      4  C   UNL     1     -37.292  36.762  45.959  1.00  0.00     0.027 A 
ATOM      5  C   UNL     1     -37.050  37.194  44.625  1.00  0.00     0.008 A 
ATOM      6  C   UNL     1     -36.673  36.246  43.654  1.00  0.00     0.011 A 
ATOM      7  C   UNL     1     -36.575  34.893  43.978  1.00  0.00     0.001 A 
ATOM      8  C   UNL     1     -37.206  35.387  46.257  1.00  0.00     0.012 A 
ATOM      9  C   UNL     1     -36.852  34.464  45.273  1.00  0.00     0.001 A 
BRANCH   5  10
ATOM     10  C   UNL     1     -37.242  38.599  44.192  1.00  0.00     0.072 C 
ATOM     11  O   UNL     1     -38.366  38.986  43.775  1.00  0.00    -0.545 OA
ATOM     12  O   UNL     1     -36.208  39.521  44.296  1.00  0.00    -0.545 OA
ENDBRANCH   5  10
ENDBRANCH   2   4
ENDBRANCH   1   2
BRANCH   1  13
ATOM     13  C   UNL     1     -39.576  37.604  48.590  1.00  0.00     0.008 C 
BRANCH  13  14
ATOM     14  C   UNL     1     -40.260  36.262  48.286  1.00  0.00    -0.003 C 
ATOM     15  C   UNL     1     -40.659  35.545  49.572  1.00  0.00     0.004 C 
ENDBRANCH  13  14
ENDBRANCH   1  13
TORSDOF 5
ENDMDL
MODEL 9
REMARK VINA RESULT:    -5.179      3.011      5.500
REMARK INTER + INTRA:          -7.541
REMARK INTER:                  -6.439
REMARK INTRA:                  -1.102
REMARK UNBOUND:                -0.848
REMARK SMILES CCCCC(=O)c1ccccc1C(=O)[O-]
REMARK SMILES IDX 4 1 5 2 6 3 7 4 12 5 11 6 10 7 8 8 9 9 13 10 14 11 15 12
REMARK SMILES IDX 3 13 2 14 1 15
REMARK H PARENT
REMARK Flexibility Score: inf
ROOT
ATOM      1  C   UNL     1     -35.362  42.652  43.579  1.00  0.00     0.081 C 
ENDROOT
BRANCH   1   2
ATOM      2  C   UNL     1     -34.635  41.660  44.450  1.00  0.00     0.163 C 
ATOM      3  O   UNL     1     -35.133  41.353  45.567  1.00  0.00    -0.294 OA
BRANCH   2   4
ATOM      4  C   UNL     1     -33.362  41.028  44.017  1.00  0.00     0.027 A 
ATOM      5  C   UNL     1     -33.318  39.713  43.476  1.00  0.00     0.008 A 
ATOM      6  C   UNL     1     -32.101  39.224  42.962  1.00  0.00     0.011 A 
ATOM      7  C   UNL     1     -30.941  39.996  43.015  1.00  0.00     0.001 A 
ATOM      8  C   UNL     1     -32.173  41.782  44.076  1.00  0.00     0.012 A 
ATOM      9  C   UNL     1     -30.975  41.268  43.581  1.00  0.00     0.001 A 
BRANCH   5  10
ATOM     10  C   UNL     1     -34.487  38.803  43.490  1.00  0.00     0.072 C 
ATOM     11  O   UNL     1     -35.179  38.643  42.449  1.00  0.00    -0.545 OA
ATOM     12  O   UNL     1     -34.802  38.069  44.627  1.00  0.00    -0.545 OA
ENDBRANCH   5  10
ENDBRANCH   2   4
ENDBRANCH   1   2
BRANCH   1  13
ATOM     13  C   UNL     1     -35.494  42.177  42.124  1.00  0.00     0.008 C 
BRANCH  13  14
ATOM     14  C   UNL     1     -34.546  42.921  41.172  1.00  0.00    -0.003 C 
ATOM     15  C   UNL     1     -33.620  41.948  40.446  1.00  0.00     0.004 C 
ENDBRANCH  13  14
ENDBRANCH   1  13
TORSDOF 5
ENDMDL
