MODEL 1
REMARK VINA RESULT:    -4.354      0.000      0.000
REMARK INTER + INTRA:         -10.335
REMARK INTER:                  -8.171
REMARK INTRA:                  -2.164
REMARK UNBOUND:                -2.164
REMARK SMILES O=C([O-])CCCCCCCCCCCCCCC(=O)[O-]
REMARK SMILES IDX 10 1 9 2 8 3 7 4 6 5 5 6 4 7 2 8 1 9 3 10 11 11 12 12 13 13
REMARK SMILES IDX 14 14 15 15 16 16 17 17 18 18 19 19 20 20
REMARK H PARENT
REMARK Flexibility Score: inf
ROOT
ATOM      1  C   UNL     1       7.894  -5.616  49.945  1.00  0.00     0.000 C 
ENDROOT
BRANCH   1   2
ATOM      2  C   UNL     1       8.069  -6.117  48.494  1.00  0.00     0.000 C 
BRANCH   2   3
ATOM      3  C   UNL     1       9.238  -5.425  47.771  1.00  0.00     0.000 C 
BRANCH   3   4
ATOM      4  C   UNL     1       9.583  -4.058  48.400  1.00  0.00     0.000 C 
BRANCH   4   5
ATOM      5  C   UNL     1       9.128  -2.858  47.547  1.00  0.00     0.000 C 
BRANCH   5   6
ATOM      6  C   UNL     1       8.438  -1.765  48.375  1.00  0.00     0.006 C 
BRANCH   6   7
ATOM      7  C   UNL     1       7.930  -2.320  49.710  1.00  0.00     0.053 C 
BRANCH   7   8
ATOM      8  C   UNL     1       6.615  -1.700  50.070  1.00  0.00     0.041 C 
ATOM      9  O   UNL     1       5.832  -1.308  49.167  1.00  0.00    -0.550 OA
ATOM     10  O   UNL     1       6.264  -1.541  51.407  1.00  0.00    -0.550 OA
ENDBRANCH   7   8
ENDBRANCH   6   7
ENDBRANCH   5   6
ENDBRANCH   4   5
ENDBRANCH   3   4
ENDBRANCH   2   3
ENDBRANCH   1   2
BRANCH   1  11
ATOM     11  C   UNL     1       6.609  -6.124  50.627  1.00  0.00     0.000 C 
BRANCH  11  12
ATOM     12  C   UNL     1       5.545  -5.043  50.879  1.00  0.00     0.000 C 
BRANCH  12  13
ATOM     13  C   UNL     1       4.208  -5.353  50.183  1.00  0.00     0.000 C 
BRANCH  13  14
ATOM     14  C   UNL     1       4.394  -6.086  48.838  1.00  0.00     0.000 C 
BRANCH  14  15
ATOM     15  C   UNL     1       3.897  -5.292  47.615  1.00  0.00     0.000 C 
BRANCH  15  16
ATOM     16  C   UNL     1       4.994  -5.086  46.556  1.00  0.00     0.006 C 
BRANCH  16  17
ATOM     17  C   UNL     1       5.708  -3.743  46.757  1.00  0.00     0.053 C 
BRANCH  17  18
ATOM     18  C   UNL     1       5.294  -2.747  45.719  1.00  0.00     0.041 C 
ATOM     19  O   UNL     1       5.476  -1.514  45.909  1.00  0.00    -0.550 OA
ATOM     20  O   UNL     1       4.682  -3.175  44.546  1.00  0.00    -0.550 OA
ENDBRANCH  17  18
ENDBRANCH  16  17
ENDBRANCH  15  16
ENDBRANCH  14  15
ENDBRANCH  13  14
ENDBRANCH  12  13
ENDBRANCH  11  12
ENDBRANCH   1  11
TORSDOF 15
ENDMDL
MODEL 2
REMARK VINA RESULT:    -4.140     12.924     15.505
REMARK INTER + INTRA:          -9.935
REMARK INTER:                  -8.397
REMARK INTRA:                  -1.538
REMARK UNBOUND:                -2.164
REMARK SMILES O=C([O-])CCCCCCCCCCCCCCC(=O)[O-]
REMARK SMILES IDX 10 1 9 2 8 3 7 4 6 5 5 6 4 7 2 8 1 9 3 10 11 11 12 12 13 13
REMARK SMILES IDX 14 14 15 15 16 16 17 17 18 18 19 19 20 20
REMARK H PARENT
REMARK Flexibility Score: inf
ROOT
ATOM      1  C   UNL     1       3.261  13.062  49.340  1.00  0.00     0.000 C 
ENDROOT
BRANCH   1   2
ATOM      2  C   UNL     1       3.109  13.823  48.005  1.00  0.00     0.000 C 
BRANCH   2   3
ATOM      3  C   UNL     1       3.063  12.879  46.791  1.00  0.00     0.000 C 
BRANCH   3   4
ATOM      4  C   UNL     1       1.790  12.004  46.785  1.00  0.00     0.000 C 
BRANCH   4   5
ATOM      5  C   UNL     1       2.080  10.498  46.930  1.00  0.00     0.000 C 
BRANCH   5   6
ATOM      6  C   UNL     1       1.740   9.957  48.325  1.00  0.00     0.006 C 
BRANCH   6   7
ATOM      7  C   UNL     1       0.796   8.752  48.236  1.00  0.00     0.053 C 
BRANCH   7   8
ATOM      8  C   UNL     1      -0.427   9.102  47.445  1.00  0.00     0.041 C 
ATOM      9  O   UNL     1      -1.284   9.891  47.920  1.00  0.00    -0.550 OA
ATOM     10  O   UNL     1      -0.627   8.540  46.188  1.00  0.00    -0.550 OA
ENDBRANCH   7   8
ENDBRANCH   6   7
ENDBRANCH   5   6
ENDBRANCH   4   5
ENDBRANCH   3   4
ENDBRANCH   2   3
ENDBRANCH   1   2
BRANCH   1  11
ATOM     11  C   UNL     1       4.718  12.703  49.689  1.00  0.00     0.000 C 
BRANCH  11  12
ATOM     12  C   UNL     1       5.082  11.223  49.484  1.00  0.00     0.000 C 
BRANCH  12  13
ATOM     13  C   UNL     1       6.209  11.026  48.454  1.00  0.00     0.000 C 
BRANCH  13  14
ATOM     14  C   UNL     1       5.674  10.738  47.036  1.00  0.00     0.000 C 
BRANCH  14  15
ATOM     15  C   UNL     1       6.771  10.415  46.003  1.00  0.00     0.000 C 
BRANCH  15  16
ATOM     16  C   UNL     1       7.963   9.664  46.619  1.00  0.00     0.006 C 
BRANCH  16  17
ATOM     17  C   UNL     1       9.020   9.342  45.555  1.00  0.00     0.053 C 
BRANCH  17  18
ATOM     18  C   UNL     1       9.205   7.864  45.401  1.00  0.00     0.041 C 
ATOM     19  O   UNL     1      10.079   7.409  44.616  1.00  0.00    -0.550 OA
ATOM     20  O   UNL     1       8.392   6.983  46.106  1.00  0.00    -0.550 OA
ENDBRANCH  17  18
ENDBRANCH  16  17
ENDBRANCH  15  16
ENDBRANCH  14  15
ENDBRANCH  13  14
ENDBRANCH  12  13
ENDBRANCH  11  12
ENDBRANCH   1  11
TORSDOF 15
ENDMDL
MODEL 3
REMARK VINA RESULT:    -4.136      3.221      4.912
REMARK INTER + INTRA:          -9.927
REMARK INTER:                  -8.304
REMARK INTRA:                  -1.623
REMARK UNBOUND:                -2.164
REMARK SMILES O=C([O-])CCCCCCCCCCCCCCC(=O)[O-]
REMARK SMILES IDX 10 1 9 2 8 3 7 4 6 5 5 6 4 7 2 8 1 9 3 10 11 11 12 12 13 13
REMARK SMILES IDX 14 14 15 15 16 16 17 17 18 18 19 19 20 20
REMARK H PARENT
REMARK Flexibility Score: inf
ROOT
ATOM      1  C   UNL     1       4.903  -3.321  49.196  1.00  0.00     0.000 C 
ENDROOT
BRANCH   1   2
ATOM      2  C   UNL     1       5.543  -3.205  50.597  1.00  0.00     0.000 C 
BRANCH   2   3
ATOM      3  C   UNL     1       5.980  -1.767  50.927  1.00  0.00     0.000 C 
BRANCH   3   4
ATOM      4  C   UNL     1       6.824  -1.699  52.218  1.00  0.00     0.000 C 
BRANCH   4   5
ATOM      5  C   UNL     1       6.916  -0.282  52.816  1.00  0.00     0.000 C 
BRANCH   5   6
ATOM      6  C   UNL     1       8.065  -0.133  53.824  1.00  0.00     0.006 C 
BRANCH   6   7
ATOM      7  C   UNL     1       8.158   1.305  54.347  1.00  0.00     0.053 C 
BRANCH   7   8
ATOM      8  C   UNL     1       9.573   1.793  54.294  1.00  0.00     0.041 C 
ATOM      9  O   UNL     1      10.430   1.338  55.096  1.00  0.00    -0.550 OA
ATOM     10  O   UNL     1       9.940   2.763  53.367  1.00  0.00    -0.550 OA
ENDBRANCH   7   8
ENDBRANCH   6   7
ENDBRANCH   5   6
ENDBRANCH   4   5
ENDBRANCH   3   4
ENDBRANCH   2   3
ENDBRANCH   1   2
BRANCH   1  11
ATOM     11  C   UNL     1       4.950  -4.744  48.608  1.00  0.00     0.000 C 
BRANCH  11  12
ATOM     12  C   UNL     1       6.107  -4.995  47.626  1.00  0.00     0.000 C 
BRANCH  12  13
ATOM     13  C   UNL     1       7.454  -5.212  48.339  1.00  0.00     0.000 C 
BRANCH  13  14
ATOM     14  C   UNL     1       8.561  -4.275  47.814  1.00  0.00     0.000 C 
BRANCH  14  15
ATOM     15  C   UNL     1       8.872  -3.085  48.741  1.00  0.00     0.000 C 
BRANCH  15  16
ATOM     16  C   UNL     1       8.298  -1.758  48.216  1.00  0.00     0.006 C 
BRANCH  16  17
ATOM     17  C   UNL     1       7.850  -1.893  46.754  1.00  0.00     0.053 C 
BRANCH  17  18
ATOM     18  C   UNL     1       6.529  -1.226  46.527  1.00  0.00     0.041 C 
ATOM     19  O   UNL     1       5.549  -1.886  46.087  1.00  0.00    -0.550 OA
ATOM     20  O   UNL     1       6.382   0.134  46.775  1.00  0.00    -0.550 OA
ENDBRANCH  17  18
ENDBRANCH  16  17
ENDBRANCH  15  16
ENDBRANCH  14  15
ENDBRANCH  13  14
ENDBRANCH  12  13
ENDBRANCH  11  12
ENDBRANCH   1  11
TORSDOF 15
ENDMDL
MODEL 4
REMARK VINA RESULT:    -4.091      2.458      5.348
REMARK INTER + INTRA:          -9.841
REMARK INTER:                  -8.017
REMARK INTRA:                  -1.824
REMARK UNBOUND:                -2.164
REMARK SMILES O=C([O-])CCCCCCCCCCCCCCC(=O)[O-]
REMARK SMILES IDX 10 1 9 2 8 3 7 4 6 5 5 6 4 7 2 8 1 9 3 10 11 11 12 12 13 13
REMARK SMILES IDX 14 14 15 15 16 16 17 17 18 18 19 19 20 20
REMARK H PARENT
REMARK Flexibility Score: inf
ROOT
ATOM      1  C   UNL     1       5.834  -5.648  48.389  1.00  0.00     0.000 C 
ENDROOT
BRANCH   1   2
ATOM      2  C   UNL     1       6.993  -5.402  47.397  1.00  0.00     0.000 C 
BRANCH   2   3
ATOM      3  C   UNL     1       8.373  -5.513  48.067  1.00  0.00     0.000 C 
BRANCH   3   4
ATOM      4  C   UNL     1       8.626  -4.364  49.068  1.00  0.00     0.000 C 
BRANCH   4   5
ATOM      5  C   UNL     1       9.297  -3.133  48.431  1.00  0.00     0.000 C 
BRANCH   5   6
ATOM      6  C   UNL     1       8.314  -1.981  48.179  1.00  0.00     0.006 C 
BRANCH   6   7
ATOM      7  C   UNL     1       7.852  -1.959  46.717  1.00  0.00     0.053 C 
BRANCH   7   8
ATOM      8  C   UNL     1       6.449  -1.445  46.618  1.00  0.00     0.041 C 
ATOM      9  O   UNL     1       6.124  -0.377  47.198  1.00  0.00    -0.550 OA
ATOM     10  O   UNL     1       5.497  -2.157  45.897  1.00  0.00    -0.550 OA
ENDBRANCH   7   8
ENDBRANCH   6   7
ENDBRANCH   5   6
ENDBRANCH   4   5
ENDBRANCH   3   4
ENDBRANCH   2   3
ENDBRANCH   1   2
BRANCH   1  11
ATOM     11  C   UNL     1       4.869  -4.455  48.524  1.00  0.00     0.000 C 
BRANCH  11  12
ATOM     12  C   UNL     1       4.393  -4.173  49.959  1.00  0.00     0.000 C 
BRANCH  12  13
ATOM     13  C   UNL     1       5.540  -3.736  50.889  1.00  0.00     0.000 C 
BRANCH  13  14
ATOM     14  C   UNL     1       5.819  -2.221  50.816  1.00  0.00     0.000 C 
BRANCH  14  15
ATOM     15  C   UNL     1       7.093  -1.779  51.561  1.00  0.00     0.000 C 
BRANCH  15  16
ATOM     16  C   UNL     1       6.824  -0.665  52.587  1.00  0.00     0.006 C 
BRANCH  16  17
ATOM     17  C   UNL     1       7.988  -0.536  53.577  1.00  0.00     0.053 C 
BRANCH  17  18
ATOM     18  C   UNL     1       8.198   0.888  53.987  1.00  0.00     0.041 C 
ATOM     19  O   UNL     1       9.324   1.273  54.404  1.00  0.00    -0.550 OA
ATOM     20  O   UNL     1       7.142   1.792  53.936  1.00  0.00    -0.550 OA
ENDBRANCH  17  18
ENDBRANCH  16  17
ENDBRANCH  15  16
ENDBRANCH  14  15
ENDBRANCH  13  14
ENDBRANCH  12  13
ENDBRANCH  11  12
ENDBRANCH   1  11
TORSDOF 15
ENDMDL
MODEL 5
REMARK VINA RESULT:    -4.071      3.587      5.291
REMARK INTER + INTRA:          -9.805
REMARK INTER:                  -8.480
REMARK INTRA:                  -1.325
REMARK UNBOUND:                -2.164
REMARK SMILES O=C([O-])CCCCCCCCCCCCCCC(=O)[O-]
REMARK SMILES IDX 10 1 9 2 8 3 7 4 6 5 5 6 4 7 2 8 1 9 3 10 11 11 12 12 13 13
REMARK SMILES IDX 14 14 15 15 16 16 17 17 18 18 19 19 20 20
REMARK H PARENT
REMARK Flexibility Score: inf
ROOT
ATOM      1  C   UNL     1       5.865  -3.138  51.172  1.00  0.00     0.000 C 
ENDROOT
BRANCH   1   2
ATOM      2  C   UNL     1       6.320  -1.666  51.283  1.00  0.00     0.000 C 
BRANCH   2   3
ATOM      3  C   UNL     1       7.273  -1.432  52.468  1.00  0.00     0.000 C 
BRANCH   3   4
ATOM      4  C   UNL     1       7.144  -0.005  53.044  1.00  0.00     0.000 C 
BRANCH   4   5
ATOM      5  C   UNL     1       8.288   0.375  54.002  1.00  0.00     0.000 C 
BRANCH   5   6
ATOM      6  C   UNL     1       8.115   1.773  54.613  1.00  0.00     0.006 C 
BRANCH   6   7
ATOM      7  C   UNL     1       6.891   2.485  54.026  1.00  0.00     0.053 C 
BRANCH   7   8
ATOM      8  C   UNL     1       7.279   3.819  53.464  1.00  0.00     0.041 C 
ATOM      9  O   UNL     1       8.304   4.411  53.890  1.00  0.00    -0.550 OA
ATOM     10  O   UNL     1       6.496   4.413  52.480  1.00  0.00    -0.550 OA
ENDBRANCH   7   8
ENDBRANCH   6   7
ENDBRANCH   5   6
ENDBRANCH   4   5
ENDBRANCH   3   4
ENDBRANCH   2   3
ENDBRANCH   1   2
BRANCH   1  11
ATOM     11  C   UNL     1       5.916  -3.698  49.738  1.00  0.00     0.000 C 
BRANCH  11  12
ATOM     12  C   UNL     1       6.796  -4.947  49.567  1.00  0.00     0.000 C 
BRANCH  12  13
ATOM     13  C   UNL     1       7.908  -4.751  48.520  1.00  0.00     0.000 C 
BRANCH  13  14
ATOM     14  C   UNL     1       9.058  -3.861  49.036  1.00  0.00     0.000 C 
BRANCH  14  15
ATOM     15  C   UNL     1       9.399  -2.676  48.112  1.00  0.00     0.000 C 
BRANCH  15  16
ATOM     16  C   UNL     1       8.264  -1.641  48.031  1.00  0.00     0.006 C 
BRANCH  16  17
ATOM     17  C   UNL     1       7.675  -1.581  46.616  1.00  0.00     0.053 C 
BRANCH  17  18
ATOM     18  C   UNL     1       6.180  -1.500  46.652  1.00  0.00     0.041 C 
ATOM     19  O   UNL     1       5.490  -2.058  45.757  1.00  0.00    -0.550 OA
ATOM     20  O   UNL     1       5.544  -0.786  47.661  1.00  0.00    -0.550 OA
ENDBRANCH  17  18
ENDBRANCH  16  17
ENDBRANCH  15  16
ENDBRANCH  14  15
ENDBRANCH  13  14
ENDBRANCH  12  13
ENDBRANCH  11  12
ENDBRANCH   1  11
TORSDOF 15
ENDMDL
MODEL 6
REMARK VINA RESULT:    -4.063      4.351      7.354
REMARK INTER + INTRA:          -9.789
REMARK INTER:                  -8.708
REMARK INTRA:                  -1.081
REMARK UNBOUND:                -2.164
REMARK SMILES O=C([O-])CCCCCCCCCCCCCCC(=O)[O-]
REMARK SMILES IDX 10 1 9 2 8 3 7 4 6 5 5 6 4 7 2 8 1 9 3 10 11 11 12 12 13 13
REMARK SMILES IDX 14 14 15 15 16 16 17 17 18 18 19 19 20 20
REMARK H PARENT
REMARK Flexibility Score: inf
ROOT
ATOM      1  C   UNL     1       6.173  -1.424  51.049  1.00  0.00     0.000 C 
ENDROOT
BRANCH   1   2
ATOM      2  C   UNL     1       6.123  -2.788  50.326  1.00  0.00     0.000 C 
BRANCH   2   3
ATOM      3  C   UNL     1       7.497  -3.216  49.782  1.00  0.00     0.000 C 
BRANCH   3   4
ATOM      4  C   UNL     1       8.221  -2.059  49.059  1.00  0.00     0.000 C 
BRANCH   4   5
ATOM      5  C   UNL     1       8.029  -2.075  47.531  1.00  0.00     0.000 C 
BRANCH   5   6
ATOM      6  C   UNL     1       7.382  -0.789  46.998  1.00  0.00     0.006 C 
BRANCH   6   7
ATOM      7  C   UNL     1       5.872  -0.781  47.259  1.00  0.00     0.053 C 
BRANCH   7   8
ATOM      8  C   UNL     1       5.218  -1.955  46.597  1.00  0.00     0.041 C 
ATOM      9  O   UNL     1       5.028  -1.955  45.353  1.00  0.00    -0.550 OA
ATOM     10  O   UNL     1       4.803  -3.042  47.359  1.00  0.00    -0.550 OA
ENDBRANCH   7   8
ENDBRANCH   6   7
ENDBRANCH   5   6
ENDBRANCH   4   5
ENDBRANCH   3   4
ENDBRANCH   2   3
ENDBRANCH   1   2
BRANCH   1  11
ATOM     11  C   UNL     1       6.981  -1.445  52.360  1.00  0.00     0.000 C 
BRANCH  11  12
ATOM     12  C   UNL     1       7.116  -0.079  53.054  1.00  0.00     0.000 C 
BRANCH  12  13
ATOM     13  C   UNL     1       8.339  -0.006  53.987  1.00  0.00     0.000 C 
BRANCH  13  14
ATOM     14  C   UNL     1       8.366   1.285  54.830  1.00  0.00     0.000 C 
BRANCH  14  15
ATOM     15  C   UNL     1       9.357   2.349  54.319  1.00  0.00     0.000 C 
BRANCH  15  16
ATOM     16  C   UNL     1       8.694   3.377  53.386  1.00  0.00     0.006 C 
BRANCH  16  17
ATOM     17  C   UNL     1       7.219   3.582  53.753  1.00  0.00     0.053 C 
BRANCH  17  18
ATOM     18  C   UNL     1       6.699   4.877  53.212  1.00  0.00     0.041 C 
ATOM     19  O   UNL     1       7.378   5.933  53.323  1.00  0.00    -0.550 OA
ATOM     20  O   UNL     1       5.448   4.928  52.605  1.00  0.00    -0.550 OA
ENDBRANCH  17  18
ENDBRANCH  16  17
ENDBRANCH  15  16
ENDBRANCH  14  15
ENDBRANCH  13  14
ENDBRANCH  12  13
ENDBRANCH  11  12
ENDBRANCH   1  11
TORSDOF 15
ENDMDL
MODEL 7
REMARK VINA RESULT:    -4.006     12.055     14.814
REMARK INTER + INTRA:          -9.683
REMARK INTER:                  -8.255
REMARK INTRA:                  -1.428
REMARK UNBOUND:                -2.164
REMARK SMILES O=C([O-])CCCCCCCCCCCCCCC(=O)[O-]
REMARK SMILES IDX 10 1 9 2 8 3 7 4 6 5 5 6 4 7 2 8 1 9 3 10 11 11 12 12 13 13
REMARK SMILES IDX 14 14 15 15 16 16 17 17 18 18 19 19 20 20
REMARK H PARENT
REMARK Flexibility Score: inf
ROOT
ATOM      1  C   UNL     1       5.760  11.788  47.282  1.00  0.00     0.000 C 
ENDROOT
BRANCH   1   2
ATOM      2  C   UNL     1       6.086  11.166  48.658  1.00  0.00     0.000 C 
BRANCH   2   3
ATOM      3  C   UNL     1       4.940  11.341  49.669  1.00  0.00     0.000 C 
BRANCH   3   4
ATOM      4  C   UNL     1       4.082  12.588  49.363  1.00  0.00     0.000 C 
BRANCH   4   5
ATOM      5  C   UNL     1       2.572  12.292  49.295  1.00  0.00     0.000 C 
BRANCH   5   6
ATOM      6  C   UNL     1       2.263  10.799  49.123  1.00  0.00     0.006 C 
BRANCH   6   7
ATOM      7  C   UNL     1       2.066  10.442  47.645  1.00  0.00     0.053 C 
BRANCH   7   8
ATOM      8  C   UNL     1       1.164   9.254  47.507  1.00  0.00     0.041 C 
ATOM      9  O   UNL     1       0.621   8.996  46.402  1.00  0.00    -0.550 OA
ATOM     10  O   UNL     1       0.912   8.441  48.607  1.00  0.00    -0.550 OA
ENDBRANCH   7   8
ENDBRANCH   6   7
ENDBRANCH   5   6
ENDBRANCH   4   5
ENDBRANCH   3   4
ENDBRANCH   2   3
ENDBRANCH   1   2
BRANCH   1  11
ATOM     11  C   UNL     1       5.403  10.751  46.200  1.00  0.00     0.000 C 
BRANCH  11  12
ATOM     12  C   UNL     1       6.352  10.732  44.990  1.00  0.00     0.000 C 
BRANCH  12  13
ATOM     13  C   UNL     1       7.775  11.203  45.345  1.00  0.00     0.000 C 
BRANCH  13  14
ATOM     14  C   UNL     1       8.776  10.035  45.459  1.00  0.00     0.000 C 
BRANCH  14  15
ATOM     15  C   UNL     1       8.447   9.033  46.583  1.00  0.00     0.000 C 
BRANCH  15  16
ATOM     16  C   UNL     1       8.594   7.569  46.133  1.00  0.00     0.006 C 
BRANCH  16  17
ATOM     17  C   UNL     1       8.534   6.617  47.334  1.00  0.00     0.053 C 
BRANCH  17  18
ATOM     18  C   UNL     1       9.855   6.543  48.036  1.00  0.00     0.041 C 
ATOM     19  O   UNL     1      10.048   7.188  49.102  1.00  0.00    -0.550 OA
ATOM     20  O   UNL     1      10.887   5.781  47.501  1.00  0.00    -0.550 OA
ENDBRANCH  17  18
ENDBRANCH  16  17
ENDBRANCH  15  16
ENDBRANCH  14  15
ENDBRANCH  13  14
ENDBRANCH  12  13
ENDBRANCH  11  12
ENDBRANCH   1  11
TORSDOF 15
ENDMDL
MODEL 8
REMARK VINA RESULT:    -3.952     14.195     15.129
REMARK INTER + INTRA:          -9.581
REMARK INTER:                  -8.314
REMARK INTRA:                  -1.267
REMARK UNBOUND:                -2.164
REMARK SMILES O=C([O-])CCCCCCCCCCCCCCC(=O)[O-]
REMARK SMILES IDX 10 1 9 2 8 3 7 4 6 5 5 6 4 7 2 8 1 9 3 10 11 11 12 12 13 13
REMARK SMILES IDX 14 14 15 15 16 16 17 17 18 18 19 19 20 20
REMARK H PARENT
REMARK Flexibility Score: inf
ROOT
ATOM      1  C   UNL     1       2.243  10.758  47.397  1.00  0.00     0.000 C 
ENDROOT
BRANCH   1   2
ATOM      2  C   UNL     1       2.104  10.935  48.926  1.00  0.00     0.000 C 
BRANCH   2   3
ATOM      3  C   UNL     1       2.605  12.308  49.407  1.00  0.00     0.000 C 
BRANCH   3   4
ATOM      4  C   UNL     1       4.086  12.546  49.040  1.00  0.00     0.000 C 
BRANCH   4   5
ATOM      5  C   UNL     1       5.041  11.489  49.625  1.00  0.00     0.000 C 
BRANCH   5   6
ATOM      6  C   UNL     1       6.026  10.935  48.586  1.00  0.00     0.006 C 
BRANCH   6   7
ATOM      7  C   UNL     1       6.334  11.976  47.505  1.00  0.00     0.053 C 
BRANCH   7   8
ATOM      8  C   UNL     1       6.090  11.406  46.141  1.00  0.00     0.041 C 
ATOM      9  O   UNL     1       5.320  10.421  45.997  1.00  0.00    -0.550 OA
ATOM     10  O   UNL     1       6.727  11.954  45.034  1.00  0.00    -0.550 OA
ENDBRANCH   7   8
ENDBRANCH   6   7
ENDBRANCH   5   6
ENDBRANCH   4   5
ENDBRANCH   3   4
ENDBRANCH   2   3
ENDBRANCH   1   2
BRANCH   1  11
ATOM     11  C   UNL     1       1.390   9.610  46.825  1.00  0.00     0.000 C 
BRANCH  11  12
ATOM     12  C   UNL     1       0.688   8.742  47.882  1.00  0.00     0.000 C 
BRANCH  12  13
ATOM     13  C   UNL     1      -0.845   8.867  47.829  1.00  0.00     0.000 C 
BRANCH  13  14
ATOM     14  C   UNL     1      -1.378   9.033  46.391  1.00  0.00     0.000 C 
BRANCH  14  15
ATOM     15  C   UNL     1      -2.369   7.937  45.957  1.00  0.00     0.000 C 
BRANCH  15  16
ATOM     16  C   UNL     1      -2.209   7.544  44.478  1.00  0.00     0.006 C 
BRANCH  16  17
ATOM     17  C   UNL     1      -0.793   7.856  43.977  1.00  0.00     0.053 C 
BRANCH  17  18
ATOM     18  C   UNL     1      -0.790   8.156  42.510  1.00  0.00     0.041 C 
ATOM     19  O   UNL     1      -0.796   9.349  42.103  1.00  0.00    -0.550 OA
ATOM     20  O   UNL     1      -0.807   7.117  41.585  1.00  0.00    -0.550 OA
ENDBRANCH  17  18
ENDBRANCH  16  17
ENDBRANCH  15  16
ENDBRANCH  14  15
ENDBRANCH  13  14
ENDBRANCH  12  13
ENDBRANCH  11  12
ENDBRANCH   1  11
TORSDOF 15
ENDMDL
MODEL 9
REMARK VINA RESULT:    -3.909     13.011     15.621
REMARK INTER + INTRA:          -9.501
REMARK INTER:                  -7.923
REMARK INTRA:                  -1.577
REMARK UNBOUND:                -2.164
REMARK SMILES O=C([O-])CCCCCCCCCCCCCCC(=O)[O-]
REMARK SMILES IDX 10 1 9 2 8 3 7 4 6 5 5 6 4 7 2 8 1 9 3 10 11 11 12 12 13 13
REMARK SMILES IDX 14 14 15 15 16 16 17 17 18 18 19 19 20 20
REMARK H PARENT
REMARK Flexibility Score: inf
ROOT
ATOM      1  C   UNL     1       6.297  11.977  48.551  1.00  0.00     0.000 C 
ENDROOT
BRANCH   1   2
ATOM      2  C   UNL     1       5.095  12.944  48.622  1.00  0.00     0.000 C 
BRANCH   2   3
ATOM      3  C   UNL     1       4.098  12.564  49.730  1.00  0.00     0.000 C 
BRANCH   3   4
ATOM      4  C   UNL     1       2.675  12.332  49.176  1.00  0.00     0.000 C 
BRANCH   4   5
ATOM      5  C   UNL     1       2.336  10.846  48.958  1.00  0.00     0.000 C 
BRANCH   5   6
ATOM      6  C   UNL     1       2.117  10.494  47.480  1.00  0.00     0.006 C 
BRANCH   6   7
ATOM      7  C   UNL     1       1.271   9.224  47.333  1.00  0.00     0.053 C 
BRANCH   7   8
ATOM      8  C   UNL     1      -0.117   9.455  47.849  1.00  0.00     0.041 C 
ATOM      9  O   UNL     1      -0.753   8.516  48.394  1.00  0.00    -0.550 OA
ATOM     10  O   UNL     1      -0.711  10.704  47.711  1.00  0.00    -0.550 OA
ENDBRANCH   7   8
ENDBRANCH   6   7
ENDBRANCH   5   6
ENDBRANCH   4   5
ENDBRANCH   3   4
ENDBRANCH   2   3
ENDBRANCH   1   2
BRANCH   1  11
ATOM     11  C   UNL     1       6.034  10.721  47.697  1.00  0.00     0.000 C 
BRANCH  11  12
ATOM     12  C   UNL     1       5.317  10.990  46.363  1.00  0.00     0.000 C 
BRANCH  12  13
ATOM     13  C   UNL     1       6.211  10.705  45.142  1.00  0.00     0.000 C 
BRANCH  13  14
ATOM     14  C   UNL     1       7.050  11.930  44.723  1.00  0.00     0.000 C 
BRANCH  14  15
ATOM     15  C   UNL     1       8.543  11.622  44.498  1.00  0.00     0.000 C 
BRANCH  15  16
ATOM     16  C   UNL     1       9.197  10.942  45.713  1.00  0.00     0.006 C 
BRANCH  16  17
ATOM     17  C   UNL     1       9.796   9.583  45.327  1.00  0.00     0.053 C 
BRANCH  17  18
ATOM     18  C   UNL     1       9.030   8.456  45.947  1.00  0.00     0.041 C 
ATOM     19  O   UNL     1       8.593   7.514  45.233  1.00  0.00    -0.550 OA
ATOM     20  O   UNL     1       8.774   8.455  47.313  1.00  0.00    -0.550 OA
ENDBRANCH  17  18
ENDBRANCH  16  17
ENDBRANCH  15  16
ENDBRANCH  14  15
ENDBRANCH  13  14
ENDBRANCH  12  13
ENDBRANCH  11  12
ENDBRANCH   1  11
TORSDOF 15
ENDMDL
