MODEL 1
REMARK VINA RESULT:    -4.573      0.000      0.000
REMARK INTER + INTRA:         -10.782
REMARK INTER:                  -8.584
REMARK INTRA:                  -2.198
REMARK UNBOUND:                -2.198
REMARK SMILES O=C([O-])CCCCCCCCCCCCCCC(=O)[O-]
REMARK SMILES IDX 10 1 9 2 8 3 7 4 6 5 5 6 4 7 2 8 1 9 3 10 11 11 12 12 13 13
REMARK SMILES IDX 14 14 15 15 16 16 17 17 18 18 19 19 20 20
REMARK H PARENT
REMARK Flexibility Score: inf
ROOT
ATOM      1  C   UNL     1      41.702  19.784   8.244  1.00  0.00     0.000 C 
ENDROOT
BRANCH   1   2
ATOM      2  C   UNL     1      42.701  20.435   7.270  1.00  0.00     0.000 C 
BRANCH   2   3
ATOM      3  C   UNL     1      43.249  21.775   7.784  1.00  0.00     0.000 C 
BRANCH   3   4
ATOM      4  C   UNL     1      43.473  21.729   9.303  1.00  0.00     0.000 C 
BRANCH   4   5
ATOM      5  C   UNL     1      42.933  22.978  10.019  1.00  0.00     0.000 C 
BRANCH   5   6
ATOM      6  C   UNL     1      42.769  22.768  11.531  1.00  0.00     0.006 C 
BRANCH   6   7
ATOM      7  C   UNL     1      42.655  21.279  11.868  1.00  0.00     0.053 C 
BRANCH   7   8
ATOM      8  C   UNL     1      42.794  21.063  13.343  1.00  0.00     0.041 C 
ATOM      9  O   UNL     1      43.905  21.244  13.907  1.00  0.00    -0.550 OA
ATOM     10  O   UNL     1      41.686  20.711  14.101  1.00  0.00    -0.550 OA
ENDBRANCH   7   8
ENDBRANCH   6   7
ENDBRANCH   5   6
ENDBRANCH   4   5
ENDBRANCH   3   4
ENDBRANCH   2   3
ENDBRANCH   1   2
BRANCH   1  11
ATOM     11  C   UNL     1      40.315  20.458   8.311  1.00  0.00     0.000 C 
BRANCH  11  12
ATOM     12  C   UNL     1      39.825  20.812   9.726  1.00  0.00     0.000 C 
BRANCH  12  13
ATOM     13  C   UNL     1      38.951  19.710  10.348  1.00  0.00     0.000 C 
BRANCH  13  14
ATOM     14  C   UNL     1      39.556  19.135  11.639  1.00  0.00     0.000 C 
BRANCH  14  15
ATOM     15  C   UNL     1      40.258  17.783  11.416  1.00  0.00     0.000 C 
BRANCH  15  16
ATOM     16  C   UNL     1      41.575  17.667  12.199  1.00  0.00     0.006 C 
BRANCH  16  17
ATOM     17  C   UNL     1      42.787  17.448  11.283  1.00  0.00     0.053 C 
BRANCH  17  18
ATOM     18  C   UNL     1      44.045  17.377  12.089  1.00  0.00     0.041 C 
ATOM     19  O   UNL     1      44.744  18.409  12.265  1.00  0.00    -0.550 OA
ATOM     20  O   UNL     1      44.470  16.160  12.609  1.00  0.00    -0.550 OA
ENDBRANCH  17  18
ENDBRANCH  16  17
ENDBRANCH  15  16
ENDBRANCH  14  15
ENDBRANCH  13  14
ENDBRANCH  12  13
ENDBRANCH  11  12
ENDBRANCH   1  11
TORSDOF 15
ENDMDL
MODEL 2
REMARK VINA RESULT:    -4.541      2.460      5.106
REMARK INTER + INTRA:         -10.721
REMARK INTER:                  -8.774
REMARK INTRA:                  -1.947
REMARK UNBOUND:                -2.198
REMARK SMILES O=C([O-])CCCCCCCCCCCCCCC(=O)[O-]
REMARK SMILES IDX 10 1 9 2 8 3 7 4 6 5 5 6 4 7 2 8 1 9 3 10 11 11 12 12 13 13
REMARK SMILES IDX 14 14 15 15 16 16 17 17 18 18 19 19 20 20
REMARK H PARENT
REMARK Flexibility Score: inf
ROOT
ATOM      1  C   UNL     1      40.167  17.895  11.119  1.00  0.00     0.000 C 
ENDROOT
BRANCH   1   2
ATOM      2  C   UNL     1      39.495  18.848  10.113  1.00  0.00     0.000 C 
BRANCH   2   3
ATOM      3  C   UNL     1      40.508  19.664   9.296  1.00  0.00     0.000 C 
BRANCH   3   4
ATOM      4  C   UNL     1      40.229  21.169   9.423  1.00  0.00     0.000 C 
BRANCH   4   5
ATOM      5  C   UNL     1      41.512  22.016   9.376  1.00  0.00     0.000 C 
BRANCH   5   6
ATOM      6  C   UNL     1      42.751  21.192   8.995  1.00  0.00     0.006 C 
BRANCH   6   7
ATOM      7  C   UNL     1      43.570  21.903   7.914  1.00  0.00     0.053 C 
BRANCH   7   8
ATOM      8  C   UNL     1      43.770  21.005   6.733  1.00  0.00     0.041 C 
ATOM      9  O   UNL     1      42.826  20.281   6.321  1.00  0.00    -0.550 OA
ATOM     10  O   UNL     1      44.983  21.005   6.057  1.00  0.00    -0.550 OA
ENDBRANCH   7   8
ENDBRANCH   6   7
ENDBRANCH   5   6
ENDBRANCH   4   5
ENDBRANCH   3   4
ENDBRANCH   2   3
ENDBRANCH   1   2
BRANCH   1  11
ATOM     11  C   UNL     1      41.709  17.936  11.134  1.00  0.00     0.000 C 
BRANCH  11  12
ATOM     12  C   UNL     1      42.376  17.115  12.253  1.00  0.00     0.000 C 
BRANCH  12  13
ATOM     13  C   UNL     1      43.557  17.851  12.909  1.00  0.00     0.000 C 
BRANCH  13  14
ATOM     14  C   UNL     1      43.945  19.132  12.153  1.00  0.00     0.000 C 
BRANCH  14  15
ATOM     15  C   UNL     1      43.888  20.388  13.041  1.00  0.00     0.000 C 
BRANCH  15  16
ATOM     16  C   UNL     1      42.541  21.120  12.941  1.00  0.00     0.006 C 
BRANCH  16  17
ATOM     17  C   UNL     1      41.976  21.503  14.315  1.00  0.00     0.053 C 
BRANCH  17  18
ATOM     18  C   UNL     1      40.953  20.504  14.757  1.00  0.00     0.041 C 
ATOM     19  O   UNL     1      40.561  19.607  13.966  1.00  0.00    -0.550 OA
ATOM     20  O   UNL     1      40.399  20.592  16.028  1.00  0.00    -0.550 OA
ENDBRANCH  17  18
ENDBRANCH  16  17
ENDBRANCH  15  16
ENDBRANCH  14  15
ENDBRANCH  13  14
ENDBRANCH  12  13
ENDBRANCH  11  12
ENDBRANCH   1  11
TORSDOF 15
ENDMDL
MODEL 3
REMARK VINA RESULT:    -4.531      3.022      5.342
REMARK INTER + INTRA:         -10.703
REMARK INTER:                  -9.171
REMARK INTRA:                  -1.532
REMARK UNBOUND:                -2.198
REMARK SMILES O=C([O-])CCCCCCCCCCCCCCC(=O)[O-]
REMARK SMILES IDX 10 1 9 2 8 3 7 4 6 5 5 6 4 7 2 8 1 9 3 10 11 11 12 12 13 13
REMARK SMILES IDX 14 14 15 15 16 16 17 17 18 18 19 19 20 20
REMARK H PARENT
REMARK Flexibility Score: inf
ROOT
ATOM      1  C   UNL     1      39.817  20.108  10.048  1.00  0.00     0.000 C 
ENDROOT
BRANCH   1   2
ATOM      2  C   UNL     1      40.328  21.027   8.924  1.00  0.00     0.000 C 
BRANCH   2   3
ATOM      3  C   UNL     1      41.834  20.873   8.665  1.00  0.00     0.000 C 
BRANCH   3   4
ATOM      4  C   UNL     1      42.577  22.186   8.953  1.00  0.00     0.000 C 
BRANCH   4   5
ATOM      5  C   UNL     1      43.825  22.366   8.073  1.00  0.00     0.000 C 
BRANCH   5   6
ATOM      6  C   UNL     1      43.820  21.446   6.844  1.00  0.00     0.006 C 
BRANCH   6   7
ATOM      7  C   UNL     1      44.394  22.164   5.619  1.00  0.00     0.053 C 
BRANCH   7   8
ATOM      8  C   UNL     1      44.926  21.173   4.632  1.00  0.00     0.041 C 
ATOM      9  O   UNL     1      44.540  19.975   4.667  1.00  0.00    -0.550 OA
ATOM     10  O   UNL     1      45.808  21.583   3.641  1.00  0.00    -0.550 OA
ENDBRANCH   7   8
ENDBRANCH   6   7
ENDBRANCH   5   6
ENDBRANCH   4   5
ENDBRANCH   3   4
ENDBRANCH   2   3
ENDBRANCH   1   2
BRANCH   1  11
ATOM     11  C   UNL     1      40.569  18.769  10.196  1.00  0.00     0.000 C 
BRANCH  11  12
ATOM     12  C   UNL     1      40.303  18.009  11.508  1.00  0.00     0.000 C 
BRANCH  12  13
ATOM     13  C   UNL     1      41.593  17.500  12.174  1.00  0.00     0.000 C 
BRANCH  13  14
ATOM     14  C   UNL     1      42.857  17.915  11.403  1.00  0.00     0.000 C 
BRANCH  14  15
ATOM     15  C   UNL     1      43.755  18.874  12.205  1.00  0.00     0.000 C 
BRANCH  15  16
ATOM     16  C   UNL     1      43.285  20.334  12.116  1.00  0.00     0.006 C 
BRANCH  16  17
ATOM     17  C   UNL     1      43.515  21.107  13.421  1.00  0.00     0.053 C 
BRANCH  17  18
ATOM     18  C   UNL     1      42.214  21.355  14.117  1.00  0.00     0.041 C 
ATOM     19  O   UNL     1      41.322  20.467  14.129  1.00  0.00    -0.550 OA
ATOM     20  O   UNL     1      41.969  22.586  14.715  1.00  0.00    -0.550 OA
ENDBRANCH  17  18
ENDBRANCH  16  17
ENDBRANCH  15  16
ENDBRANCH  14  15
ENDBRANCH  13  14
ENDBRANCH  12  13
ENDBRANCH  11  12
ENDBRANCH   1  11
TORSDOF 15
ENDMDL
MODEL 4
REMARK VINA RESULT:    -4.460      3.063      5.358
REMARK INTER + INTRA:         -10.569
REMARK INTER:                  -9.254
REMARK INTRA:                  -1.314
REMARK UNBOUND:                -2.198
REMARK SMILES O=C([O-])CCCCCCCCCCCCCCC(=O)[O-]
REMARK SMILES IDX 10 1 9 2 8 3 7 4 6 5 5 6 4 7 2 8 1 9 3 10 11 11 12 12 13 13
REMARK SMILES IDX 14 14 15 15 16 16 17 17 18 18 19 19 20 20
REMARK H PARENT
REMARK Flexibility Score: inf
ROOT
ATOM      1  C   UNL     1      40.576  18.919  10.053  1.00  0.00     0.000 C 
ENDROOT
BRANCH   1   2
ATOM      2  C   UNL     1      40.305  17.924  11.196  1.00  0.00     0.000 C 
BRANCH   2   3
ATOM      3  C   UNL     1      41.417  17.916  12.257  1.00  0.00     0.000 C 
BRANCH   3   4
ATOM      4  C   UNL     1      42.789  17.674  11.610  1.00  0.00     0.000 C 
BRANCH   4   5
ATOM      5  C   UNL     1      43.883  18.593  12.179  1.00  0.00     0.000 C 
BRANCH   5   6
ATOM      6  C   UNL     1      43.498  20.078  12.119  1.00  0.00     0.006 C 
BRANCH   6   7
ATOM      7  C   UNL     1      43.590  20.724  13.505  1.00  0.00     0.053 C 
BRANCH   7   8
ATOM      8  C   UNL     1      42.891  22.047  13.514  1.00  0.00     0.041 C 
ATOM      9  O   UNL     1      42.102  22.341  14.450  1.00  0.00    -0.550 OA
ATOM     10  O   UNL     1      43.149  22.976  12.514  1.00  0.00    -0.550 OA
ENDBRANCH   7   8
ENDBRANCH   6   7
ENDBRANCH   5   6
ENDBRANCH   4   5
ENDBRANCH   3   4
ENDBRANCH   2   3
ENDBRANCH   1   2
BRANCH   1  11
ATOM     11  C   UNL     1      39.658  20.159  10.029  1.00  0.00     0.000 C 
BRANCH  11  12
ATOM     12  C   UNL     1      40.185  21.350   9.209  1.00  0.00     0.000 C 
BRANCH  12  13
ATOM     13  C   UNL     1      41.623  21.745   9.589  1.00  0.00     0.000 C 
BRANCH  13  14
ATOM     14  C   UNL     1      42.632  21.443   8.469  1.00  0.00     0.000 C 
BRANCH  14  15
ATOM     15  C   UNL     1      43.604  22.609   8.214  1.00  0.00     0.000 C 
BRANCH  15  16
ATOM     16  C   UNL     1      44.282  22.521   6.838  1.00  0.00     0.006 C 
BRANCH  16  17
ATOM     17  C   UNL     1      44.123  21.138   6.191  1.00  0.00     0.053 C 
BRANCH  17  18
ATOM     18  C   UNL     1      44.747  21.123   4.831  1.00  0.00     0.041 C 
ATOM     19  O   UNL     1      44.668  20.095   4.109  1.00  0.00    -0.550 OA
ATOM     20  O   UNL     1      45.455  22.230   4.379  1.00  0.00    -0.550 OA
ENDBRANCH  17  18
ENDBRANCH  16  17
ENDBRANCH  15  16
ENDBRANCH  14  15
ENDBRANCH  13  14
ENDBRANCH  12  13
ENDBRANCH  11  12
ENDBRANCH   1  11
TORSDOF 15
ENDMDL
MODEL 5
REMARK VINA RESULT:    -4.444      3.337      5.598
REMARK INTER + INTRA:         -10.540
REMARK INTER:                  -8.783
REMARK INTRA:                  -1.757
REMARK UNBOUND:                -2.198
REMARK SMILES O=C([O-])CCCCCCCCCCCCCCC(=O)[O-]
REMARK SMILES IDX 10 1 9 2 8 3 7 4 6 5 5 6 4 7 2 8 1 9 3 10 11 11 12 12 13 13
REMARK SMILES IDX 14 14 15 15 16 16 17 17 18 18 19 19 20 20
REMARK H PARENT
REMARK Flexibility Score: inf
ROOT
ATOM      1  C   UNL     1      42.594  21.074  10.519  1.00  0.00     0.000 C 
ENDROOT
BRANCH   1   2
ATOM      2  C   UNL     1      41.520  21.806   9.695  1.00  0.00     0.000 C 
BRANCH   2   3
ATOM      3  C   UNL     1      41.016  20.980   8.502  1.00  0.00     0.000 C 
BRANCH   3   4
ATOM      4  C   UNL     1      42.069  19.951   8.064  1.00  0.00     0.000 C 
BRANCH   4   5
ATOM      5  C   UNL     1      42.722  20.308   6.718  1.00  0.00     0.000 C 
BRANCH   5   6
ATOM      6  C   UNL     1      43.883  21.302   6.869  1.00  0.00     0.006 C 
BRANCH   6   7
ATOM      7  C   UNL     1      44.273  21.899   5.514  1.00  0.00     0.053 C 
BRANCH   7   8
ATOM      8  C   UNL     1      45.370  21.099   4.885  1.00  0.00     0.041 C 
ATOM      9  O   UNL     1      46.395  20.797   5.551  1.00  0.00    -0.550 OA
ATOM     10  O   UNL     1      45.238  20.644   3.580  1.00  0.00    -0.550 OA
ENDBRANCH   7   8
ENDBRANCH   6   7
ENDBRANCH   5   6
ENDBRANCH   4   5
ENDBRANCH   3   4
ENDBRANCH   2   3
ENDBRANCH   1   2
BRANCH   1  11
ATOM     11  C   UNL     1      42.764  21.574  11.969  1.00  0.00     0.000 C 
BRANCH  11  12
ATOM     12  C   UNL     1      43.505  20.609  12.913  1.00  0.00     0.000 C 
BRANCH  12  13
ATOM     13  C   UNL     1      43.906  19.293  12.225  1.00  0.00     0.000 C 
BRANCH  13  14
ATOM     14  C   UNL     1      43.212  18.069  12.844  1.00  0.00     0.000 C 
BRANCH  14  15
ATOM     15  C   UNL     1      42.100  17.498  11.947  1.00  0.00     0.000 C 
BRANCH  15  16
ATOM     16  C   UNL     1      40.778  18.269  12.084  1.00  0.00     0.006 C 
BRANCH  16  17
ATOM     17  C   UNL     1      39.948  18.248  10.793  1.00  0.00     0.053 C 
BRANCH  17  18
ATOM     18  C   UNL     1      38.631  18.925  11.008  1.00  0.00     0.041 C 
ATOM     19  O   UNL     1      38.402  20.046  10.484  1.00  0.00    -0.550 OA
ATOM     20  O   UNL     1      37.672  18.337  11.824  1.00  0.00    -0.550 OA
ENDBRANCH  17  18
ENDBRANCH  16  17
ENDBRANCH  15  16
ENDBRANCH  14  15
ENDBRANCH  13  14
ENDBRANCH  12  13
ENDBRANCH  11  12
ENDBRANCH   1  11
TORSDOF 15
ENDMDL
MODEL 6
REMARK VINA RESULT:    -4.437      3.315      5.698
REMARK INTER + INTRA:         -10.527
REMARK INTER:                  -8.614
REMARK INTRA:                  -1.913
REMARK UNBOUND:                -2.198
REMARK SMILES O=C([O-])CCCCCCCCCCCCCCC(=O)[O-]
REMARK SMILES IDX 10 1 9 2 8 3 7 4 6 5 5 6 4 7 2 8 1 9 3 10 11 11 12 12 13 13
REMARK SMILES IDX 14 14 15 15 16 16 17 17 18 18 19 19 20 20
REMARK H PARENT
REMARK Flexibility Score: inf
ROOT
ATOM      1  C   UNL     1      43.139  21.728  10.851  1.00  0.00     0.000 C 
ENDROOT
BRANCH   1   2
ATOM      2  C   UNL     1      42.751  21.732  12.341  1.00  0.00     0.000 C 
BRANCH   2   3
ATOM      3  C   UNL     1      43.064  20.402  13.043  1.00  0.00     0.000 C 
BRANCH   3   4
ATOM      4  C   UNL     1      43.133  19.250  12.029  1.00  0.00     0.000 C 
BRANCH   4   5
ATOM      5  C   UNL     1      42.104  18.144  12.318  1.00  0.00     0.000 C 
BRANCH   5   6
ATOM      6  C   UNL     1      40.913  18.176  11.350  1.00  0.00     0.006 C 
BRANCH   6   7
ATOM      7  C   UNL     1      39.723  18.915  11.969  1.00  0.00     0.053 C 
BRANCH   7   8
ATOM      8  C   UNL     1      38.494  18.717  11.138  1.00  0.00     0.041 C 
ATOM      9  O   UNL     1      38.587  18.601   9.888  1.00  0.00    -0.550 OA
ATOM     10  O   UNL     1      37.251  18.612  11.749  1.00  0.00    -0.550 OA
ENDBRANCH   7   8
ENDBRANCH   6   7
ENDBRANCH   5   6
ENDBRANCH   4   5
ENDBRANCH   3   4
ENDBRANCH   2   3
ENDBRANCH   1   2
BRANCH   1  11
ATOM     11  C   UNL     1      42.089  22.335   9.897  1.00  0.00     0.000 C 
BRANCH  11  12
ATOM     12  C   UNL     1      40.873  21.438   9.604  1.00  0.00     0.000 C 
BRANCH  12  13
ATOM     13  C   UNL     1      40.868  20.890   8.167  1.00  0.00     0.000 C 
BRANCH  13  14
ATOM     14  C   UNL     1      41.988  19.864   7.923  1.00  0.00     0.000 C 
BRANCH  14  15
ATOM     15  C   UNL     1      42.786  20.148   6.639  1.00  0.00     0.000 C 
BRANCH  15  16
ATOM     16  C   UNL     1      43.855  21.235   6.837  1.00  0.00     0.006 C 
BRANCH  16  17
ATOM     17  C   UNL     1      44.354  21.820   5.509  1.00  0.00     0.053 C 
BRANCH  17  18
ATOM     18  C   UNL     1      45.716  21.293   5.185  1.00  0.00     0.041 C 
ATOM     19  O   UNL     1      46.126  21.285   3.995  1.00  0.00    -0.550 OA
ATOM     20  O   UNL     1      46.517  20.770   6.193  1.00  0.00    -0.550 OA
ENDBRANCH  17  18
ENDBRANCH  16  17
ENDBRANCH  15  16
ENDBRANCH  14  15
ENDBRANCH  13  14
ENDBRANCH  12  13
ENDBRANCH  11  12
ENDBRANCH   1  11
TORSDOF 15
ENDMDL
MODEL 7
REMARK VINA RESULT:    -4.423      3.164      5.801
REMARK INTER + INTRA:         -10.499
REMARK INTER:                  -8.716
REMARK INTRA:                  -1.783
REMARK UNBOUND:                -2.198
REMARK SMILES O=C([O-])CCCCCCCCCCCCCCC(=O)[O-]
REMARK SMILES IDX 10 1 9 2 8 3 7 4 6 5 5 6 4 7 2 8 1 9 3 10 11 11 12 12 13 13
REMARK SMILES IDX 14 14 15 15 16 16 17 17 18 18 19 19 20 20
REMARK H PARENT
REMARK Flexibility Score: inf
ROOT
ATOM      1  C   UNL     1      42.510  21.250  12.676  1.00  0.00     0.000 C 
ENDROOT
BRANCH   1   2
ATOM      2  C   UNL     1      43.678  20.436  13.263  1.00  0.00     0.000 C 
BRANCH   2   3
ATOM      3  C   UNL     1      43.875  19.084  12.562  1.00  0.00     0.000 C 
BRANCH   3   4
ATOM      4  C   UNL     1      42.527  18.384  12.331  1.00  0.00     0.000 C 
BRANCH   4   5
ATOM      5  C   UNL     1      42.351  17.899  10.883  1.00  0.00     0.000 C 
BRANCH   5   6
ATOM      6  C   UNL     1      40.955  18.208  10.321  1.00  0.00     0.006 C 
BRANCH   6   7
ATOM      7  C   UNL     1      39.953  18.460  11.452  1.00  0.00     0.053 C 
BRANCH   7   8
ATOM      8  C   UNL     1      38.755  19.194  10.936  1.00  0.00     0.041 C 
ATOM      9  O   UNL     1      37.598  18.843  11.287  1.00  0.00    -0.550 OA
ATOM     10  O   UNL     1      38.919  20.296  10.107  1.00  0.00    -0.550 OA
ENDBRANCH   7   8
ENDBRANCH   6   7
ENDBRANCH   5   6
ENDBRANCH   4   5
ENDBRANCH   3   4
ENDBRANCH   2   3
ENDBRANCH   1   2
BRANCH   1  11
ATOM     11  C   UNL     1      42.875  22.669  12.193  1.00  0.00     0.000 C 
BRANCH  11  12
ATOM     12  C   UNL     1      42.739  22.902  10.677  1.00  0.00     0.000 C 
BRANCH  12  13
ATOM     13  C   UNL     1      42.225  21.661   9.928  1.00  0.00     0.000 C 
BRANCH  13  14
ATOM     14  C   UNL     1      42.978  21.415   8.610  1.00  0.00     0.000 C 
BRANCH  14  15
ATOM     15  C   UNL     1      42.201  20.506   7.641  1.00  0.00     0.000 C 
BRANCH  15  16
ATOM     16  C   UNL     1      42.986  20.208   6.354  1.00  0.00     0.006 C 
BRANCH  16  17
ATOM     17  C   UNL     1      44.011  21.301   6.023  1.00  0.00     0.053 C 
BRANCH  17  18
ATOM     18  C   UNL     1      45.162  20.724   5.262  1.00  0.00     0.041 C 
ATOM     19  O   UNL     1      44.976  20.193   4.136  1.00  0.00    -0.550 OA
ATOM     20  O   UNL     1      46.437  20.734   5.817  1.00  0.00    -0.550 OA
ENDBRANCH  17  18
ENDBRANCH  16  17
ENDBRANCH  15  16
ENDBRANCH  14  15
ENDBRANCH  13  14
ENDBRANCH  12  13
ENDBRANCH  11  12
ENDBRANCH   1  11
TORSDOF 15
ENDMDL
MODEL 8
REMARK VINA RESULT:    -4.414      1.753      3.824
REMARK INTER + INTRA:         -10.482
REMARK INTER:                  -8.783
REMARK INTRA:                  -1.699
REMARK UNBOUND:                -2.198
REMARK SMILES O=C([O-])CCCCCCCCCCCCCCC(=O)[O-]
REMARK SMILES IDX 10 1 9 2 8 3 7 4 6 5 5 6 4 7 2 8 1 9 3 10 11 11 12 12 13 13
REMARK SMILES IDX 14 14 15 15 16 16 17 17 18 18 19 19 20 20
REMARK H PARENT
REMARK Flexibility Score: inf
ROOT
ATOM      1  C   UNL     1      42.539  22.263   8.832  1.00  0.00     0.000 C 
ENDROOT
BRANCH   1   2
ATOM      2  C   UNL     1      43.466  21.601   7.796  1.00  0.00     0.000 C 
BRANCH   2   3
ATOM      3  C   UNL     1      42.775  20.480   7.006  1.00  0.00     0.000 C 
BRANCH   3   4
ATOM      4  C   UNL     1      41.546  19.954   7.762  1.00  0.00     0.000 C 
BRANCH   4   5
ATOM      5  C   UNL     1      41.814  18.617   8.472  1.00  0.00     0.000 C 
BRANCH   5   6
ATOM      6  C   UNL     1      41.085  18.505   9.819  1.00  0.00     0.006 C 
BRANCH   6   7
ATOM      7  C   UNL     1      39.889  19.460   9.875  1.00  0.00     0.053 C 
BRANCH   7   8
ATOM      8  C   UNL     1      39.064  19.196  11.096  1.00  0.00     0.041 C 
ATOM      9  O   UNL     1      39.620  19.054  12.217  1.00  0.00    -0.550 OA
ATOM     10  O   UNL     1      37.679  19.156  11.004  1.00  0.00    -0.550 OA
ENDBRANCH   7   8
ENDBRANCH   6   7
ENDBRANCH   5   6
ENDBRANCH   4   5
ENDBRANCH   3   4
ENDBRANCH   2   3
ENDBRANCH   1   2
BRANCH   1  11
ATOM     11  C   UNL     1      43.240  22.779  10.106  1.00  0.00     0.000 C 
BRANCH  11  12
ATOM     12  C   UNL     1      42.325  22.964  11.330  1.00  0.00     0.000 C 
BRANCH  12  13
ATOM     13  C   UNL     1      43.110  23.110  12.645  1.00  0.00     0.000 C 
BRANCH  13  14
ATOM     14  C   UNL     1      42.847  21.951  13.620  1.00  0.00     0.000 C 
BRANCH  14  15
ATOM     15  C   UNL     1      43.795  20.759  13.397  1.00  0.00     0.000 C 
BRANCH  15  16
ATOM     16  C   UNL     1      43.093  19.563  12.736  1.00  0.00     0.006 C 
BRANCH  16  17
ATOM     17  C   UNL     1      44.084  18.538  12.168  1.00  0.00     0.053 C 
BRANCH  17  18
ATOM     18  C   UNL     1      43.635  17.146  12.483  1.00  0.00     0.041 C 
ATOM     19  O   UNL     1      44.478  16.219  12.598  1.00  0.00    -0.550 OA
ATOM     20  O   UNL     1      42.280  16.864  12.605  1.00  0.00    -0.550 OA
ENDBRANCH  17  18
ENDBRANCH  16  17
ENDBRANCH  15  16
ENDBRANCH  14  15
ENDBRANCH  13  14
ENDBRANCH  12  13
ENDBRANCH  11  12
ENDBRANCH   1  11
TORSDOF 15
ENDMDL
MODEL 9
REMARK VINA RESULT:    -4.311      2.259      4.017
REMARK INTER + INTRA:         -10.290
REMARK INTER:                  -8.536
REMARK INTRA:                  -1.754
REMARK UNBOUND:                -2.198
REMARK SMILES O=C([O-])CCCCCCCCCCCCCCC(=O)[O-]
REMARK SMILES IDX 10 1 9 2 8 3 7 4 6 5 5 6 4 7 2 8 1 9 3 10 11 11 12 12 13 13
REMARK SMILES IDX 14 14 15 15 16 16 17 17 18 18 19 19 20 20
REMARK H PARENT
REMARK Flexibility Score: inf
ROOT
ATOM      1  C   UNL     1      42.420  22.509  10.896  1.00  0.00     0.000 C 
ENDROOT
BRANCH   1   2
ATOM      2  C   UNL     1      43.210  22.986   9.664  1.00  0.00     0.000 C 
BRANCH   2   3
ATOM      3  C   UNL     1      43.152  21.990   8.496  1.00  0.00     0.000 C 
BRANCH   3   4
ATOM      4  C   UNL     1      41.814  21.237   8.483  1.00  0.00     0.000 C 
BRANCH   4   5
ATOM      5  C   UNL     1      41.982  19.735   8.195  1.00  0.00     0.000 C 
BRANCH   5   6
ATOM      6  C   UNL     1      41.257  18.851   9.221  1.00  0.00     0.006 C 
BRANCH   6   7
ATOM      7  C   UNL     1      40.095  19.608   9.871  1.00  0.00     0.053 C 
BRANCH   7   8
ATOM      8  C   UNL     1      39.172  18.655  10.565  1.00  0.00     0.041 C 
ATOM      9  O   UNL     1      37.931  18.714  10.360  1.00  0.00    -0.550 OA
ATOM     10  O   UNL     1      39.687  17.671  11.398  1.00  0.00    -0.550 OA
ENDBRANCH   7   8
ENDBRANCH   6   7
ENDBRANCH   5   6
ENDBRANCH   4   5
ENDBRANCH   3   4
ENDBRANCH   2   3
ENDBRANCH   1   2
BRANCH   1  11
ATOM     11  C   UNL     1      43.089  22.794  12.257  1.00  0.00     0.000 C 
BRANCH  11  12
ATOM     12  C   UNL     1      43.075  21.621  13.254  1.00  0.00     0.000 C 
BRANCH  12  13
ATOM     13  C   UNL     1      42.415  20.357  12.677  1.00  0.00     0.000 C 
BRANCH  13  14
ATOM     14  C   UNL     1      43.432  19.240  12.388  1.00  0.00     0.000 C 
BRANCH  14  15
ATOM     15  C   UNL     1      42.927  17.850  12.816  1.00  0.00     0.000 C 
BRANCH  15  16
ATOM     16  C   UNL     1      43.462  16.726  11.915  1.00  0.00     0.006 C 
BRANCH  16  17
ATOM     17  C   UNL     1      44.877  16.281  12.307  1.00  0.00     0.053 C 
BRANCH  17  18
ATOM     18  C   UNL     1      44.965  14.788  12.343  1.00  0.00     0.041 C 
ATOM     19  O   UNL     1      46.055  14.210  12.096  1.00  0.00    -0.550 OA
ATOM     20  O   UNL     1      43.829  14.031  12.604  1.00  0.00    -0.550 OA
ENDBRANCH  17  18
ENDBRANCH  16  17
ENDBRANCH  15  16
ENDBRANCH  14  15
ENDBRANCH  13  14
ENDBRANCH  12  13
ENDBRANCH  11  12
ENDBRANCH   1  11
TORSDOF 15
ENDMDL
