MODEL 1
REMARK VINA RESULT:    -4.139      0.000      0.000
REMARK INTER + INTRA:          -6.095
REMARK INTER:                  -5.591
REMARK INTRA:                  -0.504
REMARK UNBOUND:                -0.504
REMARK SMILES CCCCCCCC(=O)[O-]
REMARK SMILES IDX 5 1 6 2 7 3 8 4 9 5 10 6 4 7 3 8 2 9 1 10
REMARK H PARENT
REMARK Flexibility Score: inf
ROOT
ATOM      1  C   UNL     1     -10.016   4.680  -7.656  1.00  0.00     0.000 C 
ENDROOT
BRANCH   1   2
ATOM      2  C   UNL     1      -8.872   3.653  -7.704  1.00  0.00     0.006 C 
BRANCH   2   3
ATOM      3  C   UNL     1      -9.132   2.547  -8.734  1.00  0.00     0.053 C 
BRANCH   3   4
ATOM      4  C   UNL     1      -8.060   2.498  -9.781  1.00  0.00     0.041 C 
ATOM      5  O   UNL     1      -6.974   1.904  -9.549  1.00  0.00    -0.550 OA
ATOM      6  O   UNL     1      -8.251   3.133 -11.001  1.00  0.00    -0.550 OA
ENDBRANCH   3   4
ENDBRANCH   2   3
ENDBRANCH   1   2
BRANCH   1   7
ATOM      7  C   UNL     1     -10.388   5.217  -9.048  1.00  0.00     0.000 C 
BRANCH   7   8
ATOM      8  C   UNL     1      -9.848   6.632  -9.302  1.00  0.00    -0.000 C 
BRANCH   8   9
ATOM      9  C   UNL     1      -8.493   6.581 -10.018  1.00  0.00    -0.003 C 
ATOM     10  C   UNL     1      -7.345   6.843  -9.048  1.00  0.00     0.004 C 
ENDBRANCH   8   9
ENDBRANCH   7   8
ENDBRANCH   1   7
TORSDOF 6
ENDMDL
MODEL 2
REMARK VINA RESULT:    -4.044      1.166      1.670
REMARK INTER + INTRA:          -5.967
REMARK INTER:                  -5.335
REMARK INTRA:                  -0.632
REMARK UNBOUND:                -0.504
REMARK SMILES CCCCCCCC(=O)[O-]
REMARK SMILES IDX 5 1 6 2 7 3 8 4 9 5 10 6 4 7 3 8 2 9 1 10
REMARK H PARENT
REMARK Flexibility Score: inf
ROOT
ATOM      1  C   UNL     1     -10.665   5.001  -8.982  1.00  0.00     0.000 C 
ENDROOT
BRANCH   1   2
ATOM      2  C   UNL     1     -10.169   4.535  -7.603  1.00  0.00     0.006 C 
BRANCH   2   3
ATOM      3  C   UNL     1      -8.818   3.812  -7.689  1.00  0.00     0.053 C 
BRANCH   3   4
ATOM      4  C   UNL     1      -8.855   2.680  -8.671  1.00  0.00     0.041 C 
ATOM      5  O   UNL     1      -8.119   2.702  -9.693  1.00  0.00    -0.550 OA
ATOM      6  O   UNL     1      -9.724   1.615  -8.471  1.00  0.00    -0.550 OA
ENDBRANCH   3   4
ENDBRANCH   2   3
ENDBRANCH   1   2
BRANCH   1   7
ATOM      7  C   UNL     1      -9.930   6.255  -9.484  1.00  0.00     0.000 C 
BRANCH   7   8
ATOM      8  C   UNL     1      -9.132   6.000 -10.770  1.00  0.00    -0.000 C 
BRANCH   8   9
ATOM      9  C   UNL     1      -7.659   6.386 -10.586  1.00  0.00    -0.003 C 
ATOM     10  C   UNL     1      -7.381   6.842  -9.157  1.00  0.00     0.004 C 
ENDBRANCH   8   9
ENDBRANCH   7   8
ENDBRANCH   1   7
TORSDOF 6
ENDMDL
MODEL 3
REMARK VINA RESULT:    -4.025      1.467      1.843
REMARK INTER + INTRA:          -5.941
REMARK INTER:                  -5.427
REMARK INTRA:                  -0.514
REMARK UNBOUND:                -0.504
REMARK SMILES CCCCCCCC(=O)[O-]
REMARK SMILES IDX 5 1 6 2 7 3 8 4 9 5 10 6 4 7 3 8 2 9 1 10
REMARK H PARENT
REMARK Flexibility Score: inf
ROOT
ATOM      1  C   UNL     1     -10.182   4.615  -7.872  1.00  0.00     0.000 C 
ENDROOT
BRANCH   1   2
ATOM      2  C   UNL     1      -8.922   3.762  -7.646  1.00  0.00     0.006 C 
BRANCH   2   3
ATOM      3  C   UNL     1      -8.650   2.812  -8.820  1.00  0.00     0.053 C 
BRANCH   3   4
ATOM      4  C   UNL     1      -9.297   1.475  -8.616  1.00  0.00     0.041 C 
ATOM      5  O   UNL     1     -10.461   1.263  -9.044  1.00  0.00    -0.550 OA
ATOM      6  O   UNL     1      -8.623   0.475  -7.926  1.00  0.00    -0.550 OA
ENDBRANCH   3   4
ENDBRANCH   2   3
ENDBRANCH   1   2
BRANCH   1   7
ATOM      7  C   UNL     1     -10.274   5.166  -9.304  1.00  0.00     0.000 C 
BRANCH   7   8
ATOM      8  C   UNL     1      -9.853   6.639  -9.401  1.00  0.00    -0.000 C 
BRANCH   8   9
ATOM      9  C   UNL     1      -8.464   6.772 -10.038  1.00  0.00    -0.003 C 
ATOM     10  C   UNL     1      -7.373   6.839  -8.975  1.00  0.00     0.004 C 
ENDBRANCH   8   9
ENDBRANCH   7   8
ENDBRANCH   1   7
TORSDOF 6
ENDMDL
MODEL 4
REMARK VINA RESULT:    -3.958      0.649      1.011
REMARK INTER + INTRA:          -5.850
REMARK INTER:                  -5.461
REMARK INTRA:                  -0.389
REMARK UNBOUND:                -0.504
REMARK SMILES CCCCCCCC(=O)[O-]
REMARK SMILES IDX 5 1 6 2 7 3 8 4 9 5 10 6 4 7 3 8 2 9 1 10
REMARK H PARENT
REMARK Flexibility Score: inf
ROOT
ATOM      1  C   UNL     1      -8.873   3.776  -7.608  1.00  0.00     0.000 C 
ENDROOT
BRANCH   1   2
ATOM      2  C   UNL     1      -9.706   2.852  -8.512  1.00  0.00     0.006 C 
BRANCH   2   3
ATOM      3  C   UNL     1      -8.914   1.617  -8.963  1.00  0.00     0.053 C 
BRANCH   3   4
ATOM      4  C   UNL     1      -7.836   1.974  -9.940  1.00  0.00     0.041 C 
ATOM      5  O   UNL     1      -6.681   1.487  -9.816  1.00  0.00    -0.550 OA
ATOM      6  O   UNL     1      -8.100   2.866 -10.972  1.00  0.00    -0.550 OA
ENDBRANCH   3   4
ENDBRANCH   2   3
ENDBRANCH   1   2
BRANCH   1   7
ATOM      7  C   UNL     1      -9.275   5.254  -7.740  1.00  0.00     0.000 C 
BRANCH   7   8
ATOM      8  C   UNL     1      -9.707   5.626  -9.166  1.00  0.00    -0.000 C 
BRANCH   8   9
ATOM      9  C   UNL     1      -8.905   6.825  -9.687  1.00  0.00    -0.003 C 
ATOM     10  C   UNL     1      -7.490   6.832  -9.118  1.00  0.00     0.004 C 
ENDBRANCH   8   9
ENDBRANCH   7   8
ENDBRANCH   1   7
TORSDOF 6
ENDMDL
MODEL 5
REMARK VINA RESULT:    -3.787      2.041      4.102
REMARK INTER + INTRA:          -5.619
REMARK INTER:                  -5.201
REMARK INTRA:                  -0.418
REMARK UNBOUND:                -0.504
REMARK SMILES CCCCCCCC(=O)[O-]
REMARK SMILES IDX 5 1 6 2 7 3 8 4 9 5 10 6 4 7 3 8 2 9 1 10
REMARK H PARENT
REMARK Flexibility Score: inf
ROOT
ATOM      1  C   UNL     1      -9.917   4.868  -7.923  1.00  0.00     0.000 C 
ENDROOT
BRANCH   1   2
ATOM      2  C   UNL     1      -9.950   5.420  -9.359  1.00  0.00     0.006 C 
BRANCH   2   3
ATOM      3  C   UNL     1      -9.379   6.842  -9.444  1.00  0.00     0.053 C 
BRANCH   3   4
ATOM      4  C   UNL     1      -7.889   6.835  -9.608  1.00  0.00     0.041 C 
ATOM      5  O   UNL     1      -7.142   7.123  -8.636  1.00  0.00    -0.550 OA
ATOM      6  O   UNL     1      -7.328   6.538 -10.844  1.00  0.00    -0.550 OA
ENDBRANCH   3   4
ENDBRANCH   2   3
ENDBRANCH   1   2
BRANCH   1   7
ATOM      7  C   UNL     1      -8.936   3.695  -7.763  1.00  0.00     0.000 C 
BRANCH   7   8
ATOM      8  C   UNL     1      -8.424   3.162  -9.108  1.00  0.00    -0.000 C 
BRANCH   8   9
ATOM      9  C   UNL     1      -9.127   1.852  -9.483  1.00  0.00    -0.003 C 
ATOM     10  C   UNL     1      -9.084   0.853  -8.330  1.00  0.00     0.004 C 
ENDBRANCH   8   9
ENDBRANCH   7   8
ENDBRANCH   1   7
TORSDOF 6
ENDMDL
MODEL 6
REMARK VINA RESULT:    -3.749      1.745      2.533
REMARK INTER + INTRA:          -5.569
REMARK INTER:                  -4.990
REMARK INTRA:                  -0.579
REMARK UNBOUND:                -0.504
REMARK SMILES CCCCCCCC(=O)[O-]
REMARK SMILES IDX 5 1 6 2 7 3 8 4 9 5 10 6 4 7 3 8 2 9 1 10
REMARK H PARENT
REMARK Flexibility Score: inf
ROOT
ATOM      1  C   UNL     1      -8.562   6.334  -8.358  1.00  0.00     0.000 C 
ENDROOT
BRANCH   1   2
ATOM      2  C   UNL     1      -9.531   5.170  -8.093  1.00  0.00     0.006 C 
BRANCH   2   3
ATOM      3  C   UNL     1      -8.812   3.934  -7.536  1.00  0.00     0.053 C 
BRANCH   3   4
ATOM      4  C   UNL     1      -8.967   2.747  -8.438  1.00  0.00     0.041 C 
ATOM      5  O   UNL     1      -7.965   2.261  -9.026  1.00  0.00    -0.550 OA
ATOM      6  O   UNL     1     -10.224   2.195  -8.650  1.00  0.00    -0.550 OA
ENDBRANCH   3   4
ENDBRANCH   2   3
ENDBRANCH   1   2
BRANCH   1   7
ATOM      7  C   UNL     1      -7.804   6.182  -9.688  1.00  0.00     0.000 C 
BRANCH   7   8
ATOM      8  C   UNL     1      -8.726   6.283 -10.911  1.00  0.00    -0.000 C 
BRANCH   8   9
ATOM      9  C   UNL     1      -8.613   5.030 -11.788  1.00  0.00    -0.003 C 
ATOM     10  C   UNL     1      -9.878   4.181 -11.704  1.00  0.00     0.004 C 
ENDBRANCH   8   9
ENDBRANCH   7   8
ENDBRANCH   1   7
TORSDOF 6
ENDMDL
MODEL 7
REMARK VINA RESULT:    -3.640      2.022      3.340
REMARK INTER + INTRA:          -5.421
REMARK INTER:                  -4.856
REMARK INTRA:                  -0.565
REMARK UNBOUND:                -0.504
REMARK SMILES CCCCCCCC(=O)[O-]
REMARK SMILES IDX 5 1 6 2 7 3 8 4 9 5 10 6 4 7 3 8 2 9 1 10
REMARK H PARENT
REMARK Flexibility Score: inf
ROOT
ATOM      1  C   UNL     1      -7.398   6.636 -10.347  1.00  0.00     0.000 C 
ENDROOT
BRANCH   1   2
ATOM      2  C   UNL     1      -7.437   6.432  -8.823  1.00  0.00     0.006 C 
BRANCH   2   3
ATOM      3  C   UNL     1      -8.597   5.525  -8.390  1.00  0.00     0.053 C 
BRANCH   3   4
ATOM      4  C   UNL     1      -8.137   4.125  -8.120  1.00  0.00     0.041 C 
ATOM      5  O   UNL     1      -8.398   3.573  -7.019  1.00  0.00    -0.550 OA
ATOM      6  O   UNL     1      -7.394   3.441  -9.074  1.00  0.00    -0.550 OA
ENDBRANCH   3   4
ENDBRANCH   2   3
ENDBRANCH   1   2
BRANCH   1   7
ATOM      7  C   UNL     1      -8.724   6.257 -11.028  1.00  0.00     0.000 C 
BRANCH   7   8
ATOM      8  C   UNL     1      -8.546   5.196 -12.123  1.00  0.00    -0.000 C 
BRANCH   8   9
ATOM      9  C   UNL     1      -9.464   3.993 -11.875  1.00  0.00    -0.003 C 
ATOM     10  C   UNL     1     -10.718   4.404 -11.109  1.00  0.00     0.004 C 
ENDBRANCH   8   9
ENDBRANCH   7   8
ENDBRANCH   1   7
TORSDOF 6
ENDMDL
MODEL 8
REMARK VINA RESULT:    -3.367     15.254     17.245
REMARK INTER + INTRA:          -5.052
REMARK INTER:                  -4.598
REMARK INTRA:                  -0.454
REMARK UNBOUND:                -0.504
REMARK SMILES CCCCCCCC(=O)[O-]
REMARK SMILES IDX 5 1 6 2 7 3 8 4 9 5 10 6 4 7 3 8 2 9 1 10
REMARK H PARENT
REMARK Flexibility Score: inf
ROOT
ATOM      1  C   UNL     1      -1.631 -10.761  -9.342  1.00  0.00     0.000 C 
ENDROOT
BRANCH   1   2
ATOM      2  C   UNL     1      -1.598 -12.299  -9.307  1.00  0.00     0.006 C 
BRANCH   2   3
ATOM      3  C   UNL     1      -0.165 -12.844  -9.249  1.00  0.00     0.053 C 
BRANCH   3   4
ATOM      4  C   UNL     1       0.662 -12.360 -10.402  1.00  0.00     0.041 C 
ATOM      5  O   UNL     1       1.769 -11.797 -10.196  1.00  0.00    -0.550 OA
ATOM      6  O   UNL     1       0.194 -12.504 -11.702  1.00  0.00    -0.550 OA
ENDBRANCH   3   4
ENDBRANCH   2   3
ENDBRANCH   1   2
BRANCH   1   7
ATOM      7  C   UNL     1      -2.658 -10.214 -10.346  1.00  0.00     0.000 C 
BRANCH   7   8
ATOM      8  C   UNL     1      -2.020  -9.326 -11.424  1.00  0.00    -0.000 C 
BRANCH   8   9
ATOM      9  C   UNL     1      -0.715  -8.700 -10.916  1.00  0.00    -0.003 C 
ATOM     10  C   UNL     1      -0.912  -7.233 -10.550  1.00  0.00     0.004 C 
ENDBRANCH   8   9
ENDBRANCH   7   8
ENDBRANCH   1   7
TORSDOF 6
ENDMDL
MODEL 9
REMARK VINA RESULT:    -3.333      1.453      2.276
REMARK INTER + INTRA:          -5.007
REMARK INTER:                  -4.484
REMARK INTRA:                  -0.523
REMARK UNBOUND:                -0.504
REMARK SMILES CCCCCCCC(=O)[O-]
REMARK SMILES IDX 5 1 6 2 7 3 8 4 9 5 10 6 4 7 3 8 2 9 1 10
REMARK H PARENT
REMARK Flexibility Score: inf
ROOT
ATOM      1  C   UNL     1     -10.985   3.871 -10.437  1.00  0.00     0.000 C 
ENDROOT
BRANCH   1   2
ATOM      2  C   UNL     1     -10.771   2.469  -9.843  1.00  0.00     0.006 C 
BRANCH   2   3
ATOM      3  C   UNL     1      -9.483   1.813 -10.358  1.00  0.00     0.053 C 
BRANCH   3   4
ATOM      4  C   UNL     1      -8.435   1.729  -9.290  1.00  0.00     0.041 C 
ATOM      5  O   UNL     1      -8.732   1.307  -8.142  1.00  0.00    -0.550 OA
ATOM      6  O   UNL     1      -7.136   2.145  -9.556  1.00  0.00    -0.550 OA
ENDBRANCH   3   4
ENDBRANCH   2   3
ENDBRANCH   1   2
BRANCH   1   7
ATOM      7  C   UNL     1     -10.997   4.973  -9.365  1.00  0.00     0.000 C 
BRANCH   7   8
ATOM      8  C   UNL     1     -10.551   4.465  -7.987  1.00  0.00    -0.000 C 
BRANCH   8   9
ATOM      9  C   UNL     1      -9.156   4.995  -7.632  1.00  0.00    -0.003 C 
ATOM     10  C   UNL     1      -8.774   6.179  -8.514  1.00  0.00     0.004 C 
ENDBRANCH   8   9
ENDBRANCH   7   8
ENDBRANCH   1   7
TORSDOF 6
ENDMDL
