MODEL 1
REMARK VINA RESULT:    -2.354      0.000      0.000
REMARK INTER + INTRA:          -2.354
REMARK INTER:                  -2.354
REMARK INTRA:                   0.000
REMARK UNBOUND:                 0.000
REMARK SMILES CC(=O)[O-]
REMARK SMILES IDX 1 1 2 2 3 3 4 4
REMARK H PARENT
REMARK Flexibility Score: inf
ROOT
ATOM      1  C   UNL     1      15.683  11.213   0.850  1.00  0.00     0.063 C 
ATOM      2  C   UNL     1      17.123  11.335   1.213  1.00  0.00     0.038 C 
ATOM      3  O   UNL     1      17.663  12.470   1.286  1.00  0.00    -0.550 OA
ATOM      4  O   UNL     1      17.888  10.194   1.419  1.00  0.00    -0.550 OA
ENDROOT
TORSDOF 0
ENDMDL
MODEL 2
REMARK VINA RESULT:    -2.202      1.854      2.221
REMARK INTER + INTRA:          -2.202
REMARK INTER:                  -2.202
REMARK INTRA:                   0.000
REMARK UNBOUND:                 0.000
REMARK SMILES CC(=O)[O-]
REMARK SMILES IDX 1 1 2 2 3 3 4 4
REMARK H PARENT
REMARK Flexibility Score: inf
ROOT
ATOM      1  C   UNL     1      17.525  10.726   1.496  1.00  0.00     0.063 C 
ATOM      2  C   UNL     1      16.492  11.411   0.670  1.00  0.00     0.038 C 
ATOM      3  O   UNL     1      15.288  11.418   1.039  1.00  0.00    -0.550 OA
ATOM      4  O   UNL     1      16.844  11.997  -0.539  1.00  0.00    -0.550 OA
ENDROOT
TORSDOF 0
ENDMDL
MODEL 3
REMARK VINA RESULT:    -2.160      1.783      2.006
REMARK INTER + INTRA:          -2.160
REMARK INTER:                  -2.160
REMARK INTRA:                   0.000
REMARK UNBOUND:                 0.000
REMARK SMILES CC(=O)[O-]
REMARK SMILES IDX 1 1 2 2 3 3 4 4
REMARK H PARENT
REMARK Flexibility Score: inf
ROOT
ATOM      1  C   UNL     1      17.467  10.833   1.608  1.00  0.00     0.063 C 
ATOM      2  C   UNL     1      16.562  11.338   0.538  1.00  0.00     0.038 C 
ATOM      3  O   UNL     1      16.975  12.193  -0.289  1.00  0.00    -0.550 OA
ATOM      4  O   UNL     1      15.242  10.909   0.482  1.00  0.00    -0.550 OA
ENDROOT
TORSDOF 0
ENDMDL
MODEL 4
REMARK VINA RESULT:    -2.091     12.151     12.181
REMARK INTER + INTRA:          -2.091
REMARK INTER:                  -2.091
REMARK INTRA:                   0.000
REMARK UNBOUND:                 0.000
REMARK SMILES CC(=O)[O-]
REMARK SMILES IDX 1 1 2 2 3 3 4 4
REMARK H PARENT
REMARK Flexibility Score: inf
ROOT
ATOM      1  C   UNL     1       5.544   8.216   3.815  1.00  0.00     0.063 C 
ATOM      2  C   UNL     1       6.053   6.894   3.352  1.00  0.00     0.038 C 
ATOM      3  O   UNL     1       5.955   6.568   2.140  1.00  0.00    -0.550 OA
ATOM      4  O   UNL     1       6.587   5.996   4.267  1.00  0.00    -0.550 OA
ENDROOT
TORSDOF 0
ENDMDL
MODEL 5
REMARK VINA RESULT:    -2.068     12.055     12.055
REMARK INTER + INTRA:          -2.068
REMARK INTER:                  -2.068
REMARK INTRA:                   0.000
REMARK UNBOUND:                 0.000
REMARK SMILES CC(=O)[O-]
REMARK SMILES IDX 1 1 2 2 3 3 4 4
REMARK H PARENT
REMARK Flexibility Score: inf
ROOT
ATOM      1  C   UNL     1       5.885   6.944   1.987  1.00  0.00     0.063 C 
ATOM      2  C   UNL     1       6.056   7.092   3.460  1.00  0.00     0.038 C 
ATOM      3  O   UNL     1       5.848   8.204   4.012  1.00  0.00    -0.550 OA
ATOM      4  O   UNL     1       6.498   6.018   4.221  1.00  0.00    -0.550 OA
ENDROOT
TORSDOF 0
ENDMDL
MODEL 6
REMARK VINA RESULT:    -2.061     17.454     17.924
REMARK INTER + INTRA:          -2.061
REMARK INTER:                  -2.061
REMARK INTRA:                   0.000
REMARK UNBOUND:                 0.000
REMARK SMILES CC(=O)[O-]
REMARK SMILES IDX 1 1 2 2 3 3 4 4
REMARK H PARENT
REMARK Flexibility Score: inf
ROOT
ATOM      1  C   UNL     1      13.500  -6.979  -0.347  1.00  0.00     0.063 C 
ATOM      2  C   UNL     1      12.630  -5.881   0.162  1.00  0.00     0.038 C 
ATOM      3  O   UNL     1      12.244  -5.884   1.360  1.00  0.00    -0.550 OA
ATOM      4  O   UNL     1      12.198  -4.880  -0.698  1.00  0.00    -0.550 OA
ENDROOT
TORSDOF 0
ENDMDL
MODEL 7
REMARK VINA RESULT:    -1.951     11.790     12.284
REMARK INTER + INTRA:          -1.951
REMARK INTER:                  -1.951
REMARK INTRA:                   0.000
REMARK UNBOUND:                 0.000
REMARK SMILES CC(=O)[O-]
REMARK SMILES IDX 1 1 2 2 3 3 4 4
REMARK H PARENT
REMARK Flexibility Score: inf
ROOT
ATOM      1  C   UNL     1       6.432   7.929   2.195  1.00  0.00     0.063 C 
ATOM      2  C   UNL     1       5.833   7.449   3.473  1.00  0.00     0.038 C 
ATOM      3  O   UNL     1       6.264   6.400   4.018  1.00  0.00    -0.550 OA
ATOM      4  O   UNL     1       4.760   8.127   4.037  1.00  0.00    -0.550 OA
ENDROOT
TORSDOF 0
ENDMDL
MODEL 8
REMARK VINA RESULT:    -1.920      4.177      4.358
REMARK INTER + INTRA:          -1.920
REMARK INTER:                  -1.920
REMARK INTRA:                   0.000
REMARK UNBOUND:                 0.000
REMARK SMILES CC(=O)[O-]
REMARK SMILES IDX 1 1 2 2 3 3 4 4
REMARK H PARENT
REMARK Flexibility Score: inf
ROOT
ATOM      1  C   UNL     1      17.514  12.655  -3.387  1.00  0.00     0.063 C 
ATOM      2  C   UNL     1      16.445  11.978  -2.600  1.00  0.00     0.038 C 
ATOM      3  O   UNL     1      15.394  11.584  -3.169  1.00  0.00    -0.550 OA
ATOM      4  O   UNL     1      16.580  11.831  -1.226  1.00  0.00    -0.550 OA
ENDROOT
TORSDOF 0
ENDMDL
MODEL 9
REMARK VINA RESULT:    -1.900     16.172     16.776
REMARK INTER + INTRA:          -1.900
REMARK INTER:                  -1.900
REMARK INTRA:                   0.000
REMARK UNBOUND:                 0.000
REMARK SMILES CC(=O)[O-]
REMARK SMILES IDX 1 1 2 2 3 3 4 4
REMARK H PARENT
REMARK Flexibility Score: inf
ROOT
ATOM      1  C   UNL     1      11.514  -4.987   4.631  1.00  0.00     0.063 C 
ATOM      2  C   UNL     1      12.917  -4.530   4.420  1.00  0.00     0.038 C 
ATOM      3  O   UNL     1      13.727  -5.250   3.779  1.00  0.00    -0.550 OA
ATOM      4  O   UNL     1      13.350  -3.334   4.977  1.00  0.00    -0.550 OA
ENDROOT
TORSDOF 0
ENDMDL
