MODEL 1
REMARK VINA RESULT:    -3.295      0.000      0.000
REMARK INTER + INTRA:          -8.390
REMARK INTER:                  -6.087
REMARK INTRA:                  -2.303
REMARK UNBOUND:                -2.303
REMARK SMILES CCCCCCCCCCCCCCCCO
REMARK SMILES IDX 9 1 8 2 7 3 6 4 5 5 4 6 3 7 2 8 1 9 10 10 11 11 12 12 13 13
REMARK SMILES IDX 14 14 15 15 16 16 17 17
REMARK H PARENT 17 18
REMARK Flexibility Score: inf
ROOT
ATOM      1  C   UNL     1      -3.814   6.917  40.873  1.00  0.00     0.000 C 
ENDROOT
BRANCH   1   2
ATOM      2  C   UNL     1      -2.593   7.660  41.437  1.00  0.00    -0.000 C 
BRANCH   2   3
ATOM      3  C   UNL     1      -1.830   8.461  40.365  1.00  0.00    -0.000 C 
BRANCH   3   4
ATOM      4  C   UNL     1      -2.597   8.694  39.050  1.00  0.00    -0.000 C 
BRANCH   4   5
ATOM      5  C   UNL     1      -1.689   8.672  37.811  1.00  0.00    -0.000 C 
BRANCH   5   6
ATOM      6  C   UNL     1      -0.217   8.485  38.213  1.00  0.00    -0.000 C 
BRANCH   6   7
ATOM      7  C   UNL     1       0.622   7.807  37.114  1.00  0.00    -0.000 C 
BRANCH   7   8
ATOM      8  C   UNL     1       1.329   6.510  37.547  1.00  0.00    -0.003 C 
ATOM      9  C   UNL     1       1.853   6.566  38.981  1.00  0.00     0.004 C 
ENDBRANCH   7   8
ENDBRANCH   6   7
ENDBRANCH   5   6
ENDBRANCH   4   5
ENDBRANCH   3   4
ENDBRANCH   2   3
ENDBRANCH   1   2
BRANCH   1  10
ATOM     10  C   UNL     1      -3.496   5.467  40.458  1.00  0.00     0.000 C 
BRANCH  10  11
ATOM     11  C   UNL     1      -2.000   5.132  40.318  1.00  0.00     0.000 C 
BRANCH  11  12
ATOM     12  C   UNL     1      -1.581   4.848  38.865  1.00  0.00     0.000 C 
BRANCH  12  13
ATOM     13  C   UNL     1      -2.730   5.074  37.867  1.00  0.00     0.000 C 
BRANCH  13  14
ATOM     14  C   UNL     1      -2.390   4.581  36.448  1.00  0.00     0.002 C 
BRANCH  14  15
ATOM     15  C   UNL     1      -1.995   5.728  35.505  1.00  0.00     0.028 C 
BRANCH  15  16
ATOM     16  C   UNL     1      -0.803   5.370  34.607  1.00  0.00     0.156 C 
BRANCH  16  17
ATOM     17  O   UNL     1      -0.571   6.399  33.684  1.00  0.00    -0.396 OA
ATOM     18  H   UNL     1      -1.460   6.693  33.355  1.00  0.00     0.210 HD
ENDBRANCH  16  17
ENDBRANCH  15  16
ENDBRANCH  14  15
ENDBRANCH  13  14
ENDBRANCH  12  13
ENDBRANCH  11  12
ENDBRANCH  10  11
ENDBRANCH   1  10
TORSDOF 15
ENDMDL
MODEL 2
REMARK VINA RESULT:    -3.011      1.408      3.887
REMARK INTER + INTRA:          -7.866
REMARK INTER:                  -5.498
REMARK INTRA:                  -2.368
REMARK UNBOUND:                -2.303
REMARK SMILES CCCCCCCCCCCCCCCCO
REMARK SMILES IDX 9 1 8 2 7 3 6 4 5 5 4 6 3 7 2 8 1 9 10 10 11 11 12 12 13 13
REMARK SMILES IDX 14 14 15 15 16 16 17 17
REMARK H PARENT 17 18
REMARK Flexibility Score: inf
ROOT
ATOM      1  C   UNL     1      -3.327   8.095  40.122  1.00  0.00     0.000 C 
ENDROOT
BRANCH   1   2
ATOM      2  C   UNL     1      -3.584   7.662  41.574  1.00  0.00    -0.000 C 
BRANCH   2   3
ATOM      3  C   UNL     1      -3.839   6.149  41.714  1.00  0.00    -0.000 C 
BRANCH   3   4
ATOM      4  C   UNL     1      -3.370   5.292  40.524  1.00  0.00    -0.000 C 
BRANCH   4   5
ATOM      5  C   UNL     1      -1.932   4.776  40.682  1.00  0.00    -0.000 C 
BRANCH   5   6
ATOM      6  C   UNL     1      -1.209   4.742  39.327  1.00  0.00    -0.000 C 
BRANCH   6   7
ATOM      7  C   UNL     1      -2.064   5.304  38.177  1.00  0.00    -0.000 C 
BRANCH   7   8
ATOM      8  C   UNL     1      -1.906   4.570  36.834  1.00  0.00    -0.003 C 
ATOM      9  C   UNL     1      -2.047   5.495  35.626  1.00  0.00     0.004 C 
ENDBRANCH   7   8
ENDBRANCH   6   7
ENDBRANCH   5   6
ENDBRANCH   4   5
ENDBRANCH   3   4
ENDBRANCH   2   3
ENDBRANCH   1   2
BRANCH   1  10
ATOM     10  C   UNL     1      -1.883   8.578  39.886  1.00  0.00     0.000 C 
BRANCH  10  11
ATOM     11  C   UNL     1      -0.916   8.377  41.067  1.00  0.00     0.000 C 
BRANCH  11  12
ATOM     12  C   UNL     1       0.433   7.770  40.642  1.00  0.00     0.000 C 
BRANCH  12  13
ATOM     13  C   UNL     1       0.705   7.936  39.138  1.00  0.00     0.000 C 
BRANCH  13  14
ATOM     14  C   UNL     1       1.706   6.898  38.597  1.00  0.00     0.002 C 
BRANCH  14  15
ATOM     15  C   UNL     1       1.378   6.455  37.163  1.00  0.00     0.028 C 
BRANCH  15  16
ATOM     16  C   UNL     1       2.002   5.100  36.806  1.00  0.00     0.156 C 
BRANCH  16  17
ATOM     17  O   UNL     1       2.593   5.161  35.536  1.00  0.00    -0.396 OA
ATOM     18  H   UNL     1       3.275   4.441  35.503  1.00  0.00     0.210 HD
ENDBRANCH  16  17
ENDBRANCH  15  16
ENDBRANCH  14  15
ENDBRANCH  13  14
ENDBRANCH  12  13
ENDBRANCH  11  12
ENDBRANCH  10  11
ENDBRANCH   1  10
TORSDOF 15
ENDMDL
MODEL 3
REMARK VINA RESULT:    -2.935      1.700      2.713
REMARK INTER + INTRA:          -7.725
REMARK INTER:                  -5.620
REMARK INTRA:                  -2.105
REMARK UNBOUND:                -2.303
REMARK SMILES CCCCCCCCCCCCCCCCO
REMARK SMILES IDX 9 1 8 2 7 3 6 4 5 5 4 6 3 7 2 8 1 9 10 10 11 11 12 12 13 13
REMARK SMILES IDX 14 14 15 15 16 16 17 17
REMARK H PARENT 17 18
REMARK Flexibility Score: inf
ROOT
ATOM      1  C   UNL     1      -3.789   7.597  42.036  1.00  0.00     0.000 C 
ENDROOT
BRANCH   1   2
ATOM      2  C   UNL     1      -2.361   7.554  42.602  1.00  0.00    -0.000 C 
BRANCH   2   3
ATOM      3  C   UNL     1      -1.855   6.121  42.848  1.00  0.00    -0.000 C 
BRANCH   3   4
ATOM      4  C   UNL     1      -0.332   5.932  42.724  1.00  0.00    -0.000 C 
BRANCH   4   5
ATOM      5  C   UNL     1       0.146   5.828  41.268  1.00  0.00    -0.000 C 
BRANCH   5   6
ATOM      6  C   UNL     1       0.864   7.115  40.833  1.00  0.00    -0.000 C 
BRANCH   6   7
ATOM      7  C   UNL     1       1.470   7.015  39.421  1.00  0.00    -0.000 C 
BRANCH   7   8
ATOM      8  C   UNL     1       2.713   6.115  39.313  1.00  0.00    -0.003 C 
ATOM      9  C   UNL     1       2.601   5.072  38.203  1.00  0.00     0.004 C 
ENDBRANCH   7   8
ENDBRANCH   6   7
ENDBRANCH   5   6
ENDBRANCH   4   5
ENDBRANCH   3   4
ENDBRANCH   2   3
ENDBRANCH   1   2
BRANCH   1  10
ATOM     10  C   UNL     1      -3.827   7.542  40.497  1.00  0.00     0.000 C 
BRANCH  10  11
ATOM     11  C   UNL     1      -2.652   8.234  39.780  1.00  0.00     0.000 C 
BRANCH  11  12
ATOM     12  C   UNL     1      -2.037   7.370  38.665  1.00  0.00     0.000 C 
BRANCH  12  13
ATOM     13  C   UNL     1      -2.482   5.900  38.745  1.00  0.00     0.000 C 
BRANCH  13  14
ATOM     14  C   UNL     1      -1.946   5.053  37.577  1.00  0.00     0.002 C 
BRANCH  14  15
ATOM     15  C   UNL     1      -0.812   5.753  36.813  1.00  0.00     0.028 C 
BRANCH  15  16
ATOM     16  C   UNL     1      -1.187   6.069  35.359  1.00  0.00     0.156 C 
BRANCH  16  17
ATOM     17  O   UNL     1      -2.578   6.188  35.235  1.00  0.00    -0.396 OA
ATOM     18  H   UNL     1      -2.957   5.285  35.399  1.00  0.00     0.210 HD
ENDBRANCH  16  17
ENDBRANCH  15  16
ENDBRANCH  14  15
ENDBRANCH  13  14
ENDBRANCH  12  13
ENDBRANCH  11  12
ENDBRANCH  10  11
ENDBRANCH   1  10
TORSDOF 15
ENDMDL
MODEL 4
REMARK VINA RESULT:    -2.873      1.386      3.073
REMARK INTER + INTRA:          -7.611
REMARK INTER:                  -5.589
REMARK INTRA:                  -2.022
REMARK UNBOUND:                -2.303
REMARK SMILES CCCCCCCCCCCCCCCCO
REMARK SMILES IDX 9 1 8 2 7 3 6 4 5 5 4 6 3 7 2 8 1 9 10 10 11 11 12 12 13 13
REMARK SMILES IDX 14 14 15 15 16 16 17 17
REMARK H PARENT 17 18
REMARK Flexibility Score: inf
ROOT
ATOM      1  C   UNL     1      -1.405   4.725  39.206  1.00  0.00     0.000 C 
ENDROOT
BRANCH   1   2
ATOM      2  C   UNL     1      -1.970   5.428  40.451  1.00  0.00    -0.000 C 
BRANCH   2   3
ATOM      3  C   UNL     1      -3.451   5.821  40.298  1.00  0.00    -0.000 C 
BRANCH   3   4
ATOM      4  C   UNL     1      -3.753   7.322  40.469  1.00  0.00    -0.000 C 
BRANCH   4   5
ATOM      5  C   UNL     1      -2.511   8.209  40.301  1.00  0.00    -0.000 C 
BRANCH   5   6
ATOM      6  C   UNL     1      -2.563   8.980  38.973  1.00  0.00    -0.000 C 
BRANCH   6   7
ATOM      7  C   UNL     1      -1.391   8.638  38.035  1.00  0.00    -0.000 C 
BRANCH   7   8
ATOM      8  C   UNL     1      -0.091   8.226  38.748  1.00  0.00    -0.003 C 
ATOM      9  C   UNL     1       0.871   7.459  37.842  1.00  0.00     0.004 C 
ENDBRANCH   7   8
ENDBRANCH   6   7
ENDBRANCH   5   6
ENDBRANCH   4   5
ENDBRANCH   3   4
ENDBRANCH   2   3
ENDBRANCH   1   2
BRANCH   1  10
ATOM     10  C   UNL     1      -2.241   4.985  37.938  1.00  0.00     0.000 C 
BRANCH  10  11
ATOM     11  C   UNL     1      -1.501   4.776  36.603  1.00  0.00     0.000 C 
BRANCH  11  12
ATOM     12  C   UNL     1      -1.793   5.884  35.576  1.00  0.00     0.000 C 
BRANCH  12  13
ATOM     13  C   UNL     1      -0.763   5.914  34.434  1.00  0.00     0.000 C 
BRANCH  13  14
ATOM     14  C   UNL     1      -0.815   4.652  33.554  1.00  0.00     0.002 C 
BRANCH  14  15
ATOM     15  C   UNL     1       0.148   4.727  32.359  1.00  0.00     0.028 C 
BRANCH  15  16
ATOM     16  C   UNL     1       0.260   6.142  31.778  1.00  0.00     0.156 C 
BRANCH  16  17
ATOM     17  O   UNL     1      -0.135   6.144  30.433  1.00  0.00    -0.396 OA
ATOM     18  H   UNL     1       0.597   6.577  29.921  1.00  0.00     0.210 HD
ENDBRANCH  16  17
ENDBRANCH  15  16
ENDBRANCH  14  15
ENDBRANCH  13  14
ENDBRANCH  12  13
ENDBRANCH  11  12
ENDBRANCH  10  11
ENDBRANCH   1  10
TORSDOF 15
ENDMDL
MODEL 5
REMARK VINA RESULT:    -2.853      1.534      2.384
REMARK INTER + INTRA:          -7.574
REMARK INTER:                  -5.083
REMARK INTRA:                  -2.491
REMARK UNBOUND:                -2.303
REMARK SMILES CCCCCCCCCCCCCCCCO
REMARK SMILES IDX 9 1 8 2 7 3 6 4 5 5 4 6 3 7 2 8 1 9 10 10 11 11 12 12 13 13
REMARK SMILES IDX 14 14 15 15 16 16 17 17
REMARK H PARENT 17 18
REMARK Flexibility Score: inf
ROOT
ATOM      1  C   UNL     1      -2.588   5.472  39.615  1.00  0.00     0.000 C 
ENDROOT
BRANCH   1   2
ATOM      2  C   UNL     1      -1.759   6.175  40.701  1.00  0.00    -0.000 C 
BRANCH   2   3
ATOM      3  C   UNL     1      -1.976   7.700  40.730  1.00  0.00    -0.000 C 
BRANCH   3   4
ATOM      4  C   UNL     1      -3.025   8.232  39.735  1.00  0.00    -0.000 C 
BRANCH   4   5
ATOM      5  C   UNL     1      -2.417   9.109  38.631  1.00  0.00    -0.000 C 
BRANCH   5   6
ATOM      6  C   UNL     1      -0.883   9.124  38.725  1.00  0.00    -0.000 C 
BRANCH   6   7
ATOM      7  C   UNL     1      -0.197   8.816  37.382  1.00  0.00    -0.000 C 
BRANCH   7   8
ATOM      8  C   UNL     1       0.950   7.793  37.461  1.00  0.00    -0.003 C 
ATOM      9  C   UNL     1       1.226   7.313  38.885  1.00  0.00     0.004 C 
ENDBRANCH   7   8
ENDBRANCH   6   7
ENDBRANCH   5   6
ENDBRANCH   4   5
ENDBRANCH   3   4
ENDBRANCH   2   3
ENDBRANCH   1   2
BRANCH   1  10
ATOM     10  C   UNL     1      -1.783   5.192  38.331  1.00  0.00     0.000 C 
BRANCH  10  11
ATOM     11  C   UNL     1      -2.621   4.985  37.056  1.00  0.00     0.000 C 
BRANCH  11  12
ATOM     12  C   UNL     1      -2.388   6.081  36.000  1.00  0.00     0.000 C 
BRANCH  12  13
ATOM     13  C   UNL     1      -1.169   5.791  35.109  1.00  0.00     0.000 C 
BRANCH  13  14
ATOM     14  C   UNL     1      -1.141   4.340  34.596  1.00  0.00     0.002 C 
BRANCH  14  15
ATOM     15  C   UNL     1       0.186   3.630  34.908  1.00  0.00     0.028 C 
BRANCH  15  16
ATOM     16  C   UNL     1       1.191   4.543  35.622  1.00  0.00     0.156 C 
BRANCH  16  17
ATOM     17  O   UNL     1       1.372   4.118  36.946  1.00  0.00    -0.396 OA
ATOM     18  H   UNL     1       1.725   3.191  36.901  1.00  0.00     0.210 HD
ENDBRANCH  16  17
ENDBRANCH  15  16
ENDBRANCH  14  15
ENDBRANCH  13  14
ENDBRANCH  12  13
ENDBRANCH  11  12
ENDBRANCH  10  11
ENDBRANCH   1  10
TORSDOF 15
ENDMDL
MODEL 6
REMARK VINA RESULT:    -2.850      2.467      4.978
REMARK INTER + INTRA:          -7.569
REMARK INTER:                  -5.294
REMARK INTRA:                  -2.276
REMARK UNBOUND:                -2.303
REMARK SMILES CCCCCCCCCCCCCCCCO
REMARK SMILES IDX 9 1 8 2 7 3 6 4 5 5 4 6 3 7 2 8 1 9 10 10 11 11 12 12 13 13
REMARK SMILES IDX 14 14 15 15 16 16 17 17
REMARK H PARENT 17 18
REMARK Flexibility Score: inf
ROOT
ATOM      1  C   UNL     1       0.367   5.874  39.343  1.00  0.00     0.000 C 
ENDROOT
BRANCH   1   2
ATOM      2  C   UNL     1       1.403   6.934  38.934  1.00  0.00    -0.000 C 
BRANCH   2   3
ATOM      3  C   UNL     1       1.061   7.625  37.600  1.00  0.00    -0.000 C 
BRANCH   3   4
ATOM      4  C   UNL     1      -0.121   8.610  37.655  1.00  0.00    -0.000 C 
BRANCH   4   5
ATOM      5  C   UNL     1      -1.253   8.248  36.683  1.00  0.00    -0.000 C 
BRANCH   5   6
ATOM      6  C   UNL     1      -0.970   6.907  35.986  1.00  0.00    -0.000 C 
BRANCH   6   7
ATOM      7  C   UNL     1      -2.217   6.010  35.886  1.00  0.00    -0.000 C 
BRANCH   7   8
ATOM      8  C   UNL     1      -2.195   4.768  36.794  1.00  0.00    -0.003 C 
ATOM      9  C   UNL     1      -2.875   5.001  38.142  1.00  0.00     0.004 C 
ENDBRANCH   7   8
ENDBRANCH   6   7
ENDBRANCH   5   6
ENDBRANCH   4   5
ENDBRANCH   3   4
ENDBRANCH   2   3
ENDBRANCH   1   2
BRANCH   1  10
ATOM     10  C   UNL     1      -0.234   6.128  40.738  1.00  0.00     0.000 C 
BRANCH  10  11
ATOM     11  C   UNL     1      -0.118   7.573  41.256  1.00  0.00     0.000 C 
BRANCH  11  12
ATOM     12  C   UNL     1      -1.485   8.231  41.512  1.00  0.00     0.000 C 
BRANCH  12  13
ATOM     13  C   UNL     1      -2.472   8.008  40.354  1.00  0.00     0.000 C 
BRANCH  13  14
ATOM     14  C   UNL     1      -3.836   7.475  40.829  1.00  0.00     0.002 C 
BRANCH  14  15
ATOM     15  C   UNL     1      -3.881   7.240  42.347  1.00  0.00     0.028 C 
BRANCH  15  16
ATOM     16  C   UNL     1      -3.861   5.751  42.716  1.00  0.00     0.156 C 
BRANCH  16  17
ATOM     17  O   UNL     1      -4.054   4.968  41.569  1.00  0.00    -0.396 OA
ATOM     18  H   UNL     1      -3.653   4.080  41.759  1.00  0.00     0.210 HD
ENDBRANCH  16  17
ENDBRANCH  15  16
ENDBRANCH  14  15
ENDBRANCH  13  14
ENDBRANCH  12  13
ENDBRANCH  11  12
ENDBRANCH  10  11
ENDBRANCH   1  10
TORSDOF 15
ENDMDL
MODEL 7
REMARK VINA RESULT:    -2.783      1.888      3.600
REMARK INTER + INTRA:          -7.445
REMARK INTER:                  -5.169
REMARK INTRA:                  -2.276
REMARK UNBOUND:                -2.303
REMARK SMILES CCCCCCCCCCCCCCCCO
REMARK SMILES IDX 9 1 8 2 7 3 6 4 5 5 4 6 3 7 2 8 1 9 10 10 11 11 12 12 13 13
REMARK SMILES IDX 14 14 15 15 16 16 17 17
REMARK H PARENT 17 18
REMARK Flexibility Score: inf
ROOT
ATOM      1  C   UNL     1      -3.188   6.860  41.685  1.00  0.00     0.000 C 
ENDROOT
BRANCH   1   2
ATOM      2  C   UNL     1      -3.329   7.370  40.242  1.00  0.00    -0.000 C 
BRANCH   2   3
ATOM      3  C   UNL     1      -2.415   8.572  39.937  1.00  0.00    -0.000 C 
BRANCH   3   4
ATOM      4  C   UNL     1      -2.450   9.071  38.481  1.00  0.00    -0.000 C 
BRANCH   4   5
ATOM      5  C   UNL     1      -1.261   8.573  37.646  1.00  0.00    -0.000 C 
BRANCH   5   6
ATOM      6  C   UNL     1      -1.671   7.384  36.762  1.00  0.00    -0.000 C 
BRANCH   6   7
ATOM      7  C   UNL     1      -1.058   6.051  37.229  1.00  0.00    -0.000 C 
BRANCH   7   8
ATOM      8  C   UNL     1      -2.078   4.999  37.699  1.00  0.00    -0.003 C 
ATOM      9  C   UNL     1      -2.914   4.425  36.557  1.00  0.00     0.004 C 
ENDBRANCH   7   8
ENDBRANCH   6   7
ENDBRANCH   5   6
ENDBRANCH   4   5
ENDBRANCH   3   4
ENDBRANCH   2   3
ENDBRANCH   1   2
BRANCH   1  10
ATOM     10  C   UNL     1      -1.749   6.435  42.034  1.00  0.00     0.000 C 
BRANCH  10  11
ATOM     11  C   UNL     1      -1.161   5.311  41.160  1.00  0.00     0.000 C 
BRANCH  11  12
ATOM     12  C   UNL     1       0.342   5.491  40.882  1.00  0.00     0.000 C 
BRANCH  12  13
ATOM     13  C   UNL     1       0.699   6.933  40.485  1.00  0.00     0.000 C 
BRANCH  13  14
ATOM     14  C   UNL     1       1.729   6.998  39.343  1.00  0.00     0.002 C 
BRANCH  14  15
ATOM     15  C   UNL     1       2.644   5.764  39.304  1.00  0.00     0.028 C 
BRANCH  15  16
ATOM     16  C   UNL     1       2.634   5.063  37.939  1.00  0.00     0.156 C 
BRANCH  16  17
ATOM     17  O   UNL     1       1.723   3.998  37.951  1.00  0.00    -0.396 OA
ATOM     18  H   UNL     1       1.457   3.839  37.008  1.00  0.00     0.210 HD
ENDBRANCH  16  17
ENDBRANCH  15  16
ENDBRANCH  14  15
ENDBRANCH  13  14
ENDBRANCH  12  13
ENDBRANCH  11  12
ENDBRANCH  10  11
ENDBRANCH   1  10
TORSDOF 15
ENDMDL
