MODEL 1
REMARK VINA RESULT:    -5.881      0.000      0.000
REMARK INTER + INTRA:          -7.534
REMARK INTER:                  -7.084
REMARK INTRA:                  -0.450
REMARK UNBOUND:                -0.450
REMARK SMILES NC(=O)C[C@H]([NH3+])C(=O)[O-]
REMARK SMILES IDX 4 1 5 2 6 3 7 7 8 8 9 9 2 10 3 11 1 12
REMARK H PARENT 6 4 6 5 6 6 1 13 1 14
REMARK Flexibility Score: inf
ROOT
ATOM      1  C   UNL     1      13.702 -10.360 -16.615  1.00  0.00     0.171 C 
ENDROOT
BRANCH   1   2
ATOM      2  C   UNL     1      15.048 -10.393 -15.863  1.00  0.00     0.237 C 
BRANCH   2   3
ATOM      3  N   UNL     1      16.095 -11.045 -16.662  1.00  0.00    -0.350 N 
ATOM      4  H   UNL     1      16.289 -12.001 -16.286  1.00  0.00     0.345 HD
ATOM      5  H   UNL     1      15.773 -11.148 -17.652  1.00  0.00     0.345 HD
ATOM      6  H   UNL     1      16.978 -10.483 -16.644  1.00  0.00     0.345 HD
ENDBRANCH   2   3
BRANCH   2   7
ATOM      7  C   UNL     1      14.879 -11.101 -14.546  1.00  0.00     0.100 C 
ATOM      8  O   UNL     1      15.799 -11.078 -13.686  1.00  0.00    -0.544 OA
ATOM      9  O   UNL     1      13.709 -11.801 -14.280  1.00  0.00    -0.544 OA
ENDBRANCH   2   7
ENDBRANCH   1   2
BRANCH   1  10
ATOM     10  C   UNL     1      13.643 -11.401 -17.694  1.00  0.00     0.223 C 
ATOM     11  O   UNL     1      13.967 -11.098 -18.874  1.00  0.00    -0.275 OA
ATOM     12  N   UNL     1      13.256 -12.741 -17.389  1.00  0.00    -0.369 N 
ATOM     13  H   UNL     1      13.227 -13.464 -18.141  1.00  0.00     0.159 HD
ATOM     14  H   UNL     1      13.007 -13.015 -16.413  1.00  0.00     0.159 HD
ENDBRANCH   1  10
TORSDOF 4
ENDMDL
MODEL 2
REMARK VINA RESULT:    -5.880      1.570      2.589
REMARK INTER + INTRA:          -7.533
REMARK INTER:                  -7.087
REMARK INTRA:                  -0.446
REMARK UNBOUND:                -0.450
REMARK SMILES NC(=O)C[C@H]([NH3+])C(=O)[O-]
REMARK SMILES IDX 4 1 5 2 6 3 7 7 8 8 9 9 2 10 3 11 1 12
REMARK H PARENT 6 4 6 5 6 6 1 13 1 14
REMARK Flexibility Score: inf
ROOT
ATOM      1  C   UNL     1      15.471 -11.252 -16.697  1.00  0.00     0.171 C 
ENDROOT
BRANCH   1   2
ATOM      2  C   UNL     1      14.103 -11.511 -16.034  1.00  0.00     0.237 C 
BRANCH   2   3
ATOM      3  N   UNL     1      13.077 -10.589 -16.539  1.00  0.00    -0.350 N 
ATOM      4  H   UNL     1      13.012 -10.660 -17.580  1.00  0.00     0.345 HD
ATOM      5  H   UNL     1      12.143 -10.846 -16.142  1.00  0.00     0.345 HD
ATOM      6  H   UNL     1      13.303  -9.602 -16.275  1.00  0.00     0.345 HD
ENDBRANCH   2   3
BRANCH   2   7
ATOM      7  C   UNL     1      14.229 -11.383 -14.539  1.00  0.00     0.100 C 
ATOM      8  O   UNL     1      13.291 -11.754 -13.785  1.00  0.00    -0.544 OA
ATOM      9  O   UNL     1      15.379 -10.836 -13.984  1.00  0.00    -0.544 OA
ENDBRANCH   2   7
ENDBRANCH   1   2
BRANCH   1  10
ATOM     10  C   UNL     1      15.555  -9.871 -17.278  1.00  0.00     0.223 C 
ATOM     11  O   UNL     1      15.271  -9.684 -18.491  1.00  0.00    -0.275 OA
ATOM     12  N   UNL     1      15.920  -8.760 -16.458  1.00  0.00    -0.369 N 
ATOM     13  H   UNL     1      15.966  -7.799 -16.865  1.00  0.00     0.159 HD
ATOM     14  H   UNL     1      16.136  -8.892 -15.446  1.00  0.00     0.159 HD
ENDBRANCH   1  10
TORSDOF 4
ENDMDL
MODEL 3
REMARK VINA RESULT:    -5.843      2.073      4.490
REMARK INTER + INTRA:          -7.489
REMARK INTER:                  -7.070
REMARK INTRA:                  -0.419
REMARK UNBOUND:                -0.450
REMARK SMILES NC(=O)C[C@H]([NH3+])C(=O)[O-]
REMARK SMILES IDX 4 1 5 2 6 3 7 7 8 8 9 9 2 10 3 11 1 12
REMARK H PARENT 6 4 6 5 6 6 1 13 1 14
REMARK Flexibility Score: inf
ROOT
ATOM      1  C   UNL     1      15.327  -9.895 -17.690  1.00  0.00     0.171 C 
ENDROOT
BRANCH   1   2
ATOM      2  C   UNL     1      14.025 -10.018 -18.508  1.00  0.00     0.237 C 
BRANCH   2   3
ATOM      3  N   UNL     1      13.242 -11.193 -18.101  1.00  0.00    -0.350 N 
ATOM      4  H   UNL     1      13.117 -11.198 -17.063  1.00  0.00     0.345 HD
ATOM      5  H   UNL     1      12.292 -11.155 -18.539  1.00  0.00     0.345 HD
ATOM      6  H   UNL     1      13.720 -12.076 -18.395  1.00  0.00     0.345 HD
ENDBRANCH   2   3
BRANCH   2   7
ATOM      7  C   UNL     1      14.350 -10.090 -19.976  1.00  0.00     0.100 C 
ATOM      8  O   UNL     1      13.428 -10.124 -20.834  1.00  0.00    -0.544 OA
ATOM      9  O   UNL     1      15.675 -10.138 -20.391  1.00  0.00    -0.544 OA
ENDBRANCH   2   7
ENDBRANCH   1   2
BRANCH   1  10
ATOM     10  C   UNL     1      15.733 -11.210 -17.092  1.00  0.00     0.223 C 
ATOM     11  O   UNL     1      15.408 -11.484 -15.906  1.00  0.00    -0.275 OA
ATOM     12  N   UNL     1      16.456 -12.167 -17.866  1.00  0.00    -0.369 N 
ATOM     13  H   UNL     1      16.727 -13.084 -17.449  1.00  0.00     0.159 HD
ATOM     14  H   UNL     1      16.713 -11.966 -18.858  1.00  0.00     0.159 HD
ENDBRANCH   1  10
TORSDOF 4
ENDMDL
MODEL 4
REMARK VINA RESULT:    -5.812      2.012      3.990
REMARK INTER + INTRA:          -7.452
REMARK INTER:                  -6.984
REMARK INTRA:                  -0.468
REMARK UNBOUND:                -0.450
REMARK SMILES NC(=O)C[C@H]([NH3+])C(=O)[O-]
REMARK SMILES IDX 4 1 5 2 6 3 7 7 8 8 9 9 2 10 3 11 1 12
REMARK H PARENT 6 4 6 5 6 6 1 13 1 14
REMARK Flexibility Score: inf
ROOT
ATOM      1  C   UNL     1      14.367 -11.605 -17.660  1.00  0.00     0.171 C 
ENDROOT
BRANCH   1   2
ATOM      2  C   UNL     1      15.581 -10.922 -18.323  1.00  0.00     0.237 C 
BRANCH   2   3
ATOM      3  N   UNL     1      16.151  -9.879 -17.458  1.00  0.00    -0.350 N 
ATOM      4  H   UNL     1      17.163 -10.073 -17.284  1.00  0.00     0.345 HD
ATOM      5  H   UNL     1      16.079  -8.949 -17.931  1.00  0.00     0.345 HD
ATOM      6  H   UNL     1      15.645  -9.840 -16.543  1.00  0.00     0.345 HD
ENDBRANCH   2   3
BRANCH   2   7
ATOM      7  C   UNL     1      15.175 -10.336 -19.648  1.00  0.00     0.100 C 
ATOM      8  O   UNL     1      16.045  -9.908 -20.451  1.00  0.00    -0.544 OA
ATOM      9  O   UNL     1      13.829 -10.250 -19.986  1.00  0.00    -0.544 OA
ENDBRANCH   2   7
ENDBRANCH   1   2
BRANCH   1  10
ATOM     10  C   UNL     1      13.690 -10.699 -16.673  1.00  0.00     0.223 C 
ATOM     11  O   UNL     1      14.005 -10.756 -15.454  1.00  0.00    -0.275 OA
ATOM     12  N   UNL     1      12.717  -9.750 -17.108  1.00  0.00    -0.369 N 
ATOM     13  H   UNL     1      12.258  -9.114 -16.419  1.00  0.00     0.159 HD
ATOM     14  H   UNL     1      12.462  -9.672 -18.117  1.00  0.00     0.159 HD
ENDBRANCH   1  10
TORSDOF 4
ENDMDL
MODEL 5
REMARK VINA RESULT:    -5.712      2.141      2.485
REMARK INTER + INTRA:          -7.330
REMARK INTER:                  -7.072
REMARK INTRA:                  -0.258
REMARK UNBOUND:                -0.450
REMARK SMILES NC(=O)C[C@H]([NH3+])C(=O)[O-]
REMARK SMILES IDX 4 1 5 2 6 3 7 7 8 8 9 9 2 10 3 11 1 12
REMARK H PARENT 6 4 6 5 6 6 1 13 1 14
REMARK Flexibility Score: inf
ROOT
ATOM      1  C   UNL     1      14.029 -10.969 -18.460  1.00  0.00     0.171 C 
ENDROOT
BRANCH   1   2
ATOM      2  C   UNL     1      15.219 -10.950 -17.480  1.00  0.00     0.237 C 
BRANCH   2   3
ATOM      3  N   UNL     1      16.143 -12.064 -17.732  1.00  0.00    -0.350 N 
ATOM      4  H   UNL     1      16.334 -12.146 -18.757  1.00  0.00     0.345 HD
ATOM      5  H   UNL     1      17.054 -11.885 -17.249  1.00  0.00     0.345 HD
ATOM      6  H   UNL     1      15.740 -12.965 -17.384  1.00  0.00     0.345 HD
ENDBRANCH   2   3
BRANCH   2   7
ATOM      7  C   UNL     1      14.713 -11.002 -16.063  1.00  0.00     0.100 C 
ATOM      8  O   UNL     1      13.487 -10.857 -15.816  1.00  0.00    -0.544 OA
ATOM      9  O   UNL     1      15.606 -11.195 -15.015  1.00  0.00    -0.544 OA
ENDBRANCH   2   7
ENDBRANCH   1   2
BRANCH   1  10
ATOM     10  C   UNL     1      14.345 -10.238 -19.732  1.00  0.00     0.223 C 
ATOM     11  O   UNL     1      15.538  -9.932 -19.998  1.00  0.00    -0.275 OA
ATOM     12  N   UNL     1      13.309  -9.917 -20.661  1.00  0.00    -0.369 N 
ATOM     13  H   UNL     1      13.536  -9.418 -21.550  1.00  0.00     0.159 HD
ATOM     14  H   UNL     1      12.318 -10.184 -20.469  1.00  0.00     0.159 HD
ENDBRANCH   1  10
TORSDOF 4
ENDMDL
MODEL 6
REMARK VINA RESULT:    -5.709      1.705      3.771
REMARK INTER + INTRA:          -7.327
REMARK INTER:                  -7.057
REMARK INTRA:                  -0.269
REMARK UNBOUND:                -0.450
REMARK SMILES NC(=O)C[C@H]([NH3+])C(=O)[O-]
REMARK SMILES IDX 4 1 5 2 6 3 7 7 8 8 9 9 2 10 3 11 1 12
REMARK H PARENT 6 4 6 5 6 6 1 13 1 14
REMARK Flexibility Score: inf
ROOT
ATOM      1  C   UNL     1      13.897 -10.731 -16.065  1.00  0.00     0.171 C 
ENDROOT
BRANCH   1   2
ATOM      2  C   UNL     1      15.151 -10.462 -16.923  1.00  0.00     0.237 C 
BRANCH   2   3
ATOM      3  N   UNL     1      15.797  -9.197 -16.549  1.00  0.00    -0.350 N 
ATOM      4  H   UNL     1      16.432  -9.347 -15.732  1.00  0.00     0.345 HD
ATOM      5  H   UNL     1      16.378  -8.846 -17.346  1.00  0.00     0.345 HD
ATOM      6  H   UNL     1      15.082  -8.474 -16.301  1.00  0.00     0.345 HD
ENDBRANCH   2   3
BRANCH   2   7
ATOM      7  C   UNL     1      14.777 -10.446 -18.381  1.00  0.00     0.100 C 
ATOM      8  O   UNL     1      13.664 -10.896 -18.760  1.00  0.00    -0.544 OA
ATOM      9  O   UNL     1      15.671  -9.946 -19.320  1.00  0.00    -0.544 OA
ENDBRANCH   2   7
ENDBRANCH   1   2
BRANCH   1  10
ATOM     10  C   UNL     1      14.251 -11.339 -14.739  1.00  0.00     0.223 C 
ATOM     11  O   UNL     1      15.444 -11.301 -14.332  1.00  0.00    -0.275 OA
ATOM     12  N   UNL     1      13.242 -11.928 -13.919  1.00  0.00    -0.369 N 
ATOM     13  H   UNL     1      13.492 -12.339 -12.992  1.00  0.00     0.159 HD
ATOM     14  H   UNL     1      12.246 -11.947 -14.229  1.00  0.00     0.159 HD
ENDBRANCH   1  10
TORSDOF 4
ENDMDL
MODEL 7
REMARK VINA RESULT:    -5.693      1.606      3.992
REMARK INTER + INTRA:          -7.308
REMARK INTER:                  -7.058
REMARK INTRA:                  -0.249
REMARK UNBOUND:                -0.450
REMARK SMILES NC(=O)C[C@H]([NH3+])C(=O)[O-]
REMARK SMILES IDX 4 1 5 2 6 3 7 7 8 8 9 9 2 10 3 11 1 12
REMARK H PARENT 6 4 6 5 6 6 1 13 1 14
REMARK Flexibility Score: inf
ROOT
ATOM      1  C   UNL     1      14.990 -11.155 -16.191  1.00  0.00     0.171 C 
ENDROOT
BRANCH   1   2
ATOM      2  C   UNL     1      14.104 -10.208 -17.027  1.00  0.00     0.237 C 
BRANCH   2   3
ATOM      3  N   UNL     1      12.683 -10.567 -16.921  1.00  0.00    -0.350 N 
ATOM      4  H   UNL     1      12.189 -10.342 -17.815  1.00  0.00     0.345 HD
ATOM      5  H   UNL     1      12.589 -11.596 -16.754  1.00  0.00     0.345 HD
ATOM      6  H   UNL     1      12.227 -10.049 -16.135  1.00  0.00     0.345 HD
ENDBRANCH   2   3
BRANCH   2   7
ATOM      7  C   UNL     1      14.544 -10.237 -18.466  1.00  0.00     0.100 C 
ATOM      8  O   UNL     1      15.720  -9.915 -18.781  1.00  0.00    -0.544 OA
ATOM      9  O   UNL     1      13.643 -10.603 -19.459  1.00  0.00    -0.544 OA
ENDBRANCH   2   7
ENDBRANCH   1   2
BRANCH   1  10
ATOM     10  C   UNL     1      14.693 -11.043 -14.724  1.00  0.00     0.223 C 
ATOM     11  O   UNL     1      13.581 -11.433 -14.279  1.00  0.00    -0.275 OA
ATOM     12  N   UNL     1      15.675 -10.529 -13.823  1.00  0.00    -0.369 N 
ATOM     13  H   UNL     1      15.467 -10.463 -12.802  1.00  0.00     0.159 HD
ATOM     14  H   UNL     1      16.610 -10.223 -14.171  1.00  0.00     0.159 HD
ENDBRANCH   1  10
TORSDOF 4
ENDMDL
MODEL 8
REMARK VINA RESULT:    -5.657      2.145      2.596
REMARK INTER + INTRA:          -7.264
REMARK INTER:                  -6.824
REMARK INTRA:                  -0.440
REMARK UNBOUND:                -0.450
REMARK SMILES NC(=O)C[C@H]([NH3+])C(=O)[O-]
REMARK SMILES IDX 4 1 5 2 6 3 7 7 8 8 9 9 2 10 3 11 1 12
REMARK H PARENT 6 4 6 5 6 6 1 13 1 14
REMARK Flexibility Score: inf
ROOT
ATOM      1  C   UNL     1      15.325  -9.892 -18.017  1.00  0.00     0.171 C 
ENDROOT
BRANCH   1   2
ATOM      2  C   UNL     1      15.590 -11.164 -17.186  1.00  0.00     0.237 C 
BRANCH   2   3
ATOM      3  N   UNL     1      16.288 -12.188 -17.977  1.00  0.00    -0.350 N 
ATOM      4  H   UNL     1      17.261 -12.317 -17.617  1.00  0.00     0.345 HD
ATOM      5  H   UNL     1      15.790 -13.103 -17.889  1.00  0.00     0.345 HD
ATOM      6  H   UNL     1      16.327 -11.913 -18.986  1.00  0.00     0.345 HD
ENDBRANCH   2   3
BRANCH   2   7
ATOM      7  C   UNL     1      14.290 -11.709 -16.659  1.00  0.00     0.100 C 
ATOM      8  O   UNL     1      13.618 -12.529 -17.339  1.00  0.00    -0.544 OA
ATOM      9  O   UNL     1      13.816 -11.293 -15.421  1.00  0.00    -0.544 OA
ENDBRANCH   2   7
ENDBRANCH   1   2
BRANCH   1  10
ATOM     10  C   UNL     1      14.951 -10.221 -19.433  1.00  0.00     0.223 C 
ATOM     11  O   UNL     1      15.843 -10.264 -20.322  1.00  0.00    -0.275 OA
ATOM     12  N   UNL     1      13.597 -10.518 -19.774  1.00  0.00    -0.369 N 
ATOM     13  H   UNL     1      13.343 -10.757 -20.758  1.00  0.00     0.159 HD
ATOM     14  H   UNL     1      12.849 -10.510 -19.046  1.00  0.00     0.159 HD
ENDBRANCH   1  10
TORSDOF 4
ENDMDL
MODEL 9
REMARK VINA RESULT:    -5.608      1.989      2.757
REMARK INTER + INTRA:          -7.205
REMARK INTER:                  -6.951
REMARK INTRA:                  -0.254
REMARK UNBOUND:                -0.450
REMARK SMILES NC(=O)C[C@H]([NH3+])C(=O)[O-]
REMARK SMILES IDX 4 1 5 2 6 3 7 7 8 8 9 9 2 10 3 11 1 12
REMARK H PARENT 6 4 6 5 6 6 1 13 1 14
REMARK Flexibility Score: inf
ROOT
ATOM      1  C   UNL     1      14.892 -10.201 -18.241  1.00  0.00     0.171 C 
ENDROOT
BRANCH   1   2
ATOM      2  C   UNL     1      14.202 -11.362 -17.496  1.00  0.00     0.237 C 
BRANCH   2   3
ATOM      3  N   UNL     1      12.759 -11.394 -17.768  1.00  0.00    -0.350 N 
ATOM      4  H   UNL     1      12.581 -11.800 -18.716  1.00  0.00     0.345 HD
ATOM      5  H   UNL     1      12.279 -12.002 -17.065  1.00  0.00     0.345 HD
ATOM      6  H   UNL     1      12.352 -10.431 -17.724  1.00  0.00     0.345 HD
ENDBRANCH   2   3
BRANCH   2   7
ATOM      7  C   UNL     1      14.452 -11.239 -16.017  1.00  0.00     0.100 C 
ATOM      8  O   UNL     1      13.492 -11.271 -15.202  1.00  0.00    -0.544 OA
ATOM      9  O   UNL     1      15.748 -11.072 -15.544  1.00  0.00    -0.544 OA
ENDBRANCH   2   7
ENDBRANCH   1   2
BRANCH   1  10
ATOM     10  C   UNL     1      14.859 -10.398 -19.729  1.00  0.00     0.223 C 
ATOM     11  O   UNL     1      13.762 -10.327 -20.345  1.00  0.00    -0.275 OA
ATOM     12  N   UNL     1      16.065 -10.630 -20.457  1.00  0.00    -0.369 N 
ATOM     13  H   UNL     1      16.038 -10.755 -21.493  1.00  0.00     0.159 HD
ATOM     14  H   UNL     1      16.986 -10.668 -19.966  1.00  0.00     0.159 HD
ENDBRANCH   1  10
TORSDOF 4
ENDMDL
