MODEL 1
REMARK VINA RESULT:    -4.262      0.000      0.000
REMARK INTER + INTRA:          -6.844
REMARK INTER:                  -6.505
REMARK INTRA:                  -0.339
REMARK UNBOUND:                -0.339
REMARK SMILES CC1=CCC[C@@H](C)C(=O)C[C@@H](C(C)C)C(=O)C1
REMARK SMILES IDX 8 1 9 2 6 3 7 4 5 5 4 6 3 7 2 8 1 9 10 11 11 12 15 13 16 14
REMARK SMILES IDX 17 15 12 17 13 18 14 19
REMARK H PARENT
REMARK Flexibility Score: 70.00
ROOT
ATOM      1  C   UNL     1      15.041 -33.724  20.649  1.00  0.00     0.136 C 
ATOM      2  O   UNL     1      14.063 -33.088  20.284  1.00  0.00    -0.299 OA
ENDROOT
BRANCH   1   3
ATOM      3  C   UNL     1      15.807 -34.524  19.604  1.00  0.00     0.053 C 
ATOM      4  C   UNL     1      16.378 -35.789  20.254  1.00  0.00     0.016 C 
BRANCH   3   5
ATOM      5  C   UNL     1      16.942 -33.686  18.978  1.00  0.00     0.015 C 
BRANCH   5   6
ATOM      6  C   UNL     1      18.257 -33.738  19.773  1.00  0.00     0.028 C 
BRANCH   6   7
ATOM      7  C   UNL     1      18.729 -32.366  20.190  1.00  0.00    -0.028 C 
ATOM      8  C   UNL     1      18.841 -31.903  21.459  1.00  0.00    -0.070 CG0
ATOM      9  C   UNL     1      19.376 -30.506  21.647  1.00  0.00     0.039 C 
ATOM     10  G   UNL     1      18.436 -32.690  22.695  1.00  0.00     0.000 G0
ENDBRANCH   6   7
ENDBRANCH   5   6
ENDBRANCH   3   5
ENDBRANCH   1   3
BRANCH   1  11
ATOM     11  C   UNL     1      15.416 -33.633  22.117  1.00  0.00     0.087 C 
BRANCH  11  12
ATOM     12  C   UNL     1      15.789 -32.228  22.670  1.00  0.00     0.066 C 
BRANCH  12  13
ATOM     13  C   UNL     1      17.175 -32.119  23.304  1.00  0.00     0.140 C 
ATOM     14  O   UNL     1      17.252 -31.577  24.398  1.00  0.00    -0.299 OA
BRANCH  13  15
ATOM     15  C   UNL     1      18.447 -32.677  22.699  1.00  0.00     0.106 CG0
ATOM     16  G   UNL     1      18.844 -31.906  21.450  1.00  0.00     0.000 G0
ENDBRANCH  13  15
ENDBRANCH  12  13
BRANCH  12  17
ATOM     17  C   UNL     1      14.723 -31.668  23.666  1.00  0.00    -0.006 C 
ATOM     18  C   UNL     1      13.862 -32.767  24.310  1.00  0.00     0.008 C 
ATOM     19  C   UNL     1      13.828 -30.589  23.033  1.00  0.00     0.008 C 
ENDBRANCH  12  17
ENDBRANCH  11  12
ENDBRANCH   1  11
TORSDOF 1
ENDMDL
MODEL 2
REMARK VINA RESULT:    -4.157      2.149      3.516
REMARK INTER + INTRA:          -6.683
REMARK INTER:                  -6.528
REMARK INTRA:                  -0.154
REMARK UNBOUND:                -0.339
REMARK SMILES CC1=CCC[C@@H](C)C(=O)C[C@@H](C(C)C)C(=O)C1
REMARK SMILES IDX 8 1 9 2 6 3 7 4 5 5 4 6 3 7 2 8 1 9 10 11 11 12 15 13 16 14
REMARK SMILES IDX 17 15 12 17 13 18 14 19
REMARK H PARENT
REMARK Flexibility Score: 70.00
ROOT
ATOM      1  C   UNL     1      16.444 -29.791  21.522  1.00  0.00     0.136 C 
ATOM      2  O   UNL     1      16.305 -28.576  21.509  1.00  0.00    -0.299 OA
ENDROOT
BRANCH   1   3
ATOM      3  C   UNL     1      17.858 -30.352  21.475  1.00  0.00     0.053 C 
ATOM      4  C   UNL     1      18.822 -29.255  21.009  1.00  0.00     0.016 C 
BRANCH   3   5
ATOM      5  C   UNL     1      17.946 -31.574  20.535  1.00  0.00     0.015 C 
BRANCH   5   6
ATOM      6  C   UNL     1      18.568 -32.815  21.195  1.00  0.00     0.028 C 
BRANCH   6   7
ATOM      7  C   UNL     1      18.435 -32.791  22.698  1.00  0.00    -0.028 C 
ATOM      8  C   UNL     1      17.323 -33.084  23.414  1.00  0.00    -0.070 CG0
ATOM      9  C   UNL     1      17.427 -33.036  24.918  1.00  0.00     0.039 C 
ATOM     10  G   UNL     1      15.976 -33.428  22.799  1.00  0.00     0.000 G0
ENDBRANCH   6   7
ENDBRANCH   5   6
ENDBRANCH   3   5
ENDBRANCH   1   3
BRANCH   1  11
ATOM     11  C   UNL     1      15.181 -30.628  21.610  1.00  0.00     0.087 C 
BRANCH  11  12
ATOM     12  C   UNL     1      14.704 -31.048  23.029  1.00  0.00     0.066 C 
BRANCH  12  13
ATOM     13  C   UNL     1      14.864 -32.531  23.364  1.00  0.00     0.140 C 
ATOM     14  O   UNL     1      14.027 -33.034  24.099  1.00  0.00    -0.299 OA
BRANCH  13  15
ATOM     15  C   UNL     1      15.952 -33.428  22.810  1.00  0.00     0.106 CG0
ATOM     16  G   UNL     1      17.308 -33.070  23.398  1.00  0.00     0.000 G0
ENDBRANCH  13  15
ENDBRANCH  12  13
BRANCH  12  17
ATOM     17  C   UNL     1      13.233 -30.611  23.327  1.00  0.00    -0.006 C 
ATOM     18  C   UNL     1      12.331 -30.643  22.083  1.00  0.00     0.008 C 
ATOM     19  C   UNL     1      13.150 -29.236  24.012  1.00  0.00     0.008 C 
ENDBRANCH  12  17
ENDBRANCH  11  12
ENDBRANCH   1  11
TORSDOF 1
ENDMDL
MODEL 3
REMARK VINA RESULT:    -4.053      1.729      3.990
REMARK INTER + INTRA:          -6.525
REMARK INTER:                  -6.470
REMARK INTRA:                  -0.055
REMARK UNBOUND:                -0.339
REMARK SMILES CC1=CCC[C@@H](C)C(=O)C[C@@H](C(C)C)C(=O)C1
REMARK SMILES IDX 8 1 9 2 6 3 7 4 5 5 4 6 3 7 2 8 1 9 10 11 11 12 15 13 16 14
REMARK SMILES IDX 17 15 12 17 13 18 14 19
REMARK H PARENT
REMARK Flexibility Score: 70.00
ROOT
ATOM      1  C   UNL     1      14.621 -32.614  21.738  1.00  0.00     0.136 C 
ATOM      2  O   UNL     1      13.763 -32.051  21.073  1.00  0.00    -0.299 OA
ENDROOT
BRANCH   1   3
ATOM      3  C   UNL     1      14.846 -32.142  23.168  1.00  0.00     0.053 C 
ATOM      4  C   UNL     1      13.877 -32.878  24.100  1.00  0.00     0.016 C 
BRANCH   3   5
ATOM      5  C   UNL     1      14.650 -30.616  23.292  1.00  0.00     0.015 C 
BRANCH   5   6
ATOM      6  C   UNL     1      15.715 -29.796  22.546  1.00  0.00     0.028 C 
BRANCH   6   7
ATOM      7  C   UNL     1      17.117 -30.251  22.868  1.00  0.00    -0.028 C 
ATOM      8  C   UNL     1      17.979 -30.868  22.023  1.00  0.00    -0.070 CG0
ATOM      9  C   UNL     1      19.354 -31.200  22.547  1.00  0.00     0.039 C 
ATOM     10  G   UNL     1      17.638 -31.270  20.597  1.00  0.00     0.000 G0
ENDBRANCH   6   7
ENDBRANCH   5   6
ENDBRANCH   3   5
ENDBRANCH   1   3
BRANCH   1  11
ATOM     11  C   UNL     1      15.369 -33.756  21.074  1.00  0.00     0.087 C 
BRANCH  11  12
ATOM     12  C   UNL     1      16.913 -33.789  21.244  1.00  0.00     0.066 C 
BRANCH  12  13
ATOM     13  C   UNL     1      17.689 -32.777  20.400  1.00  0.00     0.140 C 
ATOM     14  O   UNL     1      18.375 -33.214  19.487  1.00  0.00    -0.299 OA
BRANCH  13  15
ATOM     15  C   UNL     1      17.626 -31.274  20.583  1.00  0.00     0.106 CG0
ATOM     16  G   UNL     1      17.982 -30.880  22.007  1.00  0.00     0.000 G0
ENDBRANCH  13  15
ENDBRANCH  12  13
BRANCH  12  17
ATOM     17  C   UNL     1      17.516 -35.213  21.017  1.00  0.00    -0.006 C 
ATOM     18  C   UNL     1      16.568 -36.156  20.258  1.00  0.00     0.008 C 
ATOM     19  C   UNL     1      17.991 -35.871  22.324  1.00  0.00     0.008 C 
ENDBRANCH  12  17
ENDBRANCH  11  12
ENDBRANCH   1  11
TORSDOF 1
ENDMDL
MODEL 4
REMARK VINA RESULT:    -3.994      2.290      4.569
REMARK INTER + INTRA:          -6.435
REMARK INTER:                  -6.149
REMARK INTRA:                  -0.286
REMARK UNBOUND:                -0.339
REMARK SMILES CC1=CCC[C@@H](C)C(=O)C[C@@H](C(C)C)C(=O)C1
REMARK SMILES IDX 8 1 9 2 6 3 7 4 5 5 4 6 3 7 2 8 1 9 10 11 11 12 15 13 16 14
REMARK SMILES IDX 17 15 12 17 13 18 14 19
REMARK H PARENT
REMARK Flexibility Score: 70.00
ROOT
ATOM      1  C   UNL     1      16.072 -29.790  22.430  1.00  0.00     0.136 C 
ATOM      2  O   UNL     1      16.856 -29.131  21.761  1.00  0.00    -0.299 OA
ENDROOT
BRANCH   1   3
ATOM      3  C   UNL     1      14.582 -29.548  22.232  1.00  0.00     0.053 C 
ATOM      4  C   UNL     1      13.839 -29.885  23.529  1.00  0.00     0.016 C 
BRANCH   3   5
ATOM      5  C   UNL     1      14.028 -30.393  21.065  1.00  0.00     0.015 C 
BRANCH   5   6
ATOM      6  C   UNL     1      13.560 -31.795  21.486  1.00  0.00     0.028 C 
BRANCH   6   7
ATOM      7  C   UNL     1      14.278 -32.888  20.733  1.00  0.00    -0.028 C 
ATOM      8  C   UNL     1      15.204 -33.741  21.236  1.00  0.00    -0.070 CG0
ATOM      9  C   UNL     1      15.766 -34.789  20.308  1.00  0.00     0.039 C 
ATOM     10  G   UNL     1      15.731 -33.687  22.661  1.00  0.00     0.000 G0
ENDBRANCH   6   7
ENDBRANCH   5   6
ENDBRANCH   3   5
ENDBRANCH   1   3
BRANCH   1  11
ATOM     11  C   UNL     1      16.666 -30.812  23.382  1.00  0.00     0.087 C 
BRANCH  11  12
ATOM     12  C   UNL     1      17.675 -31.835  22.787  1.00  0.00     0.066 C 
BRANCH  12  13
ATOM     13  C   UNL     1      17.184 -33.281  22.724  1.00  0.00     0.140 C 
ATOM     14  O   UNL     1      18.029 -34.164  22.767  1.00  0.00    -0.299 OA
BRANCH  13  15
ATOM     15  C   UNL     1      15.728 -33.697  22.664  1.00  0.00     0.106 CG0
ATOM     16  G   UNL     1      15.225 -33.720  21.230  1.00  0.00     0.000 G0
ENDBRANCH  13  15
ENDBRANCH  12  13
BRANCH  12  17
ATOM     17  C   UNL     1      19.066 -31.796  23.499  1.00  0.00    -0.006 C 
ATOM     18  C   UNL     1      18.959 -31.794  25.033  1.00  0.00     0.008 C 
ATOM     19  C   UNL     1      19.943 -30.626  23.024  1.00  0.00     0.008 C 
ENDBRANCH  12  17
ENDBRANCH  11  12
ENDBRANCH   1  11
TORSDOF 1
ENDMDL
MODEL 5
REMARK VINA RESULT:    -3.974      1.838      2.230
REMARK INTER + INTRA:          -6.404
REMARK INTER:                  -6.222
REMARK INTRA:                  -0.182
REMARK UNBOUND:                -0.339
REMARK SMILES CC1=CCC[C@@H](C)C(=O)C[C@@H](C(C)C)C(=O)C1
REMARK SMILES IDX 8 1 9 2 6 3 7 4 5 5 4 6 3 7 2 8 1 9 10 11 11 12 15 13 16 14
REMARK SMILES IDX 17 15 12 17 13 18 14 19
REMARK H PARENT
REMARK Flexibility Score: 70.00
ROOT
ATOM      1  C   UNL     1      16.068 -33.454  21.810  1.00  0.00     0.136 C 
ATOM      2  O   UNL     1      16.276 -34.504  22.401  1.00  0.00    -0.299 OA
ENDROOT
BRANCH   1   3
ATOM      3  C   UNL     1      16.557 -33.331  20.374  1.00  0.00     0.053 C 
ATOM      4  C   UNL     1      15.784 -34.315  19.490  1.00  0.00     0.016 C 
BRANCH   3   5
ATOM      5  C   UNL     1      18.074 -33.601  20.274  1.00  0.00     0.015 C 
BRANCH   5   6
ATOM      6  C   UNL     1      18.911 -32.801  21.285  1.00  0.00     0.028 C 
BRANCH   6   7
ATOM      7  C   UNL     1      19.138 -31.376  20.839  1.00  0.00    -0.028 C 
ATOM      8  C   UNL     1      18.574 -30.265  21.371  1.00  0.00    -0.070 CG0
ATOM      9  C   UNL     1      18.978 -28.932  20.792  1.00  0.00     0.039 C 
ATOM     10  G   UNL     1      17.542 -30.280  22.487  1.00  0.00     0.000 G0
ENDBRANCH   6   7
ENDBRANCH   5   6
ENDBRANCH   3   5
ENDBRANCH   1   3
BRANCH   1  11
ATOM     11  C   UNL     1      15.311 -32.376  22.564  1.00  0.00     0.087 C 
BRANCH  11  12
ATOM     12  C   UNL     1      15.048 -31.037  21.818  1.00  0.00     0.066 C 
BRANCH  12  13
ATOM     13  C   UNL     1      16.141 -29.979  21.964  1.00  0.00     0.140 C 
ATOM     14  O   UNL     1      15.851 -28.827  21.673  1.00  0.00    -0.299 OA
BRANCH  13  15
ATOM     15  C   UNL     1      17.537 -30.246  22.489  1.00  0.00     0.106 CG0
ATOM     16  G   UNL     1      18.552 -30.273  21.357  1.00  0.00     0.000 G0
ENDBRANCH  13  15
ENDBRANCH  12  13
BRANCH  12  17
ATOM     17  C   UNL     1      13.668 -30.402  22.184  1.00  0.00    -0.006 C 
ATOM     18  C   UNL     1      13.378 -30.417  23.694  1.00  0.00     0.008 C 
ATOM     19  C   UNL     1      12.500 -31.035  21.409  1.00  0.00     0.008 C 
ENDBRANCH  12  17
ENDBRANCH  11  12
ENDBRANCH   1  11
TORSDOF 1
ENDMDL
MODEL 6
REMARK VINA RESULT:    -3.949      1.641      4.106
REMARK INTER + INTRA:          -6.366
REMARK INTER:                  -6.406
REMARK INTRA:                   0.040
REMARK UNBOUND:                -0.339
REMARK SMILES CC1=CCC[C@@H](C)C(=O)C[C@@H](C(C)C)C(=O)C1
REMARK SMILES IDX 8 1 9 2 6 3 7 4 5 5 4 6 3 7 2 8 1 9 10 11 11 12 15 13 16 14
REMARK SMILES IDX 17 15 12 17 13 18 14 19
REMARK H PARENT
REMARK Flexibility Score: 70.00
ROOT
ATOM      1  C   UNL     1      14.971 -33.177  21.734  1.00  0.00     0.136 C 
ATOM      2  O   UNL     1      14.092 -32.597  21.112  1.00  0.00    -0.299 OA
ENDROOT
BRANCH   1   3
ATOM      3  C   UNL     1      15.304 -32.683  23.135  1.00  0.00     0.053 C 
ATOM      4  C   UNL     1      14.105 -32.929  24.057  1.00  0.00     0.016 C 
BRANCH   3   5
ATOM      5  C   UNL     1      15.673 -31.184  23.127  1.00  0.00     0.015 C 
BRANCH   5   6
ATOM      6  C   UNL     1      17.164 -30.915  23.387  1.00  0.00     0.028 C 
BRANCH   6   7
ATOM      7  C   UNL     1      17.873 -32.122  23.951  1.00  0.00    -0.028 C 
ATOM      8  C   UNL     1      18.751 -32.920  23.297  1.00  0.00    -0.070 CG0
ATOM      9  C   UNL     1      19.376 -34.054  24.072  1.00  0.00     0.039 C 
ATOM     10  G   UNL     1      19.121 -32.764  21.831  1.00  0.00     0.000 G0
ENDBRANCH   6   7
ENDBRANCH   5   6
ENDBRANCH   3   5
ENDBRANCH   1   3
BRANCH   1  11
ATOM     11  C   UNL     1      15.631 -34.362  21.052  1.00  0.00     0.087 C 
BRANCH  11  12
ATOM     12  C   UNL     1      17.155 -34.558  21.286  1.00  0.00     0.066 C 
BRANCH  12  13
ATOM     13  C   UNL     1      18.034 -33.359  20.927  1.00  0.00     0.140 C 
ATOM     14  O   UNL     1      17.814 -32.799  19.863  1.00  0.00    -0.299 OA
BRANCH  13  15
ATOM     15  C   UNL     1      19.120 -32.789  21.817  1.00  0.00     0.106 CG0
ATOM     16  G   UNL     1      18.748 -32.916  23.285  1.00  0.00     0.000 G0
ENDBRANCH  13  15
ENDBRANCH  12  13
BRANCH  12  17
ATOM     17  C   UNL     1      17.716 -35.834  20.580  1.00  0.00    -0.006 C 
ATOM     18  C   UNL     1      16.673 -36.547  19.704  1.00  0.00     0.008 C 
ATOM     19  C   UNL     1      18.353 -36.826  21.567  1.00  0.00     0.008 C 
ENDBRANCH  12  17
ENDBRANCH  11  12
ENDBRANCH   1  11
TORSDOF 1
ENDMDL
MODEL 7
REMARK VINA RESULT:    -3.835      1.861      4.414
REMARK INTER + INTRA:          -6.192
REMARK INTER:                  -6.539
REMARK INTRA:                   0.348
REMARK UNBOUND:                -0.339
REMARK SMILES CC1=CCC[C@@H](C)C(=O)C[C@@H](C(C)C)C(=O)C1
REMARK SMILES IDX 8 1 9 2 6 3 7 4 5 5 4 6 3 7 2 8 1 9 10 11 11 12 15 13 16 14
REMARK SMILES IDX 17 15 12 17 13 18 14 19
REMARK H PARENT
REMARK Flexibility Score: 70.00
ROOT
ATOM      1  C   UNL     1      14.768 -29.734  22.244  1.00  0.00     0.136 C 
ATOM      2  O   UNL     1      14.287 -28.779  22.838  1.00  0.00    -0.299 OA
ENDROOT
BRANCH   1   3
ATOM      3  C   UNL     1      13.968 -31.028  22.201  1.00  0.00     0.053 C 
ATOM      4  C   UNL     1      12.670 -30.795  21.421  1.00  0.00     0.016 C 
BRANCH   3   5
ATOM      5  C   UNL     1      13.652 -31.539  23.623  1.00  0.00     0.015 C 
BRANCH   5   6
ATOM      6  C   UNL     1      14.377 -32.845  23.985  1.00  0.00     0.028 C 
BRANCH   6   7
ATOM      7  C   UNL     1      14.941 -33.542  22.770  1.00  0.00    -0.028 C 
ATOM      8  C   UNL     1      16.245 -33.599  22.405  1.00  0.00    -0.070 CG0
ATOM      9  C   UNL     1      16.590 -34.389  21.168  1.00  0.00     0.039 C 
ATOM     10  G   UNL     1      17.371 -32.895  23.145  1.00  0.00     0.000 G0
ENDBRANCH   6   7
ENDBRANCH   5   6
ENDBRANCH   3   5
ENDBRANCH   1   3
BRANCH   1  11
ATOM     11  C   UNL     1      16.117 -29.525  21.580  1.00  0.00     0.087 C 
BRANCH  11  12
ATOM     12  C   UNL     1      17.088 -30.738  21.545  1.00  0.00     0.066 C 
BRANCH  12  13
ATOM     13  C   UNL     1      17.369 -31.393  22.897  1.00  0.00     0.140 C 
ATOM     14  O   UNL     1      17.557 -30.653  23.852  1.00  0.00    -0.299 OA
BRANCH  13  15
ATOM     15  C   UNL     1      17.380 -32.888  23.146  1.00  0.00     0.106 CG0
ATOM     16  G   UNL     1      16.242 -33.574  22.407  1.00  0.00     0.000 G0
ENDBRANCH  13  15
ENDBRANCH  12  13
BRANCH  12  17
ATOM     17  C   UNL     1      18.445 -30.406  20.844  1.00  0.00    -0.006 C 
ATOM     18  C   UNL     1      19.617 -31.251  21.368  1.00  0.00     0.008 C 
ATOM     19  C   UNL     1      18.794 -28.910  20.906  1.00  0.00     0.008 C 
ENDBRANCH  12  17
ENDBRANCH  11  12
ENDBRANCH   1  11
TORSDOF 1
ENDMDL
MODEL 8
REMARK VINA RESULT:    -3.810      1.464      1.630
REMARK INTER + INTRA:          -6.153
REMARK INTER:                  -6.154
REMARK INTRA:                   0.000
REMARK UNBOUND:                -0.339
REMARK SMILES CC1=CCC[C@@H](C)C(=O)C[C@@H](C(C)C)C(=O)C1
REMARK SMILES IDX 8 1 9 2 6 3 7 4 5 5 4 6 3 7 2 8 1 9 10 11 11 12 15 13 16 14
REMARK SMILES IDX 17 15 12 17 13 18 14 19
REMARK H PARENT
REMARK Flexibility Score: 70.00
ROOT
ATOM      1  C   UNL     1      15.098 -33.684  20.448  1.00  0.00     0.136 C 
ATOM      2  O   UNL     1      14.130 -33.275  19.822  1.00  0.00    -0.299 OA
ENDROOT
BRANCH   1   3
ATOM      3  C   UNL     1      16.207 -34.386  19.677  1.00  0.00     0.053 C 
ATOM      4  C   UNL     1      16.141 -35.892  19.953  1.00  0.00     0.016 C 
BRANCH   3   5
ATOM      5  C   UNL     1      17.596 -33.833  20.064  1.00  0.00     0.015 C 
BRANCH   5   6
ATOM      6  C   UNL     1      18.516 -34.878  20.715  1.00  0.00     0.028 C 
BRANCH   6   7
ATOM      7  C   UNL     1      19.452 -34.265  21.728  1.00  0.00    -0.028 C 
ATOM      8  C   UNL     1      19.134 -33.872  22.985  1.00  0.00    -0.070 CG0
ATOM      9  C   UNL     1      20.243 -33.319  23.845  1.00  0.00     0.039 C 
ATOM     10  G   UNL     1      17.732 -33.925  23.569  1.00  0.00     0.000 G0
ENDBRANCH   6   7
ENDBRANCH   5   6
ENDBRANCH   3   5
ENDBRANCH   1   3
BRANCH   1  11
ATOM     11  C   UNL     1      15.112 -33.425  21.944  1.00  0.00     0.087 C 
BRANCH  11  12
ATOM     12  C   UNL     1      15.959 -32.224  22.450  1.00  0.00     0.066 C 
BRANCH  12  13
ATOM     13  C   UNL     1      17.038 -32.568  23.477  1.00  0.00     0.140 C 
ATOM     14  O   UNL     1      17.334 -31.706  24.292  1.00  0.00    -0.299 OA
BRANCH  13  15
ATOM     15  C   UNL     1      17.726 -33.914  23.588  1.00  0.00     0.106 CG0
ATOM     16  G   UNL     1      19.119 -33.868  22.981  1.00  0.00     0.000 G0
ENDBRANCH  13  15
ENDBRANCH  12  13
BRANCH  12  17
ATOM     17  C   UNL     1      15.081 -31.055  23.001  1.00  0.00    -0.006 C 
ATOM     18  C   UNL     1      13.609 -31.448  23.204  1.00  0.00     0.008 C 
ATOM     19  C   UNL     1      15.181 -29.783  22.143  1.00  0.00     0.008 C 
ENDBRANCH  12  17
ENDBRANCH  11  12
ENDBRANCH   1  11
TORSDOF 1
ENDMDL
MODEL 9
REMARK VINA RESULT:    -3.792      2.119      3.785
REMARK INTER + INTRA:          -6.126
REMARK INTER:                  -6.121
REMARK INTRA:                  -0.005
REMARK UNBOUND:                -0.339
REMARK SMILES CC1=CCC[C@@H](C)C(=O)C[C@@H](C(C)C)C(=O)C1
REMARK SMILES IDX 8 1 9 2 6 3 7 4 5 5 4 6 3 7 2 8 1 9 10 11 11 12 15 13 16 14
REMARK SMILES IDX 17 15 12 17 13 18 14 19
REMARK H PARENT
REMARK Flexibility Score: 70.00
ROOT
ATOM      1  C   UNL     1      14.322 -32.158  22.715  1.00  0.00     0.136 C 
ATOM      2  O   UNL     1      13.815 -32.518  21.662  1.00  0.00    -0.299 OA
ENDROOT
BRANCH   1   3
ATOM      3  C   UNL     1      13.863 -30.838  23.318  1.00  0.00     0.053 C 
ATOM      4  C   UNL     1      12.593 -30.369  22.601  1.00  0.00     0.016 C 
BRANCH   3   5
ATOM      5  C   UNL     1      14.964 -29.761  23.212  1.00  0.00     0.015 C 
BRANCH   5   6
ATOM      6  C   UNL     1      15.385 -29.450  21.767  1.00  0.00     0.028 C 
BRANCH   6   7
ATOM      7  C   UNL     1      16.886 -29.404  21.605  1.00  0.00    -0.028 C 
ATOM      8  C   UNL     1      17.672 -30.382  21.093  1.00  0.00    -0.070 CG0
ATOM      9  C   UNL     1      19.151 -30.105  20.987  1.00  0.00     0.039 C 
ATOM     10  G   UNL     1      17.163 -31.744  20.650  1.00  0.00     0.000 G0
ENDBRANCH   6   7
ENDBRANCH   5   6
ENDBRANCH   3   5
ENDBRANCH   1   3
BRANCH   1  11
ATOM     11  C   UNL     1      15.349 -33.086  23.338  1.00  0.00     0.087 C 
BRANCH  11  12
ATOM     12  C   UNL     1      16.847 -32.709  23.161  1.00  0.00     0.066 C 
BRANCH  12  13
ATOM     13  C   UNL     1      17.381 -32.796  21.732  1.00  0.00     0.140 C 
ATOM     14  O   UNL     1      18.009 -33.801  21.426  1.00  0.00    -0.299 OA
BRANCH  13  15
ATOM     15  C   UNL     1      17.145 -31.754  20.657  1.00  0.00     0.106 CG0
ATOM     16  G   UNL     1      17.684 -30.398  21.082  1.00  0.00     0.000 G0
ENDBRANCH  13  15
ENDBRANCH  12  13
BRANCH  12  17
ATOM     17  C   UNL     1      17.790 -33.517  24.111  1.00  0.00    -0.006 C 
ATOM     18  C   UNL     1      17.261 -34.924  24.433  1.00  0.00     0.008 C 
ATOM     19  C   UNL     1      18.116 -32.758  25.408  1.00  0.00     0.008 C 
ENDBRANCH  12  17
ENDBRANCH  11  12
ENDBRANCH   1  11
TORSDOF 1
ENDMDL
