MODEL 1
REMARK VINA RESULT:    -6.381      0.000      0.000
REMARK INTER + INTRA:          -6.381
REMARK INTER:                  -6.381
REMARK INTRA:                   0.000
REMARK UNBOUND:                 0.000
REMARK SMILES C[C@@H]1C(=O)CC[C@@H]2[C@@]1(C)CC[C@H]1[C@]2(C)CC[C@]2(C)[C@H]3CC(C)(C)CC[C@]3(C)CC[C@]12C
REMARK SMILES IDX 1 1 2 2 3 3 4 4 5 5 6 6 7 7 8 8 10 9 11 10 12 11 13 12 15 13
REMARK SMILES IDX 16 14 17 15 30 16 29 17 28 18 26 19 19 20 20 21 21 22 24 23
REMARK SMILES IDX 25 24 22 25 23 26 27 27 31 28 18 29 14 30 9 31
REMARK H PARENT
REMARK Flexibility Score: inf
ROOT
ATOM      1  C   UNL     1     171.358 169.563 169.979  1.00  0.00     0.016 C 
ATOM      2  C   UNL     1     170.340 168.441 169.673  1.00  0.00     0.059 C 
ATOM      3  C   UNL     1     170.745 167.641 168.461  1.00  0.00     0.136 C 
ATOM      4  O   UNL     1     171.797 167.854 167.876  1.00  0.00    -0.299 OA
ATOM      5  C   UNL     1     169.883 166.499 168.045  1.00  0.00     0.076 C 
ATOM      6  C   UNL     1     168.438 166.966 167.875  1.00  0.00     0.012 C 
ATOM      7  C   UNL     1     167.851 167.789 169.073  1.00  0.00     0.002 C 
ATOM      8  C   UNL     1     168.845 168.939 169.554  1.00  0.00    -0.020 C 
ATOM      9  C   UNL     1     168.389 169.499 170.933  1.00  0.00     0.008 C 
ATOM     10  C   UNL     1     166.877 169.436 171.117  1.00  0.00     0.005 C 
ATOM     11  C   UNL     1     166.308 167.970 171.197  1.00  0.00     0.002 C 
ATOM     12  C   UNL     1     167.071 166.974 170.211  1.00  0.00    -0.026 C 
ATOM     13  C   UNL     1     168.033 166.074 171.004  1.00  0.00     0.008 C 
ATOM     14  C   UNL     1     167.341 165.324 172.135  1.00  0.00     0.008 C 
ATOM     15  C   UNL     1     166.792 166.229 173.284  1.00  0.00    -0.024 C 
ATOM     16  C   UNL     1     165.833 167.380 172.657  1.00  0.00    -0.024 C 
ATOM     17  C   UNL     1     164.325 166.879 172.485  1.00  0.00     0.008 C 
ATOM     18  C   UNL     1     163.917 165.542 173.119  1.00  0.00     0.007 C 
ATOM     19  C   UNL     1     164.508 165.332 174.517  1.00  0.00    -0.029 C 
ATOM     20  C   UNL     1     166.061 165.230 174.341  1.00  0.00     0.002 C 
ATOM     21  C   UNL     1     166.761 164.940 175.704  1.00  0.00     0.011 C 
ATOM     22  C   UNL     1     166.201 163.676 176.440  1.00  0.00    -0.035 C 
ATOM     23  C   UNL     1     164.646 163.642 176.439  1.00  0.00     0.007 C 
ATOM     24  C   UNL     1     164.020 163.956 175.067  1.00  0.00     0.007 C 
ATOM     25  C   UNL     1     166.755 162.375 175.802  1.00  0.00     0.011 C 
ATOM     26  C   UNL     1     166.688 163.713 177.905  1.00  0.00     0.011 C 
ATOM     27  C   UNL     1     163.973 166.430 175.501  1.00  0.00     0.011 C 
ATOM     28  C   UNL     1     165.780 168.560 173.689  1.00  0.00     0.012 C 
ATOM     29  C   UNL     1     168.049 166.863 173.973  1.00  0.00     0.012 C 
ATOM     30  C   UNL     1     166.016 166.058 169.500  1.00  0.00     0.012 C 
ATOM     31  C   UNL     1     168.779 170.100 168.512  1.00  0.00     0.012 C 
ENDROOT
TORSDOF 0
ENDMDL
MODEL 2
REMARK VINA RESULT:    -6.291      3.379      6.184
REMARK INTER + INTRA:          -6.291
REMARK INTER:                  -6.291
REMARK INTRA:                   0.000
REMARK UNBOUND:                 0.000
REMARK SMILES C[C@@H]1C(=O)CC[C@@H]2[C@@]1(C)CC[C@H]1[C@]2(C)CC[C@]2(C)[C@H]3CC(C)(C)CC[C@]3(C)CC[C@]12C
REMARK SMILES IDX 1 1 2 2 3 3 4 4 5 5 6 6 7 7 8 8 10 9 11 10 12 11 13 12 15 13
REMARK SMILES IDX 16 14 17 15 30 16 29 17 28 18 26 19 19 20 20 21 21 22 24 23
REMARK SMILES IDX 25 24 22 25 23 26 27 27 31 28 18 29 14 30 9 31
REMARK H PARENT
REMARK Flexibility Score: inf
ROOT
ATOM      1  C   UNL     1     163.981 165.706 169.980  1.00  0.00     0.016 C 
ATOM      2  C   UNL     1     165.000 166.827 169.674  1.00  0.00     0.059 C 
ATOM      3  C   UNL     1     164.594 167.625 168.461  1.00  0.00     0.136 C 
ATOM      4  O   UNL     1     163.542 167.412 167.876  1.00  0.00    -0.299 OA
ATOM      5  C   UNL     1     165.457 168.768 168.044  1.00  0.00     0.076 C 
ATOM      6  C   UNL     1     166.902 168.300 167.875  1.00  0.00     0.012 C 
ATOM      7  C   UNL     1     167.489 167.478 169.074  1.00  0.00     0.002 C 
ATOM      8  C   UNL     1     166.495 166.329 169.556  1.00  0.00    -0.020 C 
ATOM      9  C   UNL     1     166.950 165.770 170.936  1.00  0.00     0.008 C 
ATOM     10  C   UNL     1     168.462 165.834 171.120  1.00  0.00     0.005 C 
ATOM     11  C   UNL     1     169.030 167.300 171.198  1.00  0.00     0.002 C 
ATOM     12  C   UNL     1     168.268 168.295 170.211  1.00  0.00    -0.026 C 
ATOM     13  C   UNL     1     167.305 169.195 171.003  1.00  0.00     0.008 C 
ATOM     14  C   UNL     1     167.997 169.947 172.133  1.00  0.00     0.008 C 
ATOM     15  C   UNL     1     168.546 169.043 173.284  1.00  0.00    -0.024 C 
ATOM     16  C   UNL     1     169.505 167.891 172.658  1.00  0.00    -0.024 C 
ATOM     17  C   UNL     1     171.014 168.392 172.486  1.00  0.00     0.008 C 
ATOM     18  C   UNL     1     171.421 169.731 173.119  1.00  0.00     0.007 C 
ATOM     19  C   UNL     1     170.830 169.941 174.516  1.00  0.00    -0.029 C 
ATOM     20  C   UNL     1     169.277 170.043 174.339  1.00  0.00     0.002 C 
ATOM     21  C   UNL     1     168.576 170.335 175.702  1.00  0.00     0.011 C 
ATOM     22  C   UNL     1     169.136 171.600 176.438  1.00  0.00    -0.035 C 
ATOM     23  C   UNL     1     170.691 171.634 176.437  1.00  0.00     0.007 C 
ATOM     24  C   UNL     1     171.317 171.318 175.065  1.00  0.00     0.007 C 
ATOM     25  C   UNL     1     168.582 172.900 175.797  1.00  0.00     0.011 C 
ATOM     26  C   UNL     1     168.648 171.564 177.902  1.00  0.00     0.011 C 
ATOM     27  C   UNL     1     171.365 168.845 175.502  1.00  0.00     0.011 C 
ATOM     28  C   UNL     1     169.558 166.713 173.692  1.00  0.00     0.012 C 
ATOM     29  C   UNL     1     167.289 168.410 173.973  1.00  0.00     0.012 C 
ATOM     30  C   UNL     1     169.323 169.210 169.500  1.00  0.00     0.012 C 
ATOM     31  C   UNL     1     166.561 165.167 168.515  1.00  0.00     0.012 C 
ENDROOT
TORSDOF 0
ENDMDL
MODEL 3
REMARK VINA RESULT:    -6.263      2.841      4.500
REMARK INTER + INTRA:          -6.263
REMARK INTER:                  -6.263
REMARK INTRA:                   0.000
REMARK UNBOUND:                 0.000
REMARK SMILES C[C@@H]1C(=O)CC[C@@H]2[C@@]1(C)CC[C@H]1[C@]2(C)CC[C@]2(C)[C@H]3CC(C)(C)CC[C@]3(C)CC[C@]12C
REMARK SMILES IDX 1 1 2 2 3 3 4 4 5 5 6 6 7 7 8 8 10 9 11 10 12 11 13 12 15 13
REMARK SMILES IDX 16 14 17 15 30 16 29 17 28 18 26 19 19 20 20 21 21 22 24 23
REMARK SMILES IDX 25 24 22 25 23 26 27 27 31 28 18 29 14 30 9 31
REMARK H PARENT
REMARK Flexibility Score: inf
ROOT
ATOM      1  C   UNL     1     165.775 171.303 170.004  1.00  0.00     0.016 C 
ATOM      2  C   UNL     1     166.914 170.307 169.686  1.00  0.00     0.059 C 
ATOM      3  C   UNL     1     167.687 170.724 168.461  1.00  0.00     0.136 C 
ATOM      4  O   UNL     1     167.443 171.769 167.875  1.00  0.00    -0.299 OA
ATOM      5  C   UNL     1     168.842 169.885 168.032  1.00  0.00     0.076 C 
ATOM      6  C   UNL     1     168.403 168.430 167.875  1.00  0.00     0.012 C 
ATOM      7  C   UNL     1     167.610 167.830 169.087  1.00  0.00     0.002 C 
ATOM      8  C   UNL     1     166.446 168.801 169.581  1.00  0.00    -0.020 C 
ATOM      9  C   UNL     1     165.916 168.340 170.970  1.00  0.00     0.008 C 
ATOM     10  C   UNL     1     166.015 166.830 171.159  1.00  0.00     0.005 C 
ATOM     11  C   UNL     1     167.494 166.294 171.220  1.00  0.00     0.002 C 
ATOM     12  C   UNL     1     168.459 167.073 170.216  1.00  0.00    -0.026 C 
ATOM     13  C   UNL     1     169.349 168.058 170.992  1.00  0.00     0.008 C 
ATOM     14  C   UNL     1     170.130 167.388 172.115  1.00  0.00     0.008 C 
ATOM     15  C   UNL     1     169.254 166.825 173.280  1.00  0.00    -0.024 C 
ATOM     16  C   UNL     1     168.114 165.838 172.673  1.00  0.00    -0.024 C 
ATOM     17  C   UNL     1     168.645 164.340 172.500  1.00  0.00     0.008 C 
ATOM     18  C   UNL     1     170.001 163.964 173.117  1.00  0.00     0.007 C 
ATOM     19  C   UNL     1     170.218 164.565 174.509  1.00  0.00    -0.029 C 
ATOM     20  C   UNL     1     170.283 166.119 174.324  1.00  0.00     0.002 C 
ATOM     21  C   UNL     1     170.579 166.832 175.680  1.00  0.00     0.011 C 
ATOM     22  C   UNL     1     171.865 166.303 176.401  1.00  0.00    -0.035 C 
ATOM     23  C   UNL     1     171.933 164.749 176.405  1.00  0.00     0.007 C 
ATOM     24  C   UNL     1     171.612 164.110 175.040  1.00  0.00     0.007 C 
ATOM     25  C   UNL     1     173.144 166.881 175.741  1.00  0.00     0.011 C 
ATOM     26  C   UNL     1     171.838 166.796 177.864  1.00  0.00     0.011 C 
ATOM     27  C   UNL     1     169.146 164.011 175.511  1.00  0.00     0.011 C 
ATOM     28  C   UNL     1     166.952 165.764 173.723  1.00  0.00     0.012 C 
ATOM     29  C   UNL     1     168.603 168.071 173.973  1.00  0.00     0.012 C 
ATOM     30  C   UNL     1     169.387 166.035 169.497  1.00  0.00     0.012 C 
ATOM     31  C   UNL     1     165.272 168.706 168.556  1.00  0.00     0.012 C 
ENDROOT
TORSDOF 0
ENDMDL
MODEL 4
REMARK VINA RESULT:    -6.241      2.764      4.356
REMARK INTER + INTRA:          -6.241
REMARK INTER:                  -6.241
REMARK INTRA:                   0.000
REMARK UNBOUND:                 0.000
REMARK SMILES C[C@@H]1C(=O)CC[C@@H]2[C@@]1(C)CC[C@H]1[C@]2(C)CC[C@]2(C)[C@H]3CC(C)(C)CC[C@]3(C)CC[C@]12C
REMARK SMILES IDX 1 1 2 2 3 3 4 4 5 5 6 6 7 7 8 8 10 9 11 10 12 11 13 12 15 13
REMARK SMILES IDX 16 14 17 15 30 16 29 17 28 18 26 19 19 20 20 21 21 22 24 23
REMARK SMILES IDX 25 24 22 25 23 26 27 27 31 28 18 29 14 30 9 31
REMARK H PARENT
REMARK Flexibility Score: inf
ROOT
ATOM      1  C   UNL     1     169.604 163.954 169.971  1.00  0.00     0.016 C 
ATOM      2  C   UNL     1     168.477 164.970 169.674  1.00  0.00     0.059 C 
ATOM      3  C   UNL     1     167.673 164.566 168.464  1.00  0.00     0.136 C 
ATOM      4  O   UNL     1     167.887 163.516 167.875  1.00  0.00    -0.299 OA
ATOM      5  C   UNL     1     166.526 165.425 168.056  1.00  0.00     0.076 C 
ATOM      6  C   UNL     1     166.987 166.872 167.889  1.00  0.00     0.012 C 
ATOM      7  C   UNL     1     167.814 167.459 169.085  1.00  0.00     0.002 C 
ATOM      8  C   UNL     1     168.970 166.467 169.557  1.00  0.00    -0.020 C 
ATOM      9  C   UNL     1     169.535 166.920 170.935  1.00  0.00     0.008 C 
ATOM     10  C   UNL     1     169.467 168.431 171.124  1.00  0.00     0.005 C 
ATOM     11  C   UNL     1     167.999 168.995 171.213  1.00  0.00     0.002 C 
ATOM     12  C   UNL     1     167.001 168.232 170.229  1.00  0.00    -0.026 C 
ATOM     13  C   UNL     1     166.109 167.264 171.023  1.00  0.00     0.008 C 
ATOM     14  C   UNL     1     165.361 167.949 172.160  1.00  0.00     0.008 C 
ATOM     15  C   UNL     1     166.270 168.498 173.307  1.00  0.00    -0.024 C 
ATOM     16  C   UNL     1     167.415 169.463 172.677  1.00  0.00    -0.024 C 
ATOM     17  C   UNL     1     166.908 170.970 172.513  1.00  0.00     0.008 C 
ATOM     18  C   UNL     1     165.571 171.371 173.155  1.00  0.00     0.007 C 
ATOM     19  C   UNL     1     165.371 170.775 174.551  1.00  0.00    -0.029 C 
ATOM     20  C   UNL     1     165.274 169.222 174.370  1.00  0.00     0.002 C 
ATOM     21  C   UNL     1     164.992 168.517 175.732  1.00  0.00     0.011 C 
ATOM     22  C   UNL     1     163.729 169.069 176.477  1.00  0.00    -0.035 C 
ATOM     23  C   UNL     1     163.690 170.624 176.481  1.00  0.00     0.007 C 
ATOM     24  C   UNL     1     163.996 171.256 175.109  1.00  0.00     0.007 C 
ATOM     25  C   UNL     1     162.427 168.514 175.842  1.00  0.00     0.011 C 
ATOM     26  C   UNL     1     163.775 168.578 177.940  1.00  0.00     0.011 C 
ATOM     27  C   UNL     1     166.471 171.311 175.532  1.00  0.00     0.011 C 
ATOM     28  C   UNL     1     168.599 169.517 173.704  1.00  0.00     0.012 C 
ATOM     29  C   UNL     1     166.911 167.241 173.989  1.00  0.00     0.012 C 
ATOM     30  C   UNL     1     166.078 169.286 169.526  1.00  0.00     0.012 C 
ATOM     31  C   UNL     1     170.125 166.540 168.510  1.00  0.00     0.012 C 
ENDROOT
TORSDOF 0
ENDMDL
MODEL 5
REMARK VINA RESULT:    -5.591      2.577      3.937
REMARK INTER + INTRA:          -5.591
REMARK INTER:                  -5.591
REMARK INTRA:                   0.000
REMARK UNBOUND:                 0.000
REMARK SMILES C[C@@H]1C(=O)CC[C@@H]2[C@@]1(C)CC[C@H]1[C@]2(C)CC[C@]2(C)[C@H]3CC(C)(C)CC[C@]3(C)CC[C@]12C
REMARK SMILES IDX 1 1 2 2 3 3 4 4 5 5 6 6 7 7 8 8 10 9 11 10 12 11 13 12 15 13
REMARK SMILES IDX 16 14 17 15 30 16 29 17 28 18 26 19 19 20 20 21 21 22 24 23
REMARK SMILES IDX 25 24 22 25 23 26 27 27 31 28 18 29 14 30 9 31
REMARK H PARENT
REMARK Flexibility Score: inf
ROOT
ATOM      1  C   UNL     1     166.490 171.087 169.890  1.00  0.00     0.016 C 
ATOM      2  C   UNL     1     167.436 169.868 169.802  1.00  0.00     0.059 C 
ATOM      3  C   UNL     1     168.351 169.965 168.607  1.00  0.00     0.136 C 
ATOM      4  O   UNL     1     168.348 170.945 167.876  1.00  0.00    -0.299 OA
ATOM      5  C   UNL     1     169.350 168.880 168.390  1.00  0.00     0.076 C 
ATOM      6  C   UNL     1     168.654 167.520 168.378  1.00  0.00     0.012 C 
ATOM      7  C   UNL     1     167.686 167.248 169.581  1.00  0.00     0.002 C 
ATOM      8  C   UNL     1     166.699 168.471 169.844  1.00  0.00    -0.020 C 
ATOM      9  C   UNL     1     166.003 168.311 171.227  1.00  0.00     0.008 C 
ATOM     10  C   UNL     1     165.801 166.849 171.612  1.00  0.00     0.005 C 
ATOM     11  C   UNL     1     167.144 166.069 171.870  1.00  0.00     0.002 C 
ATOM     12  C   UNL     1     168.302 166.515 170.866  1.00  0.00    -0.026 C 
ATOM     13  C   UNL     1     169.311 167.422 171.588  1.00  0.00     0.008 C 
ATOM     14  C   UNL     1     169.878 166.785 172.851  1.00  0.00     0.008 C 
ATOM     15  C   UNL     1     168.838 166.556 173.995  1.00  0.00    -0.024 C 
ATOM     16  C   UNL     1     167.573 165.716 173.418  1.00  0.00    -0.024 C 
ATOM     17  C   UNL     1     167.819 164.138 173.481  1.00  0.00     0.008 C 
ATOM     18  C   UNL     1     169.037 163.614 174.257  1.00  0.00     0.007 C 
ATOM     19  C   UNL     1     169.275 164.354 175.577  1.00  0.00    -0.029 C 
ATOM     20  C   UNL     1     169.646 165.830 175.206  1.00  0.00     0.002 C 
ATOM     21  C   UNL     1     169.984 166.659 176.483  1.00  0.00     0.011 C 
ATOM     22  C   UNL     1     171.098 166.013 177.375  1.00  0.00    -0.035 C 
ATOM     23  C   UNL     1     170.869 164.488 177.580  1.00  0.00     0.007 C 
ATOM     24  C   UNL     1     170.520 163.734 176.282  1.00  0.00     0.007 C 
ATOM     25  C   UNL     1     172.503 166.254 176.764  1.00  0.00     0.011 C 
ATOM     26  C   UNL     1     171.072 166.702 178.757  1.00  0.00     0.011 C 
ATOM     27  C   UNL     1     168.056 164.147 176.541  1.00  0.00     0.011 C 
ATOM     28  C   UNL     1     166.353 166.000 174.361  1.00  0.00     0.012 C 
ATOM     29  C   UNL     1     168.393 167.983 174.466  1.00  0.00     0.012 C 
ATOM     30  C   UNL     1     169.059 165.237 170.367  1.00  0.00     0.012 C 
ATOM     31  C   UNL     1     165.595 168.447 168.740  1.00  0.00     0.012 C 
ENDROOT
TORSDOF 0
ENDMDL
MODEL 6
REMARK VINA RESULT:    -5.127      2.917      4.148
REMARK INTER + INTRA:          -5.127
REMARK INTER:                  -5.127
REMARK INTRA:                   0.000
REMARK UNBOUND:                 0.000
REMARK SMILES C[C@@H]1C(=O)CC[C@@H]2[C@@]1(C)CC[C@H]1[C@]2(C)CC[C@]2(C)[C@H]3CC(C)(C)CC[C@]3(C)CC[C@]12C
REMARK SMILES IDX 1 1 2 2 3 3 4 4 5 5 6 6 7 7 8 8 10 9 11 10 12 11 13 12 15 13
REMARK SMILES IDX 16 14 17 15 30 16 29 17 28 18 26 19 19 20 20 21 21 22 24 23
REMARK SMILES IDX 25 24 22 25 23 26 27 27 31 28 18 29 14 30 9 31
REMARK H PARENT
REMARK Flexibility Score: inf
ROOT
ATOM      1  C   UNL     1     170.310 168.431 168.323  1.00  0.00     0.016 C 
ATOM      2  C   UNL     1     169.310 167.716 169.259  1.00  0.00     0.059 C 
ATOM      3  C   UNL     1     169.177 166.254 168.913  1.00  0.00     0.136 C 
ATOM      4  O   UNL     1     169.857 165.739 168.037  1.00  0.00    -0.299 OA
ATOM      5  C   UNL     1     168.271 165.409 169.742  1.00  0.00     0.076 C 
ATOM      6  C   UNL     1     166.879 166.037 169.802  1.00  0.00     0.012 C 
ATOM      7  C   UNL     1     166.841 167.556 170.185  1.00  0.00     0.002 C 
ATOM      8  C   UNL     1     167.894 168.412 169.348  1.00  0.00    -0.020 C 
ATOM      9  C   UNL     1     168.065 169.822 169.983  1.00  0.00     0.008 C 
ATOM     10  C   UNL     1     166.791 170.315 170.660  1.00  0.00     0.005 C 
ATOM     11  C   UNL     1     166.380 169.474 171.926  1.00  0.00     0.002 C 
ATOM     12  C   UNL     1     166.675 167.918 171.738  1.00  0.00    -0.026 C 
ATOM     13  C   UNL     1     167.926 167.514 172.536  1.00  0.00     0.008 C 
ATOM     14  C   UNL     1     167.833 167.893 174.008  1.00  0.00     0.008 C 
ATOM     15  C   UNL     1     167.805 169.429 174.291  1.00  0.00    -0.024 C 
ATOM     16  C   UNL     1     166.618 170.119 173.420  1.00  0.00    -0.024 C 
ATOM     17  C   UNL     1     165.211 170.070 174.177  1.00  0.00     0.008 C 
ATOM     18  C   UNL     1     165.182 169.631 175.648  1.00  0.00     0.007 C 
ATOM     19  C   UNL     1     166.333 170.212 176.474  1.00  0.00    -0.029 C 
ATOM     20  C   UNL     1     167.655 169.594 175.903  1.00  0.00     0.002 C 
ATOM     21  C   UNL     1     168.893 170.064 176.725  1.00  0.00     0.011 C 
ATOM     22  C   UNL     1     168.769 169.786 178.262  1.00  0.00    -0.035 C 
ATOM     23  C   UNL     1     167.374 170.193 178.816  1.00  0.00     0.007 C 
ATOM     24  C   UNL     1     166.197 169.714 177.946  1.00  0.00     0.007 C 
ATOM     25  C   UNL     1     169.042 168.292 178.576  1.00  0.00     0.011 C 
ATOM     26  C   UNL     1     169.847 170.615 178.993  1.00  0.00     0.011 C 
ATOM     27  C   UNL     1     166.237 171.776 176.513  1.00  0.00     0.011 C 
ATOM     28  C   UNL     1     166.973 171.639 173.268  1.00  0.00     0.012 C 
ATOM     29  C   UNL     1     169.208 169.975 173.854  1.00  0.00     0.012 C 
ATOM     30  C   UNL     1     165.456 167.100 172.288  1.00  0.00     0.012 C 
ATOM     31  C   UNL     1     167.328 168.594 167.904  1.00  0.00     0.012 C 
ENDROOT
TORSDOF 0
ENDMDL
MODEL 7
REMARK VINA RESULT:    -5.056      3.627      7.478
REMARK INTER + INTRA:          -5.056
REMARK INTER:                  -5.056
REMARK INTRA:                   0.000
REMARK UNBOUND:                 0.000
REMARK SMILES C[C@@H]1C(=O)CC[C@@H]2[C@@]1(C)CC[C@H]1[C@]2(C)CC[C@]2(C)[C@H]3CC(C)(C)CC[C@]3(C)CC[C@]12C
REMARK SMILES IDX 1 1 2 2 3 3 4 4 5 5 6 6 7 7 8 8 10 9 11 10 12 11 13 12 15 13
REMARK SMILES IDX 16 14 17 15 30 16 29 17 28 18 26 19 19 20 20 21 21 22 24 23
REMARK SMILES IDX 25 24 22 25 23 26 27 27 31 28 18 29 14 30 9 31
REMARK H PARENT
REMARK Flexibility Score: inf
ROOT
ATOM      1  C   UNL     1     169.436 172.002 177.920  1.00  0.00     0.016 C 
ATOM      2  C   UNL     1     168.250 171.755 176.961  1.00  0.00     0.059 C 
ATOM      3  C   UNL     1     167.228 172.861 177.049  1.00  0.00     0.136 C 
ATOM      4  O   UNL     1     167.406 173.842 177.756  1.00  0.00    -0.299 OA
ATOM      5  C   UNL     1     166.030 172.791 176.165  1.00  0.00     0.076 C 
ATOM      6  C   UNL     1     165.327 171.446 176.339  1.00  0.00     0.012 C 
ATOM      7  C   UNL     1     166.252 170.184 176.240  1.00  0.00     0.002 C 
ATOM      8  C   UNL     1     167.571 170.337 177.122  1.00  0.00    -0.020 C 
ATOM      9  C   UNL     1     168.604 169.238 176.738  1.00  0.00     0.008 C 
ATOM     10  C   UNL     1     167.936 167.948 176.274  1.00  0.00     0.005 C 
ATOM     11  C   UNL     1     167.149 168.093 174.919  1.00  0.00     0.002 C 
ATOM     12  C   UNL     1     166.411 169.503 174.798  1.00  0.00    -0.026 C 
ATOM     13  C   UNL     1     167.179 170.424 173.835  1.00  0.00     0.008 C 
ATOM     14  C   UNL     1     167.404 169.789 172.468  1.00  0.00     0.008 C 
ATOM     15  C   UNL     1     168.343 168.540 172.470  1.00  0.00    -0.024 C 
ATOM     16  C   UNL     1     167.799 167.455 173.549  1.00  0.00    -0.024 C 
ATOM     17  C   UNL     1     166.695 166.483 172.922  1.00  0.00     0.008 C 
ATOM     18  C   UNL     1     166.465 166.514 171.404  1.00  0.00     0.007 C 
ATOM     19  C   UNL     1     167.764 166.614 170.599  1.00  0.00    -0.029 C 
ATOM     20  C   UNL     1     168.396 168.008 170.933  1.00  0.00     0.002 C 
ATOM     21  C   UNL     1     169.694 168.247 170.103  1.00  0.00     0.011 C 
ATOM     22  C   UNL     1     169.492 168.084 168.558  1.00  0.00    -0.035 C 
ATOM     23  C   UNL     1     168.671 166.810 168.209  1.00  0.00     0.007 C 
ATOM     24  C   UNL     1     167.413 166.625 169.079  1.00  0.00     0.007 C 
ATOM     25  C   UNL     1     168.797 169.335 167.958  1.00  0.00     0.011 C 
ATOM     26  C   UNL     1     170.882 167.967 167.896  1.00  0.00     0.011 C 
ATOM     27  C   UNL     1     168.656 165.349 170.850  1.00  0.00     0.011 C 
ATOM     28  C   UNL     1     169.009 166.537 173.940  1.00  0.00     0.012 C 
ATOM     29  C   UNL     1     169.763 169.067 172.873  1.00  0.00     0.012 C 
ATOM     30  C   UNL     1     164.973 169.275 174.218  1.00  0.00     0.012 C 
ATOM     31  C   UNL     1     167.177 170.132 178.619  1.00  0.00     0.012 C 
ENDROOT
TORSDOF 0
ENDMDL
MODEL 8
REMARK VINA RESULT:    -5.052      2.856      7.425
REMARK INTER + INTRA:          -5.052
REMARK INTER:                  -5.052
REMARK INTRA:                   0.000
REMARK UNBOUND:                 0.000
REMARK SMILES C[C@@H]1C(=O)CC[C@@H]2[C@@]1(C)CC[C@H]1[C@]2(C)CC[C@]2(C)[C@H]3CC(C)(C)CC[C@]3(C)CC[C@]12C
REMARK SMILES IDX 1 1 2 2 3 3 4 4 5 5 6 6 7 7 8 8 10 9 11 10 12 11 13 12 15 13
REMARK SMILES IDX 16 14 17 15 30 16 29 17 28 18 26 19 19 20 20 21 21 22 24 23
REMARK SMILES IDX 25 24 22 25 23 26 27 27 31 28 18 29 14 30 9 31
REMARK H PARENT
REMARK Flexibility Score: inf
ROOT
ATOM      1  C   UNL     1     166.136 163.719 178.065  1.00  0.00     0.016 C 
ATOM      2  C   UNL     1     167.294 163.869 177.052  1.00  0.00     0.059 C 
ATOM      3  C   UNL     1     168.277 162.731 177.164  1.00  0.00     0.136 C 
ATOM      4  O   UNL     1     168.091 161.797 177.930  1.00  0.00    -0.299 OA
ATOM      5  C   UNL     1     169.443 162.708 176.235  1.00  0.00     0.076 C 
ATOM      6  C   UNL     1     170.200 164.033 176.310  1.00  0.00     0.012 C 
ATOM      7  C   UNL     1     169.319 165.322 176.175  1.00  0.00     0.002 C 
ATOM      8  C   UNL     1     168.029 165.266 177.111  1.00  0.00    -0.020 C 
ATOM      9  C   UNL     1     167.023 166.382 176.705  1.00  0.00     0.008 C 
ATOM     10  C   UNL     1     167.719 167.619 176.147  1.00  0.00     0.005 C 
ATOM     11  C   UNL     1     168.449 167.372 174.775  1.00  0.00     0.002 C 
ATOM     12  C   UNL     1     169.130 165.931 174.705  1.00  0.00    -0.026 C 
ATOM     13  C   UNL     1     168.293 164.990 173.822  1.00  0.00     0.008 C 
ATOM     14  C   UNL     1     168.040 165.559 172.431  1.00  0.00     0.008 C 
ATOM     15  C   UNL     1     167.148 166.841 172.398  1.00  0.00    -0.024 C 
ATOM     16  C   UNL     1     167.771 167.961 173.397  1.00  0.00    -0.024 C 
ATOM     17  C   UNL     1     168.885 168.856 172.679  1.00  0.00     0.008 C 
ATOM     18  C   UNL     1     169.057 168.735 171.157  1.00  0.00     0.007 C 
ATOM     19  C   UNL     1     167.726 168.642 170.406  1.00  0.00    -0.029 C 
ATOM     20  C   UNL     1     167.056 167.293 170.837  1.00  0.00     0.002 C 
ATOM     21  C   UNL     1     165.720 167.060 170.068  1.00  0.00     0.011 C 
ATOM     22  C   UNL     1     165.870 167.132 168.511  1.00  0.00    -0.035 C 
ATOM     23  C   UNL     1     166.723 168.354 168.064  1.00  0.00     0.007 C 
ATOM     24  C   UNL     1     168.019 168.537 168.877  1.00  0.00     0.007 C 
ATOM     25  C   UNL     1     166.496 165.826 167.956  1.00  0.00     0.011 C 
ATOM     26  C   UNL     1     164.461 167.267 167.893  1.00  0.00     0.011 C 
ATOM     27  C   UNL     1     166.890 169.951 170.619  1.00  0.00     0.011 C 
ATOM     28  C   UNL     1     166.611 168.944 173.780  1.00  0.00     0.012 C 
ATOM     29  C   UNL     1     165.726 166.392 172.880  1.00  0.00     0.012 C 
ATOM     30  C   UNL     1     170.552 166.072 174.063  1.00  0.00     0.012 C 
ATOM     31  C   UNL     1     168.487 165.536 178.579  1.00  0.00     0.012 C 
ENDROOT
TORSDOF 0
ENDMDL
MODEL 9
REMARK VINA RESULT:    -5.048      2.961      4.735
REMARK INTER + INTRA:          -5.048
REMARK INTER:                  -5.048
REMARK INTRA:                   0.000
REMARK UNBOUND:                 0.000
REMARK SMILES C[C@@H]1C(=O)CC[C@@H]2[C@@]1(C)CC[C@H]1[C@]2(C)CC[C@]2(C)[C@H]3CC(C)(C)CC[C@]3(C)CC[C@]12C
REMARK SMILES IDX 1 1 2 2 3 3 4 4 5 5 6 6 7 7 8 8 10 9 11 10 12 11 13 12 15 13
REMARK SMILES IDX 16 14 17 15 30 16 29 17 28 18 26 19 19 20 20 21 21 22 24 23
REMARK SMILES IDX 25 24 22 25 23 26 27 27 31 28 18 29 14 30 9 31
REMARK H PARENT
REMARK Flexibility Score: inf
ROOT
ATOM      1  C   UNL     1     169.045 165.021 168.259  1.00  0.00     0.016 C 
ATOM      2  C   UNL     1     168.134 165.864 169.179  1.00  0.00     0.059 C 
ATOM      3  C   UNL     1     166.685 165.748 168.779  1.00  0.00     0.136 C 
ATOM      4  O   UNL     1     166.328 165.006 167.876  1.00  0.00    -0.299 OA
ATOM      5  C   UNL     1     165.666 166.480 169.585  1.00  0.00     0.076 C 
ATOM      6  C   UNL     1     166.040 167.958 169.686  1.00  0.00     0.012 C 
ATOM      7  C   UNL     1     167.515 168.252 170.127  1.00  0.00     0.002 C 
ATOM      8  C   UNL     1     168.570 167.377 169.311  1.00  0.00    -0.020 C 
ATOM      9  C   UNL     1     169.965 167.442 169.998  1.00  0.00     0.008 C 
ATOM     10  C   UNL     1     170.204 168.769 170.708  1.00  0.00     0.005 C 
ATOM     11  C   UNL     1     169.261 169.007 171.945  1.00  0.00     0.002 C 
ATOM     12  C   UNL     1     167.786 168.450 171.694  1.00  0.00    -0.026 C 
ATOM     13  C   UNL     1     167.577 167.134 172.461  1.00  0.00     0.008 C 
ATOM     14  C   UNL     1     167.882 167.264 173.948  1.00  0.00     0.008 C 
ATOM     15  C   UNL     1     169.379 167.553 174.290  1.00  0.00    -0.024 C 
ATOM     16  C   UNL     1     169.883 168.856 173.460  1.00  0.00    -0.024 C 
ATOM     17  C   UNL     1     169.563 170.220 174.230  1.00  0.00     0.008 C 
ATOM     18  C   UNL     1     169.073 170.147 175.684  1.00  0.00     0.007 C 
ATOM     19  C   UNL     1     169.815 169.098 176.518  1.00  0.00    -0.029 C 
ATOM     20  C   UNL     1     169.457 167.700 175.908  1.00  0.00     0.002 C 
ATOM     21  C   UNL     1     170.105 166.547 176.735  1.00  0.00     0.011 C 
ATOM     22  C   UNL     1     169.755 166.594 178.261  1.00  0.00    -0.035 C 
ATOM     23  C   UNL     1     169.894 168.028 178.846  1.00  0.00     0.007 C 
ATOM     24  C   UNL     1     169.249 169.121 177.971  1.00  0.00     0.007 C 
ATOM     25  C   UNL     1     168.321 166.061 178.514  1.00  0.00     0.011 C 
ATOM     26  C   UNL     1     170.732 165.663 179.011  1.00  0.00     0.011 C 
ATOM     27  C   UNL     1     171.337 169.463 176.618  1.00  0.00     0.011 C 
ATOM     28  C   UNL     1     171.446 168.773 173.363  1.00  0.00     0.012 C 
ATOM     29  C   UNL     1     170.175 166.273 173.859  1.00  0.00     0.012 C 
ATOM     30  C   UNL     1     166.751 169.498 172.226  1.00  0.00     0.012 C 
ATOM     31  C   UNL     1     168.703 167.992 167.882  1.00  0.00     0.012 C 
ENDROOT
TORSDOF 0
ENDMDL
