MODEL 1
REMARK VINA RESULT:    -6.084      0.000      0.000
REMARK INTER + INTRA:         -11.954
REMARK INTER:                 -11.064
REMARK INTRA:                  -0.890
REMARK UNBOUND:                -0.890
REMARK SMILES CCCCCCCCCCCCCC[C@@H](C)C(=O)[O-]
REMARK SMILES IDX 9 1 10 2 11 3 12 4 13 5 14 6 15 7 16 8 17 9 18 10 19 11 8 12
REMARK SMILES IDX 7 13 6 14 5 15 4 16 3 17 2 18 1 19
REMARK H PARENT
REMARK Flexibility Score: inf
ROOT
ATOM      1  C   UNL     1       2.689 -27.888  -0.504  1.00  0.00     0.000 C 
ENDROOT
BRANCH   1   2
ATOM      2  C   UNL     1       2.148 -28.837   0.578  1.00  0.00     0.000 C 
BRANCH   2   3
ATOM      3  C   UNL     1       2.834 -28.633   1.940  1.00  0.00     0.000 C 
BRANCH   3   4
ATOM      4  C   UNL     1       4.062 -29.539   2.120  1.00  0.00     0.000 C 
BRANCH   4   5
ATOM      5  C   UNL     1       4.323 -29.908   3.587  1.00  0.00     0.001 C 
BRANCH   5   6
ATOM      6  C   UNL     1       3.219 -29.336   4.497  1.00  0.00     0.009 C 
BRANCH   6   7
ATOM      7  C   UNL     1       3.199 -29.940   5.921  1.00  0.00     0.032 C 
ATOM      8  C   UNL     1       2.306 -29.139   6.885  1.00  0.00     0.014 C 
BRANCH   7   9
ATOM      9  C   UNL     1       2.850 -31.411   5.892  1.00  0.00     0.044 C 
ATOM     10  O   UNL     1       3.740 -32.296   6.028  1.00  0.00    -0.550 OA
ATOM     11  O   UNL     1       1.524 -31.798   5.756  1.00  0.00    -0.550 OA
ENDBRANCH   7   9
ENDBRANCH   6   7
ENDBRANCH   5   6
ENDBRANCH   4   5
ENDBRANCH   3   4
ENDBRANCH   2   3
ENDBRANCH   1   2
BRANCH   1  12
ATOM     12  C   UNL     1       1.591 -27.025  -1.142  1.00  0.00     0.000 C 
BRANCH  12  13
ATOM     13  C   UNL     1       0.779 -26.285  -0.070  1.00  0.00    -0.000 C 
BRANCH  13  14
ATOM     14  C   UNL     1      -0.723 -26.226  -0.396  1.00  0.00    -0.000 C 
BRANCH  14  15
ATOM     15  C   UNL     1      -1.056 -25.195  -1.490  1.00  0.00    -0.000 C 
BRANCH  15  16
ATOM     16  C   UNL     1      -2.373 -24.443  -1.198  1.00  0.00    -0.000 C 
BRANCH  16  17
ATOM     17  C   UNL     1      -2.335 -23.626   0.106  1.00  0.00    -0.000 C 
BRANCH  17  18
ATOM     18  C   UNL     1      -3.643 -23.715   0.905  1.00  0.00    -0.003 C 
ATOM     19  C   UNL     1      -4.054 -25.166   1.127  1.00  0.00     0.004 C 
ENDBRANCH  17  18
ENDBRANCH  16  17
ENDBRANCH  15  16
ENDBRANCH  14  15
ENDBRANCH  13  14
ENDBRANCH  12  13
ENDBRANCH   1  12
TORSDOF 14
ENDMDL
MODEL 2
REMARK VINA RESULT:    -5.866      3.976      8.400
REMARK INTER + INTRA:         -11.556
REMARK INTER:                 -10.749
REMARK INTRA:                  -0.807
REMARK UNBOUND:                -0.890
REMARK SMILES CCCCCCCCCCCCCC[C@@H](C)C(=O)[O-]
REMARK SMILES IDX 9 1 10 2 11 3 12 4 13 5 14 6 15 7 16 8 17 9 18 10 19 11 8 12
REMARK SMILES IDX 7 13 6 14 5 15 4 16 3 17 2 18 1 19
REMARK H PARENT
REMARK Flexibility Score: inf
ROOT
ATOM      1  C   UNL     1       1.955 -27.013  -1.256  1.00  0.00     0.000 C 
ENDROOT
BRANCH   1   2
ATOM      2  C   UNL     1       0.697 -26.520  -0.523  1.00  0.00     0.000 C 
BRANCH   2   3
ATOM      3  C   UNL     1      -0.255 -25.737  -1.443  1.00  0.00     0.000 C 
BRANCH   3   4
ATOM      4  C   UNL     1      -1.626 -25.490  -0.796  1.00  0.00     0.000 C 
BRANCH   4   5
ATOM      5  C   UNL     1      -1.945 -26.485   0.327  1.00  0.00     0.001 C 
BRANCH   5   6
ATOM      6  C   UNL     1      -3.347 -26.218   0.909  1.00  0.00     0.009 C 
BRANCH   6   7
ATOM      7  C   UNL     1      -4.080 -25.019   0.262  1.00  0.00     0.032 C 
ATOM      8  C   UNL     1      -5.484 -25.395  -0.244  1.00  0.00     0.014 C 
BRANCH   7   9
ATOM      9  C   UNL     1      -4.096 -23.820   1.181  1.00  0.00     0.044 C 
ATOM     10  O   UNL     1      -3.178 -22.952   1.139  1.00  0.00    -0.550 OA
ATOM     11  O   UNL     1      -5.155 -23.643   2.060  1.00  0.00    -0.550 OA
ENDBRANCH   7   9
ENDBRANCH   6   7
ENDBRANCH   5   6
ENDBRANCH   4   5
ENDBRANCH   3   4
ENDBRANCH   2   3
ENDBRANCH   1   2
BRANCH   1  12
ATOM     12  C   UNL     1       2.705 -28.108  -0.482  1.00  0.00     0.000 C 
BRANCH  12  13
ATOM     13  C   UNL     1       2.090 -28.319   0.909  1.00  0.00    -0.000 C 
BRANCH  13  14
ATOM     14  C   UNL     1       2.745 -29.478   1.679  1.00  0.00    -0.000 C 
BRANCH  14  15
ATOM     15  C   UNL     1       3.170 -29.082   3.105  1.00  0.00    -0.000 C 
BRANCH  15  16
ATOM     16  C   UNL     1       3.176 -30.291   4.067  1.00  0.00    -0.000 C 
BRANCH  16  17
ATOM     17  C   UNL     1       3.609 -29.932   5.499  1.00  0.00    -0.000 C 
BRANCH  17  18
ATOM     18  C   UNL     1       2.476 -29.308   6.327  1.00  0.00    -0.003 C 
ATOM     19  C   UNL     1       1.314 -30.281   6.487  1.00  0.00     0.004 C 
ENDBRANCH  17  18
ENDBRANCH  16  17
ENDBRANCH  15  16
ENDBRANCH  14  15
ENDBRANCH  13  14
ENDBRANCH  12  13
ENDBRANCH   1  12
TORSDOF 14
ENDMDL
MODEL 3
REMARK VINA RESULT:    -5.825      1.286      1.718
REMARK INTER + INTRA:         -11.483
REMARK INTER:                 -10.873
REMARK INTRA:                  -0.610
REMARK UNBOUND:                -0.890
REMARK SMILES CCCCCCCCCCCCCC[C@@H](C)C(=O)[O-]
REMARK SMILES IDX 9 1 10 2 11 3 12 4 13 5 14 6 15 7 16 8 17 9 18 10 19 11 8 12
REMARK SMILES IDX 7 13 6 14 5 15 4 16 3 17 2 18 1 19
REMARK H PARENT
REMARK Flexibility Score: inf
ROOT
ATOM      1  C   UNL     1       1.201 -27.829   0.444  1.00  0.00     0.000 C 
ENDROOT
BRANCH   1   2
ATOM      2  C   UNL     1       2.191 -28.141   1.578  1.00  0.00     0.000 C 
BRANCH   2   3
ATOM      3  C   UNL     1       3.286 -29.133   1.151  1.00  0.00     0.000 C 
BRANCH   3   4
ATOM      4  C   UNL     1       4.069 -29.694   2.348  1.00  0.00     0.000 C 
BRANCH   4   5
ATOM      5  C   UNL     1       3.489 -29.257   3.700  1.00  0.00     0.001 C 
BRANCH   5   6
ATOM      6  C   UNL     1       3.922 -30.227   4.817  1.00  0.00     0.009 C 
BRANCH   6   7
ATOM      7  C   UNL     1       2.776 -31.110   5.364  1.00  0.00     0.032 C 
ATOM      8  C   UNL     1       3.293 -32.413   6.000  1.00  0.00     0.014 C 
BRANCH   7   9
ATOM      9  C   UNL     1       1.871 -30.330   6.290  1.00  0.00     0.044 C 
ATOM     10  O   UNL     1       0.694 -30.719   6.535  1.00  0.00    -0.550 OA
ATOM     11  O   UNL     1       2.351 -29.188   6.916  1.00  0.00    -0.550 OA
ENDBRANCH   7   9
ENDBRANCH   6   7
ENDBRANCH   5   6
ENDBRANCH   4   5
ENDBRANCH   3   4
ENDBRANCH   2   3
ENDBRANCH   1   2
BRANCH   1  12
ATOM     12  C   UNL     1       1.833 -27.007  -0.689  1.00  0.00     0.000 C 
BRANCH  12  13
ATOM     13  C   UNL     1       0.753 -26.366  -1.573  1.00  0.00    -0.000 C 
BRANCH  13  14
ATOM     14  C   UNL     1      -0.433 -25.819  -0.761  1.00  0.00    -0.000 C 
BRANCH  14  15
ATOM     15  C   UNL     1      -1.388 -24.957  -1.606  1.00  0.00    -0.000 C 
BRANCH  15  16
ATOM     16  C   UNL     1      -2.847 -25.046  -1.107  1.00  0.00    -0.000 C 
BRANCH  16  17
ATOM     17  C   UNL     1      -3.058 -24.421   0.283  1.00  0.00    -0.000 C 
BRANCH  17  18
ATOM     18  C   UNL     1      -4.540 -24.302   0.667  1.00  0.00    -0.003 C 
ATOM     19  C   UNL     1      -4.727 -23.353   1.845  1.00  0.00     0.004 C 
ENDBRANCH  17  18
ENDBRANCH  16  17
ENDBRANCH  15  16
ENDBRANCH  14  15
ENDBRANCH  13  14
ENDBRANCH  12  13
ENDBRANCH   1  12
TORSDOF 14
ENDMDL
MODEL 4
REMARK VINA RESULT:    -5.778      0.920      1.564
REMARK INTER + INTRA:         -11.397
REMARK INTER:                 -10.626
REMARK INTRA:                  -0.771
REMARK UNBOUND:                -0.890
REMARK SMILES CCCCCCCCCCCCCC[C@@H](C)C(=O)[O-]
REMARK SMILES IDX 9 1 10 2 11 3 12 4 13 5 14 6 15 7 16 8 17 9 18 10 19 11 8 12
REMARK SMILES IDX 7 13 6 14 5 15 4 16 3 17 2 18 1 19
REMARK H PARENT
REMARK Flexibility Score: inf
ROOT
ATOM      1  C   UNL     1       1.691 -28.023   0.995  1.00  0.00     0.000 C 
ENDROOT
BRANCH   1   2
ATOM      2  C   UNL     1       2.344 -29.266   1.622  1.00  0.00     0.000 C 
BRANCH   2   3
ATOM      3  C   UNL     1       3.875 -29.267   1.474  1.00  0.00     0.000 C 
BRANCH   3   4
ATOM      4  C   UNL     1       4.592 -29.618   2.787  1.00  0.00     0.000 C 
BRANCH   4   5
ATOM      5  C   UNL     1       3.677 -29.509   4.015  1.00  0.00     0.001 C 
BRANCH   5   6
ATOM      6  C   UNL     1       4.281 -30.269   5.212  1.00  0.00     0.009 C 
BRANCH   6   7
ATOM      7  C   UNL     1       3.256 -30.624   6.315  1.00  0.00     0.032 C 
ATOM      8  C   UNL     1       2.295 -29.460   6.618  1.00  0.00     0.014 C 
BRANCH   7   9
ATOM      9  C   UNL     1       2.530 -31.911   6.002  1.00  0.00     0.044 C 
ATOM     10  O   UNL     1       1.290 -31.921   5.762  1.00  0.00    -0.550 OA
ATOM     11  O   UNL     1       3.242 -33.101   5.934  1.00  0.00    -0.550 OA
ENDBRANCH   7   9
ENDBRANCH   6   7
ENDBRANCH   5   6
ENDBRANCH   4   5
ENDBRANCH   3   4
ENDBRANCH   2   3
ENDBRANCH   1   2
BRANCH   1  12
ATOM     12  C   UNL     1       1.747 -28.031  -0.540  1.00  0.00     0.000 C 
BRANCH  12  13
ATOM     13  C   UNL     1       1.334 -26.668  -1.113  1.00  0.00    -0.000 C 
BRANCH  13  14
ATOM     14  C   UNL     1       0.297 -25.943  -0.238  1.00  0.00    -0.000 C 
BRANCH  14  15
ATOM     15  C   UNL     1      -0.995 -25.603  -1.001  1.00  0.00    -0.000 C 
BRANCH  15  16
ATOM     16  C   UNL     1      -2.215 -25.489  -0.059  1.00  0.00    -0.000 C 
BRANCH  16  17
ATOM     17  C   UNL     1      -2.991 -24.171  -0.220  1.00  0.00    -0.000 C 
BRANCH  17  18
ATOM     18  C   UNL     1      -2.638 -23.133   0.855  1.00  0.00    -0.003 C 
ATOM     19  C   UNL     1      -1.264 -22.524   0.600  1.00  0.00     0.004 C 
ENDBRANCH  17  18
ENDBRANCH  16  17
ENDBRANCH  15  16
ENDBRANCH  14  15
ENDBRANCH  13  14
ENDBRANCH  12  13
ENDBRANCH   1  12
TORSDOF 14
ENDMDL
MODEL 5
REMARK VINA RESULT:    -5.678      3.480      8.447
REMARK INTER + INTRA:         -11.214
REMARK INTER:                 -10.162
REMARK INTRA:                  -1.052
REMARK UNBOUND:                -0.890
REMARK SMILES CCCCCCCCCCCCCC[C@@H](C)C(=O)[O-]
REMARK SMILES IDX 9 1 10 2 11 3 12 4 13 5 14 6 15 7 16 8 17 9 18 10 19 11 8 12
REMARK SMILES IDX 7 13 6 14 5 15 4 16 3 17 2 18 1 19
REMARK H PARENT
REMARK Flexibility Score: inf
ROOT
ATOM      1  C   UNL     1       3.155 -28.859   0.312  1.00  0.00     0.000 C 
ENDROOT
BRANCH   1   2
ATOM      2  C   UNL     1       2.394 -27.721  -0.389  1.00  0.00     0.000 C 
BRANCH   2   3
ATOM      3  C   UNL     1       0.889 -27.733  -0.071  1.00  0.00     0.000 C 
BRANCH   3   4
ATOM      4  C   UNL     1       0.277 -26.324  -0.077  1.00  0.00     0.000 C 
BRANCH   4   5
ATOM      5  C   UNL     1      -0.100 -25.841  -1.484  1.00  0.00     0.001 C 
BRANCH   5   6
ATOM      6  C   UNL     1      -1.436 -25.074  -1.456  1.00  0.00     0.009 C 
BRANCH   6   7
ATOM      7  C   UNL     1      -1.854 -24.585  -0.050  1.00  0.00     0.032 C 
ATOM      8  C   UNL     1      -1.524 -23.099   0.176  1.00  0.00     0.014 C 
BRANCH   7   9
ATOM      9  C   UNL     1      -3.301 -24.910   0.241  1.00  0.00     0.044 C 
ATOM     10  O   UNL     1      -3.617 -25.727   1.151  1.00  0.00    -0.550 OA
ATOM     11  O   UNL     1      -4.304 -24.270  -0.474  1.00  0.00    -0.550 OA
ENDBRANCH   7   9
ENDBRANCH   6   7
ENDBRANCH   5   6
ENDBRANCH   4   5
ENDBRANCH   3   4
ENDBRANCH   2   3
ENDBRANCH   1   2
BRANCH   1  12
ATOM     12  C   UNL     1       2.440 -29.366   1.573  1.00  0.00     0.000 C 
BRANCH  12  13
ATOM     13  C   UNL     1       3.238 -29.016   2.837  1.00  0.00    -0.000 C 
BRANCH  13  14
ATOM     14  C   UNL     1       4.531 -29.837   2.971  1.00  0.00    -0.000 C 
BRANCH  14  15
ATOM     15  C   UNL     1       4.809 -30.281   4.418  1.00  0.00    -0.000 C 
BRANCH  15  16
ATOM     16  C   UNL     1       3.955 -31.503   4.826  1.00  0.00    -0.000 C 
BRANCH  16  17
ATOM     17  C   UNL     1       3.243 -31.328   6.179  1.00  0.00    -0.000 C 
BRANCH  17  18
ATOM     18  C   UNL     1       2.050 -30.364   6.107  1.00  0.00    -0.003 C 
ATOM     19  C   UNL     1       2.384 -29.027   6.758  1.00  0.00     0.004 C 
ENDBRANCH  17  18
ENDBRANCH  16  17
ENDBRANCH  15  16
ENDBRANCH  14  15
ENDBRANCH  13  14
ENDBRANCH  12  13
ENDBRANCH   1  12
TORSDOF 14
ENDMDL
MODEL 6
REMARK VINA RESULT:    -5.659      1.410      2.571
REMARK INTER + INTRA:         -11.181
REMARK INTER:                 -10.142
REMARK INTRA:                  -1.039
REMARK UNBOUND:                -0.890
REMARK SMILES CCCCCCCCCCCCCC[C@@H](C)C(=O)[O-]
REMARK SMILES IDX 9 1 10 2 11 3 12 4 13 5 14 6 15 7 16 8 17 9 18 10 19 11 8 12
REMARK SMILES IDX 7 13 6 14 5 15 4 16 3 17 2 18 1 19
REMARK H PARENT
REMARK Flexibility Score: inf
ROOT
ATOM      1  C   UNL     1       0.850 -26.406   0.016  1.00  0.00     0.000 C 
ENDROOT
BRANCH   1   2
ATOM      2  C   UNL     1       1.704 -27.194  -0.991  1.00  0.00     0.000 C 
BRANCH   2   3
ATOM      3  C   UNL     1       2.605 -28.239  -0.312  1.00  0.00     0.000 C 
BRANCH   3   4
ATOM      4  C   UNL     1       2.413 -28.278   1.212  1.00  0.00     0.000 C 
BRANCH   4   5
ATOM      5  C   UNL     1       3.315 -29.310   1.902  1.00  0.00     0.001 C 
BRANCH   5   6
ATOM      6  C   UNL     1       3.221 -29.177   3.435  1.00  0.00     0.009 C 
BRANCH   6   7
ATOM      7  C   UNL     1       3.074 -30.526   4.177  1.00  0.00     0.032 C 
ATOM      8  C   UNL     1       4.079 -31.581   3.679  1.00  0.00     0.014 C 
BRANCH   7   9
ATOM      9  C   UNL     1       3.121 -30.340   5.676  1.00  0.00     0.044 C 
ATOM     10  O   UNL     1       3.434 -31.293   6.444  1.00  0.00    -0.550 OA
ATOM     11  O   UNL     1       2.857 -29.091   6.220  1.00  0.00    -0.550 OA
ENDBRANCH   7   9
ENDBRANCH   6   7
ENDBRANCH   5   6
ENDBRANCH   4   5
ENDBRANCH   3   4
ENDBRANCH   2   3
ENDBRANCH   1   2
BRANCH   1  12
ATOM     12  C   UNL     1      -0.658 -26.603  -0.199  1.00  0.00     0.000 C 
BRANCH  12  13
ATOM     13  C   UNL     1      -1.264 -25.422  -0.970  1.00  0.00    -0.000 C 
BRANCH  13  14
ATOM     14  C   UNL     1      -1.516 -24.195  -0.077  1.00  0.00    -0.000 C 
BRANCH  14  15
ATOM     15  C   UNL     1      -2.994 -23.767  -0.056  1.00  0.00    -0.000 C 
BRANCH  15  16
ATOM     16  C   UNL     1      -3.827 -24.601   0.943  1.00  0.00    -0.000 C 
BRANCH  16  17
ATOM     17  C   UNL     1      -5.100 -25.205   0.324  1.00  0.00    -0.000 C 
BRANCH  17  18
ATOM     18  C   UNL     1      -4.845 -26.552  -0.369  1.00  0.00    -0.003 C 
ATOM     19  C   UNL     1      -4.899 -26.408  -1.886  1.00  0.00     0.004 C 
ENDBRANCH  17  18
ENDBRANCH  16  17
ENDBRANCH  15  16
ENDBRANCH  14  15
ENDBRANCH  13  14
ENDBRANCH  12  13
ENDBRANCH   1  12
TORSDOF 14
ENDMDL
MODEL 7
REMARK VINA RESULT:    -5.622      3.465      8.676
REMARK INTER + INTRA:         -11.113
REMARK INTER:                 -10.322
REMARK INTRA:                  -0.791
REMARK UNBOUND:                -0.890
REMARK SMILES CCCCCCCCCCCCCC[C@@H](C)C(=O)[O-]
REMARK SMILES IDX 9 1 10 2 11 3 12 4 13 5 14 6 15 7 16 8 17 9 18 10 19 11 8 12
REMARK SMILES IDX 7 13 6 14 5 15 4 16 3 17 2 18 1 19
REMARK H PARENT
REMARK Flexibility Score: inf
ROOT
ATOM      1  C   UNL     1       1.142 -27.377   0.580  1.00  0.00     0.000 C 
ENDROOT
BRANCH   1   2
ATOM      2  C   UNL     1       0.578 -26.105  -0.075  1.00  0.00     0.000 C 
BRANCH   2   3
ATOM      3  C   UNL     1      -0.927 -26.210  -0.372  1.00  0.00     0.000 C 
BRANCH   3   4
ATOM      4  C   UNL     1      -1.371 -25.267  -1.500  1.00  0.00     0.000 C 
BRANCH   4   5
ATOM      5  C   UNL     1      -2.587 -24.411  -1.120  1.00  0.00     0.001 C 
BRANCH   5   6
ATOM      6  C   UNL     1      -2.530 -24.013   0.368  1.00  0.00     0.009 C 
BRANCH   6   7
ATOM      7  C   UNL     1      -3.804 -24.375   1.166  1.00  0.00     0.032 C 
ATOM      8  C   UNL     1      -4.694 -23.149   1.437  1.00  0.00     0.014 C 
BRANCH   7   9
ATOM      9  C   UNL     1      -4.560 -25.511   0.516  1.00  0.00     0.044 C 
ATOM     10  O   UNL     1      -4.209 -26.712   0.687  1.00  0.00    -0.550 OA
ATOM     11  O   UNL     1      -5.685 -25.235  -0.249  1.00  0.00    -0.550 OA
ENDBRANCH   7   9
ENDBRANCH   6   7
ENDBRANCH   5   6
ENDBRANCH   4   5
ENDBRANCH   3   4
ENDBRANCH   2   3
ENDBRANCH   1   2
BRANCH   1  12
ATOM     12  C   UNL     1       2.232 -28.051  -0.268  1.00  0.00     0.000 C 
BRANCH  12  13
ATOM     13  C   UNL     1       3.254 -28.774   0.622  1.00  0.00    -0.000 C 
BRANCH  13  14
ATOM     14  C   UNL     1       2.606 -29.449   1.842  1.00  0.00    -0.000 C 
BRANCH  14  15
ATOM     15  C   UNL     1       3.345 -29.140   3.157  1.00  0.00    -0.000 C 
BRANCH  15  16
ATOM     16  C   UNL     1       4.655 -29.948   3.292  1.00  0.00    -0.000 C 
BRANCH  16  17
ATOM     17  C   UNL     1       5.052 -30.229   4.752  1.00  0.00    -0.000 C 
BRANCH  17  18
ATOM     18  C   UNL     1       3.840 -30.423   5.675  1.00  0.00    -0.003 C 
ATOM     19  C   UNL     1       3.347 -31.864   5.638  1.00  0.00     0.004 C 
ENDBRANCH  17  18
ENDBRANCH  16  17
ENDBRANCH  15  16
ENDBRANCH  14  15
ENDBRANCH  13  14
ENDBRANCH  12  13
ENDBRANCH   1  12
TORSDOF 14
ENDMDL
MODEL 8
REMARK VINA RESULT:    -5.501      4.038      8.883
REMARK INTER + INTRA:         -10.893
REMARK INTER:                  -9.893
REMARK INTRA:                  -0.999
REMARK UNBOUND:                -0.890
REMARK SMILES CCCCCCCCCCCCCC[C@@H](C)C(=O)[O-]
REMARK SMILES IDX 9 1 10 2 11 3 12 4 13 5 14 6 15 7 16 8 17 9 18 10 19 11 8 12
REMARK SMILES IDX 7 13 6 14 5 15 4 16 3 17 2 18 1 19
REMARK H PARENT
REMARK Flexibility Score: inf
ROOT
ATOM      1  C   UNL     1      -0.077 -25.949  -0.345  1.00  0.00     0.000 C 
ENDROOT
BRANCH   1   2
ATOM      2  C   UNL     1      -1.118 -25.838  -1.471  1.00  0.00     0.000 C 
BRANCH   2   3
ATOM      3  C   UNL     1      -1.463 -24.379  -1.816  1.00  0.00     0.000 C 
BRANCH   3   4
ATOM      4  C   UNL     1      -2.977 -24.141  -1.913  1.00  0.00     0.000 C 
BRANCH   4   5
ATOM      5  C   UNL     1      -3.803 -25.374  -1.520  1.00  0.00     0.001 C 
BRANCH   5   6
ATOM      6  C   UNL     1      -4.984 -24.972  -0.616  1.00  0.00     0.009 C 
BRANCH   6   7
ATOM      7  C   UNL     1      -4.641 -24.934   0.892  1.00  0.00     0.032 C 
ATOM      8  C   UNL     1      -3.547 -25.949   1.269  1.00  0.00     0.014 C 
BRANCH   7   9
ATOM      9  C   UNL     1      -4.315 -23.531   1.349  1.00  0.00     0.044 C 
ATOM     10  O   UNL     1      -5.175 -22.820   1.941  1.00  0.00    -0.550 OA
ATOM     11  O   UNL     1      -3.037 -23.026   1.153  1.00  0.00    -0.550 OA
ENDBRANCH   7   9
ENDBRANCH   6   7
ENDBRANCH   5   6
ENDBRANCH   4   5
ENDBRANCH   3   4
ENDBRANCH   2   3
ENDBRANCH   1   2
BRANCH   1  12
ATOM     12  C   UNL     1       0.296 -27.403  -0.020  1.00  0.00     0.000 C 
BRANCH  12  13
ATOM     13  C   UNL     1       1.462 -27.463   0.978  1.00  0.00    -0.000 C 
BRANCH  13  14
ATOM     14  C   UNL     1       2.019 -28.885   1.156  1.00  0.00    -0.000 C 
BRANCH  14  15
ATOM     15  C   UNL     1       3.542 -28.960   0.944  1.00  0.00    -0.000 C 
BRANCH  15  16
ATOM     16  C   UNL     1       4.281 -29.461   2.204  1.00  0.00    -0.000 C 
BRANCH  16  17
ATOM     17  C   UNL     1       3.465 -29.296   3.498  1.00  0.00    -0.000 C 
BRANCH  17  18
ATOM     18  C   UNL     1       4.039 -30.101   4.674  1.00  0.00    -0.003 C 
ATOM     19  C   UNL     1       5.542 -30.300   4.521  1.00  0.00     0.004 C 
ENDBRANCH  17  18
ENDBRANCH  16  17
ENDBRANCH  15  16
ENDBRANCH  14  15
ENDBRANCH  13  14
ENDBRANCH  12  13
ENDBRANCH   1  12
TORSDOF 14
ENDMDL
MODEL 9
REMARK VINA RESULT:    -5.324      5.077      9.624
REMARK INTER + INTRA:         -10.571
REMARK INTER:                  -9.479
REMARK INTRA:                  -1.093
REMARK UNBOUND:                -0.890
REMARK SMILES CCCCCCCCCCCCCC[C@@H](C)C(=O)[O-]
REMARK SMILES IDX 9 1 10 2 11 3 12 4 13 5 14 6 15 7 16 8 17 9 18 10 19 11 8 12
REMARK SMILES IDX 7 13 6 14 5 15 4 16 3 17 2 18 1 19
REMARK H PARENT
REMARK Flexibility Score: inf
ROOT
ATOM      1  C   UNL     1      -0.588 -26.066  -0.392  1.00  0.00     0.000 C 
ENDROOT
BRANCH   1   2
ATOM      2  C   UNL     1      -1.571 -26.999   0.335  1.00  0.00     0.000 C 
BRANCH   2   3
ATOM      3  C   UNL     1      -2.917 -26.318   0.638  1.00  0.00     0.000 C 
BRANCH   3   4
ATOM      4  C   UNL     1      -2.864 -24.796   0.435  1.00  0.00     0.000 C 
BRANCH   4   5
ATOM      5  C   UNL     1      -4.000 -24.272  -0.454  1.00  0.00     0.001 C 
BRANCH   5   6
ATOM      6  C   UNL     1      -3.818 -24.747  -1.908  1.00  0.00     0.009 C 
BRANCH   6   7
ATOM      7  C   UNL     1      -5.102 -25.326  -2.548  1.00  0.00     0.032 C 
ATOM      8  C   UNL     1      -6.114 -25.811  -1.495  1.00  0.00     0.014 C 
BRANCH   7   9
ATOM      9  C   UNL     1      -5.710 -24.359  -3.537  1.00  0.00     0.044 C 
ATOM     10  O   UNL     1      -4.987 -23.574  -4.214  1.00  0.00    -0.550 OA
ATOM     11  O   UNL     1      -7.083 -24.359  -3.739  1.00  0.00    -0.550 OA
ENDBRANCH   7   9
ENDBRANCH   6   7
ENDBRANCH   5   6
ENDBRANCH   4   5
ENDBRANCH   3   4
ENDBRANCH   2   3
ENDBRANCH   1   2
BRANCH   1  12
ATOM     12  C   UNL     1       0.863 -26.247   0.078  1.00  0.00     0.000 C 
BRANCH  12  13
ATOM     13  C   UNL     1       1.583 -27.319  -0.752  1.00  0.00    -0.000 C 
BRANCH  13  14
ATOM     14  C   UNL     1       1.798 -28.628   0.025  1.00  0.00    -0.000 C 
BRANCH  14  15
ATOM     15  C   UNL     1       2.499 -28.410   1.378  1.00  0.00    -0.000 C 
BRANCH  15  16
ATOM     16  C   UNL     1       3.834 -29.183   1.473  1.00  0.00    -0.000 C 
BRANCH  16  17
ATOM     17  C   UNL     1       4.198 -29.601   2.908  1.00  0.00    -0.000 C 
BRANCH  17  18
ATOM     18  C   UNL     1       3.106 -29.249   3.929  1.00  0.00    -0.003 C 
ATOM     19  C   UNL     1       3.488 -29.724   5.326  1.00  0.00     0.004 C 
ENDBRANCH  17  18
ENDBRANCH  16  17
ENDBRANCH  15  16
ENDBRANCH  14  15
ENDBRANCH  13  14
ENDBRANCH  12  13
ENDBRANCH   1  12
TORSDOF 14
ENDMDL
