MODEL 1
REMARK VINA RESULT:    -7.177      0.000      0.000
REMARK INTER + INTRA:          -8.727
REMARK INTER:                  -8.436
REMARK INTRA:                  -0.291
REMARK UNBOUND:                -0.291
REMARK SMILES O=c1cc(-c2ccc(O)c(O)c2)oc2cc(O)cc(O)c12
REMARK SMILES IDX 4 1 3 2 2 3 1 4 21 5 19 6 18 7 16 8 15 9 14 10 13 11 5 12
REMARK SMILES IDX 6 13 7 14 8 15 12 16 10 17 9 18 11 20 20 22 17 24
REMARK H PARENT 9 19 11 21 20 23 17 25
REMARK Flexibility Score: inf
ROOT
ATOM      1  C   UNL     1      13.890 -54.477  19.930  1.00  0.00     0.138 A 
ATOM      2  C   UNL     1      13.116 -53.425  19.423  1.00  0.00     0.100 A 
ATOM      3  C   UNL     1      12.042 -53.703  18.577  1.00  0.00     0.197 A 
ATOM      4  O   UNL     1      11.402 -52.733  18.093  1.00  0.00    -0.289 OA
ATOM      5  C   UNL     1      11.719 -55.046  18.265  1.00  0.00     0.107 A 
ATOM      6  C   UNL     1      10.626 -55.451  17.441  1.00  0.00     0.134 A 
ATOM      7  C   UNL     1      10.466 -56.806  17.124  1.00  0.00     0.093 A 
ATOM      8  C   UNL     1      11.321 -57.774  17.647  1.00  0.00     0.123 A 
ATOM      9  C   UNL     1      12.363 -57.396  18.495  1.00  0.00     0.094 A 
ATOM     10  C   UNL     1      12.571 -56.048  18.802  1.00  0.00     0.146 A 
ATOM     11  O   UNL     1      13.585 -55.728  19.598  1.00  0.00    -0.456 OA
ENDROOT
BRANCH   1  12
ATOM     12  C   UNL     1      15.041 -54.240  20.837  1.00  0.00     0.021 A 
ATOM     13  C   UNL     1      15.972 -53.237  20.522  1.00  0.00     0.016 A 
ATOM     14  C   UNL     1      17.059 -52.991  21.362  1.00  0.00     0.051 A 
ATOM     15  C   UNL     1      17.238 -53.729  22.536  1.00  0.00     0.157 A 
ATOM     16  C   UNL     1      15.212 -54.975  22.026  1.00  0.00     0.062 A 
ATOM     17  C   UNL     1      16.298 -54.731  22.875  1.00  0.00     0.158 A 
BRANCH  15  18
ATOM     18  O   UNL     1      18.350 -53.437  23.328  1.00  0.00    -0.504 OA
ATOM     19  H   UNL     1      18.775 -52.524  23.392  1.00  0.00     0.293 HD
ENDBRANCH  15  18
BRANCH  17  20
ATOM     20  O   UNL     1      16.402 -55.498  24.038  1.00  0.00    -0.504 OA
ATOM     21  H   UNL     1      15.704 -55.516  24.767  1.00  0.00     0.293 HD
ENDBRANCH  17  20
ENDBRANCH   1  12
BRANCH   6  22
ATOM     22  O   UNL     1       9.664 -54.575  16.928  1.00  0.00    -0.507 OA
ATOM     23  H   UNL     1       9.749 -53.570  16.905  1.00  0.00     0.293 HD
ENDBRANCH   6  22
BRANCH   8  24
ATOM     24  O   UNL     1      11.122 -59.115  17.323  1.00  0.00    -0.508 OA
ATOM     25  H   UNL     1      11.512 -59.519  16.480  1.00  0.00     0.293 HD
ENDBRANCH   8  24
TORSDOF 5
ENDMDL
MODEL 2
REMARK VINA RESULT:    -7.037      1.730      7.235
REMARK INTER + INTRA:          -8.562
REMARK INTER:                  -8.280
REMARK INTRA:                  -0.281
REMARK UNBOUND:                -0.291
REMARK SMILES O=c1cc(-c2ccc(O)c(O)c2)oc2cc(O)cc(O)c12
REMARK SMILES IDX 4 1 3 2 2 3 1 4 21 5 19 6 18 7 16 8 15 9 14 10 13 11 5 12
REMARK SMILES IDX 6 13 7 14 8 15 12 16 10 17 9 18 11 20 20 22 17 24
REMARK H PARENT 9 19 11 21 20 23 17 25
REMARK Flexibility Score: inf
ROOT
ATOM      1  C   UNL     1      13.242 -53.876  19.561  1.00  0.00     0.138 A 
ATOM      2  C   UNL     1      13.107 -54.453  20.830  1.00  0.00     0.100 A 
ATOM      3  C   UNL     1      14.160 -54.373  21.741  1.00  0.00     0.197 A 
ATOM      4  O   UNL     1      14.029 -54.949  22.852  1.00  0.00    -0.289 OA
ATOM      5  C   UNL     1      15.343 -53.677  21.391  1.00  0.00     0.107 A 
ATOM      6  C   UNL     1      16.469 -53.500  22.251  1.00  0.00     0.134 A 
ATOM      7  C   UNL     1      17.622 -52.878  21.757  1.00  0.00     0.093 A 
ATOM      8  C   UNL     1      17.671 -52.375  20.458  1.00  0.00     0.123 A 
ATOM      9  C   UNL     1      16.558 -52.497  19.625  1.00  0.00     0.094 A 
ATOM     10  C   UNL     1      15.405 -53.144  20.075  1.00  0.00     0.146 A 
ATOM     11  O   UNL     1      14.374 -53.256  19.245  1.00  0.00    -0.456 OA
ENDROOT
BRANCH   1  12
ATOM     12  C   UNL     1      12.152 -53.929  18.553  1.00  0.00     0.021 A 
ATOM     13  C   UNL     1      11.890 -52.800  17.761  1.00  0.00     0.016 A 
ATOM     14  C   UNL     1      10.875 -52.828  16.803  1.00  0.00     0.051 A 
ATOM     15  C   UNL     1      10.108 -53.980  16.605  1.00  0.00     0.157 A 
ATOM     16  C   UNL     1      11.390 -55.095  18.346  1.00  0.00     0.062 A 
ATOM     17  C   UNL     1      10.374 -55.131  17.384  1.00  0.00     0.158 A 
BRANCH  15  18
ATOM     18  O   UNL     1       9.105 -53.939  15.635  1.00  0.00    -0.504 OA
ATOM     19  H   UNL     1       8.147 -54.211  15.801  1.00  0.00     0.293 HD
ENDBRANCH  15  18
BRANCH  17  20
ATOM     20  O   UNL     1       9.660 -56.322  17.233  1.00  0.00    -0.504 OA
ATOM     21  H   UNL     1       8.996 -56.673  17.907  1.00  0.00     0.293 HD
ENDBRANCH  17  20
ENDBRANCH   1  12
BRANCH   6  22
ATOM     22  O   UNL     1      16.500 -53.894  23.593  1.00  0.00    -0.507 OA
ATOM     23  H   UNL     1      16.091 -53.379  24.357  1.00  0.00     0.293 HD
ENDBRANCH   6  22
BRANCH   8  24
ATOM     24  O   UNL     1      18.831 -51.747  20.007  1.00  0.00    -0.508 OA
ATOM     25  H   UNL     1      18.933 -50.740  20.036  1.00  0.00     0.293 HD
ENDBRANCH   8  24
TORSDOF 5
ENDMDL
MODEL 3
REMARK VINA RESULT:    -6.982      2.076      3.566
REMARK INTER + INTRA:          -8.498
REMARK INTER:                  -8.203
REMARK INTRA:                  -0.295
REMARK UNBOUND:                -0.291
REMARK SMILES O=c1cc(-c2ccc(O)c(O)c2)oc2cc(O)cc(O)c12
REMARK SMILES IDX 4 1 3 2 2 3 1 4 21 5 19 6 18 7 16 8 15 9 14 10 13 11 5 12
REMARK SMILES IDX 6 13 7 14 8 15 12 16 10 17 9 18 11 20 20 22 17 24
REMARK H PARENT 9 19 11 21 20 23 17 25
REMARK Flexibility Score: inf
ROOT
ATOM      1  C   UNL     1      12.352 -54.203  19.079  1.00  0.00     0.138 A 
ATOM      2  C   UNL     1      11.589 -55.362  18.889  1.00  0.00     0.100 A 
ATOM      3  C   UNL     1      10.675 -55.422  17.836  1.00  0.00     0.197 A 
ATOM      4  O   UNL     1       9.964 -56.455  17.726  1.00  0.00    -0.289 OA
ATOM      5  C   UNL     1      10.553 -54.328  16.946  1.00  0.00     0.107 A 
ATOM      6  C   UNL     1       9.679 -54.290  15.817  1.00  0.00     0.134 A 
ATOM      7  C   UNL     1       9.573 -53.112  15.067  1.00  0.00     0.093 A 
ATOM      8  C   UNL     1      10.349 -51.993  15.367  1.00  0.00     0.123 A 
ATOM      9  C   UNL     1      11.243 -52.035  16.438  1.00  0.00     0.094 A 
ATOM     10  C   UNL     1      11.346 -53.183  17.228  1.00  0.00     0.146 A 
ATOM     11  O   UNL     1      12.196 -53.177  18.249  1.00  0.00    -0.456 OA
ENDROOT
BRANCH   1  12
ATOM     12  C   UNL     1      13.341 -54.085  20.181  1.00  0.00     0.021 A 
ATOM     13  C   UNL     1      14.289 -53.050  20.148  1.00  0.00     0.016 A 
ATOM     14  C   UNL     1      15.225 -52.915  21.175  1.00  0.00     0.051 A 
ATOM     15  C   UNL     1      15.231 -53.798  22.259  1.00  0.00     0.157 A 
ATOM     16  C   UNL     1      13.337 -54.966  21.278  1.00  0.00     0.062 A 
ATOM     17  C   UNL     1      14.270 -54.834  22.313  1.00  0.00     0.158 A 
BRANCH  15  18
ATOM     18  O   UNL     1      16.198 -53.611  23.249  1.00  0.00    -0.504 OA
ATOM     19  H   UNL     1      16.121 -53.971  24.189  1.00  0.00     0.293 HD
ENDBRANCH  15  18
BRANCH  17  20
ATOM     20  O   UNL     1      14.204 -55.744  23.371  1.00  0.00    -0.504 OA
ATOM     21  H   UNL     1      14.897 -56.457  23.548  1.00  0.00     0.293 HD
ENDBRANCH  17  20
ENDBRANCH   1  12
BRANCH   6  22
ATOM     22  O   UNL     1       8.916 -55.377  15.379  1.00  0.00    -0.507 OA
ATOM     23  H   UNL     1       9.231 -56.334  15.359  1.00  0.00     0.293 HD
ENDBRANCH   6  22
BRANCH   8  24
ATOM     24  O   UNL     1      10.228 -50.844  14.588  1.00  0.00    -0.508 OA
ATOM     25  H   UNL     1      11.005 -50.489  14.044  1.00  0.00     0.293 HD
ENDBRANCH   8  24
TORSDOF 5
ENDMDL
MODEL 4
REMARK VINA RESULT:    -6.888      1.670      2.091
REMARK INTER + INTRA:          -8.387
REMARK INTER:                  -8.075
REMARK INTRA:                  -0.312
REMARK UNBOUND:                -0.291
REMARK SMILES O=c1cc(-c2ccc(O)c(O)c2)oc2cc(O)cc(O)c12
REMARK SMILES IDX 4 1 3 2 2 3 1 4 21 5 19 6 18 7 16 8 15 9 14 10 13 11 5 12
REMARK SMILES IDX 6 13 7 14 8 15 12 16 10 17 9 18 11 20 20 22 17 24
REMARK H PARENT 9 19 11 21 20 23 17 25
REMARK Flexibility Score: inf
ROOT
ATOM      1  C   UNL     1      12.318 -54.151  19.034  1.00  0.00     0.138 A 
ATOM      2  C   UNL     1      12.047 -53.063  18.193  1.00  0.00     0.100 A 
ATOM      3  C   UNL     1      11.110 -53.199  17.168  1.00  0.00     0.197 A 
ATOM      4  O   UNL     1      10.931 -52.222  16.396  1.00  0.00    -0.289 OA
ATOM      5  C   UNL     1      10.414 -54.421  17.007  1.00  0.00     0.107 A 
ATOM      6  C   UNL     1       9.412 -54.664  16.019  1.00  0.00     0.134 A 
ATOM      7  C   UNL     1       8.863 -55.947  15.895  1.00  0.00     0.093 A 
ATOM      8  C   UNL     1       9.235 -56.977  16.756  1.00  0.00     0.123 A 
ATOM      9  C   UNL     1      10.176 -56.738  17.759  1.00  0.00     0.094 A 
ATOM     10  C   UNL     1      10.768 -55.479  17.887  1.00  0.00     0.146 A 
ATOM     11  O   UNL     1      11.673 -55.298  18.842  1.00  0.00    -0.456 OA
ENDROOT
BRANCH   1  12
ATOM     12  C   UNL     1      13.302 -54.062  20.142  1.00  0.00     0.021 A 
ATOM     13  C   UNL     1      14.287 -53.062  20.111  1.00  0.00     0.016 A 
ATOM     14  C   UNL     1      15.219 -52.954  21.144  1.00  0.00     0.051 A 
ATOM     15  C   UNL     1      15.187 -53.831  22.232  1.00  0.00     0.157 A 
ATOM     16  C   UNL     1      13.259 -54.937  21.244  1.00  0.00     0.062 A 
ATOM     17  C   UNL     1      14.189 -54.833  22.285  1.00  0.00     0.158 A 
BRANCH  15  18
ATOM     18  O   UNL     1      16.152 -53.673  23.228  1.00  0.00    -0.504 OA
ATOM     19  H   UNL     1      17.069 -53.283  23.070  1.00  0.00     0.293 HD
ENDBRANCH  15  18
BRANCH  17  20
ATOM     20  O   UNL     1      14.083 -55.734  23.347  1.00  0.00    -0.504 OA
ATOM     21  H   UNL     1      14.835 -56.332  23.658  1.00  0.00     0.293 HD
ENDBRANCH  17  20
ENDBRANCH   1  12
BRANCH   6  22
ATOM     22  O   UNL     1       8.909 -53.685  15.156  1.00  0.00    -0.507 OA
ATOM     23  H   UNL     1       9.290 -53.460  14.251  1.00  0.00     0.293 HD
ENDBRANCH   6  22
BRANCH   8  24
ATOM     24  O   UNL     1       8.655 -58.236  16.612  1.00  0.00    -0.508 OA
ATOM     25  H   UNL     1       8.505 -58.648  15.699  1.00  0.00     0.293 HD
ENDBRANCH   8  24
TORSDOF 5
ENDMDL
MODEL 5
REMARK VINA RESULT:    -6.856      1.476      7.179
REMARK INTER + INTRA:          -8.349
REMARK INTER:                  -8.084
REMARK INTRA:                  -0.265
REMARK UNBOUND:                -0.291
REMARK SMILES O=c1cc(-c2ccc(O)c(O)c2)oc2cc(O)cc(O)c12
REMARK SMILES IDX 4 1 3 2 2 3 1 4 21 5 19 6 18 7 16 8 15 9 14 10 13 11 5 12
REMARK SMILES IDX 6 13 7 14 8 15 12 16 10 17 9 18 11 20 20 22 17 24
REMARK H PARENT 9 19 11 21 20 23 17 25
REMARK Flexibility Score: inf
ROOT
ATOM      1  C   UNL     1      13.442 -55.440  19.772  1.00  0.00     0.138 A 
ATOM      2  C   UNL     1      13.409 -55.639  21.159  1.00  0.00     0.100 A 
ATOM      3  C   UNL     1      14.380 -55.044  21.965  1.00  0.00     0.197 A 
ATOM      4  O   UNL     1      14.356 -55.287  23.199  1.00  0.00    -0.289 OA
ATOM      5  C   UNL     1      15.367 -54.213  21.382  1.00  0.00     0.107 A 
ATOM      6  C   UNL     1      16.387 -53.526  22.109  1.00  0.00     0.134 A 
ATOM      7  C   UNL     1      17.369 -52.812  21.410  1.00  0.00     0.093 A 
ATOM      8  C   UNL     1      17.337 -52.711  20.021  1.00  0.00     0.123 A 
ATOM      9  C   UNL     1      16.316 -53.337  19.303  1.00  0.00     0.094 A 
ATOM     10  C   UNL     1      15.342 -54.087  19.967  1.00  0.00     0.146 A 
ATOM     11  O   UNL     1      14.398 -54.682  19.246  1.00  0.00    -0.456 OA
ENDROOT
BRANCH   1  12
ATOM     12  C   UNL     1      12.433 -56.047  18.867  1.00  0.00     0.021 A 
ATOM     13  C   UNL     1      12.625 -57.358  18.401  1.00  0.00     0.016 A 
ATOM     14  C   UNL     1      11.688 -57.952  17.555  1.00  0.00     0.051 A 
ATOM     15  C   UNL     1      10.538 -57.261  17.162  1.00  0.00     0.157 A 
ATOM     16  C   UNL     1      11.269 -55.355  18.484  1.00  0.00     0.062 A 
ATOM     17  C   UNL     1      10.323 -55.946  17.638  1.00  0.00     0.158 A 
BRANCH  15  18
ATOM     18  O   UNL     1       9.644 -57.911  16.309  1.00  0.00    -0.504 OA
ATOM     19  H   UNL     1       9.193 -58.788  16.524  1.00  0.00     0.293 HD
ENDBRANCH  15  18
BRANCH  17  20
ATOM     20  O   UNL     1       9.191 -55.200  17.302  1.00  0.00    -0.504 OA
ATOM     21  H   UNL     1       9.168 -54.191  17.269  1.00  0.00     0.293 HD
ENDBRANCH  17  20
ENDBRANCH   1  12
BRANCH   6  22
ATOM     22  O   UNL     1      16.468 -53.493  23.504  1.00  0.00    -0.507 OA
ATOM     23  H   UNL     1      16.420 -54.301  24.106  1.00  0.00     0.293 HD
ENDBRANCH   6  22
BRANCH   8  24
ATOM     24  O   UNL     1      18.322 -51.979  19.361  1.00  0.00    -0.508 OA
ATOM     25  H   UNL     1      18.243 -50.977  19.238  1.00  0.00     0.293 HD
ENDBRANCH   8  24
TORSDOF 5
ENDMDL
MODEL 6
REMARK VINA RESULT:    -6.771      2.498      7.201
REMARK INTER + INTRA:          -8.249
REMARK INTER:                  -7.983
REMARK INTRA:                  -0.267
REMARK UNBOUND:                -0.291
REMARK SMILES O=c1cc(-c2ccc(O)c(O)c2)oc2cc(O)cc(O)c12
REMARK SMILES IDX 4 1 3 2 2 3 1 4 21 5 19 6 18 7 16 8 15 9 14 10 13 11 5 12
REMARK SMILES IDX 6 13 7 14 8 15 12 16 10 17 9 18 11 20 20 22 17 24
REMARK H PARENT 9 19 11 21 20 23 17 25
REMARK Flexibility Score: inf
ROOT
ATOM      1  C   UNL     1      12.347 -53.482  18.577  1.00  0.00     0.138 A 
ATOM      2  C   UNL     1      11.664 -54.295  19.491  1.00  0.00     0.100 A 
ATOM      3  C   UNL     1      12.264 -54.620  20.708  1.00  0.00     0.197 A 
ATOM      4  O   UNL     1      11.649 -55.398  21.483  1.00  0.00    -0.289 OA
ATOM      5  C   UNL     1      13.541 -54.098  21.026  1.00  0.00     0.107 A 
ATOM      6  C   UNL     1      14.236 -54.334  22.251  1.00  0.00     0.134 A 
ATOM      7  C   UNL     1      15.539 -53.843  22.410  1.00  0.00     0.093 A 
ATOM      8  C   UNL     1      16.148 -53.079  21.417  1.00  0.00     0.123 A 
ATOM      9  C   UNL     1      15.459 -52.799  20.236  1.00  0.00     0.094 A 
ATOM     10  C   UNL     1      14.172 -53.303  20.031  1.00  0.00     0.146 A 
ATOM     11  O   UNL     1      13.558 -53.030  18.886  1.00  0.00    -0.456 OA
ENDROOT
BRANCH   1  12
ATOM     12  C   UNL     1      11.755 -53.101  17.269  1.00  0.00     0.021 A 
ATOM     13  C   UNL     1      11.134 -51.849  17.131  1.00  0.00     0.016 A 
ATOM     14  C   UNL     1      10.576 -51.466  15.911  1.00  0.00     0.051 A 
ATOM     15  C   UNL     1      10.632 -52.314  14.801  1.00  0.00     0.157 A 
ATOM     16  C   UNL     1      11.824 -53.951  16.149  1.00  0.00     0.062 A 
ATOM     17  C   UNL     1      11.270 -53.571  14.921  1.00  0.00     0.158 A 
BRANCH  15  18
ATOM     18  O   UNL     1      10.049 -51.873  13.611  1.00  0.00    -0.504 OA
ATOM     19  H   UNL     1       9.054 -51.783  13.469  1.00  0.00     0.293 HD
ENDBRANCH  15  18
BRANCH  17  20
ATOM     20  O   UNL     1      11.378 -54.465  13.852  1.00  0.00    -0.504 OA
ATOM     21  H   UNL     1      11.654 -55.431  13.949  1.00  0.00     0.293 HD
ENDBRANCH  17  20
ENDBRANCH   1  12
BRANCH   6  22
ATOM     22  O   UNL     1      13.692 -55.019  23.342  1.00  0.00    -0.507 OA
ATOM     23  H   UNL     1      12.744 -54.922  23.672  1.00  0.00     0.293 HD
ENDBRANCH   6  22
BRANCH   8  24
ATOM     24  O   UNL     1      17.439 -52.594  21.617  1.00  0.00    -0.508 OA
ATOM     25  H   UNL     1      17.615 -51.611  21.786  1.00  0.00     0.293 HD
ENDBRANCH   8  24
TORSDOF 5
ENDMDL
MODEL 7
REMARK VINA RESULT:    -6.644     11.993     14.456
REMARK INTER + INTRA:          -8.100
REMARK INTER:                  -7.832
REMARK INTRA:                  -0.269
REMARK UNBOUND:                -0.291
REMARK SMILES O=c1cc(-c2ccc(O)c(O)c2)oc2cc(O)cc(O)c12
REMARK SMILES IDX 4 1 3 2 2 3 1 4 21 5 19 6 18 7 16 8 15 9 14 10 13 11 5 12
REMARK SMILES IDX 6 13 7 14 8 15 12 16 10 17 9 18 11 20 20 22 17 24
REMARK H PARENT 9 19 11 21 20 23 17 25
REMARK Flexibility Score: inf
ROOT
ATOM      1  C   UNL     1       1.875 -47.514  18.390  1.00  0.00     0.138 A 
ATOM      2  C   UNL     1       0.714 -47.212  19.114  1.00  0.00     0.100 A 
ATOM      3  C   UNL     1       0.202 -48.142  20.018  1.00  0.00     0.197 A 
ATOM      4  O   UNL     1      -0.872 -47.864  20.612  1.00  0.00    -0.289 OA
ATOM      5  C   UNL     1       0.879 -49.369  20.226  1.00  0.00     0.107 A 
ATOM      6  C   UNL     1       0.469 -50.379  21.148  1.00  0.00     0.134 A 
ATOM      7  C   UNL     1       1.165 -51.594  21.194  1.00  0.00     0.093 A 
ATOM      8  C   UNL     1       2.286 -51.813  20.396  1.00  0.00     0.123 A 
ATOM      9  C   UNL     1       2.726 -50.814  19.527  1.00  0.00     0.094 A 
ATOM     10  C   UNL     1       2.033 -49.604  19.432  1.00  0.00     0.146 A 
ATOM     11  O   UNL     1       2.473 -48.686  18.579  1.00  0.00    -0.456 OA
ENDROOT
BRANCH   1  12
ATOM     12  C   UNL     1       2.465 -46.561  17.416  1.00  0.00     0.021 A 
ATOM     13  C   UNL     1       2.621 -46.951  16.076  1.00  0.00     0.016 A 
ATOM     14  C   UNL     1       3.167 -46.071  15.141  1.00  0.00     0.051 A 
ATOM     15  C   UNL     1       3.560 -44.782  15.516  1.00  0.00     0.157 A 
ATOM     16  C   UNL     1       2.847 -45.259  17.792  1.00  0.00     0.062 A 
ATOM     17  C   UNL     1       3.392 -44.369  16.859  1.00  0.00     0.158 A 
BRANCH  15  18
ATOM     18  O   UNL     1       4.104 -43.953  14.533  1.00  0.00    -0.504 OA
ATOM     19  H   UNL     1       3.889 -44.025  13.550  1.00  0.00     0.293 HD
ENDBRANCH  15  18
BRANCH  17  20
ATOM     20  O   UNL     1       3.746 -43.093  17.303  1.00  0.00    -0.504 OA
ATOM     21  H   UNL     1       3.657 -42.256  16.747  1.00  0.00     0.293 HD
ENDBRANCH  17  20
ENDBRANCH   1  12
BRANCH   6  22
ATOM     22  O   UNL     1      -0.591 -50.235  22.049  1.00  0.00    -0.507 OA
ATOM     23  H   UNL     1      -1.567 -50.316  21.813  1.00  0.00     0.293 HD
ENDBRANCH   6  22
BRANCH   8  24
ATOM     24  O   UNL     1       2.963 -53.029  20.480  1.00  0.00    -0.508 OA
ATOM     25  H   UNL     1       3.744 -53.158  21.112  1.00  0.00     0.293 HD
ENDBRANCH   8  24
TORSDOF 5
ENDMDL
MODEL 8
REMARK VINA RESULT:    -6.634      1.945      7.249
REMARK INTER + INTRA:          -8.088
REMARK INTER:                  -7.821
REMARK INTRA:                  -0.266
REMARK UNBOUND:                -0.291
REMARK SMILES O=c1cc(-c2ccc(O)c(O)c2)oc2cc(O)cc(O)c12
REMARK SMILES IDX 4 1 3 2 2 3 1 4 21 5 19 6 18 7 16 8 15 9 14 10 13 11 5 12
REMARK SMILES IDX 6 13 7 14 8 15 12 16 10 17 9 18 11 20 20 22 17 24
REMARK H PARENT 9 19 11 21 20 23 17 25
REMARK Flexibility Score: inf
ROOT
ATOM      1  C   UNL     1      13.244 -56.453  18.498  1.00  0.00     0.138 A 
ATOM      2  C   UNL     1      14.321 -56.210  17.635  1.00  0.00     0.100 A 
ATOM      3  C   UNL     1      15.545 -55.794  18.159  1.00  0.00     0.197 A 
ATOM      4  O   UNL     1      16.476 -55.530  17.355  1.00  0.00    -0.289 OA
ATOM      5  C   UNL     1      15.702 -55.656  19.560  1.00  0.00     0.107 A 
ATOM      6  C   UNL     1      16.914 -55.272  20.210  1.00  0.00     0.134 A 
ATOM      7  C   UNL     1      16.919 -55.074  21.597  1.00  0.00     0.093 A 
ATOM      8  C   UNL     1      15.777 -55.301  22.362  1.00  0.00     0.123 A 
ATOM      9  C   UNL     1      14.600 -55.726  21.744  1.00  0.00     0.094 A 
ATOM     10  C   UNL     1      14.552 -55.899  20.358  1.00  0.00     0.146 A 
ATOM     11  O   UNL     1      13.408 -56.286  19.806  1.00  0.00    -0.456 OA
ENDROOT
BRANCH   1  12
ATOM     12  C   UNL     1      11.920 -56.900  17.995  1.00  0.00     0.021 A 
ATOM     13  C   UNL     1      11.718 -58.257  17.699  1.00  0.00     0.016 A 
ATOM     14  C   UNL     1      10.481 -58.703  17.231  1.00  0.00     0.051 A 
ATOM     15  C   UNL     1       9.417 -57.812  17.058  1.00  0.00     0.157 A 
ATOM     16  C   UNL     1      10.847 -56.003  17.836  1.00  0.00     0.062 A 
ATOM     17  C   UNL     1       9.602 -56.444  17.370  1.00  0.00     0.158 A 
BRANCH  15  18
ATOM     18  O   UNL     1       8.208 -58.321  16.581  1.00  0.00    -0.504 OA
ATOM     19  H   UNL     1       8.022 -59.304  16.449  1.00  0.00     0.293 HD
ENDBRANCH  15  18
BRANCH  17  20
ATOM     20  O   UNL     1       8.583 -55.498  17.239  1.00  0.00    -0.504 OA
ATOM     21  H   UNL     1       8.585 -54.597  17.694  1.00  0.00     0.293 HD
ENDBRANCH  17  20
ENDBRANCH   1  12
BRANCH   6  22
ATOM     22  O   UNL     1      18.135 -55.094  19.552  1.00  0.00    -0.507 OA
ATOM     23  H   UNL     1      18.994 -54.804  19.993  1.00  0.00     0.293 HD
ENDBRANCH   6  22
BRANCH   8  24
ATOM     24  O   UNL     1      15.824 -55.108  23.742  1.00  0.00    -0.508 OA
ATOM     25  H   UNL     1      15.750 -55.886  24.388  1.00  0.00     0.293 HD
ENDBRANCH   8  24
TORSDOF 5
ENDMDL
MODEL 9
REMARK VINA RESULT:    -6.559      1.732      3.399
REMARK INTER + INTRA:          -8.000
REMARK INTER:                  -7.703
REMARK INTRA:                  -0.297
REMARK UNBOUND:                -0.291
REMARK SMILES O=c1cc(-c2ccc(O)c(O)c2)oc2cc(O)cc(O)c12
REMARK SMILES IDX 4 1 3 2 2 3 1 4 21 5 19 6 18 7 16 8 15 9 14 10 13 11 5 12
REMARK SMILES IDX 6 13 7 14 8 15 12 16 10 17 9 18 11 20 20 22 17 24
REMARK H PARENT 9 19 11 21 20 23 17 25
REMARK Flexibility Score: inf
ROOT
ATOM      1  C   UNL     1      12.734 -56.187  19.297  1.00  0.00     0.138 A 
ATOM      2  C   UNL     1      12.758 -57.506  18.827  1.00  0.00     0.100 A 
ATOM      3  C   UNL     1      11.928 -57.877  17.768  1.00  0.00     0.197 A 
ATOM      4  O   UNL     1      11.932 -59.083  17.406  1.00  0.00    -0.289 OA
ATOM      5  C   UNL     1      11.096 -56.911  17.153  1.00  0.00     0.107 A 
ATOM      6  C   UNL     1      10.233 -57.167  16.044  1.00  0.00     0.134 A 
ATOM      7  C   UNL     1       9.383 -56.152  15.584  1.00  0.00     0.093 A 
ATOM      8  C   UNL     1       9.405 -54.880  16.152  1.00  0.00     0.123 A 
ATOM      9  C   UNL     1      10.280 -54.604  17.204  1.00  0.00     0.094 A 
ATOM     10  C   UNL     1      11.116 -55.604  17.709  1.00  0.00     0.146 A 
ATOM     11  O   UNL     1      11.921 -55.306  18.723  1.00  0.00    -0.456 OA
ENDROOT
BRANCH   1  12
ATOM     12  C   UNL     1      13.598 -55.736  20.418  1.00  0.00     0.021 A 
ATOM     13  C   UNL     1      14.927 -56.184  20.487  1.00  0.00     0.016 A 
ATOM     14  C   UNL     1      15.760 -55.770  21.528  1.00  0.00     0.051 A 
ATOM     15  C   UNL     1      15.293 -54.895  22.513  1.00  0.00     0.157 A 
ATOM     16  C   UNL     1      13.130 -54.844  21.401  1.00  0.00     0.062 A 
ATOM     17  C   UNL     1      13.962 -54.421  22.445  1.00  0.00     0.158 A 
BRANCH  15  18
ATOM     18  O   UNL     1      16.176 -54.524  23.529  1.00  0.00    -0.504 OA
ATOM     19  H   UNL     1      16.148 -53.635  24.006  1.00  0.00     0.293 HD
ENDBRANCH  15  18
BRANCH  17  20
ATOM     20  O   UNL     1      13.430 -53.533  23.384  1.00  0.00    -0.504 OA
ATOM     21  H   UNL     1      12.571 -53.693  23.890  1.00  0.00     0.293 HD
ENDBRANCH  17  20
ENDBRANCH   1  12
BRANCH   6  22
ATOM     22  O   UNL     1      10.187 -58.379  15.350  1.00  0.00    -0.507 OA
ATOM     23  H   UNL     1      10.799 -59.164  15.512  1.00  0.00     0.293 HD
ENDBRANCH   6  22
BRANCH   8  24
ATOM     24  O   UNL     1       8.556 -53.892  15.658  1.00  0.00    -0.508 OA
ATOM     25  H   UNL     1       8.916 -53.013  15.305  1.00  0.00     0.293 HD
ENDBRANCH   8  24
TORSDOF 5
ENDMDL
