MODEL 1
REMARK VINA RESULT:    -4.562      0.000      0.000
REMARK INTER + INTRA:          -8.967
REMARK INTER:                  -7.229
REMARK INTRA:                  -1.738
REMARK UNBOUND:                -1.738
REMARK SMILES CCCCCCCCCCCC(=O)[O-]
REMARK SMILES IDX 7 1 8 2 9 3 10 4 11 5 12 6 13 7 14 8 6 9 5 10 4 11 3 12 2 13
REMARK SMILES IDX 1 14
REMARK H PARENT
REMARK Flexibility Score: inf
ROOT
ATOM      1  C   UNL     1      12.001  16.202  71.901  1.00  0.00     0.000 C 
ENDROOT
BRANCH   1   2
ATOM      2  C   UNL     1      13.019  16.887  70.981  1.00  0.00     0.000 C 
BRANCH   2   3
ATOM      3  C   UNL     1      13.871  15.849  70.237  1.00  0.00     0.000 C 
BRANCH   3   4
ATOM      4  C   UNL     1      13.376  14.406  70.450  1.00  0.00     0.006 C 
BRANCH   4   5
ATOM      5  C   UNL     1      12.999  13.669  69.156  1.00  0.00     0.053 C 
BRANCH   5   6
ATOM      6  C   UNL     1      11.577  13.198  69.170  1.00  0.00     0.041 C 
ATOM      7  O   UNL     1      11.055  12.726  68.126  1.00  0.00    -0.550 OA
ATOM      8  O   UNL     1      10.839  13.247  70.346  1.00  0.00    -0.550 OA
ENDBRANCH   5   6
ENDBRANCH   4   5
ENDBRANCH   3   4
ENDBRANCH   2   3
ENDBRANCH   1   2
BRANCH   1   9
ATOM      9  C   UNL     1      10.601  16.808  71.720  1.00  0.00     0.000 C 
BRANCH   9  10
ATOM     10  C   UNL     1      10.375  17.363  70.306  1.00  0.00    -0.000 C 
BRANCH  10  11
ATOM     11  C   UNL     1       9.461  16.463  69.455  1.00  0.00    -0.000 C 
BRANCH  11  12
ATOM     12  C   UNL     1      10.002  16.246  68.033  1.00  0.00    -0.000 C 
BRANCH  12  13
ATOM     13  C   UNL     1      11.172  17.185  67.698  1.00  0.00    -0.003 C 
ATOM     14  C   UNL     1      12.244  16.458  66.892  1.00  0.00     0.004 C 
ENDBRANCH  12  13
ENDBRANCH  11  12
ENDBRANCH  10  11
ENDBRANCH   9  10
ENDBRANCH   1   9
TORSDOF 10
ENDMDL
MODEL 2
REMARK VINA RESULT:    -4.550      1.972      4.105
REMARK INTER + INTRA:          -8.947
REMARK INTER:                  -7.587
REMARK INTRA:                  -1.360
REMARK UNBOUND:                -1.738
REMARK SMILES CCCCCCCCCCCC(=O)[O-]
REMARK SMILES IDX 7 1 8 2 9 3 10 4 11 5 12 6 13 7 14 8 6 9 5 10 4 11 3 12 2 13
REMARK SMILES IDX 1 14
REMARK H PARENT
REMARK Flexibility Score: inf
ROOT
ATOM      1  C   UNL     1      13.252  16.928  70.803  1.00  0.00     0.000 C 
ENDROOT
BRANCH   1   2
ATOM      2  C   UNL     1      12.083  16.331  71.597  1.00  0.00     0.000 C 
BRANCH   2   3
ATOM      3  C   UNL     1      10.742  16.629  70.910  1.00  0.00     0.000 C 
BRANCH   3   4
ATOM      4  C   UNL     1      10.902  17.469  69.628  1.00  0.00     0.006 C 
BRANCH   4   5
ATOM      5  C   UNL     1      10.565  16.715  68.333  1.00  0.00     0.053 C 
BRANCH   5   6
ATOM      6  C   UNL     1      11.582  16.955  67.260  1.00  0.00     0.041 C 
ATOM      7  O   UNL     1      11.548  18.014  66.580  1.00  0.00    -0.550 OA
ATOM      8  O   UNL     1      12.590  16.026  67.036  1.00  0.00    -0.550 OA
ENDBRANCH   5   6
ENDBRANCH   4   5
ENDBRANCH   3   4
ENDBRANCH   2   3
ENDBRANCH   1   2
BRANCH   1   9
ATOM      9  C   UNL     1      14.171  15.823  70.262  1.00  0.00     0.000 C 
BRANCH   9  10
ATOM     10  C   UNL     1      13.715  14.417  70.680  1.00  0.00    -0.000 C 
BRANCH  10  11
ATOM     11  C   UNL     1      13.218  13.577  69.489  1.00  0.00    -0.000 C 
BRANCH  11  12
ATOM     12  C   UNL     1      11.713  13.277  69.565  1.00  0.00    -0.000 C 
BRANCH  12  13
ATOM     13  C   UNL     1      11.110  12.932  68.195  1.00  0.00    -0.003 C 
ATOM     14  C   UNL     1       9.895  12.022  68.344  1.00  0.00     0.004 C 
ENDBRANCH  12  13
ENDBRANCH  11  12
ENDBRANCH  10  11
ENDBRANCH   9  10
ENDBRANCH   1   9
TORSDOF 10
ENDMDL
MODEL 3
REMARK VINA RESULT:    -4.547      1.690      4.164
REMARK INTER + INTRA:          -8.944
REMARK INTER:                  -7.408
REMARK INTRA:                  -1.536
REMARK UNBOUND:                -1.738
REMARK SMILES CCCCCCCCCCCC(=O)[O-]
REMARK SMILES IDX 7 1 8 2 9 3 10 4 11 5 12 6 13 7 14 8 6 9 5 10 4 11 3 12 2 13
REMARK SMILES IDX 1 14
REMARK H PARENT
REMARK Flexibility Score: inf
ROOT
ATOM      1  C   UNL     1       9.188  15.383  68.746  1.00  0.00     0.000 C 
ENDROOT
BRANCH   1   2
ATOM      2  C   UNL     1      10.132  16.363  68.039  1.00  0.00     0.000 C 
BRANCH   2   3
ATOM      3  C   UNL     1      10.666  17.416  69.022  1.00  0.00     0.000 C 
BRANCH   3   4
ATOM      4  C   UNL     1      10.127  17.226  70.452  1.00  0.00     0.006 C 
BRANCH   4   5
ATOM      5  C   UNL     1      11.203  16.889  71.495  1.00  0.00     0.053 C 
BRANCH   5   6
ATOM      6  C   UNL     1      10.831  15.698  72.323  1.00  0.00     0.041 C 
ATOM      7  O   UNL     1      11.175  14.542  71.962  1.00  0.00    -0.550 OA
ATOM      8  O   UNL     1      10.133  15.869  73.513  1.00  0.00    -0.550 OA
ENDBRANCH   5   6
ENDBRANCH   4   5
ENDBRANCH   3   4
ENDBRANCH   2   3
ENDBRANCH   1   2
BRANCH   1   9
ATOM      9  C   UNL     1       9.749  13.954  68.708  1.00  0.00     0.000 C 
BRANCH   9  10
ATOM     10  C   UNL     1      11.160  13.888  68.103  1.00  0.00    -0.000 C 
BRANCH  10  11
ATOM     11  C   UNL     1      12.060  12.858  68.811  1.00  0.00    -0.000 C 
BRANCH  11  12
ATOM     12  C   UNL     1      13.292  13.502  69.464  1.00  0.00    -0.000 C 
BRANCH  12  13
ATOM     13  C   UNL     1      13.514  14.952  69.006  1.00  0.00    -0.003 C 
ATOM     14  C   UNL     1      14.348  15.726  70.022  1.00  0.00     0.004 C 
ENDBRANCH  12  13
ENDBRANCH  11  12
ENDBRANCH  10  11
ENDBRANCH   9  10
ENDBRANCH   1   9
TORSDOF 10
ENDMDL
MODEL 4
REMARK VINA RESULT:    -4.513      1.909      3.844
REMARK INTER + INTRA:          -8.889
REMARK INTER:                  -7.312
REMARK INTRA:                  -1.577
REMARK UNBOUND:                -1.738
REMARK SMILES CCCCCCCCCCCC(=O)[O-]
REMARK SMILES IDX 7 1 8 2 9 3 10 4 11 5 12 6 13 7 14 8 6 9 5 10 4 11 3 12 2 13
REMARK SMILES IDX 1 14
REMARK H PARENT
REMARK Flexibility Score: inf
ROOT
ATOM      1  C   UNL     1       9.320  15.282  68.766  1.00  0.00     0.000 C 
ENDROOT
BRANCH   1   2
ATOM      2  C   UNL     1       9.738  13.808  68.709  1.00  0.00     0.000 C 
BRANCH   2   3
ATOM      3  C   UNL     1      10.871  13.518  69.704  1.00  0.00     0.000 C 
BRANCH   3   4
ATOM      4  C   UNL     1      12.211  13.208  69.011  1.00  0.00     0.006 C 
BRANCH   4   5
ATOM      5  C   UNL     1      13.452  13.596  69.830  1.00  0.00     0.053 C 
BRANCH   5   6
ATOM      6  C   UNL     1      14.160  14.782  69.253  1.00  0.00     0.041 C 
ATOM      7  O   UNL     1      15.165  15.266  69.837  1.00  0.00    -0.550 OA
ATOM      8  O   UNL     1      13.730  15.333  68.052  1.00  0.00    -0.550 OA
ENDBRANCH   5   6
ENDBRANCH   4   5
ENDBRANCH   3   4
ENDBRANCH   2   3
ENDBRANCH   1   2
BRANCH   1   9
ATOM      9  C   UNL     1      10.270  16.156  67.933  1.00  0.00     0.000 C 
BRANCH   9  10
ATOM     10  C   UNL     1      10.711  17.426  68.677  1.00  0.00    -0.000 C 
BRANCH  10  11
ATOM     11  C   UNL     1      10.621  17.277  70.207  1.00  0.00    -0.000 C 
BRANCH  11  12
ATOM     12  C   UNL     1      12.001  17.135  70.868  1.00  0.00    -0.000 C 
BRANCH  12  13
ATOM     13  C   UNL     1      11.985  16.169  72.063  1.00  0.00    -0.003 C 
ATOM     14  C   UNL     1      10.585  16.057  72.659  1.00  0.00     0.004 C 
ENDBRANCH  12  13
ENDBRANCH  11  12
ENDBRANCH  10  11
ENDBRANCH   9  10
ENDBRANCH   1   9
TORSDOF 10
ENDMDL
MODEL 5
REMARK VINA RESULT:    -4.510      1.750      4.435
REMARK INTER + INTRA:          -8.885
REMARK INTER:                  -7.245
REMARK INTRA:                  -1.640
REMARK UNBOUND:                -1.738
REMARK SMILES CCCCCCCCCCCC(=O)[O-]
REMARK SMILES IDX 7 1 8 2 9 3 10 4 11 5 12 6 13 7 14 8 6 9 5 10 4 11 3 12 2 13
REMARK SMILES IDX 1 14
REMARK H PARENT
REMARK Flexibility Score: inf
ROOT
ATOM      1  C   UNL     1      11.824  16.730  67.637  1.00  0.00     0.000 C 
ENDROOT
BRANCH   1   2
ATOM      2  C   UNL     1      10.360  16.292  67.502  1.00  0.00     0.000 C 
BRANCH   2   3
ATOM      3  C   UNL     1       9.631  16.392  68.850  1.00  0.00     0.000 C 
BRANCH   3   4
ATOM      4  C   UNL     1      10.359  17.301  69.857  1.00  0.00     0.006 C 
BRANCH   4   5
ATOM      5  C   UNL     1      10.169  16.896  71.327  1.00  0.00     0.053 C 
BRANCH   5   6
ATOM      6  C   UNL     1      11.370  16.189  71.876  1.00  0.00     0.041 C 
ATOM      7  O   UNL     1      12.504  16.734  71.827  1.00  0.00    -0.550 OA
ATOM      8  O   UNL     1      11.232  14.942  72.473  1.00  0.00    -0.550 OA
ENDBRANCH   5   6
ENDBRANCH   4   5
ENDBRANCH   3   4
ENDBRANCH   2   3
ENDBRANCH   1   2
BRANCH   1   9
ATOM      9  C   UNL     1      12.770  15.524  67.538  1.00  0.00     0.000 C 
BRANCH   9  10
ATOM     10  C   UNL     1      13.619  15.333  68.804  1.00  0.00    -0.000 C 
BRANCH  10  11
ATOM     11  C   UNL     1      13.284  14.029  69.551  1.00  0.00    -0.000 C 
BRANCH  11  12
ATOM     12  C   UNL     1      12.273  13.156  68.790  1.00  0.00    -0.000 C 
BRANCH  12  13
ATOM     13  C   UNL     1      10.926  13.041  69.520  1.00  0.00    -0.003 C 
ATOM     14  C   UNL     1       9.815  12.631  68.559  1.00  0.00     0.004 C 
ENDBRANCH  12  13
ENDBRANCH  11  12
ENDBRANCH  10  11
ENDBRANCH   9  10
ENDBRANCH   1   9
TORSDOF 10
ENDMDL
MODEL 6
REMARK VINA RESULT:    -4.465      1.882      4.012
REMARK INTER + INTRA:          -8.813
REMARK INTER:                  -7.198
REMARK INTRA:                  -1.615
REMARK UNBOUND:                -1.738
REMARK SMILES CCCCCCCCCCCC(=O)[O-]
REMARK SMILES IDX 7 1 8 2 9 3 10 4 11 5 12 6 13 7 14 8 6 9 5 10 4 11 3 12 2 13
REMARK SMILES IDX 1 14
REMARK H PARENT
REMARK Flexibility Score: inf
ROOT
ATOM      1  C   UNL     1      11.624  13.759  71.420  1.00  0.00     0.000 C 
ENDROOT
BRANCH   1   2
ATOM      2  C   UNL     1      11.066  14.958  72.196  1.00  0.00     0.000 C 
BRANCH   2   3
ATOM      3  C   UNL     1      11.568  16.281  71.598  1.00  0.00     0.000 C 
BRANCH   3   4
ATOM      4  C   UNL     1      10.459  17.071  70.879  1.00  0.00     0.006 C 
BRANCH   4   5
ATOM      5  C   UNL     1      10.785  17.438  69.423  1.00  0.00     0.053 C 
BRANCH   5   6
ATOM      6  C   UNL     1       9.976  16.641  68.447  1.00  0.00     0.041 C 
ATOM      7  O   UNL     1       8.903  16.092  68.812  1.00  0.00    -0.550 OA
ATOM      8  O   UNL     1      10.388  16.534  67.125  1.00  0.00    -0.550 OA
ENDBRANCH   5   6
ENDBRANCH   4   5
ENDBRANCH   3   4
ENDBRANCH   2   3
ENDBRANCH   1   2
BRANCH   1   9
ATOM      9  C   UNL     1      10.747  13.435  70.202  1.00  0.00     0.000 C 
BRANCH   9  10
ATOM     10  C   UNL     1      11.557  13.327  68.901  1.00  0.00    -0.000 C 
BRANCH  10  11
ATOM     11  C   UNL     1      13.066  13.537  69.125  1.00  0.00    -0.000 C 
BRANCH  11  12
ATOM     12  C   UNL     1      13.530  14.949  68.738  1.00  0.00    -0.000 C 
BRANCH  12  13
ATOM     13  C   UNL     1      14.652  15.472  69.648  1.00  0.00    -0.003 C 
ATOM     14  C   UNL     1      15.177  14.367  70.559  1.00  0.00     0.004 C 
ENDBRANCH  12  13
ENDBRANCH  11  12
ENDBRANCH  10  11
ENDBRANCH   9  10
ENDBRANCH   1   9
TORSDOF 10
ENDMDL
MODEL 7
REMARK VINA RESULT:    -4.459      0.748      1.600
REMARK INTER + INTRA:          -8.803
REMARK INTER:                  -7.209
REMARK INTRA:                  -1.594
REMARK UNBOUND:                -1.738
REMARK SMILES CCCCCCCCCCCC(=O)[O-]
REMARK SMILES IDX 7 1 8 2 9 3 10 4 11 5 12 6 13 7 14 8 6 9 5 10 4 11 3 12 2 13
REMARK SMILES IDX 1 14
REMARK H PARENT
REMARK Flexibility Score: inf
ROOT
ATOM      1  C   UNL     1      13.076  16.938  70.939  1.00  0.00     0.000 C 
ENDROOT
BRANCH   1   2
ATOM      2  C   UNL     1      13.828  16.025  69.962  1.00  0.00     0.000 C 
BRANCH   2   3
ATOM      3  C   UNL     1      14.118  14.658  70.599  1.00  0.00     0.000 C 
BRANCH   3   4
ATOM      4  C   UNL     1      13.615  13.482  69.742  1.00  0.00     0.006 C 
BRANCH   4   5
ATOM      5  C   UNL     1      12.593  13.875  68.664  1.00  0.00     0.053 C 
BRANCH   5   6
ATOM      6  C   UNL     1      11.246  13.272  68.918  1.00  0.00     0.041 C 
ATOM      7  O   UNL     1      10.781  13.229  70.087  1.00  0.00    -0.550 OA
ATOM      8  O   UNL     1      10.489  12.788  67.858  1.00  0.00    -0.550 OA
ENDBRANCH   5   6
ENDBRANCH   4   5
ENDBRANCH   3   4
ENDBRANCH   2   3
ENDBRANCH   1   2
BRANCH   1   9
ATOM      9  C   UNL     1      12.180  16.118  71.879  1.00  0.00     0.000 C 
BRANCH   9  10
ATOM     10  C   UNL     1      10.687  16.429  71.693  1.00  0.00    -0.000 C 
BRANCH  10  11
ATOM     11  C   UNL     1      10.421  17.358  70.495  1.00  0.00    -0.000 C 
BRANCH  11  12
ATOM     12  C   UNL     1       9.625  16.667  69.377  1.00  0.00    -0.000 C 
BRANCH  12  13
ATOM     13  C   UNL     1      10.339  16.731  68.018  1.00  0.00    -0.003 C 
ATOM     14  C   UNL     1      11.154  18.014  67.888  1.00  0.00     0.004 C 
ENDBRANCH  12  13
ENDBRANCH  11  12
ENDBRANCH  10  11
ENDBRANCH   9  10
ENDBRANCH   1   9
TORSDOF 10
ENDMDL
MODEL 8
REMARK VINA RESULT:    -4.457      1.831      3.994
REMARK INTER + INTRA:          -8.801
REMARK INTER:                  -7.303
REMARK INTRA:                  -1.498
REMARK UNBOUND:                -1.738
REMARK SMILES CCCCCCCCCCCC(=O)[O-]
REMARK SMILES IDX 7 1 8 2 9 3 10 4 11 5 12 6 13 7 14 8 6 9 5 10 4 11 3 12 2 13
REMARK SMILES IDX 1 14
REMARK H PARENT
REMARK Flexibility Score: inf
ROOT
ATOM      1  C   UNL     1      13.907  15.608  70.193  1.00  0.00     0.000 C 
ENDROOT
BRANCH   1   2
ATOM      2  C   UNL     1      13.242  16.885  70.721  1.00  0.00     0.000 C 
BRANCH   2   3
ATOM      3  C   UNL     1      12.259  16.564  71.856  1.00  0.00     0.000 C 
BRANCH   3   4
ATOM      4  C   UNL     1      10.790  16.564  71.391  1.00  0.00     0.006 C 
BRANCH   4   5
ATOM      5  C   UNL     1      10.502  17.498  70.206  1.00  0.00     0.053 C 
BRANCH   5   6
ATOM      6  C   UNL     1       9.865  16.774  69.060  1.00  0.00     0.041 C 
ATOM      7  O   UNL     1       8.755  16.199  69.212  1.00  0.00    -0.550 OA
ATOM      8  O   UNL     1      10.481  16.763  67.815  1.00  0.00    -0.550 OA
ENDBRANCH   5   6
ENDBRANCH   4   5
ENDBRANCH   3   4
ENDBRANCH   2   3
ENDBRANCH   1   2
BRANCH   1   9
ATOM      9  C   UNL     1      13.548  15.371  68.718  1.00  0.00     0.000 C 
BRANCH   9  10
ATOM     10  C   UNL     1      12.717  14.096  68.509  1.00  0.00    -0.000 C 
BRANCH  10  11
ATOM     11  C   UNL     1      12.345  13.408  69.835  1.00  0.00    -0.000 C 
BRANCH  11  12
ATOM     12  C   UNL     1      10.829  13.210  69.993  1.00  0.00    -0.000 C 
BRANCH  12  13
ATOM     13  C   UNL     1      10.120  12.991  68.648  1.00  0.00    -0.003 C 
ATOM     14  C   UNL     1       9.782  11.518  68.441  1.00  0.00     0.004 C 
ENDBRANCH  12  13
ENDBRANCH  11  12
ENDBRANCH  10  11
ENDBRANCH   9  10
ENDBRANCH   1   9
TORSDOF 10
ENDMDL
MODEL 9
REMARK VINA RESULT:    -4.411      1.711      3.398
REMARK INTER + INTRA:          -8.728
REMARK INTER:                  -7.276
REMARK INTRA:                  -1.451
REMARK UNBOUND:                -1.738
REMARK SMILES CCCCCCCCCCCC(=O)[O-]
REMARK SMILES IDX 7 1 8 2 9 3 10 4 11 5 12 6 13 7 14 8 6 9 5 10 4 11 3 12 2 13
REMARK SMILES IDX 1 14
REMARK H PARENT
REMARK Flexibility Score: inf
ROOT
ATOM      1  C   UNL     1      12.741  13.832  68.653  1.00  0.00     0.000 C 
ENDROOT
BRANCH   1   2
ATOM      2  C   UNL     1      13.704  13.683  69.837  1.00  0.00     0.000 C 
BRANCH   2   3
ATOM      3  C   UNL     1      14.238  15.052  70.287  1.00  0.00     0.000 C 
BRANCH   3   4
ATOM      4  C   UNL     1      13.194  16.176  70.143  1.00  0.00     0.006 C 
BRANCH   4   5
ATOM      5  C   UNL     1      12.717  16.770  71.477  1.00  0.00     0.053 C 
BRANCH   5   6
ATOM      6  C   UNL     1      11.423  16.167  71.931  1.00  0.00     0.041 C 
ATOM      7  O   UNL     1      10.373  16.861  71.947  1.00  0.00    -0.550 OA
ATOM      8  O   UNL     1      11.370  14.830  72.303  1.00  0.00    -0.550 OA
ENDBRANCH   5   6
ENDBRANCH   4   5
ENDBRANCH   3   4
ENDBRANCH   2   3
ENDBRANCH   1   2
BRANCH   1   9
ATOM      9  C   UNL     1      11.674  12.727  68.670  1.00  0.00     0.000 C 
BRANCH   9  10
ATOM     10  C   UNL     1      10.285  13.240  68.261  1.00  0.00    -0.000 C 
BRANCH  10  11
ATOM     11  C   UNL     1       9.755  14.331  69.209  1.00  0.00    -0.000 C 
BRANCH  11  12
ATOM     12  C   UNL     1       9.119  15.510  68.455  1.00  0.00    -0.000 C 
BRANCH  12  13
ATOM     13  C   UNL     1      10.012  16.760  68.454  1.00  0.00    -0.003 C 
ATOM     14  C   UNL     1      10.917  16.786  67.227  1.00  0.00     0.004 C 
ENDBRANCH  12  13
ENDBRANCH  11  12
ENDBRANCH  10  11
ENDBRANCH   9  10
ENDBRANCH   1   9
TORSDOF 10
ENDMDL
