MODEL 1
REMARK VINA RESULT:    -6.266      0.000      0.000
REMARK INTER + INTRA:          -7.356
REMARK INTER:                  -7.181
REMARK INTRA:                  -0.175
REMARK UNBOUND:                -0.175
REMARK SMILES O=C([O-])C=Cc1ccc(O)cc1
REMARK SMILES IDX 6 1 7 2 12 3 8 4 11 5 9 6 5 7 4 8 2 9 1 10 3 11 10 12
REMARK H PARENT 10 13
REMARK Flexibility Score: inf
ROOT
ATOM      1  C   UNL     1      29.827  37.525  27.081  1.00  0.00    -0.025 A 
ATOM      2  C   UNL     1      30.297  36.243  27.417  1.00  0.00     0.012 A 
ATOM      3  C   UNL     1      28.539  37.663  26.539  1.00  0.00     0.012 A 
ATOM      4  C   UNL     1      29.511  35.115  27.165  1.00  0.00     0.047 A 
ATOM      5  C   UNL     1      27.755  36.533  26.288  1.00  0.00     0.047 A 
ATOM      6  C   UNL     1      28.238  35.257  26.595  1.00  0.00     0.115 A 
ENDROOT
BRANCH   1   7
ATOM      7  C   UNL     1      30.616  38.735  27.388  1.00  0.00     0.010 C 
ATOM      8  C   UNL     1      30.485  39.491  28.489  1.00  0.00     0.025 C 
BRANCH   8   9
ATOM      9  C   UNL     1      29.671  39.146  29.670  1.00  0.00     0.064 C 
ATOM     10  O   UNL     1      30.247  38.826  30.742  1.00  0.00    -0.545 OA
ATOM     11  O   UNL     1      28.283  39.096  29.606  1.00  0.00    -0.545 OA
ENDBRANCH   8   9
ENDBRANCH   1   7
BRANCH   6  12
ATOM     12  O   UNL     1      27.447  34.141  26.338  1.00  0.00    -0.508 OA
ATOM     13  H   UNL     1      26.480  34.233  26.048  1.00  0.00     0.293 HD
ENDBRANCH   6  12
TORSDOF 3
ENDMDL
MODEL 2
REMARK VINA RESULT:    -6.196      2.846      4.342
REMARK INTER + INTRA:          -7.276
REMARK INTER:                  -7.184
REMARK INTRA:                  -0.092
REMARK UNBOUND:                -0.175
REMARK SMILES O=C([O-])C=Cc1ccc(O)cc1
REMARK SMILES IDX 6 1 7 2 12 3 8 4 11 5 9 6 5 7 4 8 2 9 1 10 3 11 10 12
REMARK H PARENT 10 13
REMARK Flexibility Score: inf
ROOT
ATOM      1  C   UNL     1      29.760  37.471  26.475  1.00  0.00    -0.025 A 
ATOM      2  C   UNL     1      30.248  37.840  25.209  1.00  0.00     0.012 A 
ATOM      3  C   UNL     1      28.483  37.899  26.870  1.00  0.00     0.012 A 
ATOM      4  C   UNL     1      29.491  38.669  24.376  1.00  0.00     0.047 A 
ATOM      5  C   UNL     1      27.728  38.728  26.035  1.00  0.00     0.047 A 
ATOM      6  C   UNL     1      28.229  39.119  24.789  1.00  0.00     0.115 A 
ENDROOT
BRANCH   1   7
ATOM      7  C   UNL     1      30.518  36.552  27.349  1.00  0.00     0.010 C 
ATOM      8  C   UNL     1      30.290  35.236  27.477  1.00  0.00     0.025 C 
BRANCH   8   9
ATOM      9  C   UNL     1      29.378  34.440  26.635  1.00  0.00     0.064 C 
ATOM     10  O   UNL     1      29.859  33.597  25.834  1.00  0.00    -0.545 OA
ATOM     11  O   UNL     1      28.003  34.652  26.651  1.00  0.00    -0.545 OA
ENDBRANCH   8   9
ENDBRANCH   1   7
BRANCH   6  12
ATOM     12  O   UNL     1      27.467  39.946  23.969  1.00  0.00    -0.508 OA
ATOM     13  H   UNL     1      26.588  39.634  23.572  1.00  0.00     0.293 HD
ENDBRANCH   6  12
TORSDOF 3
ENDMDL
MODEL 3
REMARK VINA RESULT:    -6.117      2.844      4.340
REMARK INTER + INTRA:          -7.185
REMARK INTER:                  -7.057
REMARK INTRA:                  -0.129
REMARK UNBOUND:                -0.175
REMARK SMILES O=C([O-])C=Cc1ccc(O)cc1
REMARK SMILES IDX 6 1 7 2 12 3 8 4 11 5 9 6 5 7 4 8 2 9 1 10 3 11 10 12
REMARK H PARENT 10 13
REMARK Flexibility Score: inf
ROOT
ATOM      1  C   UNL     1      29.615  38.020  26.787  1.00  0.00    -0.025 A 
ATOM      2  C   UNL     1      28.405  37.345  27.031  1.00  0.00     0.012 A 
ATOM      3  C   UNL     1      30.122  38.893  27.761  1.00  0.00     0.012 A 
ATOM      4  C   UNL     1      27.691  37.583  28.209  1.00  0.00     0.047 A 
ATOM      5  C   UNL     1      29.406  39.129  28.939  1.00  0.00     0.047 A 
ATOM      6  C   UNL     1      28.188  38.480  29.165  1.00  0.00     0.115 A 
ENDROOT
BRANCH   1   7
ATOM      7  C   UNL     1      30.413  37.744  25.575  1.00  0.00     0.010 C 
ATOM      8  C   UNL     1      30.236  38.325  24.378  1.00  0.00     0.025 C 
BRANCH   8   9
ATOM      9  C   UNL     1      29.346  39.470  24.107  1.00  0.00     0.064 C 
ATOM     10  O   UNL     1      29.845  40.555  23.709  1.00  0.00    -0.545 OA
ATOM     11  O   UNL     1      27.979  39.402  24.352  1.00  0.00    -0.545 OA
ENDBRANCH   8   9
ENDBRANCH   1   7
BRANCH   6  12
ATOM     12  O   UNL     1      27.486  38.726  30.342  1.00  0.00    -0.508 OA
ATOM     13  H   UNL     1      27.911  39.216  31.120  1.00  0.00     0.293 HD
ENDBRANCH   6  12
TORSDOF 3
ENDMDL
MODEL 4
REMARK VINA RESULT:    -6.084      2.583      3.997
REMARK INTER + INTRA:          -7.147
REMARK INTER:                  -6.893
REMARK INTRA:                  -0.254
REMARK UNBOUND:                -0.175
REMARK SMILES O=C([O-])C=Cc1ccc(O)cc1
REMARK SMILES IDX 6 1 7 2 12 3 8 4 11 5 9 6 5 7 4 8 2 9 1 10 3 11 10 12
REMARK H PARENT 10 13
REMARK Flexibility Score: inf
ROOT
ATOM      1  C   UNL     1      28.555  37.355  26.170  1.00  0.00    -0.025 A 
ATOM      2  C   UNL     1      27.630  37.964  27.037  1.00  0.00     0.012 A 
ATOM      3  C   UNL     1      28.940  38.023  24.998  1.00  0.00     0.012 A 
ATOM      4  C   UNL     1      27.062  39.198  26.707  1.00  0.00     0.047 A 
ATOM      5  C   UNL     1      28.371  39.258  24.671  1.00  0.00     0.047 A 
ATOM      6  C   UNL     1      27.428  39.847  25.520  1.00  0.00     0.115 A 
ENDROOT
BRANCH   1   7
ATOM      7  C   UNL     1      29.208  36.078  26.523  1.00  0.00     0.010 C 
ATOM      8  C   UNL     1      30.451  35.950  27.014  1.00  0.00     0.025 C 
BRANCH   8   9
ATOM      9  C   UNL     1      31.310  37.061  27.464  1.00  0.00     0.064 C 
ATOM     10  O   UNL     1      31.106  37.577  28.594  1.00  0.00    -0.545 OA
ATOM     11  O   UNL     1      32.292  37.601  26.641  1.00  0.00    -0.545 OA
ENDBRANCH   8   9
ENDBRANCH   1   7
BRANCH   6  12
ATOM     12  O   UNL     1      26.868  41.075  25.180  1.00  0.00    -0.508 OA
ATOM     13  H   UNL     1      26.644  41.307  24.219  1.00  0.00     0.293 HD
ENDBRANCH   6  12
TORSDOF 3
ENDMDL
MODEL 5
REMARK VINA RESULT:    -6.021      2.476      3.867
REMARK INTER + INTRA:          -7.076
REMARK INTER:                  -6.834
REMARK INTRA:                  -0.242
REMARK UNBOUND:                -0.175
REMARK SMILES O=C([O-])C=Cc1ccc(O)cc1
REMARK SMILES IDX 6 1 7 2 12 3 8 4 11 5 9 6 5 7 4 8 2 9 1 10 3 11 10 12
REMARK H PARENT 10 13
REMARK Flexibility Score: inf
ROOT
ATOM      1  C   UNL     1      28.417  38.400  26.976  1.00  0.00    -0.025 A 
ATOM      2  C   UNL     1      27.575  37.284  27.121  1.00  0.00     0.012 A 
ATOM      3  C   UNL     1      28.806  39.119  28.116  1.00  0.00     0.012 A 
ATOM      4  C   UNL     1      27.087  36.928  28.382  1.00  0.00     0.047 A 
ATOM      5  C   UNL     1      28.318  38.761  29.376  1.00  0.00     0.047 A 
ATOM      6  C   UNL     1      27.455  37.669  29.514  1.00  0.00     0.115 A 
ENDROOT
BRANCH   1   7
ATOM      7  C   UNL     1      28.987  38.762  25.662  1.00  0.00     0.010 C 
ATOM      8  C   UNL     1      30.214  38.432  25.229  1.00  0.00     0.025 C 
BRANCH   8   9
ATOM      9  C   UNL     1      31.135  37.496  25.901  1.00  0.00     0.064 C 
ATOM     10  O   UNL     1      30.868  36.266  25.901  1.00  0.00    -0.545 OA
ATOM     11  O   UNL     1      32.251  37.947  26.597  1.00  0.00    -0.545 OA
ENDBRANCH   8   9
ENDBRANCH   1   7
BRANCH   6  12
ATOM     12  O   UNL     1      26.975  37.325  30.774  1.00  0.00    -0.508 OA
ATOM     13  H   UNL     1      26.000  37.446  31.021  1.00  0.00     0.293 HD
ENDBRANCH   6  12
TORSDOF 3
ENDMDL
MODEL 6
REMARK VINA RESULT:    -5.977      2.140      2.737
REMARK INTER + INTRA:          -7.025
REMARK INTER:                  -6.792
REMARK INTRA:                  -0.233
REMARK UNBOUND:                -0.175
REMARK SMILES O=C([O-])C=Cc1ccc(O)cc1
REMARK SMILES IDX 6 1 7 2 12 3 8 4 11 5 9 6 5 7 4 8 2 9 1 10 3 11 10 12
REMARK H PARENT 10 13
REMARK Flexibility Score: inf
ROOT
ATOM      1  C   UNL     1      28.519  37.288  27.456  1.00  0.00    -0.025 A 
ATOM      2  C   UNL     1      27.636  37.771  26.474  1.00  0.00     0.012 A 
ATOM      3  C   UNL     1      28.828  35.919  27.488  1.00  0.00     0.012 A 
ATOM      4  C   UNL     1      27.032  36.888  25.574  1.00  0.00     0.047 A 
ATOM      5  C   UNL     1      28.222  35.038  26.586  1.00  0.00     0.047 A 
ATOM      6  C   UNL     1      27.320  35.518  25.630  1.00  0.00     0.115 A 
ENDROOT
BRANCH   1   7
ATOM      7  C   UNL     1      29.211  38.207  28.382  1.00  0.00     0.010 C 
ATOM      8  C   UNL     1      30.452  38.691  28.215  1.00  0.00     0.025 C 
BRANCH   8   9
ATOM      9  C   UNL     1      31.269  38.547  26.996  1.00  0.00     0.064 C 
ATOM     10  O   UNL     1      32.380  37.960  27.067  1.00  0.00    -0.545 OA
ATOM     11  O   UNL     1      30.874  39.106  25.786  1.00  0.00    -0.545 OA
ENDBRANCH   8   9
ENDBRANCH   1   7
BRANCH   6  12
ATOM     12  O   UNL     1      26.724  34.629  24.740  1.00  0.00    -0.508 OA
ATOM     13  H   UNL     1      26.479  33.686  25.018  1.00  0.00     0.293 HD
ENDBRANCH   6  12
TORSDOF 3
ENDMDL
MODEL 7
REMARK VINA RESULT:    -5.931      2.273      2.905
REMARK INTER + INTRA:          -6.972
REMARK INTER:                  -6.733
REMARK INTRA:                  -0.239
REMARK UNBOUND:                -0.175
REMARK SMILES O=C([O-])C=Cc1ccc(O)cc1
REMARK SMILES IDX 6 1 7 2 12 3 8 4 11 5 9 6 5 7 4 8 2 9 1 10 3 11 10 12
REMARK H PARENT 10 13
REMARK Flexibility Score: inf
ROOT
ATOM      1  C   UNL     1      28.889  37.910  25.825  1.00  0.00    -0.025 A 
ATOM      2  C   UNL     1      28.256  36.656  25.882  1.00  0.00     0.012 A 
ATOM      3  C   UNL     1      28.192  39.050  26.254  1.00  0.00     0.012 A 
ATOM      4  C   UNL     1      26.929  36.554  26.311  1.00  0.00     0.047 A 
ATOM      5  C   UNL     1      26.865  38.946  26.683  1.00  0.00     0.047 A 
ATOM      6  C   UNL     1      26.228  37.701  26.709  1.00  0.00     0.115 A 
ENDROOT
BRANCH   1   7
ATOM      7  C   UNL     1      30.306  38.035  25.428  1.00  0.00     0.010 C 
ATOM      8  C   UNL     1      31.357  37.962  26.260  1.00  0.00     0.025 C 
BRANCH   8   9
ATOM      9  C   UNL     1      31.298  37.557  27.677  1.00  0.00     0.064 C 
ATOM     10  O   UNL     1      31.717  36.418  28.009  1.00  0.00    -0.545 OA
ATOM     11  O   UNL     1      30.723  38.376  28.643  1.00  0.00    -0.545 OA
ENDBRANCH   8   9
ENDBRANCH   1   7
BRANCH   6  12
ATOM     12  O   UNL     1      24.907  37.613  27.136  1.00  0.00    -0.508 OA
ATOM     13  H   UNL     1      24.323  38.437  27.228  1.00  0.00     0.293 HD
ENDBRANCH   6  12
TORSDOF 3
ENDMDL
MODEL 8
REMARK VINA RESULT:    -5.775      2.794      3.566
REMARK INTER + INTRA:          -6.793
REMARK INTER:                  -6.548
REMARK INTRA:                  -0.245
REMARK UNBOUND:                -0.175
REMARK SMILES O=C([O-])C=Cc1ccc(O)cc1
REMARK SMILES IDX 6 1 7 2 12 3 8 4 11 5 9 6 5 7 4 8 2 9 1 10 3 11 10 12
REMARK H PARENT 10 13
REMARK Flexibility Score: inf
ROOT
ATOM      1  C   UNL     1      28.770  38.588  27.832  1.00  0.00    -0.025 A 
ATOM      2  C   UNL     1      28.168  39.196  26.717  1.00  0.00     0.012 A 
ATOM      3  C   UNL     1      28.059  37.617  28.553  1.00  0.00     0.012 A 
ATOM      4  C   UNL     1      26.854  38.874  26.362  1.00  0.00     0.047 A 
ATOM      5  C   UNL     1      26.745  37.295  28.196  1.00  0.00     0.047 A 
ATOM      6  C   UNL     1      26.137  37.925  27.104  1.00  0.00     0.115 A 
ENDROOT
BRANCH   1   7
ATOM      7  C   UNL     1      30.174  38.873  28.193  1.00  0.00     0.010 C 
ATOM      8  C   UNL     1      31.247  38.226  27.712  1.00  0.00     0.025 C 
BRANCH   8   9
ATOM      9  C   UNL     1      31.232  37.252  26.605  1.00  0.00     0.064 C 
ATOM     10  O   UNL     1      31.664  37.599  25.475  1.00  0.00    -0.545 OA
ATOM     11  O   UNL     1      30.685  35.983  26.759  1.00  0.00    -0.545 OA
ENDBRANCH   8   9
ENDBRANCH   1   7
BRANCH   6  12
ATOM     12  O   UNL     1      24.829  37.596  26.762  1.00  0.00    -0.508 OA
ATOM     13  H   UNL     1      24.608  36.731  26.281  1.00  0.00     0.293 HD
ENDBRANCH   6  12
TORSDOF 3
ENDMDL
MODEL 9
REMARK VINA RESULT:    -5.702      2.530      3.291
REMARK INTER + INTRA:          -6.710
REMARK INTER:                  -6.511
REMARK INTRA:                  -0.199
REMARK UNBOUND:                -0.175
REMARK SMILES O=C([O-])C=Cc1ccc(O)cc1
REMARK SMILES IDX 6 1 7 2 12 3 8 4 11 5 9 6 5 7 4 8 2 9 1 10 3 11 10 12
REMARK H PARENT 10 13
REMARK Flexibility Score: inf
ROOT
ATOM      1  C   UNL     1      28.808  36.664  27.089  1.00  0.00    -0.025 A 
ATOM      2  C   UNL     1      28.050  36.506  25.915  1.00  0.00     0.012 A 
ATOM      3  C   UNL     1      28.202  37.214  28.228  1.00  0.00     0.012 A 
ATOM      4  C   UNL     1      26.723  36.944  25.869  1.00  0.00     0.047 A 
ATOM      5  C   UNL     1      26.874  37.650  28.180  1.00  0.00     0.047 A 
ATOM      6  C   UNL     1      26.132  37.521  27.002  1.00  0.00     0.115 A 
ENDROOT
BRANCH   1   7
ATOM      7  C   UNL     1      30.194  36.161  27.178  1.00  0.00     0.010 C 
ATOM      8  C   UNL     1      31.296  36.859  26.864  1.00  0.00     0.025 C 
BRANCH   8   9
ATOM      9  C   UNL     1      31.336  38.302  26.560  1.00  0.00     0.064 C 
ATOM     10  O   UNL     1      31.919  39.083  27.357  1.00  0.00    -0.545 OA
ATOM     11  O   UNL     1      30.681  38.830  25.453  1.00  0.00    -0.545 OA
ENDBRANCH   8   9
ENDBRANCH   1   7
BRANCH   6  12
ATOM     12  O   UNL     1      24.812  37.961  26.968  1.00  0.00    -0.508 OA
ATOM     13  H   UNL     1      24.071  37.451  27.437  1.00  0.00     0.293 HD
ENDBRANCH   6  12
TORSDOF 3
ENDMDL
