MODEL 1
REMARK VINA RESULT:    -5.189      0.000      0.000
REMARK INTER + INTRA:          -7.959
REMARK INTER:                  -6.857
REMARK INTRA:                  -1.102
REMARK UNBOUND:                -1.102
REMARK SMILES CC[C@H](C=C[C@H](C)[C@H]1CC[C@H]2[C@@H]3CC=C4C[C@H](O)CC[C@@]4(C)[C@@H]3CC[C@@]12C)C(C)C
REMARK SMILES IDX 6 1 7 2 5 3 4 4 3 5 2 6 1 7 28 8 29 9 30 10 8 11 9 12 26 13
REMARK SMILES IDX 10 14 11 15 25 16 27 17 12 18 24 19 23 20 13 21 21 22 14 23
REMARK SMILES IDX 15 24 20 25 22 26 16 27 19 28 17 29 18 30
REMARK H PARENT 18 31
REMARK Flexibility Score: inf
ROOT
ATOM      1  C   UNL     1       4.294   2.684  -5.033  1.00  0.00     0.012 C 
ATOM      2  C   UNL     1       5.324   3.400  -5.925  1.00  0.00     0.012 C 
ENDROOT
BRANCH   1   3
ATOM      3  C   UNL     1       5.037   1.955  -3.934  1.00  0.00    -0.028 C 
ATOM      4  C   UNL     1       4.884   0.634  -3.747  1.00  0.00    -0.027 C 
BRANCH   4   5
ATOM      5  C   UNL     1       5.589  -0.104  -2.626  1.00  0.00     0.014 C 
BRANCH   5   6
ATOM      6  C   UNL     1       4.725   0.026  -1.342  1.00  0.00     0.004 C 
ATOM      7  C   UNL     1       5.449   0.683  -0.166  1.00  0.00     0.004 C 
ENDBRANCH   5   6
BRANCH   5   8
ATOM      8  C   UNL     1       5.926  -1.563  -3.087  1.00  0.00    -0.011 C 
ATOM      9  C   UNL     1       6.732  -2.365  -2.057  1.00  0.00     0.008 C 
ATOM     10  C   UNL     1       6.597  -1.611  -4.469  1.00  0.00     0.008 C 
ENDBRANCH   5   8
ENDBRANCH   4   5
ENDBRANCH   1   3
BRANCH   1  11
ATOM     11  C   UNL     1       3.146   3.583  -4.435  1.00  0.00     0.002 C 
ATOM     12  C   UNL     1       3.259   5.094  -4.681  1.00  0.00     0.005 C 
ATOM     13  C   UNL     1       1.688   3.205  -4.835  1.00  0.00    -0.026 C 
ATOM     14  C   UNL     1       1.847   5.656  -4.558  1.00  0.00     0.005 C 
ATOM     15  C   UNL     1       0.895   4.460  -4.363  1.00  0.00    -0.001 C 
ATOM     16  C   UNL     1       1.549   2.995  -6.371  1.00  0.00     0.007 C 
ATOM     17  C   UNL     1       1.261   1.919  -4.071  1.00  0.00     0.012 C 
ATOM     18  C   UNL     1      -0.500   4.702  -5.028  1.00  0.00     0.000 C 
ATOM     19  C   UNL     1       0.106   3.095  -6.875  1.00  0.00     0.005 C 
ATOM     20  C   UNL     1      -0.480   4.496  -6.563  1.00  0.00     0.003 C 
ATOM     21  C   UNL     1      -1.600   3.854  -4.364  1.00  0.00     0.031 C 
ATOM     22  C   UNL     1      -1.888   4.798  -7.221  1.00  0.00    -0.008 C 
ATOM     23  C   UNL     1      -2.918   3.954  -5.074  1.00  0.00    -0.027 C 
ATOM     24  C   UNL     1      -3.053   4.274  -6.378  1.00  0.00    -0.065 C 
ATOM     25  C   UNL     1      -2.093   6.345  -7.338  1.00  0.00     0.014 C 
ATOM     26  C   UNL     1      -1.943   4.187  -8.648  1.00  0.00     0.016 C 
ATOM     27  C   UNL     1      -4.442   4.560  -6.901  1.00  0.00     0.063 C 
ATOM     28  C   UNL     1      -3.510   6.760  -7.803  1.00  0.00     0.033 C 
ATOM     29  C   UNL     1      -4.633   6.082  -6.981  1.00  0.00     0.118 C 
BRANCH  29  30
ATOM     30  O   UNL     1      -5.879   6.354  -7.565  1.00  0.00    -0.393 OA
ATOM     31  H   UNL     1      -5.697   6.697  -8.479  1.00  0.00     0.210 HD
ENDBRANCH  29  30
ENDBRANCH   1  11
TORSDOF 6
ENDMDL
MODEL 2
REMARK VINA RESULT:    -4.853      1.600      2.846
REMARK INTER + INTRA:          -7.516
REMARK INTER:                  -6.318
REMARK INTRA:                  -1.198
REMARK UNBOUND:                -1.102
REMARK SMILES CC[C@H](C=C[C@H](C)[C@H]1CC[C@H]2[C@@H]3CC=C4C[C@H](O)CC[C@@]4(C)[C@@H]3CC[C@@]12C)C(C)C
REMARK SMILES IDX 6 1 7 2 5 3 4 4 3 5 2 6 1 7 28 8 29 9 30 10 8 11 9 12 26 13
REMARK SMILES IDX 10 14 11 15 25 16 27 17 12 18 24 19 23 20 13 21 21 22 14 23
REMARK SMILES IDX 15 24 20 25 22 26 16 27 19 28 17 29 18 30
REMARK H PARENT 18 31
REMARK Flexibility Score: inf
ROOT
ATOM      1  C   UNL     1       4.915   3.169  -4.418  1.00  0.00     0.012 C 
ATOM      2  C   UNL     1       5.107   3.466  -2.920  1.00  0.00     0.012 C 
ENDROOT
BRANCH   1   3
ATOM      3  C   UNL     1       6.065   2.304  -4.887  1.00  0.00    -0.028 C 
ATOM      4  C   UNL     1       6.470   1.239  -4.177  1.00  0.00    -0.027 C 
BRANCH   4   5
ATOM      5  C   UNL     1       7.645   0.385  -4.611  1.00  0.00     0.014 C 
BRANCH   5   6
ATOM      6  C   UNL     1       8.897   0.843  -3.814  1.00  0.00     0.004 C 
ATOM      7  C   UNL     1       8.603   1.248  -2.369  1.00  0.00     0.004 C 
ENDBRANCH   5   6
BRANCH   5   8
ATOM      8  C   UNL     1       7.267  -1.131  -4.493  1.00  0.00    -0.011 C 
ATOM      9  C   UNL     1       7.667  -1.964  -5.717  1.00  0.00     0.008 C 
ATOM     10  C   UNL     1       5.788  -1.350  -4.137  1.00  0.00     0.008 C 
ENDBRANCH   5   8
ENDBRANCH   4   5
ENDBRANCH   1   3
BRANCH   1  11
ATOM     11  C   UNL     1       3.531   2.537  -4.831  1.00  0.00     0.002 C 
ATOM     12  C   UNL     1       2.737   1.836  -3.719  1.00  0.00     0.005 C 
ATOM     13  C   UNL     1       2.514   3.487  -5.531  1.00  0.00    -0.026 C 
ATOM     14  C   UNL     1       1.280   1.838  -4.165  1.00  0.00     0.005 C 
ATOM     15  C   UNL     1       1.204   2.645  -5.476  1.00  0.00    -0.001 C 
ATOM     16  C   UNL     1       2.356   4.829  -4.759  1.00  0.00     0.007 C 
ATOM     17  C   UNL     1       2.979   3.754  -6.992  1.00  0.00     0.012 C 
ATOM     18  C   UNL     1      -0.142   3.431  -5.608  1.00  0.00     0.000 C 
ATOM     19  C   UNL     1       1.068   5.584  -5.101  1.00  0.00     0.005 C 
ATOM     20  C   UNL     1      -0.174   4.723  -4.755  1.00  0.00     0.003 C 
ATOM     21  C   UNL     1      -0.485   3.724  -7.080  1.00  0.00     0.031 C 
ATOM     22  C   UNL     1      -1.564   5.472  -4.863  1.00  0.00    -0.008 C 
ATOM     23  C   UNL     1      -1.694   4.601  -7.231  1.00  0.00    -0.027 C 
ATOM     24  C   UNL     1      -2.126   5.464  -6.286  1.00  0.00    -0.065 C 
ATOM     25  C   UNL     1      -2.623   4.746  -3.969  1.00  0.00     0.014 C 
ATOM     26  C   UNL     1      -1.415   6.933  -4.357  1.00  0.00     0.016 C 
ATOM     27  C   UNL     1      -3.477   6.112  -6.479  1.00  0.00     0.063 C 
ATOM     28  C   UNL     1      -4.065   5.285  -4.135  1.00  0.00     0.033 C 
ATOM     29  C   UNL     1      -4.508   5.367  -5.617  1.00  0.00     0.118 C 
BRANCH  29  30
ATOM     30  O   UNL     1      -5.740   6.029  -5.708  1.00  0.00    -0.393 OA
ATOM     31  H   UNL     1      -5.541   6.972  -5.943  1.00  0.00     0.210 HD
ENDBRANCH  29  30
ENDBRANCH   1  11
TORSDOF 6
ENDMDL
MODEL 3
REMARK VINA RESULT:    -4.765      1.971      4.709
REMARK INTER + INTRA:          -7.400
REMARK INTER:                  -6.203
REMARK INTRA:                  -1.197
REMARK UNBOUND:                -1.102
REMARK SMILES CC[C@H](C=C[C@H](C)[C@H]1CC[C@H]2[C@@H]3CC=C4C[C@H](O)CC[C@@]4(C)[C@@H]3CC[C@@]12C)C(C)C
REMARK SMILES IDX 6 1 7 2 5 3 4 4 3 5 2 6 1 7 28 8 29 9 30 10 8 11 9 12 26 13
REMARK SMILES IDX 10 14 11 15 25 16 27 17 12 18 24 19 23 20 13 21 21 22 14 23
REMARK SMILES IDX 15 24 20 25 22 26 16 27 19 28 17 29 18 30
REMARK H PARENT 18 31
REMARK Flexibility Score: inf
ROOT
ATOM      1  C   UNL     1       3.425   2.615  -4.143  1.00  0.00     0.012 C 
ATOM      2  C   UNL     1       4.172   1.501  -3.389  1.00  0.00     0.012 C 
ENDROOT
BRANCH   1   3
ATOM      3  C   UNL     1       4.322   3.134  -5.246  1.00  0.00    -0.028 C 
ATOM      4  C   UNL     1       4.876   4.355  -5.177  1.00  0.00    -0.027 C 
BRANCH   4   5
ATOM      5  C   UNL     1       5.745   4.906  -6.290  1.00  0.00     0.014 C 
BRANCH   5   6
ATOM      6  C   UNL     1       5.820   3.840  -7.418  1.00  0.00     0.004 C 
ATOM      7  C   UNL     1       5.064   4.225  -8.690  1.00  0.00     0.004 C 
ENDBRANCH   5   6
BRANCH   5   8
ATOM      8  C   UNL     1       5.227   6.323  -6.712  1.00  0.00    -0.011 C 
ATOM      9  C   UNL     1       6.299   7.418  -6.641  1.00  0.00     0.008 C 
ATOM     10  C   UNL     1       3.959   6.744  -5.951  1.00  0.00     0.008 C 
ENDBRANCH   5   8
ENDBRANCH   4   5
ENDBRANCH   1   3
BRANCH   1  11
ATOM     11  C   UNL     1       2.001   2.240  -4.707  1.00  0.00     0.002 C 
ATOM     12  C   UNL     1       1.038   1.545  -3.733  1.00  0.00     0.005 C 
ATOM     13  C   UNL     1       1.180   3.399  -5.347  1.00  0.00    -0.026 C 
ATOM     14  C   UNL     1      -0.368   1.808  -4.260  1.00  0.00     0.005 C 
ATOM     15  C   UNL     1      -0.234   2.756  -5.468  1.00  0.00    -0.001 C 
ATOM     16  C   UNL     1       1.152   4.658  -4.431  1.00  0.00     0.007 C 
ATOM     17  C   UNL     1       1.784   3.753  -6.736  1.00  0.00     0.012 C 
ATOM     18  C   UNL     1      -1.446   3.739  -5.583  1.00  0.00     0.000 C 
ATOM     19  C   UNL     1       0.009   5.625  -4.755  1.00  0.00     0.005 C 
ATOM     20  C   UNL     1      -1.362   4.921  -4.586  1.00  0.00     0.003 C 
ATOM     21  C   UNL     1      -1.635   4.238  -7.027  1.00  0.00     0.031 C 
ATOM     22  C   UNL     1      -2.623   5.872  -4.684  1.00  0.00    -0.008 C 
ATOM     23  C   UNL     1      -2.697   5.293  -7.142  1.00  0.00    -0.027 C 
ATOM     24  C   UNL     1      -3.074   6.101  -6.128  1.00  0.00    -0.065 C 
ATOM     25  C   UNL     1      -3.836   5.214  -3.945  1.00  0.00     0.014 C 
ATOM     26  C   UNL     1      -2.312   7.231  -4.000  1.00  0.00     0.016 C 
ATOM     27  C   UNL     1      -4.305   6.956  -6.320  1.00  0.00     0.063 C 
ATOM     28  C   UNL     1      -5.173   5.972  -4.129  1.00  0.00     0.033 C 
ATOM     29  C   UNL     1      -5.490   6.279  -5.613  1.00  0.00     0.118 C 
BRANCH  29  30
ATOM     30  O   UNL     1      -6.609   7.120  -5.696  1.00  0.00    -0.393 OA
ATOM     31  H   UNL     1      -6.621   7.489  -6.617  1.00  0.00     0.210 HD
ENDBRANCH  29  30
ENDBRANCH   1  11
TORSDOF 6
ENDMDL
MODEL 4
REMARK VINA RESULT:    -4.706      1.533      3.077
REMARK INTER + INTRA:          -7.321
REMARK INTER:                  -6.121
REMARK INTRA:                  -1.200
REMARK UNBOUND:                -1.102
REMARK SMILES CC[C@H](C=C[C@H](C)[C@H]1CC[C@H]2[C@@H]3CC=C4C[C@H](O)CC[C@@]4(C)[C@@H]3CC[C@@]12C)C(C)C
REMARK SMILES IDX 6 1 7 2 5 3 4 4 3 5 2 6 1 7 28 8 29 9 30 10 8 11 9 12 26 13
REMARK SMILES IDX 10 14 11 15 25 16 27 17 12 18 24 19 23 20 13 21 21 22 14 23
REMARK SMILES IDX 15 24 20 25 22 26 16 27 19 28 17 29 18 30
REMARK H PARENT 18 31
REMARK Flexibility Score: inf
ROOT
ATOM      1  C   UNL     1       2.458   3.996  -5.568  1.00  0.00     0.012 C 
ATOM      2  C   UNL     1       2.634   5.172  -4.591  1.00  0.00     0.012 C 
ENDROOT
BRANCH   1   3
ATOM      3  C   UNL     1       3.602   3.026  -5.362  1.00  0.00    -0.028 C 
ATOM      4  C   UNL     1       3.910   2.561  -4.141  1.00  0.00    -0.027 C 
BRANCH   4   5
ATOM      5  C   UNL     1       5.076   1.620  -3.911  1.00  0.00     0.014 C 
BRANCH   5   6
ATOM      6  C   UNL     1       6.195   2.407  -3.174  1.00  0.00     0.004 C 
ATOM      7  C   UNL     1       5.693   3.629  -2.402  1.00  0.00     0.004 C 
ENDBRANCH   5   6
BRANCH   5   8
ATOM      8  C   UNL     1       4.570   0.316  -3.206  1.00  0.00    -0.011 C 
ATOM      9  C   UNL     1       5.197  -0.969  -3.762  1.00  0.00     0.008 C 
ATOM     10  C   UNL     1       3.037   0.212  -3.175  1.00  0.00     0.008 C 
ENDBRANCH   5   8
ENDBRANCH   4   5
ENDBRANCH   1   3
BRANCH   1  11
ATOM     11  C   UNL     1       1.071   3.249  -5.516  1.00  0.00     0.002 C 
ATOM     12  C   UNL     1       0.219   3.471  -4.258  1.00  0.00     0.005 C 
ATOM     13  C   UNL     1       0.108   3.487  -6.717  1.00  0.00    -0.026 C 
ATOM     14  C   UNL     1      -1.222   3.172  -4.658  1.00  0.00     0.005 C 
ATOM     15  C   UNL     1      -1.228   2.897  -6.174  1.00  0.00    -0.001 C 
ATOM     16  C   UNL     1      -0.036   5.001  -7.047  1.00  0.00     0.007 C 
ATOM     17  C   UNL     1       0.632   2.709  -7.959  1.00  0.00     0.012 C 
ATOM     18  C   UNL     1      -2.544   3.392  -6.858  1.00  0.00     0.000 C 
ATOM     19  C   UNL     1      -1.288   5.333  -7.864  1.00  0.00     0.005 C 
ATOM     20  C   UNL     1      -2.567   4.923  -7.089  1.00  0.00     0.003 C 
ATOM     21  C   UNL     1      -2.827   2.626  -8.164  1.00  0.00     0.031 C 
ATOM     22  C   UNL     1      -3.929   5.407  -7.733  1.00  0.00    -0.008 C 
ATOM     23  C   UNL     1      -4.003   3.176  -8.916  1.00  0.00    -0.027 C 
ATOM     24  C   UNL     1      -4.441   4.449  -8.810  1.00  0.00    -0.065 C 
ATOM     25  C   UNL     1      -5.040   5.463  -6.632  1.00  0.00     0.014 C 
ATOM     26  C   UNL     1      -3.754   6.832  -8.325  1.00  0.00     0.016 C 
ATOM     27  C   UNL     1      -5.765   4.801  -9.448  1.00  0.00     0.063 C 
ATOM     28  C   UNL     1      -6.458   5.752  -7.181  1.00  0.00     0.033 C 
ATOM     29  C   UNL     1      -6.847   4.823  -8.357  1.00  0.00     0.118 C 
BRANCH  29  30
ATOM     30  O   UNL     1      -8.055   5.253  -8.924  1.00  0.00    -0.393 OA
ATOM     31  H   UNL     1      -8.355   6.036  -8.394  1.00  0.00     0.210 HD
ENDBRANCH  29  30
ENDBRANCH   1  11
TORSDOF 6
ENDMDL
MODEL 5
REMARK VINA RESULT:    -4.699      4.268     10.293
REMARK INTER + INTRA:          -7.312
REMARK INTER:                  -6.044
REMARK INTRA:                  -1.268
REMARK UNBOUND:                -1.102
REMARK SMILES CC[C@H](C=C[C@H](C)[C@H]1CC[C@H]2[C@@H]3CC=C4C[C@H](O)CC[C@@]4(C)[C@@H]3CC[C@@]12C)C(C)C
REMARK SMILES IDX 6 1 7 2 5 3 4 4 3 5 2 6 1 7 28 8 29 9 30 10 8 11 9 12 26 13
REMARK SMILES IDX 10 14 11 15 25 16 27 17 12 18 24 19 23 20 13 21 21 22 14 23
REMARK SMILES IDX 15 24 20 25 22 26 16 27 19 28 17 29 18 30
REMARK H PARENT 18 31
REMARK Flexibility Score: inf
ROOT
ATOM      1  C   UNL     1       4.212   3.408  -4.633  1.00  0.00     0.012 C 
ATOM      2  C   UNL     1       5.126   4.570  -5.062  1.00  0.00     0.012 C 
ENDROOT
BRANCH   1   3
ATOM      3  C   UNL     1       3.015   3.372  -5.559  1.00  0.00    -0.028 C 
ATOM      4  C   UNL     1       1.769   3.559  -5.096  1.00  0.00    -0.027 C 
BRANCH   4   5
ATOM      5  C   UNL     1       0.557   3.488  -6.003  1.00  0.00     0.014 C 
BRANCH   5   6
ATOM      6  C   UNL     1       1.038   3.080  -7.422  1.00  0.00     0.004 C 
ATOM      7  C   UNL     1       0.022   2.252  -8.211  1.00  0.00     0.004 C 
ENDBRANCH   5   6
BRANCH   5   8
ATOM      8  C   UNL     1      -0.534   2.570  -5.353  1.00  0.00    -0.011 C 
ATOM      9  C   UNL     1      -1.863   3.289  -5.082  1.00  0.00     0.008 C 
ATOM     10  C   UNL     1      -0.031   1.848  -4.093  1.00  0.00     0.008 C 
ENDBRANCH   5   8
ENDBRANCH   4   5
ENDBRANCH   1   3
BRANCH   1  11
ATOM     11  C   UNL     1       4.889   1.988  -4.535  1.00  0.00     0.002 C 
ATOM     12  C   UNL     1       6.393   1.923  -4.836  1.00  0.00     0.005 C 
ATOM     13  C   UNL     1       4.700   1.219  -3.193  1.00  0.00    -0.026 C 
ATOM     14  C   UNL     1       6.916   0.671  -4.141  1.00  0.00     0.005 C 
ATOM     15  C   UNL     1       5.746   0.073  -3.335  1.00  0.00    -0.001 C 
ATOM     16  C   UNL     1       5.014   2.122  -1.964  1.00  0.00     0.007 C 
ATOM     17  C   UNL     1       3.244   0.678  -3.109  1.00  0.00     0.012 C 
ATOM     18  C   UNL     1       6.228  -0.606  -2.011  1.00  0.00     0.000 C 
ATOM     19  C   UNL     1       5.311   1.333  -0.685  1.00  0.00     0.005 C 
ATOM     20  C   UNL     1       6.543   0.414  -0.888  1.00  0.00     0.003 C 
ATOM     21  C   UNL     1       5.234  -1.679  -1.529  1.00  0.00     0.031 C 
ATOM     22  C   UNL     1       7.079  -0.292   0.423  1.00  0.00    -0.008 C 
ATOM     23  C   UNL     1       5.596  -2.245  -0.188  1.00  0.00    -0.027 C 
ATOM     24  C   UNL     1       6.333  -1.592   0.736  1.00  0.00    -0.065 C 
ATOM     25  C   UNL     1       8.582  -0.685   0.231  1.00  0.00     0.014 C 
ATOM     26  C   UNL     1       6.978   0.685   1.625  1.00  0.00     0.016 C 
ATOM     27  C   UNL     1       6.810  -2.365   1.943  1.00  0.00     0.063 C 
ATOM     28  C   UNL     1       9.162  -1.542   1.383  1.00  0.00     0.033 C 
ATOM     29  C   UNL     1       8.277  -2.766   1.724  1.00  0.00     0.118 C 
BRANCH  29  30
ATOM     30  O   UNL     1       8.757  -3.390   2.884  1.00  0.00    -0.393 OA
ATOM     31  H   UNL     1       7.963  -3.720   3.379  1.00  0.00     0.210 HD
ENDBRANCH  29  30
ENDBRANCH   1  11
TORSDOF 6
ENDMDL
MODEL 6
REMARK VINA RESULT:    -4.539      3.455      8.860
REMARK INTER + INTRA:          -7.100
REMARK INTER:                  -5.731
REMARK INTRA:                  -1.369
REMARK UNBOUND:                -1.102
REMARK SMILES CC[C@H](C=C[C@H](C)[C@H]1CC[C@H]2[C@@H]3CC=C4C[C@H](O)CC[C@@]4(C)[C@@H]3CC[C@@]12C)C(C)C
REMARK SMILES IDX 6 1 7 2 5 3 4 4 3 5 2 6 1 7 28 8 29 9 30 10 8 11 9 12 26 13
REMARK SMILES IDX 10 14 11 15 25 16 27 17 12 18 24 19 23 20 13 21 21 22 14 23
REMARK SMILES IDX 15 24 20 25 22 26 16 27 19 28 17 29 18 30
REMARK H PARENT 18 31
REMARK Flexibility Score: inf
ROOT
ATOM      1  C   UNL     1      -1.936   3.480  -4.958  1.00  0.00     0.012 C 
ATOM      2  C   UNL     1      -2.992   4.194  -4.095  1.00  0.00     0.012 C 
ENDROOT
BRANCH   1   3
ATOM      3  C   UNL     1      -2.623   2.900  -6.174  1.00  0.00    -0.028 C 
ATOM      4  C   UNL     1      -2.964   3.673  -7.218  1.00  0.00    -0.027 C 
BRANCH   4   5
ATOM      5  C   UNL     1      -3.688   3.116  -8.427  1.00  0.00     0.014 C 
BRANCH   5   6
ATOM      6  C   UNL     1      -4.879   4.059  -8.755  1.00  0.00     0.004 C 
ATOM      7  C   UNL     1      -5.319   4.938  -7.584  1.00  0.00     0.004 C 
ENDBRANCH   5   6
BRANCH   5   8
ATOM      8  C   UNL     1      -2.664   2.867  -9.587  1.00  0.00    -0.011 C 
ATOM      9  C   UNL     1      -2.035   1.468  -9.564  1.00  0.00     0.008 C 
ATOM     10  C   UNL     1      -1.583   3.956  -9.669  1.00  0.00     0.008 C 
ENDBRANCH   5   8
ENDBRANCH   4   5
ENDBRANCH   1   3
BRANCH   1  11
ATOM     11  C   UNL     1      -0.682   4.340  -5.376  1.00  0.00     0.002 C 
ATOM     12  C   UNL     1      -0.338   5.535  -4.476  1.00  0.00     0.005 C 
ATOM     13  C   UNL     1       0.656   3.567  -5.572  1.00  0.00    -0.026 C 
ATOM     14  C   UNL     1       1.141   5.828  -4.701  1.00  0.00     0.005 C 
ATOM     15  C   UNL     1       1.688   4.732  -5.636  1.00  0.00    -0.001 C 
ATOM     16  C   UNL     1       0.951   2.617  -4.375  1.00  0.00     0.007 C 
ATOM     17  C   UNL     1       0.597   2.761  -6.901  1.00  0.00     0.012 C 
ATOM     18  C   UNL     1       3.176   4.372  -5.315  1.00  0.00     0.000 C 
ATOM     19  C   UNL     1       2.423   2.205  -4.268  1.00  0.00     0.005 C 
ATOM     20  C   UNL     1       3.322   3.454  -4.077  1.00  0.00     0.003 C 
ATOM     21  C   UNL     1       3.892   3.775  -6.541  1.00  0.00     0.031 C 
ATOM     22  C   UNL     1       4.838   3.147  -3.740  1.00  0.00    -0.008 C 
ATOM     23  C   UNL     1       5.274   3.286  -6.225  1.00  0.00    -0.027 C 
ATOM     24  C   UNL     1       5.679   2.902  -4.995  1.00  0.00    -0.065 C 
ATOM     25  C   UNL     1       5.476   4.379  -3.017  1.00  0.00     0.014 C 
ATOM     26  C   UNL     1       4.928   1.921  -2.791  1.00  0.00     0.016 C 
ATOM     27  C   UNL     1       7.153   2.651  -4.778  1.00  0.00     0.063 C 
ATOM     28  C   UNL     1       7.004   4.261  -2.800  1.00  0.00     0.033 C 
ATOM     29  C   UNL     1       7.767   3.882  -4.093  1.00  0.00     0.118 C 
BRANCH  29  30
ATOM     30  O   UNL     1       9.109   3.613  -3.792  1.00  0.00    -0.393 OA
ATOM     31  H   UNL     1       9.118   2.792  -3.236  1.00  0.00     0.210 HD
ENDBRANCH  29  30
ENDBRANCH   1  11
TORSDOF 6
ENDMDL
MODEL 7
REMARK VINA RESULT:    -4.536      3.300      9.232
REMARK INTER + INTRA:          -7.097
REMARK INTER:                  -6.249
REMARK INTRA:                  -0.848
REMARK UNBOUND:                -1.102
REMARK SMILES CC[C@H](C=C[C@H](C)[C@H]1CC[C@H]2[C@@H]3CC=C4C[C@H](O)CC[C@@]4(C)[C@@H]3CC[C@@]12C)C(C)C
REMARK SMILES IDX 6 1 7 2 5 3 4 4 3 5 2 6 1 7 28 8 29 9 30 10 8 11 9 12 26 13
REMARK SMILES IDX 10 14 11 15 25 16 27 17 12 18 24 19 23 20 13 21 21 22 14 23
REMARK SMILES IDX 15 24 20 25 22 26 16 27 19 28 17 29 18 30
REMARK H PARENT 18 31
REMARK Flexibility Score: inf
ROOT
ATOM      1  C   UNL     1      -2.989   5.664  -6.706  1.00  0.00     0.012 C 
ATOM      2  C   UNL     1      -3.664   6.173  -7.992  1.00  0.00     0.012 C 
ENDROOT
BRANCH   1   3
ATOM      3  C   UNL     1      -4.050   5.503  -5.639  1.00  0.00    -0.028 C 
ATOM      4  C   UNL     1      -4.301   6.479  -4.752  1.00  0.00    -0.027 C 
BRANCH   4   5
ATOM      5  C   UNL     1      -5.332   6.319  -3.653  1.00  0.00     0.014 C 
BRANCH   5   6
ATOM      6  C   UNL     1      -4.693   6.790  -2.317  1.00  0.00     0.004 C 
ATOM      7  C   UNL     1      -5.698   6.990  -1.182  1.00  0.00     0.004 C 
ENDBRANCH   5   6
BRANCH   5   8
ATOM      8  C   UNL     1      -6.663   7.033  -4.071  1.00  0.00    -0.011 C 
ATOM      9  C   UNL     1      -7.636   6.125  -4.834  1.00  0.00     0.008 C 
ATOM     10  C   UNL     1      -6.421   8.345  -4.834  1.00  0.00     0.008 C 
ENDBRANCH   5   8
ENDBRANCH   4   5
ENDBRANCH   1   3
BRANCH   1  11
ATOM     11  C   UNL     1      -2.126   4.352  -6.844  1.00  0.00     0.002 C 
ATOM     12  C   UNL     1      -1.332   4.187  -8.147  1.00  0.00     0.005 C 
ATOM     13  C   UNL     1      -1.109   4.066  -5.699  1.00  0.00    -0.026 C 
ATOM     14  C   UNL     1      -0.188   3.229  -7.834  1.00  0.00     0.005 C 
ATOM     15  C   UNL     1      -0.240   2.933  -6.323  1.00  0.00    -0.001 C 
ATOM     16  C   UNL     1      -0.248   5.320  -5.368  1.00  0.00     0.007 C 
ATOM     17  C   UNL     1      -1.878   3.587  -4.434  1.00  0.00     0.012 C 
ATOM     18  C   UNL     1       1.185   2.723  -5.713  1.00  0.00     0.000 C 
ATOM     19  C   UNL     1       1.049   4.993  -4.622  1.00  0.00     0.005 C 
ATOM     20  C   UNL     1       1.942   4.053  -5.474  1.00  0.00     0.003 C 
ATOM     21  C   UNL     1       1.133   1.871  -4.432  1.00  0.00     0.031 C 
ATOM     22  C   UNL     1       3.400   3.813  -4.907  1.00  0.00    -0.008 C 
ATOM     23  C   UNL     1       2.464   1.774  -3.745  1.00  0.00    -0.027 C 
ATOM     24  C   UNL     1       3.448   2.691  -3.868  1.00  0.00    -0.065 C 
ATOM     25  C   UNL     1       4.350   3.374  -6.070  1.00  0.00     0.014 C 
ATOM     26  C   UNL     1       3.950   5.130  -4.296  1.00  0.00     0.016 C 
ATOM     27  C   UNL     1       4.809   2.353  -3.306  1.00  0.00     0.063 C 
ATOM     28  C   UNL     1       5.761   2.939  -5.603  1.00  0.00     0.033 C 
ATOM     29  C   UNL     1       5.718   1.897  -4.458  1.00  0.00     0.118 C 
BRANCH  29  30
ATOM     30  O   UNL     1       7.012   1.686  -3.960  1.00  0.00    -0.393 OA
ATOM     31  H   UNL     1       7.624   1.701  -4.741  1.00  0.00     0.210 HD
ENDBRANCH  29  30
ENDBRANCH   1  11
TORSDOF 6
ENDMDL
MODEL 8
REMARK VINA RESULT:    -4.469      6.792     10.240
REMARK INTER + INTRA:          -7.008
REMARK INTER:                  -6.065
REMARK INTRA:                  -0.943
REMARK UNBOUND:                -1.102
REMARK SMILES CC[C@H](C=C[C@H](C)[C@H]1CC[C@H]2[C@@H]3CC=C4C[C@H](O)CC[C@@]4(C)[C@@H]3CC[C@@]12C)C(C)C
REMARK SMILES IDX 6 1 7 2 5 3 4 4 3 5 2 6 1 7 28 8 29 9 30 10 8 11 9 12 26 13
REMARK SMILES IDX 10 14 11 15 25 16 27 17 12 18 24 19 23 20 13 21 21 22 14 23
REMARK SMILES IDX 15 24 20 25 22 26 16 27 19 28 17 29 18 30
REMARK H PARENT 18 31
REMARK Flexibility Score: inf
ROOT
ATOM      1  C   UNL     1       6.058   3.816  -1.573  1.00  0.00     0.012 C 
ATOM      2  C   UNL     1       6.545   4.408  -2.908  1.00  0.00     0.012 C 
ENDROOT
BRANCH   1   3
ATOM      3  C   UNL     1       5.971   2.312  -1.719  1.00  0.00    -0.028 C 
ATOM      4  C   UNL     1       4.832   1.714  -2.104  1.00  0.00    -0.027 C 
BRANCH   4   5
ATOM      5  C   UNL     1       4.716   0.207  -2.218  1.00  0.00     0.014 C 
BRANCH   5   6
ATOM      6  C   UNL     1       3.542  -0.116  -3.183  1.00  0.00     0.004 C 
ATOM      7  C   UNL     1       2.549   1.033  -3.364  1.00  0.00     0.004 C 
ENDBRANCH   5   6
BRANCH   5   8
ATOM      8  C   UNL     1       6.109  -0.402  -2.597  1.00  0.00    -0.011 C 
ATOM      9  C   UNL     1       6.110  -1.155  -3.933  1.00  0.00     0.008 C 
ATOM     10  C   UNL     1       6.704  -1.269  -1.476  1.00  0.00     0.008 C 
ENDBRANCH   5   8
ENDBRANCH   4   5
ENDBRANCH   1   3
BRANCH   1  11
ATOM     11  C   UNL     1       6.889   4.209  -0.292  1.00  0.00     0.002 C 
ATOM     12  C   UNL     1       7.765   5.465  -0.401  1.00  0.00     0.005 C 
ATOM     13  C   UNL     1       6.086   4.375   1.033  1.00  0.00    -0.026 C 
ATOM     14  C   UNL     1       7.981   5.961   1.024  1.00  0.00     0.005 C 
ATOM     15  C   UNL     1       7.134   5.070   1.953  1.00  0.00    -0.001 C 
ATOM     16  C   UNL     1       4.828   5.270   0.834  1.00  0.00     0.007 C 
ATOM     17  C   UNL     1       5.675   2.972   1.566  1.00  0.00     0.012 C 
ATOM     18  C   UNL     1       6.576   5.860   3.182  1.00  0.00     0.000 C 
ATOM     19  C   UNL     1       4.280   5.854   2.139  1.00  0.00     0.005 C 
ATOM     20  C   UNL     1       5.351   6.739   2.829  1.00  0.00     0.003 C 
ATOM     21  C   UNL     1       6.271   4.925   4.366  1.00  0.00     0.031 C 
ATOM     22  C   UNL     1       4.837   7.569   4.075  1.00  0.00    -0.008 C 
ATOM     23  C   UNL     1       5.600   5.633   5.506  1.00  0.00    -0.027 C 
ATOM     24  C   UNL     1       4.868   6.759   5.373  1.00  0.00    -0.065 C 
ATOM     25  C   UNL     1       5.771   8.803   4.305  1.00  0.00     0.014 C 
ATOM     26  C   UNL     1       3.398   8.088   3.803  1.00  0.00     0.016 C 
ATOM     27  C   UNL     1       4.443   7.485   6.628  1.00  0.00     0.063 C 
ATOM     28  C   UNL     1       5.470   9.589   5.605  1.00  0.00     0.033 C 
ATOM     29  C   UNL     1       5.389   8.675   6.853  1.00  0.00     0.118 C 
BRANCH  29  30
ATOM     30  O   UNL     1       4.936   9.415   7.954  1.00  0.00    -0.393 OA
ATOM     31  H   UNL     1       5.545   9.205   8.708  1.00  0.00     0.210 HD
ENDBRANCH  29  30
ENDBRANCH   1  11
TORSDOF 6
ENDMDL
MODEL 9
REMARK VINA RESULT:    -4.450      6.974     10.732
REMARK INTER + INTRA:          -6.983
REMARK INTER:                  -5.563
REMARK INTRA:                  -1.420
REMARK UNBOUND:                -1.102
REMARK SMILES CC[C@H](C=C[C@H](C)[C@H]1CC[C@H]2[C@@H]3CC=C4C[C@H](O)CC[C@@]4(C)[C@@H]3CC[C@@]12C)C(C)C
REMARK SMILES IDX 6 1 7 2 5 3 4 4 3 5 2 6 1 7 28 8 29 9 30 10 8 11 9 12 26 13
REMARK SMILES IDX 10 14 11 15 25 16 27 17 12 18 24 19 23 20 13 21 21 22 14 23
REMARK SMILES IDX 15 24 20 25 22 26 16 27 19 28 17 29 18 30
REMARK H PARENT 18 31
REMARK Flexibility Score: inf
ROOT
ATOM      1  C   UNL     1       6.710   4.012   4.105  1.00  0.00     0.012 C 
ATOM      2  C   UNL     1       7.934   3.755   5.002  1.00  0.00     0.012 C 
ENDROOT
BRANCH   1   3
ATOM      3  C   UNL     1       5.980   5.230   4.628  1.00  0.00    -0.028 C 
ATOM      4  C   UNL     1       5.883   6.352   3.896  1.00  0.00    -0.027 C 
BRANCH   4   5
ATOM      5  C   UNL     1       5.190   7.594   4.419  1.00  0.00     0.014 C 
BRANCH   5   6
ATOM      6  C   UNL     1       3.683   7.498   4.053  1.00  0.00     0.004 C 
ATOM      7  C   UNL     1       3.418   7.219   2.573  1.00  0.00     0.004 C 
ENDBRANCH   5   6
BRANCH   5   8
ATOM      8  C   UNL     1       5.521   7.781   5.940  1.00  0.00    -0.011 C 
ATOM      9  C   UNL     1       4.395   8.451   6.738  1.00  0.00     0.008 C 
ATOM     10  C   UNL     1       6.862   8.494   6.174  1.00  0.00     0.008 C 
ENDBRANCH   5   8
ENDBRANCH   4   5
ENDBRANCH   1   3
BRANCH   1  11
ATOM     11  C   UNL     1       6.994   4.146   2.560  1.00  0.00     0.002 C 
ATOM     12  C   UNL     1       8.448   3.943   2.110  1.00  0.00     0.005 C 
ATOM     13  C   UNL     1       6.138   3.251   1.616  1.00  0.00    -0.026 C 
ATOM     14  C   UNL     1       8.389   3.543   0.640  1.00  0.00     0.005 C 
ATOM     15  C   UNL     1       6.902   3.393   0.266  1.00  0.00    -0.001 C 
ATOM     16  C   UNL     1       6.110   1.771   2.096  1.00  0.00     0.007 C 
ATOM     17  C   UNL     1       4.692   3.822   1.535  1.00  0.00     0.012 C 
ATOM     18  C   UNL     1       6.671   2.267  -0.795  1.00  0.00     0.000 C 
ATOM     19  C   UNL     1       5.709   0.779   0.999  1.00  0.00     0.005 C 
ATOM     20  C   UNL     1       6.709   0.845  -0.183  1.00  0.00     0.003 C 
ATOM     21  C   UNL     1       5.375   2.497  -1.594  1.00  0.00     0.031 C 
ATOM     22  C   UNL     1       6.527  -0.280  -1.282  1.00  0.00    -0.008 C 
ATOM     23  C   UNL     1       5.053   1.359  -2.517  1.00  0.00    -0.027 C 
ATOM     24  C   UNL     1       5.475   0.090  -2.331  1.00  0.00    -0.065 C 
ATOM     25  C   UNL     1       7.871  -0.478  -2.060  1.00  0.00     0.014 C 
ATOM     26  C   UNL     1       6.152  -1.624  -0.602  1.00  0.00     0.016 C 
ATOM     27  C   UNL     1       5.267  -0.900  -3.452  1.00  0.00     0.063 C 
ATOM     28  C   UNL     1       7.761  -1.427  -3.278  1.00  0.00     0.033 C 
ATOM     29  C   UNL     1       6.588  -1.059  -4.221  1.00  0.00     0.118 C 
BRANCH  29  30
ATOM     30  O   UNL     1       6.431  -2.056  -5.194  1.00  0.00    -0.393 OA
ATOM     31  H   UNL     1       7.321  -2.479  -5.315  1.00  0.00     0.210 HD
ENDBRANCH  29  30
ENDBRANCH   1  11
TORSDOF 6
ENDMDL
