MODEL 1
REMARK VINA RESULT:    -4.573      0.000      0.000
REMARK INTER + INTRA:          -5.711
REMARK INTER:                  -5.642
REMARK INTRA:                  -0.069
REMARK UNBOUND:                -0.069
REMARK SMILES CCCCCC(=O)[O-]
REMARK SMILES IDX 4 1 5 2 6 3 7 4 8 5 3 6 2 7 1 8
REMARK H PARENT
REMARK Flexibility Score: inf
ROOT
ATOM      1  C   UNL     1    -142.521 103.466  34.267  1.00  0.00     0.006 C 
ENDROOT
BRANCH   1   2
ATOM      2  C   UNL     1    -143.247 102.715  33.147  1.00  0.00     0.053 C 
BRANCH   2   3
ATOM      3  C   UNL     1    -143.423 101.275  33.511  1.00  0.00     0.041 C 
ATOM      4  O   UNL     1    -143.704 100.950  34.694  1.00  0.00    -0.550 OA
ATOM      5  O   UNL     1    -143.229 100.287  32.554  1.00  0.00    -0.550 OA
ENDBRANCH   2   3
ENDBRANCH   1   2
BRANCH   1   6
ATOM      6  C   UNL     1    -142.483 104.973  33.984  1.00  0.00     0.000 C 
BRANCH   6   7
ATOM      7  C   UNL     1    -141.724 105.721  35.086  1.00  0.00    -0.003 C 
ATOM      8  C   UNL     1    -142.466 105.641  36.417  1.00  0.00     0.004 C 
ENDBRANCH   6   7
ENDBRANCH   1   6
TORSDOF 4
ENDMDL
MODEL 2
REMARK VINA RESULT:    -4.109     19.253     20.757
REMARK INTER + INTRA:          -5.139
REMARK INTER:                  -5.050
REMARK INTRA:                  -0.089
REMARK UNBOUND:                -0.069
REMARK SMILES CCCCCC(=O)[O-]
REMARK SMILES IDX 4 1 5 2 6 3 7 4 8 5 3 6 2 7 1 8
REMARK H PARENT
REMARK Flexibility Score: inf
ROOT
ATOM      1  C   UNL     1    -129.712 116.182  43.789  1.00  0.00     0.006 C 
ENDROOT
BRANCH   1   2
ATOM      2  C   UNL     1    -129.692 114.838  44.524  1.00  0.00     0.053 C 
BRANCH   2   3
ATOM      3  C   UNL     1    -129.606 113.708  43.547  1.00  0.00     0.041 C 
ATOM      4  O   UNL     1    -128.893 112.703  43.803  1.00  0.00    -0.550 OA
ATOM      5  O   UNL     1    -130.273 113.787  42.331  1.00  0.00    -0.550 OA
ENDBRANCH   2   3
ENDBRANCH   1   2
BRANCH   1   6
ATOM      6  C   UNL     1    -129.715 117.351  44.781  1.00  0.00     0.000 C 
BRANCH   6   7
ATOM      7  C   UNL     1    -128.957 118.557  44.214  1.00  0.00    -0.003 C 
ATOM      8  C   UNL     1    -128.590 118.337  42.749  1.00  0.00     0.004 C 
ENDBRANCH   6   7
ENDBRANCH   1   6
TORSDOF 4
ENDMDL
MODEL 3
REMARK VINA RESULT:    -4.098      2.581      4.763
REMARK INTER + INTRA:          -5.126
REMARK INTER:                  -5.045
REMARK INTRA:                  -0.081
REMARK UNBOUND:                -0.069
REMARK SMILES CCCCCC(=O)[O-]
REMARK SMILES IDX 4 1 5 2 6 3 7 4 8 5 3 6 2 7 1 8
REMARK H PARENT
REMARK Flexibility Score: inf
ROOT
ATOM      1  C   UNL     1    -142.908 102.322  33.715  1.00  0.00     0.006 C 
ENDROOT
BRANCH   1   2
ATOM      2  C   UNL     1    -142.895 103.304  34.891  1.00  0.00     0.053 C 
BRANCH   2   3
ATOM      3  C   UNL     1    -142.433 104.654  34.442  1.00  0.00     0.041 C 
ATOM      4  O   UNL     1    -142.554 104.997  33.237  1.00  0.00    -0.550 OA
ATOM      5  O   UNL     1    -141.822 105.515  35.345  1.00  0.00    -0.550 OA
ENDBRANCH   2   3
ENDBRANCH   1   2
BRANCH   1   6
ATOM      6  C   UNL     1    -143.143 100.887  34.199  1.00  0.00     0.000 C 
BRANCH   6   7
ATOM      7  C   UNL     1    -142.830  99.874  33.091  1.00  0.00    -0.003 C 
ATOM      8  C   UNL     1    -143.129 100.456  31.712  1.00  0.00     0.004 C 
ENDBRANCH   6   7
ENDBRANCH   1   6
TORSDOF 4
ENDMDL
MODEL 4
REMARK VINA RESULT:    -4.096     19.012     20.540
REMARK INTER + INTRA:          -5.123
REMARK INTER:                  -5.035
REMARK INTRA:                  -0.089
REMARK UNBOUND:                -0.069
REMARK SMILES CCCCCC(=O)[O-]
REMARK SMILES IDX 4 1 5 2 6 3 7 4 8 5 3 6 2 7 1 8
REMARK H PARENT
REMARK Flexibility Score: inf
ROOT
ATOM      1  C   UNL     1    -129.747 115.772  44.674  1.00  0.00     0.006 C 
ENDROOT
BRANCH   1   2
ATOM      2  C   UNL     1    -129.713 115.467  43.174  1.00  0.00     0.053 C 
BRANCH   2   3
ATOM      3  C   UNL     1    -129.676 113.989  42.941  1.00  0.00     0.041 C 
ATOM      4  O   UNL     1    -130.372 113.474  42.028  1.00  0.00    -0.550 OA
ATOM      5  O   UNL     1    -128.909 113.175  43.764  1.00  0.00    -0.550 OA
ENDBRANCH   2   3
ENDBRANCH   1   2
BRANCH   1   6
ATOM      6  C   UNL     1    -129.733 117.284  44.928  1.00  0.00     0.000 C 
BRANCH   6   7
ATOM      7  C   UNL     1    -130.605 117.648  46.135  1.00  0.00    -0.003 C 
ATOM      8  C   UNL     1    -130.962 116.408  46.951  1.00  0.00     0.004 C 
ENDBRANCH   6   7
ENDBRANCH   1   6
TORSDOF 4
ENDMDL
MODEL 5
REMARK VINA RESULT:    -4.021      2.575      4.511
REMARK INTER + INTRA:          -5.030
REMARK INTER:                  -4.930
REMARK INTRA:                  -0.100
REMARK UNBOUND:                -0.069
REMARK SMILES CCCCCC(=O)[O-]
REMARK SMILES IDX 4 1 5 2 6 3 7 4 8 5 3 6 2 7 1 8
REMARK H PARENT
REMARK Flexibility Score: inf
ROOT
ATOM      1  C   UNL     1    -143.351 102.164  33.724  1.00  0.00     0.006 C 
ENDROOT
BRANCH   1   2
ATOM      2  C   UNL     1    -142.384 103.218  34.271  1.00  0.00     0.053 C 
BRANCH   2   3
ATOM      3  C   UNL     1    -142.621 104.540  33.611  1.00  0.00     0.041 C 
ATOM      4  O   UNL     1    -142.351 105.609  34.219  1.00  0.00    -0.550 OA
ATOM      5  O   UNL     1    -143.188 104.593  32.344  1.00  0.00    -0.550 OA
ENDBRANCH   2   3
ENDBRANCH   1   2
BRANCH   1   6
ATOM      6  C   UNL     1    -143.639 101.085  34.774  1.00  0.00     0.000 C 
BRANCH   6   7
ATOM      7  C   UNL     1    -143.084  99.726  34.333  1.00  0.00    -0.003 C 
ATOM      8  C   UNL     1    -142.888  99.675  32.820  1.00  0.00     0.004 C 
ENDBRANCH   6   7
ENDBRANCH   1   6
TORSDOF 4
ENDMDL
MODEL 6
REMARK VINA RESULT:    -4.013     20.296     21.756
REMARK INTER + INTRA:          -5.020
REMARK INTER:                  -4.920
REMARK INTRA:                  -0.101
REMARK UNBOUND:                -0.069
REMARK SMILES CCCCCC(=O)[O-]
REMARK SMILES IDX 4 1 5 2 6 3 7 4 8 5 3 6 2 7 1 8
REMARK H PARENT
REMARK Flexibility Score: inf
ROOT
ATOM      1  C   UNL     1    -129.604 116.269  44.795  1.00  0.00     0.006 C 
ENDROOT
BRANCH   1   2
ATOM      2  C   UNL     1    -130.082 117.645  45.269  1.00  0.00     0.053 C 
BRANCH   2   3
ATOM      3  C   UNL     1    -130.748 117.537  46.604  1.00  0.00     0.041 C 
ATOM      4  O   UNL     1    -131.048 116.408  47.073  1.00  0.00    -0.550 OA
ATOM      5  O   UNL     1    -131.083 118.687  47.309  1.00  0.00    -0.550 OA
ENDBRANCH   2   3
ENDBRANCH   1   2
BRANCH   1   6
ATOM      6  C   UNL     1    -129.805 116.107  43.284  1.00  0.00     0.000 C 
BRANCH   6   7
ATOM      7  C   UNL     1    -129.830 114.626  42.888  1.00  0.00    -0.003 C 
ATOM      8  C   UNL     1    -129.326 113.743  44.026  1.00  0.00     0.004 C 
ENDBRANCH   6   7
ENDBRANCH   1   6
TORSDOF 4
ENDMDL
MODEL 7
REMARK VINA RESULT:    -3.860     14.604     15.814
REMARK INTER + INTRA:          -4.832
REMARK INTER:                  -4.774
REMARK INTRA:                  -0.057
REMARK UNBOUND:                -0.069
REMARK SMILES CCCCCC(=O)[O-]
REMARK SMILES IDX 4 1 5 2 6 3 7 4 8 5 3 6 2 7 1 8
REMARK H PARENT
REMARK Flexibility Score: inf
ROOT
ATOM      1  C   UNL     1    -132.353 113.484  34.117  1.00  0.00     0.006 C 
ENDROOT
BRANCH   1   2
ATOM      2  C   UNL     1    -130.925 113.618  33.582  1.00  0.00     0.053 C 
BRANCH   2   3
ATOM      3  C   UNL     1    -130.032 114.225  34.617  1.00  0.00     0.041 C 
ATOM      4  O   UNL     1    -130.155 115.439  34.927  1.00  0.00    -0.550 OA
ATOM      5  O   UNL     1    -129.029 113.463  35.204  1.00  0.00    -0.550 OA
ENDBRANCH   2   3
ENDBRANCH   1   2
BRANCH   1   6
ATOM      6  C   UNL     1    -133.248 112.740  33.119  1.00  0.00     0.000 C 
BRANCH   6   7
ATOM      7  C   UNL     1    -134.580 113.472  32.922  1.00  0.00    -0.003 C 
ATOM      8  C   UNL     1    -135.043 113.393  31.470  1.00  0.00     0.004 C 
ENDBRANCH   6   7
ENDBRANCH   1   6
TORSDOF 4
ENDMDL
MODEL 8
REMARK VINA RESULT:    -3.831     19.679     21.419
REMARK INTER + INTRA:          -4.796
REMARK INTER:                  -4.571
REMARK INTRA:                  -0.225
REMARK UNBOUND:                -0.069
REMARK SMILES CCCCCC(=O)[O-]
REMARK SMILES IDX 4 1 5 2 6 3 7 4 8 5 3 6 2 7 1 8
REMARK H PARENT
REMARK Flexibility Score: inf
ROOT
ATOM      1  C   UNL     1    -129.185 115.634  45.325  1.00  0.00     0.006 C 
ENDROOT
BRANCH   1   2
ATOM      2  C   UNL     1    -130.017 116.860  44.937  1.00  0.00     0.053 C 
BRANCH   2   3
ATOM      3  C   UNL     1    -129.351 117.617  43.832  1.00  0.00     0.041 C 
ATOM      4  O   UNL     1    -129.288 117.124  42.675  1.00  0.00    -0.550 OA
ATOM      5  O   UNL     1    -128.755 118.845  44.090  1.00  0.00    -0.550 OA
ENDBRANCH   2   3
ENDBRANCH   1   2
BRANCH   1   6
ATOM      6  C   UNL     1    -129.939 114.336  45.011  1.00  0.00     0.000 C 
BRANCH   6   7
ATOM      7  C   UNL     1    -129.279 113.584  43.850  1.00  0.00    -0.003 C 
ATOM      8  C   UNL     1    -130.098 113.719  42.569  1.00  0.00     0.004 C 
ENDBRANCH   6   7
ENDBRANCH   1   6
TORSDOF 4
ENDMDL
MODEL 9
REMARK VINA RESULT:    -3.819     13.279     14.342
REMARK INTER + INTRA:          -4.781
REMARK INTER:                  -4.686
REMARK INTRA:                  -0.096
REMARK UNBOUND:                -0.069
REMARK SMILES CCCCCC(=O)[O-]
REMARK SMILES IDX 4 1 5 2 6 3 7 4 8 5 3 6 2 7 1 8
REMARK H PARENT
REMARK Flexibility Score: inf
ROOT
ATOM      1  C   UNL     1    -129.996 107.275  39.127  1.00  0.00     0.006 C 
ENDROOT
BRANCH   1   2
ATOM      2  C   UNL     1    -129.438 106.113  39.954  1.00  0.00     0.053 C 
BRANCH   2   3
ATOM      3  C   UNL     1    -129.429 104.852  39.149  1.00  0.00     0.041 C 
ATOM      4  O   UNL     1    -129.098 103.762  39.683  1.00  0.00    -0.550 OA
ATOM      5  O   UNL     1    -129.737 104.890  37.795  1.00  0.00    -0.550 OA
ENDBRANCH   2   3
ENDBRANCH   1   2
BRANCH   1   6
ATOM      6  C   UNL     1    -129.802 108.611  39.854  1.00  0.00     0.000 C 
BRANCH   6   7
ATOM      7  C   UNL     1    -130.937 109.587  39.524  1.00  0.00    -0.003 C 
ATOM      8  C   UNL     1    -132.011 108.915  38.672  1.00  0.00     0.004 C 
ENDBRANCH   6   7
ENDBRANCH   1   6
TORSDOF 4
ENDMDL
