MODEL 1
REMARK VINA RESULT:    -3.701      0.000      0.000
REMARK INTER + INTRA:         -10.761
REMARK INTER:                  -8.029
REMARK INTRA:                  -2.732
REMARK UNBOUND:                -2.732
REMARK SMILES CCCCCCCCCCCCCCCCCCCCCC(=O)[O-]
REMARK SMILES IDX 12 1 11 2 10 3 9 4 8 5 7 6 6 7 5 8 4 9 3 10 2 11 1 12 13 13
REMARK SMILES IDX 14 14 15 15 16 16 17 17 18 18 19 19 20 20 21 21 22 22 23 23
REMARK SMILES IDX 24 24
REMARK H PARENT
REMARK Flexibility Score: inf
ROOT
ATOM      1  C   UNL     1      -6.006  17.236  -9.693  1.00  0.00     0.000 C 
ENDROOT
BRANCH   1   2
ATOM      2  C   UNL     1      -4.920  16.318 -10.278  1.00  0.00     0.000 C 
BRANCH   2   3
ATOM      3  C   UNL     1      -3.945  17.063 -11.203  1.00  0.00     0.000 C 
BRANCH   3   4
ATOM      4  C   UNL     1      -4.575  18.357 -11.731  1.00  0.00    -0.000 C 
BRANCH   4   5
ATOM      5  C   UNL     1      -4.628  18.361 -13.265  1.00  0.00    -0.000 C 
BRANCH   5   6
ATOM      6  C   UNL     1      -5.875  19.070 -13.818  1.00  0.00    -0.000 C 
BRANCH   6   7
ATOM      7  C   UNL     1      -6.859  19.533 -12.723  1.00  0.00    -0.000 C 
BRANCH   7   8
ATOM      8  C   UNL     1      -8.280  19.741 -13.269  1.00  0.00    -0.000 C 
BRANCH   8   9
ATOM      9  C   UNL     1      -9.188  18.559 -12.906  1.00  0.00    -0.000 C 
BRANCH   9  10
ATOM     10  C   UNL     1      -8.950  18.109 -11.457  1.00  0.00    -0.000 C 
BRANCH  10  11
ATOM     11  C   UNL     1      -9.898  16.979 -11.026  1.00  0.00    -0.003 C 
ATOM     12  C   UNL     1     -10.843  16.539 -12.142  1.00  0.00     0.004 C 
ENDBRANCH  10  11
ENDBRANCH   9  10
ENDBRANCH   8   9
ENDBRANCH   7   8
ENDBRANCH   6   7
ENDBRANCH   5   6
ENDBRANCH   4   5
ENDBRANCH   3   4
ENDBRANCH   2   3
ENDBRANCH   1   2
BRANCH   1  13
ATOM     13  C   UNL     1      -6.921  16.507  -8.694  1.00  0.00     0.000 C 
BRANCH  13  14
ATOM     14  C   UNL     1      -6.704  16.966  -7.242  1.00  0.00     0.000 C 
BRANCH  14  15
ATOM     15  C   UNL     1      -5.367  16.474  -6.660  1.00  0.00     0.000 C 
BRANCH  15  16
ATOM     16  C   UNL     1      -4.257  17.534  -6.756  1.00  0.00     0.000 C 
BRANCH  16  17
ATOM     17  C   UNL     1      -3.939  18.183  -5.401  1.00  0.00     0.000 C 
BRANCH  17  18
ATOM     18  C   UNL     1      -3.983  19.715  -5.503  1.00  0.00     0.000 C 
BRANCH  18  19
ATOM     19  C   UNL     1      -3.994  20.209  -6.958  1.00  0.00     0.000 C 
BRANCH  19  20
ATOM     20  C   UNL     1      -5.236  21.056  -7.285  1.00  0.00     0.006 C 
BRANCH  20  21
ATOM     21  C   UNL     1      -5.808  20.732  -8.672  1.00  0.00     0.053 C 
BRANCH  21  22
ATOM     22  C   UNL     1      -7.287  20.963  -8.728  1.00  0.00     0.041 C 
ATOM     23  O   UNL     1      -7.885  20.989  -9.838  1.00  0.00    -0.550 OA
ATOM     24  O   UNL     1      -8.010  21.125  -7.552  1.00  0.00    -0.550 OA
ENDBRANCH  21  22
ENDBRANCH  20  21
ENDBRANCH  19  20
ENDBRANCH  18  19
ENDBRANCH  17  18
ENDBRANCH  16  17
ENDBRANCH  15  16
ENDBRANCH  14  15
ENDBRANCH  13  14
ENDBRANCH   1  13
TORSDOF 20
ENDMDL
MODEL 2
REMARK VINA RESULT:    -3.674      2.283      5.058
REMARK INTER + INTRA:         -10.701
REMARK INTER:                  -7.569
REMARK INTRA:                  -3.132
REMARK UNBOUND:                -2.732
REMARK SMILES CCCCCCCCCCCCCCCCCCCCCC(=O)[O-]
REMARK SMILES IDX 12 1 11 2 10 3 9 4 8 5 7 6 6 7 5 8 4 9 3 10 2 11 1 12 13 13
REMARK SMILES IDX 14 14 15 15 16 16 17 17 18 18 19 19 20 20 21 21 22 22 23 23
REMARK SMILES IDX 24 24
REMARK H PARENT
REMARK Flexibility Score: inf
ROOT
ATOM      1  C   UNL     1      -9.519  17.070 -10.956  1.00  0.00     0.000 C 
ENDROOT
BRANCH   1   2
ATOM      2  C   UNL     1     -10.304  17.022 -12.277  1.00  0.00     0.000 C 
BRANCH   2   3
ATOM      3  C   UNL     1     -11.788  17.382 -12.102  1.00  0.00     0.000 C 
BRANCH   3   4
ATOM      4  C   UNL     1     -12.214  18.448 -13.119  1.00  0.00    -0.000 C 
BRANCH   4   5
ATOM      5  C   UNL     1     -12.048  19.861 -12.541  1.00  0.00    -0.000 C 
BRANCH   5   6
ATOM      6  C   UNL     1     -11.252  20.796 -13.469  1.00  0.00    -0.000 C 
BRANCH   6   7
ATOM      7  C   UNL     1     -10.630  20.077 -14.684  1.00  0.00    -0.000 C 
BRANCH   7   8
ATOM      8  C   UNL     1      -9.165  20.482 -14.911  1.00  0.00    -0.000 C 
BRANCH   8   9
ATOM      9  C   UNL     1      -8.209  19.382 -14.431  1.00  0.00    -0.000 C 
BRANCH   9  10
ATOM     10  C   UNL     1      -6.935  19.988 -13.824  1.00  0.00    -0.000 C 
BRANCH  10  11
ATOM     11  C   UNL     1      -5.738  19.027 -13.881  1.00  0.00    -0.003 C 
ATOM     12  C   UNL     1      -5.095  18.797 -12.514  1.00  0.00     0.004 C 
ENDBRANCH  10  11
ENDBRANCH   9  10
ENDBRANCH   8   9
ENDBRANCH   7   8
ENDBRANCH   6   7
ENDBRANCH   5   6
ENDBRANCH   4   5
ENDBRANCH   3   4
ENDBRANCH   2   3
ENDBRANCH   1   2
BRANCH   1  13
ATOM     13  C   UNL     1      -8.391  18.117 -10.977  1.00  0.00     0.000 C 
BRANCH  13  14
ATOM     14  C   UNL     1      -8.912  19.556 -10.827  1.00  0.00     0.000 C 
BRANCH  14  15
ATOM     15  C   UNL     1      -8.220  20.319  -9.684  1.00  0.00     0.000 C 
BRANCH  15  16
ATOM     16  C   UNL     1      -6.818  19.771  -9.373  1.00  0.00     0.000 C 
BRANCH  16  17
ATOM     17  C   UNL     1      -6.583  19.564  -7.869  1.00  0.00     0.000 C 
BRANCH  17  18
ATOM     18  C   UNL     1      -5.081  19.499  -7.554  1.00  0.00     0.000 C 
BRANCH  18  19
ATOM     19  C   UNL     1      -4.750  18.458  -6.471  1.00  0.00     0.000 C 
BRANCH  19  20
ATOM     20  C   UNL     1      -5.006  17.016  -6.942  1.00  0.00     0.006 C 
BRANCH  20  21
ATOM     21  C   UNL     1      -4.241  16.683  -8.230  1.00  0.00     0.053 C 
BRANCH  21  22
ATOM     22  C   UNL     1      -5.160  16.203  -9.311  1.00  0.00     0.041 C 
ATOM     23  O   UNL     1      -6.404  16.156  -9.114  1.00  0.00    -0.550 OA
ATOM     24  O   UNL     1      -4.643  15.832 -10.547  1.00  0.00    -0.550 OA
ENDBRANCH  21  22
ENDBRANCH  20  21
ENDBRANCH  19  20
ENDBRANCH  18  19
ENDBRANCH  17  18
ENDBRANCH  16  17
ENDBRANCH  15  16
ENDBRANCH  14  15
ENDBRANCH  13  14
ENDBRANCH   1  13
TORSDOF 20
ENDMDL
MODEL 3
REMARK VINA RESULT:    -3.618      2.365      5.359
REMARK INTER + INTRA:         -10.580
REMARK INTER:                  -7.170
REMARK INTRA:                  -3.410
REMARK UNBOUND:                -2.732
REMARK SMILES CCCCCCCCCCCCCCCCCCCCCC(=O)[O-]
REMARK SMILES IDX 12 1 11 2 10 3 9 4 8 5 7 6 6 7 5 8 4 9 3 10 2 11 1 12 13 13
REMARK SMILES IDX 14 14 15 15 16 16 17 17 18 18 19 19 20 20 21 21 22 22 23 23
REMARK SMILES IDX 24 24
REMARK H PARENT
REMARK Flexibility Score: inf
ROOT
ATOM      1  C   UNL     1      -8.748  16.976 -10.580  1.00  0.00     0.000 C 
ENDROOT
BRANCH   1   2
ATOM      2  C   UNL     1     -10.228  16.591 -10.736  1.00  0.00     0.000 C 
BRANCH   2   3
ATOM      3  C   UNL     1     -10.766  16.850 -12.151  1.00  0.00     0.000 C 
BRANCH   3   4
ATOM      4  C   UNL     1     -11.954  17.818 -12.115  1.00  0.00    -0.000 C 
BRANCH   4   5
ATOM      5  C   UNL     1     -12.985  17.468 -13.197  1.00  0.00    -0.000 C 
BRANCH   5   6
ATOM      6  C   UNL     1     -13.188  18.601 -14.218  1.00  0.00    -0.000 C 
BRANCH   6   7
ATOM      7  C   UNL     1     -13.667  19.924 -13.585  1.00  0.00    -0.000 C 
BRANCH   7   8
ATOM      8  C   UNL     1     -12.701  21.085 -13.866  1.00  0.00    -0.000 C 
BRANCH   8   9
ATOM      9  C   UNL     1     -11.427  20.586 -14.560  1.00  0.00    -0.000 C 
BRANCH   9  10
ATOM     10  C   UNL     1     -10.205  20.736 -13.642  1.00  0.00    -0.000 C 
BRANCH  10  11
ATOM     11  C   UNL     1      -8.957  20.035 -14.200  1.00  0.00    -0.003 C 
ATOM     12  C   UNL     1      -9.289  18.761 -14.976  1.00  0.00     0.004 C 
ENDBRANCH  10  11
ENDBRANCH   9  10
ENDBRANCH   8   9
ENDBRANCH   7   8
ENDBRANCH   6   7
ENDBRANCH   5   6
ENDBRANCH   4   5
ENDBRANCH   3   4
ENDBRANCH   2   3
ENDBRANCH   1   2
BRANCH   1  13
ATOM     13  C   UNL     1      -8.416  18.326 -11.240  1.00  0.00     0.000 C 
BRANCH  13  14
ATOM     14  C   UNL     1      -7.615  19.259 -10.317  1.00  0.00     0.000 C 
BRANCH  14  15
ATOM     15  C   UNL     1      -6.370  19.845 -11.003  1.00  0.00     0.000 C 
BRANCH  15  16
ATOM     16  C   UNL     1      -5.961  19.053 -12.257  1.00  0.00     0.000 C 
BRANCH  16  17
ATOM     17  C   UNL     1      -4.462  18.720 -12.284  1.00  0.00     0.000 C 
BRANCH  17  18
ATOM     18  C   UNL     1      -4.040  17.984 -11.004  1.00  0.00     0.000 C 
BRANCH  18  19
ATOM     19  C   UNL     1      -4.584  16.548 -10.943  1.00  0.00     0.000 C 
BRANCH  19  20
ATOM     20  C   UNL     1      -5.223  16.215  -9.584  1.00  0.00     0.006 C 
BRANCH  20  21
ATOM     21  C   UNL     1      -4.656  17.081  -8.451  1.00  0.00     0.053 C 
BRANCH  21  22
ATOM     22  C   UNL     1      -5.744  17.750  -7.668  1.00  0.00     0.041 C 
ATOM     23  O   UNL     1      -5.643  18.965  -7.350  1.00  0.00    -0.550 OA
ATOM     24  O   UNL     1      -6.883  17.036  -7.312  1.00  0.00    -0.550 OA
ENDBRANCH  21  22
ENDBRANCH  20  21
ENDBRANCH  19  20
ENDBRANCH  18  19
ENDBRANCH  17  18
ENDBRANCH  16  17
ENDBRANCH  15  16
ENDBRANCH  14  15
ENDBRANCH  13  14
ENDBRANCH   1  13
TORSDOF 20
ENDMDL
MODEL 4
REMARK VINA RESULT:    -3.574      3.350      7.968
REMARK INTER + INTRA:         -10.484
REMARK INTER:                  -8.563
REMARK INTRA:                  -1.921
REMARK UNBOUND:                -2.732
REMARK SMILES CCCCCCCCCCCCCCCCCCCCCC(=O)[O-]
REMARK SMILES IDX 12 1 11 2 10 3 9 4 8 5 7 6 6 7 5 8 4 9 3 10 2 11 1 12 13 13
REMARK SMILES IDX 14 14 15 15 16 16 17 17 18 18 19 19 20 20 21 21 22 22 23 23
REMARK SMILES IDX 24 24
REMARK H PARENT
REMARK Flexibility Score: inf
ROOT
ATOM      1  C   UNL     1      -6.292  17.064  -7.576  1.00  0.00     0.000 C 
ENDROOT
BRANCH   1   2
ATOM      2  C   UNL     1      -5.360  16.599  -6.445  1.00  0.00     0.000 C 
BRANCH   2   3
ATOM      3  C   UNL     1      -4.376  17.691  -5.997  1.00  0.00     0.000 C 
BRANCH   3   4
ATOM      4  C   UNL     1      -4.716  19.034  -6.655  1.00  0.00    -0.000 C 
BRANCH   4   5
ATOM      5  C   UNL     1      -3.975  20.189  -5.966  1.00  0.00    -0.000 C 
BRANCH   5   6
ATOM      6  C   UNL     1      -4.730  20.738  -4.743  1.00  0.00    -0.000 C 
BRANCH   6   7
ATOM      7  C   UNL     1      -3.939  20.617  -3.423  1.00  0.00    -0.000 C 
BRANCH   7   8
ATOM      8  C   UNL     1      -4.567  19.596  -2.461  1.00  0.00    -0.000 C 
BRANCH   8   9
ATOM      9  C   UNL     1      -4.122  19.856  -1.016  1.00  0.00    -0.000 C 
BRANCH   9  10
ATOM     10  C   UNL     1      -5.296  19.686  -0.040  1.00  0.00    -0.000 C 
BRANCH  10  11
ATOM     11  C   UNL     1      -4.999  20.268   1.349  1.00  0.00    -0.003 C 
ATOM     12  C   UNL     1      -5.888  19.676   2.443  1.00  0.00     0.004 C 
ENDBRANCH  10  11
ENDBRANCH   9  10
ENDBRANCH   8   9
ENDBRANCH   7   8
ENDBRANCH   6   7
ENDBRANCH   5   6
ENDBRANCH   4   5
ENDBRANCH   3   4
ENDBRANCH   2   3
ENDBRANCH   1   2
BRANCH   1  13
ATOM     13  C   UNL     1      -6.138  16.218  -8.852  1.00  0.00     0.000 C 
BRANCH  13  14
ATOM     14  C   UNL     1      -4.682  16.131  -9.337  1.00  0.00     0.000 C 
BRANCH  14  15
ATOM     15  C   UNL     1      -4.420  16.993 -10.584  1.00  0.00     0.000 C 
BRANCH  15  16
ATOM     16  C   UNL     1      -4.128  18.461 -10.234  1.00  0.00     0.000 C 
BRANCH  16  17
ATOM     17  C   UNL     1      -5.358  19.366 -10.404  1.00  0.00     0.000 C 
BRANCH  17  18
ATOM     18  C   UNL     1      -6.320  18.791 -11.455  1.00  0.00     0.000 C 
BRANCH  18  19
ATOM     19  C   UNL     1      -7.728  18.541 -10.890  1.00  0.00     0.000 C 
BRANCH  19  20
ATOM     20  C   UNL     1      -8.808  18.526 -11.986  1.00  0.00     0.006 C 
BRANCH  20  21
ATOM     21  C   UNL     1     -10.215  18.748 -11.413  1.00  0.00     0.053 C 
BRANCH  21  22
ATOM     22  C   UNL     1     -11.029  17.491 -11.441  1.00  0.00     0.041 C 
ATOM     23  O   UNL     1     -10.843  16.593 -10.576  1.00  0.00    -0.550 OA
ATOM     24  O   UNL     1     -12.013  17.323 -12.409  1.00  0.00    -0.550 OA
ENDBRANCH  21  22
ENDBRANCH  20  21
ENDBRANCH  19  20
ENDBRANCH  18  19
ENDBRANCH  17  18
ENDBRANCH  16  17
ENDBRANCH  15  16
ENDBRANCH  14  15
ENDBRANCH  13  14
ENDBRANCH   1  13
TORSDOF 20
ENDMDL
MODEL 5
REMARK VINA RESULT:    -3.535      2.436      7.169
REMARK INTER + INTRA:         -10.401
REMARK INTER:                  -7.233
REMARK INTRA:                  -3.168
REMARK UNBOUND:                -2.732
REMARK SMILES CCCCCCCCCCCCCCCCCCCCCC(=O)[O-]
REMARK SMILES IDX 12 1 11 2 10 3 9 4 8 5 7 6 6 7 5 8 4 9 3 10 2 11 1 12 13 13
REMARK SMILES IDX 14 14 15 15 16 16 17 17 18 18 19 19 20 20 21 21 22 22 23 23
REMARK SMILES IDX 24 24
REMARK H PARENT
REMARK Flexibility Score: inf
ROOT
ATOM      1  C   UNL     1      -7.931  19.504 -10.339  1.00  0.00     0.000 C 
ENDROOT
BRANCH   1   2
ATOM      2  C   UNL     1      -7.168  18.191 -10.578  1.00  0.00     0.000 C 
BRANCH   2   3
ATOM      3  C   UNL     1      -7.810  16.991  -9.867  1.00  0.00     0.000 C 
BRANCH   3   4
ATOM      4  C   UNL     1      -6.871  16.428  -8.793  1.00  0.00    -0.000 C 
BRANCH   4   5
ATOM      5  C   UNL     1      -5.437  16.296  -9.326  1.00  0.00    -0.000 C 
BRANCH   5   6
ATOM      6  C   UNL     1      -4.373  16.626  -8.265  1.00  0.00    -0.000 C 
BRANCH   6   7
ATOM      7  C   UNL     1      -4.956  16.845  -6.853  1.00  0.00    -0.000 C 
BRANCH   7   8
ATOM      8  C   UNL     1      -4.671  18.258  -6.320  1.00  0.00    -0.000 C 
BRANCH   8   9
ATOM      9  C   UNL     1      -5.319  19.324  -7.213  1.00  0.00    -0.000 C 
BRANCH   9  10
ATOM     10  C   UNL     1      -4.253  20.226  -7.853  1.00  0.00    -0.000 C 
BRANCH  10  11
ATOM     11  C   UNL     1      -4.593  20.605  -9.303  1.00  0.00    -0.003 C 
ATOM     12  C   UNL     1      -3.883  19.723 -10.329  1.00  0.00     0.004 C 
ENDBRANCH  10  11
ENDBRANCH   9  10
ENDBRANCH   8   9
ENDBRANCH   7   8
ENDBRANCH   6   7
ENDBRANCH   5   6
ENDBRANCH   4   5
ENDBRANCH   3   4
ENDBRANCH   2   3
ENDBRANCH   1   2
BRANCH   1  13
ATOM     13  C   UNL     1      -7.657  20.554 -11.430  1.00  0.00     0.000 C 
BRANCH  13  14
ATOM     14  C   UNL     1      -7.075  19.940 -12.714  1.00  0.00     0.000 C 
BRANCH  14  15
ATOM     15  C   UNL     1      -7.800  20.423 -13.982  1.00  0.00     0.000 C 
BRANCH  15  16
ATOM     16  C   UNL     1      -8.178  19.265 -14.921  1.00  0.00     0.000 C 
BRANCH  16  17
ATOM     17  C   UNL     1      -9.695  19.139 -15.124  1.00  0.00     0.000 C 
BRANCH  17  18
ATOM     18  C   UNL     1     -10.442  20.263 -14.391  1.00  0.00     0.000 C 
BRANCH  18  19
ATOM     19  C   UNL     1     -11.786  19.797 -13.810  1.00  0.00     0.000 C 
BRANCH  19  20
ATOM     20  C   UNL     1     -11.891  20.043 -12.295  1.00  0.00     0.006 C 
BRANCH  20  21
ATOM     21  C   UNL     1     -11.191  18.947 -11.481  1.00  0.00     0.053 C 
BRANCH  21  22
ATOM     22  C   UNL     1     -11.273  17.615 -12.160  1.00  0.00     0.041 C 
ATOM     23  O   UNL     1     -10.221  16.994 -12.472  1.00  0.00    -0.550 OA
ATOM     24  O   UNL     1     -12.514  17.047 -12.427  1.00  0.00    -0.550 OA
ENDBRANCH  21  22
ENDBRANCH  20  21
ENDBRANCH  19  20
ENDBRANCH  18  19
ENDBRANCH  17  18
ENDBRANCH  16  17
ENDBRANCH  15  16
ENDBRANCH  14  15
ENDBRANCH  13  14
ENDBRANCH   1  13
TORSDOF 20
ENDMDL
MODEL 6
REMARK VINA RESULT:    -3.455      2.233      6.843
REMARK INTER + INTRA:         -10.227
REMARK INTER:                  -7.079
REMARK INTRA:                  -3.148
REMARK UNBOUND:                -2.732
REMARK SMILES CCCCCCCCCCCCCCCCCCCCCC(=O)[O-]
REMARK SMILES IDX 12 1 11 2 10 3 9 4 8 5 7 6 6 7 5 8 4 9 3 10 2 11 1 12 13 13
REMARK SMILES IDX 14 14 15 15 16 16 17 17 18 18 19 19 20 20 21 21 22 22 23 23
REMARK SMILES IDX 24 24
REMARK H PARENT
REMARK Flexibility Score: inf
ROOT
ATOM      1  C   UNL     1      -9.681  17.022 -11.001  1.00  0.00     0.000 C 
ENDROOT
BRANCH   1   2
ATOM      2  C   UNL     1      -8.568  18.083 -10.997  1.00  0.00     0.000 C 
BRANCH   2   3
ATOM      3  C   UNL     1      -9.082  19.484 -10.634  1.00  0.00     0.000 C 
BRANCH   3   4
ATOM      4  C   UNL     1      -7.923  20.400 -10.222  1.00  0.00    -0.000 C 
BRANCH   4   5
ATOM      5  C   UNL     1      -8.125  20.940  -8.799  1.00  0.00    -0.000 C 
BRANCH   5   6
ATOM      6  C   UNL     1      -7.051  20.445  -7.815  1.00  0.00    -0.000 C 
BRANCH   6   7
ATOM      7  C   UNL     1      -6.100  19.390  -8.418  1.00  0.00    -0.000 C 
BRANCH   7   8
ATOM      8  C   UNL     1      -5.706  18.312  -7.396  1.00  0.00    -0.000 C 
BRANCH   8   9
ATOM      9  C   UNL     1      -6.500  17.020  -7.626  1.00  0.00    -0.000 C 
BRANCH   9  10
ATOM     10  C   UNL     1      -6.145  16.389  -8.980  1.00  0.00    -0.000 C 
BRANCH  10  11
ATOM     11  C   UNL     1      -4.630  16.251  -9.190  1.00  0.00    -0.003 C 
ATOM     12  C   UNL     1      -4.246  16.100 -10.661  1.00  0.00     0.004 C 
ENDBRANCH  10  11
ENDBRANCH   9  10
ENDBRANCH   8   9
ENDBRANCH   7   8
ENDBRANCH   6   7
ENDBRANCH   5   6
ENDBRANCH   4   5
ENDBRANCH   3   4
ENDBRANCH   2   3
ENDBRANCH   1   2
BRANCH   1  13
ATOM     13  C   UNL     1     -11.086  17.639 -11.120  1.00  0.00     0.000 C 
BRANCH  13  14
ATOM     14  C   UNL     1     -11.738  17.372 -12.487  1.00  0.00     0.000 C 
BRANCH  14  15
ATOM     15  C   UNL     1     -12.210  18.662 -13.180  1.00  0.00     0.000 C 
BRANCH  15  16
ATOM     16  C   UNL     1     -11.536  18.878 -14.545  1.00  0.00     0.000 C 
BRANCH  16  17
ATOM     17  C   UNL     1     -10.004  18.931 -14.446  1.00  0.00     0.000 C 
BRANCH  17  18
ATOM     18  C   UNL     1      -9.534  20.301 -13.935  1.00  0.00     0.000 C 
BRANCH  18  19
ATOM     19  C   UNL     1      -8.043  20.553 -14.210  1.00  0.00     0.000 C 
BRANCH  19  20
ATOM     20  C   UNL     1      -7.226  19.251 -14.277  1.00  0.00     0.006 C 
BRANCH  20  21
ATOM     21  C   UNL     1      -6.055  19.250 -13.286  1.00  0.00     0.053 C 
BRANCH  21  22
ATOM     22  C   UNL     1      -4.931  20.121 -13.757  1.00  0.00     0.041 C 
ATOM     23  O   UNL     1      -4.618  20.151 -14.977  1.00  0.00    -0.550 OA
ATOM     24  O   UNL     1      -4.245  20.921 -12.849  1.00  0.00    -0.550 OA
ENDBRANCH  21  22
ENDBRANCH  20  21
ENDBRANCH  19  20
ENDBRANCH  18  19
ENDBRANCH  17  18
ENDBRANCH  16  17
ENDBRANCH  15  16
ENDBRANCH  14  15
ENDBRANCH  13  14
ENDBRANCH   1  13
TORSDOF 20
ENDMDL
MODEL 7
REMARK VINA RESULT:    -3.339      1.829      5.983
REMARK INTER + INTRA:          -9.975
REMARK INTER:                  -7.084
REMARK INTRA:                  -2.891
REMARK UNBOUND:                -2.732
REMARK SMILES CCCCCCCCCCCCCCCCCCCCCC(=O)[O-]
REMARK SMILES IDX 12 1 11 2 10 3 9 4 8 5 7 6 6 7 5 8 4 9 3 10 2 11 1 12 13 13
REMARK SMILES IDX 14 14 15 15 16 16 17 17 18 18 19 19 20 20 21 21 22 22 23 23
REMARK SMILES IDX 24 24
REMARK H PARENT
REMARK Flexibility Score: inf
ROOT
ATOM      1  C   UNL     1     -10.565  17.692 -11.953  1.00  0.00     0.000 C 
ENDROOT
BRANCH   1   2
ATOM      2  C   UNL     1     -10.813  19.207 -12.022  1.00  0.00     0.000 C 
BRANCH   2   3
ATOM      3  C   UNL     1     -10.708  19.891 -10.650  1.00  0.00     0.000 C 
BRANCH   3   4
ATOM      4  C   UNL     1      -9.523  20.864 -10.615  1.00  0.00    -0.000 C 
BRANCH   4   5
ATOM      5  C   UNL     1      -8.903  20.930  -9.212  1.00  0.00    -0.000 C 
BRANCH   5   6
ATOM      6  C   UNL     1      -7.381  20.710  -9.221  1.00  0.00    -0.000 C 
BRANCH   6   7
ATOM      7  C   UNL     1      -6.831  20.145  -7.894  1.00  0.00    -0.000 C 
BRANCH   7   8
ATOM      8  C   UNL     1      -5.322  20.392  -7.738  1.00  0.00    -0.000 C 
BRANCH   8   9
ATOM      9  C   UNL     1      -4.583  19.091  -7.403  1.00  0.00    -0.000 C 
BRANCH   9  10
ATOM     10  C   UNL     1      -4.423  18.924  -5.885  1.00  0.00    -0.000 C 
BRANCH  10  11
ATOM     11  C   UNL     1      -4.376  17.451  -5.453  1.00  0.00    -0.003 C 
ATOM     12  C   UNL     1      -5.140  16.530  -6.402  1.00  0.00     0.004 C 
ENDBRANCH  10  11
ENDBRANCH   9  10
ENDBRANCH   8   9
ENDBRANCH   7   8
ENDBRANCH   6   7
ENDBRANCH   5   6
ENDBRANCH   4   5
ENDBRANCH   3   4
ENDBRANCH   2   3
ENDBRANCH   1   2
BRANCH   1  13
ATOM     13  C   UNL     1      -9.792  17.276 -10.689  1.00  0.00     0.000 C 
BRANCH  13  14
ATOM     14  C   UNL     1      -8.269  17.426 -10.846  1.00  0.00     0.000 C 
BRANCH  14  15
ATOM     15  C   UNL     1      -7.496  16.956  -9.602  1.00  0.00     0.000 C 
BRANCH  15  16
ATOM     16  C   UNL     1      -6.003  16.725  -9.889  1.00  0.00     0.000 C 
BRANCH  16  17
ATOM     17  C   UNL     1      -5.373  17.865 -10.703  1.00  0.00     0.000 C 
BRANCH  17  18
ATOM     18  C   UNL     1      -4.386  17.315 -11.743  1.00  0.00     0.000 C 
BRANCH  18  19
ATOM     19  C   UNL     1      -4.090  18.322 -12.866  1.00  0.00     0.000 C 
BRANCH  19  20
ATOM     20  C   UNL     1      -5.197  19.381 -13.016  1.00  0.00     0.006 C 
BRANCH  20  21
ATOM     21  C   UNL     1      -6.025  19.174 -14.292  1.00  0.00     0.053 C 
BRANCH  21  22
ATOM     22  C   UNL     1      -7.421  19.694 -14.135  1.00  0.00     0.041 C 
ATOM     23  O   UNL     1      -7.628  20.800 -13.567  1.00  0.00    -0.550 OA
ATOM     24  O   UNL     1      -8.493  18.968 -14.642  1.00  0.00    -0.550 OA
ENDBRANCH  21  22
ENDBRANCH  20  21
ENDBRANCH  19  20
ENDBRANCH  18  19
ENDBRANCH  17  18
ENDBRANCH  16  17
ENDBRANCH  15  16
ENDBRANCH  14  15
ENDBRANCH  13  14
ENDBRANCH   1  13
TORSDOF 20
ENDMDL
MODEL 8
REMARK VINA RESULT:    -3.328      2.247      7.025
REMARK INTER + INTRA:          -9.951
REMARK INTER:                  -7.303
REMARK INTRA:                  -2.648
REMARK UNBOUND:                -2.732
REMARK SMILES CCCCCCCCCCCCCCCCCCCCCC(=O)[O-]
REMARK SMILES IDX 12 1 11 2 10 3 9 4 8 5 7 6 6 7 5 8 4 9 3 10 2 11 1 12 13 13
REMARK SMILES IDX 14 14 15 15 16 16 17 17 18 18 19 19 20 20 21 21 22 22 23 23
REMARK SMILES IDX 24 24
REMARK H PARENT
REMARK Flexibility Score: inf
ROOT
ATOM      1  C   UNL     1     -10.813  17.220 -10.970  1.00  0.00     0.000 C 
ENDROOT
BRANCH   1   2
ATOM      2  C   UNL     1      -9.354  16.863 -10.643  1.00  0.00     0.000 C 
BRANCH   2   3
ATOM      3  C   UNL     1      -8.377  18.006 -10.954  1.00  0.00     0.000 C 
BRANCH   3   4
ATOM      4  C   UNL     1      -7.131  17.916 -10.064  1.00  0.00    -0.000 C 
BRANCH   4   5
ATOM      5  C   UNL     1      -7.246  16.752  -9.069  1.00  0.00    -0.000 C 
BRANCH   5   6
ATOM      6  C   UNL     1      -5.878  16.261  -8.564  1.00  0.00    -0.000 C 
BRANCH   6   7
ATOM      7  C   UNL     1      -5.754  16.253  -7.026  1.00  0.00    -0.000 C 
BRANCH   7   8
ATOM      8  C   UNL     1      -4.819  17.360  -6.514  1.00  0.00    -0.000 C 
BRANCH   8   9
ATOM      9  C   UNL     1      -3.939  17.905  -7.646  1.00  0.00    -0.000 C 
BRANCH   9  10
ATOM     10  C   UNL     1      -3.919  19.440  -7.636  1.00  0.00    -0.000 C 
BRANCH  10  11
ATOM     11  C   UNL     1      -5.079  20.042  -6.829  1.00  0.00    -0.003 C 
ATOM     12  C   UNL     1      -6.237  20.507  -7.711  1.00  0.00     0.004 C 
ENDBRANCH  10  11
ENDBRANCH   9  10
ENDBRANCH   8   9
ENDBRANCH   7   8
ENDBRANCH   6   7
ENDBRANCH   5   6
ENDBRANCH   4   5
ENDBRANCH   3   4
ENDBRANCH   2   3
ENDBRANCH   1   2
BRANCH   1  13
ATOM     13  C   UNL     1     -11.117  17.144 -12.476  1.00  0.00     0.000 C 
BRANCH  13  14
ATOM     14  C   UNL     1     -11.777  18.424 -13.015  1.00  0.00     0.000 C 
BRANCH  14  15
ATOM     15  C   UNL     1     -11.052  18.989 -14.249  1.00  0.00     0.000 C 
BRANCH  15  16
ATOM     16  C   UNL     1      -9.730  19.687 -13.888  1.00  0.00     0.000 C 
BRANCH  16  17
ATOM     17  C   UNL     1      -8.502  18.958 -14.454  1.00  0.00     0.000 C 
BRANCH  17  18
ATOM     18  C   UNL     1      -7.287  19.897 -14.512  1.00  0.00     0.000 C 
BRANCH  18  19
ATOM     19  C   UNL     1      -6.365  19.743 -13.291  1.00  0.00     0.000 C 
BRANCH  19  20
ATOM     20  C   UNL     1      -4.976  19.198 -13.666  1.00  0.00     0.006 C 
BRANCH  20  21
ATOM     21  C   UNL     1      -4.220  18.654 -12.445  1.00  0.00     0.053 C 
BRANCH  21  22
ATOM     22  C   UNL     1      -4.054  17.167 -12.514  1.00  0.00     0.041 C 
ATOM     23  O   UNL     1      -4.095  16.474 -11.463  1.00  0.00    -0.550 OA
ATOM     24  O   UNL     1      -3.880  16.545 -13.745  1.00  0.00    -0.550 OA
ENDBRANCH  21  22
ENDBRANCH  20  21
ENDBRANCH  19  20
ENDBRANCH  18  19
ENDBRANCH  17  18
ENDBRANCH  16  17
ENDBRANCH  15  16
ENDBRANCH  14  15
ENDBRANCH  13  14
ENDBRANCH   1  13
TORSDOF 20
ENDMDL
MODEL 9
REMARK VINA RESULT:    -3.321      2.183      6.896
REMARK INTER + INTRA:          -9.937
REMARK INTER:                  -6.686
REMARK INTRA:                  -3.250
REMARK UNBOUND:                -2.732
REMARK SMILES CCCCCCCCCCCCCCCCCCCCCC(=O)[O-]
REMARK SMILES IDX 12 1 11 2 10 3 9 4 8 5 7 6 6 7 5 8 4 9 3 10 2 11 1 12 13 13
REMARK SMILES IDX 14 14 15 15 16 16 17 17 18 18 19 19 20 20 21 21 22 22 23 23
REMARK SMILES IDX 24 24
REMARK H PARENT
REMARK Flexibility Score: inf
ROOT
ATOM      1  C   UNL     1      -7.616  18.957 -10.224  1.00  0.00     0.000 C 
ENDROOT
BRANCH   1   2
ATOM      2  C   UNL     1      -6.625  19.998  -9.679  1.00  0.00     0.000 C 
BRANCH   2   3
ATOM      3  C   UNL     1      -7.247  20.911  -8.612  1.00  0.00     0.000 C 
BRANCH   3   4
ATOM      4  C   UNL     1      -6.528  20.747  -7.267  1.00  0.00    -0.000 C 
BRANCH   4   5
ATOM      5  C   UNL     1      -5.189  20.016  -7.443  1.00  0.00    -0.000 C 
BRANCH   5   6
ATOM      6  C   UNL     1      -4.837  19.118  -6.244  1.00  0.00    -0.000 C 
BRANCH   6   7
ATOM      7  C   UNL     1      -4.987  17.611  -6.537  1.00  0.00    -0.000 C 
BRANCH   7   8
ATOM      8  C   UNL     1      -4.476  17.237  -7.937  1.00  0.00    -0.000 C 
BRANCH   8   9
ATOM      9  C   UNL     1      -5.550  16.482  -8.732  1.00  0.00    -0.000 C 
BRANCH   9  10
ATOM     10  C   UNL     1      -4.952  15.840  -9.992  1.00  0.00    -0.000 C 
BRANCH  10  11
ATOM     11  C   UNL     1      -3.875  16.716 -10.649  1.00  0.00    -0.003 C 
ATOM     12  C   UNL     1      -4.385  17.456 -11.885  1.00  0.00     0.004 C 
ENDBRANCH  10  11
ENDBRANCH   9  10
ENDBRANCH   8   9
ENDBRANCH   7   8
ENDBRANCH   6   7
ENDBRANCH   5   6
ENDBRANCH   4   5
ENDBRANCH   3   4
ENDBRANCH   2   3
ENDBRANCH   1   2
BRANCH   1  13
ATOM     13  C   UNL     1      -7.555  18.828 -11.756  1.00  0.00     0.000 C 
BRANCH  13  14
ATOM     14  C   UNL     1      -6.990  20.086 -12.437  1.00  0.00     0.000 C 
BRANCH  14  15
ATOM     15  C   UNL     1      -7.468  20.237 -13.891  1.00  0.00     0.000 C 
BRANCH  15  16
ATOM     16  C   UNL     1      -8.719  21.123 -14.011  1.00  0.00     0.000 C 
BRANCH  16  17
ATOM     17  C   UNL     1      -9.953  20.342 -14.489  1.00  0.00     0.000 C 
BRANCH  17  18
ATOM     18  C   UNL     1     -11.130  20.531 -13.520  1.00  0.00     0.000 C 
BRANCH  18  19
ATOM     19  C   UNL     1     -10.670  20.882 -12.096  1.00  0.00     0.000 C 
BRANCH  19  20
ATOM     20  C   UNL     1     -11.052  19.802 -11.069  1.00  0.00     0.006 C 
BRANCH  20  21
ATOM     21  C   UNL     1     -11.730  18.592 -11.727  1.00  0.00     0.053 C 
BRANCH  21  22
ATOM     22  C   UNL     1     -10.850  17.381 -11.698  1.00  0.00     0.041 C 
ATOM     23  O   UNL     1     -10.664  16.756 -10.618  1.00  0.00    -0.550 OA
ATOM     24  O   UNL     1     -10.256  16.925 -12.869  1.00  0.00    -0.550 OA
ENDBRANCH  21  22
ENDBRANCH  20  21
ENDBRANCH  19  20
ENDBRANCH  18  19
ENDBRANCH  17  18
ENDBRANCH  16  17
ENDBRANCH  15  16
ENDBRANCH  14  15
ENDBRANCH  13  14
ENDBRANCH   1  13
TORSDOF 20
ENDMDL
