MODEL 1
REMARK VINA RESULT:    -4.277      0.000      0.000
REMARK INTER + INTRA:          -4.277
REMARK INTER:                  -4.277
REMARK INTRA:                   0.000
REMARK UNBOUND:                 0.000
REMARK SMILES CC1=CC[C@@H]2[C@H](C1)C2(C)C
REMARK SMILES IDX 1 1 2 2 3 3 4 4 5 5 6 6 7 7 8 8 9 9 10 10
REMARK H PARENT
REMARK Flexibility Score: inf
ROOT
ATOM      1  C   UNL     1     169.323 167.173 202.819  1.00  0.00     0.039 C 
ATOM      2  C   UNL     1     168.946 167.518 201.403  1.00  0.00    -0.077 C 
ATOM      3  C   UNL     1     169.585 166.918 200.385  1.00  0.00    -0.028 C 
ATOM      4  C   UNL     1     169.244 167.221 198.953  1.00  0.00     0.031 C 
ATOM      5  C   UNL     1     168.919 168.715 198.744  1.00  0.00     0.003 C 
ATOM      6  C   UNL     1     168.177 169.412 199.908  1.00  0.00     0.003 C 
ATOM      7  C   UNL     1     167.855 168.526 201.132  1.00  0.00     0.034 C 
ATOM      8  C   UNL     1     167.463 169.179 198.567  1.00  0.00    -0.029 C 
ATOM      9  C   UNL     1     166.325 168.146 198.461  1.00  0.00     0.012 C 
ATOM     10  C   UNL     1     167.295 170.437 197.707  1.00  0.00     0.012 C 
ENDROOT
TORSDOF 0
ENDMDL
MODEL 2
REMARK VINA RESULT:    -4.271      5.779      7.214
REMARK INTER + INTRA:          -4.271
REMARK INTER:                  -4.271
REMARK INTRA:                   0.000
REMARK UNBOUND:                 0.000
REMARK SMILES CC1=CC[C@@H]2[C@H](C1)C2(C)C
REMARK SMILES IDX 1 1 2 2 3 3 4 4 5 5 6 6 7 7 8 8 9 9 10 10
REMARK H PARENT
REMARK Flexibility Score: inf
ROOT
ATOM      1  C   UNL     1     162.617 164.800 202.789  1.00  0.00     0.039 C 
ATOM      2  C   UNL     1     163.023 164.464 201.379  1.00  0.00    -0.077 C 
ATOM      3  C   UNL     1     162.423 165.090 200.352  1.00  0.00    -0.028 C 
ATOM      4  C   UNL     1     162.794 164.797 198.926  1.00  0.00     0.031 C 
ATOM      5  C   UNL     1     163.092 163.298 198.706  1.00  0.00     0.003 C 
ATOM      6  C   UNL     1     163.790 162.572 199.880  1.00  0.00     0.003 C 
ATOM      7  C   UNL     1     164.099 163.436 201.122  1.00  0.00     0.034 C 
ATOM      8  C   UNL     1     164.542 162.805 198.560  1.00  0.00    -0.029 C 
ATOM      9  C   UNL     1     165.704 163.815 198.495  1.00  0.00     0.012 C 
ATOM     10  C   UNL     1     164.706 161.554 197.689  1.00  0.00     0.012 C 
ENDROOT
TORSDOF 0
ENDMDL
MODEL 3
REMARK VINA RESULT:    -4.267      4.908      5.965
REMARK INTER + INTRA:          -4.267
REMARK INTER:                  -4.267
REMARK INTRA:                   0.000
REMARK UNBOUND:                 0.000
REMARK SMILES CC1=CC[C@@H]2[C@H](C1)C2(C)C
REMARK SMILES IDX 1 1 2 2 3 3 4 4 5 5 6 6 7 7 8 8 9 9 10 10
REMARK H PARENT
REMARK Flexibility Score: inf
ROOT
ATOM      1  C   UNL     1     169.367 165.236 200.007  1.00  0.00     0.039 C 
ATOM      2  C   UNL     1     168.246 164.240 200.144  1.00  0.00    -0.077 C 
ATOM      3  C   UNL     1     168.499 163.031 200.673  1.00  0.00    -0.028 C 
ATOM      4  C   UNL     1     167.416 162.002 200.838  1.00  0.00     0.031 C 
ATOM      5  C   UNL     1     166.427 162.014 199.653  1.00  0.00     0.003 C 
ATOM      6  C   UNL     1     166.124 163.402 199.043  1.00  0.00     0.003 C 
ATOM      7  C   UNL     1     166.850 164.600 199.694  1.00  0.00     0.034 C 
ATOM      8  C   UNL     1     165.031 162.642 199.810  1.00  0.00    -0.029 C 
ATOM      9  C   UNL     1     164.553 163.144 201.186  1.00  0.00     0.012 C 
ATOM     10  C   UNL     1     163.947 162.017 198.923  1.00  0.00     0.012 C 
ENDROOT
TORSDOF 0
ENDMDL
MODEL 4
REMARK VINA RESULT:    -4.267      2.553      4.471
REMARK INTER + INTRA:          -4.267
REMARK INTER:                  -4.267
REMARK INTRA:                   0.000
REMARK UNBOUND:                 0.000
REMARK SMILES CC1=CC[C@@H]2[C@H](C1)C2(C)C
REMARK SMILES IDX 1 1 2 2 3 3 4 4 5 5 6 6 7 7 8 8 9 9 10 10
REMARK H PARENT
REMARK Flexibility Score: inf
ROOT
ATOM      1  C   UNL     1     162.619 166.777 199.996  1.00  0.00     0.039 C 
ATOM      2  C   UNL     1     163.742 167.772 200.114  1.00  0.00    -0.077 C 
ATOM      3  C   UNL     1     163.501 168.979 200.653  1.00  0.00    -0.028 C 
ATOM      4  C   UNL     1     164.587 170.007 200.799  1.00  0.00     0.031 C 
ATOM      5  C   UNL     1     165.552 170.000 199.595  1.00  0.00     0.003 C 
ATOM      6  C   UNL     1     165.841 168.614 198.972  1.00  0.00     0.003 C 
ATOM      7  C   UNL     1     165.129 167.413 199.634  1.00  0.00     0.034 C 
ATOM      8  C   UNL     1     166.951 169.371 199.720  1.00  0.00    -0.029 C 
ATOM      9  C   UNL     1     167.456 168.863 201.084  1.00  0.00     0.012 C 
ATOM     10  C   UNL     1     168.016 169.999 198.813  1.00  0.00     0.012 C 
ENDROOT
TORSDOF 0
ENDMDL
MODEL 5
REMARK VINA RESULT:    -4.128      5.229      6.877
REMARK INTER + INTRA:          -4.128
REMARK INTER:                  -4.128
REMARK INTRA:                   0.000
REMARK UNBOUND:                 0.000
REMARK SMILES CC1=CC[C@@H]2[C@H](C1)C2(C)C
REMARK SMILES IDX 1 1 2 2 3 3 4 4 5 5 6 6 7 7 8 8 9 9 10 10
REMARK H PARENT
REMARK Flexibility Score: inf
ROOT
ATOM      1  C   UNL     1     163.742 162.250 199.296  1.00  0.00     0.039 C 
ATOM      2  C   UNL     1     165.095 162.475 199.917  1.00  0.00    -0.077 C 
ATOM      3  C   UNL     1     166.178 161.903 199.364  1.00  0.00    -0.028 C 
ATOM      4  C   UNL     1     167.552 162.099 199.939  1.00  0.00     0.031 C 
ATOM      5  C   UNL     1     167.531 162.127 201.482  1.00  0.00     0.003 C 
ATOM      6  C   UNL     1     166.292 162.791 202.127  1.00  0.00     0.003 C 
ATOM      7  C   UNL     1     165.233 163.342 201.146  1.00  0.00     0.034 C 
ATOM      8  C   UNL     1     167.672 163.458 202.240  1.00  0.00    -0.029 C 
ATOM      9  C   UNL     1     167.971 164.761 201.475  1.00  0.00     0.012 C 
ATOM     10  C   UNL     1     168.326 163.339 203.622  1.00  0.00     0.012 C 
ENDROOT
TORSDOF 0
ENDMDL
MODEL 6
REMARK VINA RESULT:    -4.128      2.953      4.669
REMARK INTER + INTRA:          -4.128
REMARK INTER:                  -4.128
REMARK INTRA:                   0.000
REMARK UNBOUND:                 0.000
REMARK SMILES CC1=CC[C@@H]2[C@H](C1)C2(C)C
REMARK SMILES IDX 1 1 2 2 3 3 4 4 5 5 6 6 7 7 8 8 9 9 10 10
REMARK H PARENT
REMARK Flexibility Score: inf
ROOT
ATOM      1  C   UNL     1     168.255 169.733 199.276  1.00  0.00     0.039 C 
ATOM      2  C   UNL     1     166.914 169.505 199.920  1.00  0.00    -0.077 C 
ATOM      3  C   UNL     1     165.823 170.091 199.399  1.00  0.00    -0.028 C 
ATOM      4  C   UNL     1     164.460 169.893 199.999  1.00  0.00     0.031 C 
ATOM      5  C   UNL     1     164.512 169.842 201.541  1.00  0.00     0.003 C 
ATOM      6  C   UNL     1     165.761 169.162 202.150  1.00  0.00     0.003 C 
ATOM      7  C   UNL     1     166.796 168.621 201.140  1.00  0.00     0.034 C 
ATOM      8  C   UNL     1     164.380 168.500 202.282  1.00  0.00    -0.029 C 
ATOM      9  C   UNL     1     164.058 167.210 201.504  1.00  0.00     0.012 C 
ATOM     10  C   UNL     1     163.755 168.602 203.678  1.00  0.00     0.012 C 
ENDROOT
TORSDOF 0
ENDMDL
MODEL 7
REMARK VINA RESULT:    -4.115      3.983      5.253
REMARK INTER + INTRA:          -4.115
REMARK INTER:                  -4.115
REMARK INTRA:                   0.000
REMARK UNBOUND:                 0.000
REMARK SMILES CC1=CC[C@@H]2[C@H](C1)C2(C)C
REMARK SMILES IDX 1 1 2 2 3 3 4 4 5 5 6 6 7 7 8 8 9 9 10 10
REMARK H PARENT
REMARK Flexibility Score: inf
ROOT
ATOM      1  C   UNL     1     169.458 166.963 200.381  1.00  0.00     0.039 C 
ATOM      2  C   UNL     1     169.004 165.543 200.176  1.00  0.00    -0.077 C 
ATOM      3  C   UNL     1     169.854 164.648 199.645  1.00  0.00    -0.028 C 
ATOM      4  C   UNL     1     169.454 163.216 199.425  1.00  0.00     0.031 C 
ATOM      5  C   UNL     1     167.987 163.094 198.961  1.00  0.00     0.003 C 
ATOM      6  C   UNL     1     167.000 164.115 199.573  1.00  0.00     0.003 C 
ATOM      7  C   UNL     1     167.606 165.128 200.570  1.00  0.00     0.034 C 
ATOM      8  C   UNL     1     166.896 162.626 199.939  1.00  0.00    -0.029 C 
ATOM      9  C   UNL     1     167.273 162.145 201.354  1.00  0.00     0.012 C 
ATOM     10  C   UNL     1     165.724 161.889 199.282  1.00  0.00     0.012 C 
ENDROOT
TORSDOF 0
ENDMDL
MODEL 8
REMARK VINA RESULT:    -4.047      1.927      2.957
REMARK INTER + INTRA:          -4.047
REMARK INTER:                  -4.047
REMARK INTRA:                   0.000
REMARK UNBOUND:                 0.000
REMARK SMILES CC1=CC[C@@H]2[C@H](C1)C2(C)C
REMARK SMILES IDX 1 1 2 2 3 3 4 4 5 5 6 6 7 7 8 8 9 9 10 10
REMARK H PARENT
REMARK Flexibility Score: inf
ROOT
ATOM      1  C   UNL     1     164.598 169.580 202.921  1.00  0.00     0.039 C 
ATOM      2  C   UNL     1     165.487 169.360 201.727  1.00  0.00    -0.077 C 
ATOM      3  C   UNL     1     166.767 168.997 201.915  1.00  0.00    -0.028 C 
ATOM      4  C   UNL     1     167.697 168.759 200.759  1.00  0.00     0.031 C 
ATOM      5  C   UNL     1     167.454 169.761 199.611  1.00  0.00     0.003 C 
ATOM      6  C   UNL     1     165.982 170.179 199.381  1.00  0.00     0.003 C 
ATOM      7  C   UNL     1     164.943 169.541 200.330  1.00  0.00     0.034 C 
ATOM      8  C   UNL     1     166.713 169.322 198.336  1.00  0.00    -0.029 C 
ATOM      9  C   UNL     1     166.325 167.845 198.131  1.00  0.00     0.012 C 
ATOM     10  C   UNL     1     167.124 170.078 197.067  1.00  0.00     0.012 C 
ENDROOT
TORSDOF 0
ENDMDL
MODEL 9
REMARK VINA RESULT:    -4.042      5.639      6.630
REMARK INTER + INTRA:          -4.042
REMARK INTER:                  -4.042
REMARK INTRA:                   0.000
REMARK UNBOUND:                 0.000
REMARK SMILES CC1=CC[C@@H]2[C@H](C1)C2(C)C
REMARK SMILES IDX 1 1 2 2 3 3 4 4 5 5 6 6 7 7 8 8 9 9 10 10
REMARK H PARENT
REMARK Flexibility Score: inf
ROOT
ATOM      1  C   UNL     1     167.494 162.368 202.862  1.00  0.00     0.039 C 
ATOM      2  C   UNL     1     166.580 162.609 201.691  1.00  0.00    -0.077 C 
ATOM      3  C   UNL     1     165.308 162.980 201.912  1.00  0.00    -0.028 C 
ATOM      4  C   UNL     1     164.355 163.239 200.779  1.00  0.00     0.031 C 
ATOM      5  C   UNL     1     164.564 162.247 199.615  1.00  0.00     0.003 C 
ATOM      6  C   UNL     1     166.026 161.820 199.348  1.00  0.00     0.003 C 
ATOM      7  C   UNL     1     167.092 162.438 200.280  1.00  0.00     0.034 C 
ATOM      8  C   UNL     1     165.279 162.695 198.328  1.00  0.00    -0.029 C 
ATOM      9  C   UNL     1     165.676 164.170 198.132  1.00  0.00     0.012 C 
ATOM     10  C   UNL     1     164.833 161.956 197.061  1.00  0.00     0.012 C 
ENDROOT
TORSDOF 0
ENDMDL
