MODEL 1
REMARK VINA RESULT:    -4.340      0.000      0.000
REMARK INTER + INTRA:          -6.106
REMARK INTER:                  -5.862
REMARK INTRA:                  -0.243
REMARK UNBOUND:                -0.243
REMARK SMILES CCCCCCCC(=O)[O-]
REMARK SMILES IDX 5 1 6 2 7 3 8 4 9 5 10 6 4 7 3 8 2 9 1 10
REMARK H PARENT
REMARK Flexibility Score: inf
ROOT
ATOM      1  C   UNL     1     -16.054  43.340  21.861  1.00  0.00     0.000 C 
ENDROOT
BRANCH   1   2
ATOM      2  C   UNL     1     -16.909  42.132  21.462  1.00  0.00     0.006 C 
BRANCH   2   3
ATOM      3  C   UNL     1     -18.104  42.563  20.607  1.00  0.00     0.053 C 
BRANCH   3   4
ATOM      4  C   UNL     1     -18.491  41.472  19.659  1.00  0.00     0.041 C 
ATOM      5  O   UNL     1     -19.498  40.754  19.896  1.00  0.00    -0.550 OA
ATOM      6  O   UNL     1     -17.711  41.216  18.539  1.00  0.00    -0.550 OA
ENDBRANCH   3   4
ENDBRANCH   2   3
ENDBRANCH   1   2
BRANCH   1   7
ATOM      7  C   UNL     1     -16.896  44.621  21.909  1.00  0.00     0.000 C 
BRANCH   7   8
ATOM      8  C   UNL     1     -16.875  45.240  23.314  1.00  0.00    -0.000 C 
BRANCH   8   9
ATOM      9  C   UNL     1     -16.166  46.603  23.348  1.00  0.00    -0.003 C 
ATOM     10  C   UNL     1     -15.990  47.214  21.958  1.00  0.00     0.004 C 
ENDBRANCH   8   9
ENDBRANCH   7   8
ENDBRANCH   1   7
TORSDOF 6
ENDMDL
MODEL 2
REMARK VINA RESULT:    -4.302      0.970      1.503
REMARK INTER + INTRA:          -6.054
REMARK INTER:                  -5.825
REMARK INTRA:                  -0.229
REMARK UNBOUND:                -0.243
REMARK SMILES CCCCCCCC(=O)[O-]
REMARK SMILES IDX 5 1 6 2 7 3 8 4 9 5 10 6 4 7 3 8 2 9 1 10
REMARK H PARENT
REMARK Flexibility Score: inf
ROOT
ATOM      1  C   UNL     1     -16.713  42.107  21.838  1.00  0.00     0.000 C 
ENDROOT
BRANCH   1   2
ATOM      2  C   UNL     1     -17.882  42.292  20.862  1.00  0.00     0.006 C 
BRANCH   2   3
ATOM      3  C   UNL     1     -18.657  40.984  20.681  1.00  0.00     0.053 C 
BRANCH   3   4
ATOM      4  C   UNL     1     -18.151  40.235  19.488  1.00  0.00     0.041 C 
ATOM      5  O   UNL     1     -18.357  38.998  19.382  1.00  0.00    -0.550 OA
ATOM      6  O   UNL     1     -17.408  40.895  18.518  1.00  0.00    -0.550 OA
ENDBRANCH   3   4
ENDBRANCH   2   3
ENDBRANCH   1   2
BRANCH   1   7
ATOM      7  C   UNL     1     -15.810  43.347  21.856  1.00  0.00     0.000 C 
BRANCH   7   8
ATOM      8  C   UNL     1     -16.645  44.634  21.919  1.00  0.00    -0.000 C 
BRANCH   8   9
ATOM      9  C   UNL     1     -16.729  45.215  23.340  1.00  0.00    -0.003 C 
ATOM     10  C   UNL     1     -16.573  46.735  23.367  1.00  0.00     0.004 C 
ENDBRANCH   8   9
ENDBRANCH   7   8
ENDBRANCH   1   7
TORSDOF 6
ENDMDL
MODEL 3
REMARK VINA RESULT:    -4.233      3.221      5.406
REMARK INTER + INTRA:          -5.961
REMARK INTER:                  -5.693
REMARK INTRA:                  -0.268
REMARK UNBOUND:                -0.243
REMARK SMILES CCCCCCCC(=O)[O-]
REMARK SMILES IDX 5 1 6 2 7 3 8 4 9 5 10 6 4 7 3 8 2 9 1 10
REMARK H PARENT
REMARK Flexibility Score: inf
ROOT
ATOM      1  C   UNL     1     -16.513  42.085  21.820  1.00  0.00     0.000 C 
ENDROOT
BRANCH   1   2
ATOM      2  C   UNL     1     -15.815  43.428  22.061  1.00  0.00     0.006 C 
BRANCH   2   3
ATOM      3  C   UNL     1     -16.776  44.597  21.823  1.00  0.00     0.053 C 
BRANCH   3   4
ATOM      4  C   UNL     1     -16.613  45.635  22.889  1.00  0.00     0.041 C 
ATOM      5  O   UNL     1     -17.149  45.474  24.017  1.00  0.00    -0.550 OA
ATOM      6  O   UNL     1     -15.912  46.803  22.621  1.00  0.00    -0.550 OA
ENDBRANCH   3   4
ENDBRANCH   2   3
ENDBRANCH   1   2
BRANCH   1   7
ATOM      7  C   UNL     1     -17.741  42.255  20.917  1.00  0.00     0.000 C 
BRANCH   7   8
ATOM      8  C   UNL     1     -18.584  40.972  20.888  1.00  0.00    -0.000 C 
BRANCH   8   9
ATOM      9  C   UNL     1     -18.115  39.981  19.811  1.00  0.00    -0.003 C 
ATOM     10  C   UNL     1     -17.783  40.663  18.484  1.00  0.00     0.004 C 
ENDBRANCH   8   9
ENDBRANCH   7   8
ENDBRANCH   1   7
TORSDOF 6
ENDMDL
MODEL 4
REMARK VINA RESULT:    -4.212      1.344      2.411
REMARK INTER + INTRA:          -5.933
REMARK INTER:                  -5.642
REMARK INTRA:                  -0.290
REMARK UNBOUND:                -0.243
REMARK SMILES CCCCCCCC(=O)[O-]
REMARK SMILES IDX 5 1 6 2 7 3 8 4 9 5 10 6 4 7 3 8 2 9 1 10
REMARK H PARENT
REMARK Flexibility Score: inf
ROOT
ATOM      1  C   UNL     1     -18.105  42.872  20.750  1.00  0.00     0.000 C 
ENDROOT
BRANCH   1   2
ATOM      2  C   UNL     1     -18.623  41.869  19.712  1.00  0.00     0.006 C 
BRANCH   2   3
ATOM      3  C   UNL     1     -17.471  41.066  19.101  1.00  0.00     0.053 C 
BRANCH   3   4
ATOM      4  C   UNL     1     -17.786  39.603  19.117  1.00  0.00     0.041 C 
ATOM      5  O   UNL     1     -16.956  38.771  18.665  1.00  0.00    -0.550 OA
ATOM      6  O   UNL     1     -19.017  39.162  19.585  1.00  0.00    -0.550 OA
ENDBRANCH   3   4
ENDBRANCH   2   3
ENDBRANCH   1   2
BRANCH   1   7
ATOM      7  C   UNL     1     -16.900  42.305  21.510  1.00  0.00     0.000 C 
BRANCH   7   8
ATOM      8  C   UNL     1     -15.937  43.426  21.927  1.00  0.00    -0.000 C 
BRANCH   8   9
ATOM      9  C   UNL     1     -16.647  44.569  22.670  1.00  0.00    -0.003 C 
ATOM     10  C   UNL     1     -16.414  45.932  22.019  1.00  0.00     0.004 C 
ENDBRANCH   8   9
ENDBRANCH   7   8
ENDBRANCH   1   7
TORSDOF 6
ENDMDL
MODEL 5
REMARK VINA RESULT:    -4.189     12.481     14.059
REMARK INTER + INTRA:          -5.902
REMARK INTER:                  -5.616
REMARK INTRA:                  -0.286
REMARK UNBOUND:                -0.243
REMARK SMILES CCCCCCCC(=O)[O-]
REMARK SMILES IDX 5 1 6 2 7 3 8 4 9 5 10 6 4 7 3 8 2 9 1 10
REMARK H PARENT
REMARK Flexibility Score: inf
ROOT
ATOM      1  C   UNL     1     -30.322  42.976  19.127  1.00  0.00     0.000 C 
ENDROOT
BRANCH   1   2
ATOM      2  C   UNL     1     -29.373  42.179  20.029  1.00  0.00     0.006 C 
BRANCH   2   3
ATOM      3  C   UNL     1     -30.001  40.845  20.444  1.00  0.00     0.053 C 
BRANCH   3   4
ATOM      4  C   UNL     1     -29.259  39.702  19.825  1.00  0.00     0.041 C 
ATOM      5  O   UNL     1     -28.953  38.696  20.517  1.00  0.00    -0.550 OA
ATOM      6  O   UNL     1     -28.863  39.769  18.496  1.00  0.00    -0.550 OA
ENDBRANCH   3   4
ENDBRANCH   2   3
ENDBRANCH   1   2
BRANCH   1   7
ATOM      7  C   UNL     1     -31.711  43.103  19.763  1.00  0.00     0.000 C 
BRANCH   7   8
ATOM      8  C   UNL     1     -32.701  43.763  18.792  1.00  0.00    -0.000 C 
BRANCH   8   9
ATOM      9  C   UNL     1     -32.144  43.872  17.364  1.00  0.00    -0.003 C 
ATOM     10  C   UNL     1     -33.008  44.749  16.458  1.00  0.00     0.004 C 
ENDBRANCH   8   9
ENDBRANCH   7   8
ENDBRANCH   1   7
TORSDOF 6
ENDMDL
MODEL 6
REMARK VINA RESULT:    -4.176     12.396     13.895
REMARK INTER + INTRA:          -5.885
REMARK INTER:                  -5.450
REMARK INTRA:                  -0.435
REMARK UNBOUND:                -0.243
REMARK SMILES CCCCCCCC(=O)[O-]
REMARK SMILES IDX 5 1 6 2 7 3 8 4 9 5 10 6 4 7 3 8 2 9 1 10
REMARK H PARENT
REMARK Flexibility Score: inf
ROOT
ATOM      1  C   UNL     1     -29.367  42.171  18.592  1.00  0.00     0.000 C 
ENDROOT
BRANCH   1   2
ATOM      2  C   UNL     1     -29.168  41.721  20.045  1.00  0.00     0.006 C 
BRANCH   2   3
ATOM      3  C   UNL     1     -30.212  40.674  20.442  1.00  0.00     0.053 C 
BRANCH   3   4
ATOM      4  C   UNL     1     -29.835  39.328  19.907  1.00  0.00     0.041 C 
ATOM      5  O   UNL     1     -30.557  38.765  19.043  1.00  0.00    -0.550 OA
ATOM      6  O   UNL     1     -28.713  38.674  20.399  1.00  0.00    -0.550 OA
ENDBRANCH   3   4
ENDBRANCH   2   3
ENDBRANCH   1   2
BRANCH   1   7
ATOM      7  C   UNL     1     -30.283  43.399  18.516  1.00  0.00     0.000 C 
BRANCH   7   8
ATOM      8  C   UNL     1     -31.670  43.016  17.979  1.00  0.00    -0.000 C 
BRANCH   8   9
ATOM      9  C   UNL     1     -32.801  43.825  18.633  1.00  0.00    -0.003 C 
ATOM     10  C   UNL     1     -32.762  43.769  20.160  1.00  0.00     0.004 C 
ENDBRANCH   8   9
ENDBRANCH   7   8
ENDBRANCH   1   7
TORSDOF 6
ENDMDL
MODEL 7
REMARK VINA RESULT:    -4.095      1.770      2.218
REMARK INTER + INTRA:          -5.775
REMARK INTER:                  -5.552
REMARK INTRA:                  -0.223
REMARK UNBOUND:                -0.243
REMARK SMILES CCCCCCCC(=O)[O-]
REMARK SMILES IDX 5 1 6 2 7 3 8 4 9 5 10 6 4 7 3 8 2 9 1 10
REMARK H PARENT
REMARK Flexibility Score: inf
ROOT
ATOM      1  C   UNL     1     -17.382  44.369  21.547  1.00  0.00     0.000 C 
ENDROOT
BRANCH   1   2
ATOM      2  C   UNL     1     -17.497  42.895  21.141  1.00  0.00     0.006 C 
BRANCH   2   3
ATOM      3  C   UNL     1     -16.407  42.054  21.812  1.00  0.00     0.053 C 
BRANCH   3   4
ATOM      4  C   UNL     1     -16.851  40.632  21.948  1.00  0.00     0.041 C 
ATOM      5  O   UNL     1     -17.425  40.052  20.989  1.00  0.00    -0.550 OA
ATOM      6  O   UNL     1     -16.676  39.962  23.152  1.00  0.00    -0.550 OA
ENDBRANCH   3   4
ENDBRANCH   2   3
ENDBRANCH   1   2
BRANCH   1   7
ATOM      7  C   UNL     1     -16.443  44.540  22.747  1.00  0.00     0.000 C 
BRANCH   7   8
ATOM      8  C   UNL     1     -16.993  45.582  23.731  1.00  0.00    -0.000 C 
BRANCH   8   9
ATOM      9  C   UNL     1     -16.147  46.865  23.767  1.00  0.00    -0.003 C 
ATOM     10  C   UNL     1     -16.301  47.710  22.503  1.00  0.00     0.004 C 
ENDBRANCH   8   9
ENDBRANCH   7   8
ENDBRANCH   1   7
TORSDOF 6
ENDMDL
MODEL 8
REMARK VINA RESULT:    -4.082      9.804     11.599
REMARK INTER + INTRA:          -5.757
REMARK INTER:                  -5.193
REMARK INTRA:                  -0.564
REMARK UNBOUND:                -0.243
REMARK SMILES CCCCCCCC(=O)[O-]
REMARK SMILES IDX 5 1 6 2 7 3 8 4 9 5 10 6 4 7 3 8 2 9 1 10
REMARK H PARENT
REMARK Flexibility Score: inf
ROOT
ATOM      1  C   UNL     1     -16.612  35.142  14.993  1.00  0.00     0.000 C 
ENDROOT
BRANCH   1   2
ATOM      2  C   UNL     1     -16.195  36.606  15.179  1.00  0.00     0.006 C 
BRANCH   2   3
ATOM      3  C   UNL     1     -14.679  36.767  15.040  1.00  0.00     0.053 C 
BRANCH   3   4
ATOM      4  C   UNL     1     -14.347  37.556  13.812  1.00  0.00     0.041 C 
ATOM      5  O   UNL     1     -13.246  37.382  13.225  1.00  0.00    -0.550 OA
ATOM      6  O   UNL     1     -15.232  38.518  13.343  1.00  0.00    -0.550 OA
ENDBRANCH   3   4
ENDBRANCH   2   3
ENDBRANCH   1   2
BRANCH   1   7
ATOM      7  C   UNL     1     -17.759  35.020  13.982  1.00  0.00     0.000 C 
BRANCH   7   8
ATOM      8  C   UNL     1     -17.455  35.820  12.707  1.00  0.00    -0.000 C 
BRANCH   8   9
ATOM      9  C   UNL     1     -16.664  35.004  11.672  1.00  0.00    -0.003 C 
ATOM     10  C   UNL     1     -15.757  35.873  10.801  1.00  0.00     0.004 C 
ENDBRANCH   8   9
ENDBRANCH   7   8
ENDBRANCH   1   7
TORSDOF 6
ENDMDL
MODEL 9
REMARK VINA RESULT:    -4.056      3.373      5.682
REMARK INTER + INTRA:          -5.722
REMARK INTER:                  -5.500
REMARK INTRA:                  -0.222
REMARK UNBOUND:                -0.243
REMARK SMILES CCCCCCCC(=O)[O-]
REMARK SMILES IDX 5 1 6 2 7 3 8 4 9 5 10 6 4 7 3 8 2 9 1 10
REMARK H PARENT
REMARK Flexibility Score: inf
ROOT
ATOM      1  C   UNL     1     -16.370  42.633  21.578  1.00  0.00     0.000 C 
ENDROOT
BRANCH   1   2
ATOM      2  C   UNL     1     -17.021  44.007  21.774  1.00  0.00     0.006 C 
BRANCH   2   3
ATOM      3  C   UNL     1     -16.339  44.782  22.905  1.00  0.00     0.053 C 
BRANCH   3   4
ATOM      4  C   UNL     1     -16.426  46.256  22.656  1.00  0.00     0.041 C 
ATOM      5  O   UNL     1     -16.286  46.711  21.491  1.00  0.00    -0.550 OA
ATOM      6  O   UNL     1     -16.611  47.130  23.719  1.00  0.00    -0.550 OA
ENDBRANCH   3   4
ENDBRANCH   2   3
ENDBRANCH   1   2
BRANCH   1   7
ATOM      7  C   UNL     1     -17.431  41.539  21.404  1.00  0.00     0.000 C 
BRANCH   7   8
ATOM      8  C   UNL     1     -18.237  41.757  20.115  1.00  0.00    -0.000 C 
BRANCH   8   9
ATOM      9  C   UNL     1     -17.662  40.980  18.921  1.00  0.00    -0.003 C 
ATOM     10  C   UNL     1     -17.558  39.478  19.186  1.00  0.00     0.004 C 
ENDBRANCH   8   9
ENDBRANCH   7   8
ENDBRANCH   1   7
TORSDOF 6
ENDMDL
