MODEL 1
REMARK VINA RESULT:    -5.037      0.000      0.000
REMARK INTER + INTRA:         -13.378
REMARK INTER:                 -10.926
REMARK INTRA:                  -2.452
REMARK UNBOUND:                -2.452
REMARK SMILES CCCCCCCCCCCCCCCCCCCCCC(=O)[O-]
REMARK SMILES IDX 12 1 11 2 10 3 9 4 8 5 7 6 6 7 5 8 4 9 3 10 2 11 1 12 13 13
REMARK SMILES IDX 14 14 15 15 16 16 17 17 18 18 19 19 20 20 21 21 22 22 23 23
REMARK SMILES IDX 24 24
REMARK H PARENT
REMARK Flexibility Score: inf
ROOT
ATOM      1  C   UNL     1       0.834  44.343   8.646  1.00  0.00     0.000 C 
ENDROOT
BRANCH   1   2
ATOM      2  C   UNL     1       0.204  44.300   7.241  1.00  0.00     0.000 C 
BRANCH   2   3
ATOM      3  C   UNL     1      -0.630  45.550   6.890  1.00  0.00     0.000 C 
BRANCH   3   4
ATOM      4  C   UNL     1      -1.021  46.368   8.132  1.00  0.00    -0.000 C 
BRANCH   4   5
ATOM      5  C   UNL     1      -0.583  47.841   8.040  1.00  0.00    -0.000 C 
BRANCH   5   6
ATOM      6  C   UNL     1       0.722  48.180   8.786  1.00  0.00    -0.000 C 
BRANCH   6   7
ATOM      7  C   UNL     1       1.982  47.768   8.008  1.00  0.00    -0.000 C 
BRANCH   7   8
ATOM      8  C   UNL     1       3.033  47.159   8.949  1.00  0.00    -0.000 C 
BRANCH   8   9
ATOM      9  C   UNL     1       4.467  47.325   8.422  1.00  0.00    -0.000 C 
BRANCH   9  10
ATOM     10  C   UNL     1       5.526  47.117   9.519  1.00  0.00    -0.000 C 
BRANCH  10  11
ATOM     11  C   UNL     1       6.830  47.879   9.233  1.00  0.00    -0.003 C 
ATOM     12  C   UNL     1       6.629  49.394   9.174  1.00  0.00     0.004 C 
ENDBRANCH  10  11
ENDBRANCH   9  10
ENDBRANCH   8   9
ENDBRANCH   7   8
ENDBRANCH   6   7
ENDBRANCH   5   6
ENDBRANCH   4   5
ENDBRANCH   3   4
ENDBRANCH   2   3
ENDBRANCH   1   2
BRANCH   1  13
ATOM     13  C   UNL     1       1.871  43.238   8.931  1.00  0.00     0.000 C 
BRANCH  13  14
ATOM     14  C   UNL     1       3.343  43.656   8.732  1.00  0.00     0.000 C 
BRANCH  14  15
ATOM     15  C   UNL     1       4.273  43.362   9.926  1.00  0.00     0.000 C 
BRANCH  15  16
ATOM     16  C   UNL     1       4.173  44.366  11.087  1.00  0.00     0.000 C 
BRANCH  16  17
ATOM     17  C   UNL     1       3.543  43.752  12.350  1.00  0.00     0.000 C 
BRANCH  17  18
ATOM     18  C   UNL     1       2.013  43.636  12.253  1.00  0.00     0.000 C 
BRANCH  18  19
ATOM     19  C   UNL     1       1.519  42.192  12.445  1.00  0.00     0.000 C 
BRANCH  19  20
ATOM     20  C   UNL     1       2.614  41.144  12.166  1.00  0.00     0.006 C 
BRANCH  20  21
ATOM     21  C   UNL     1       2.443  39.821  12.929  1.00  0.00     0.053 C 
BRANCH  21  22
ATOM     22  C   UNL     1       3.574  38.873  12.676  1.00  0.00     0.041 C 
ATOM     23  O   UNL     1       3.372  37.803  12.042  1.00  0.00    -0.550 OA
ATOM     24  O   UNL     1       4.857  39.189  13.102  1.00  0.00    -0.550 OA
ENDBRANCH  21  22
ENDBRANCH  20  21
ENDBRANCH  19  20
ENDBRANCH  18  19
ENDBRANCH  17  18
ENDBRANCH  16  17
ENDBRANCH  15  16
ENDBRANCH  14  15
ENDBRANCH  13  14
ENDBRANCH   1  13
TORSDOF 20
ENDMDL
MODEL 2
REMARK VINA RESULT:    -4.699      3.718      7.646
REMARK INTER + INTRA:         -12.645
REMARK INTER:                 -10.475
REMARK INTRA:                  -2.170
REMARK UNBOUND:                -2.452
REMARK SMILES CCCCCCCCCCCCCCCCCCCCCC(=O)[O-]
REMARK SMILES IDX 12 1 11 2 10 3 9 4 8 5 7 6 6 7 5 8 4 9 3 10 2 11 1 12 13 13
REMARK SMILES IDX 14 14 15 15 16 16 17 17 18 18 19 19 20 20 21 21 22 22 23 23
REMARK SMILES IDX 24 24
REMARK H PARENT
REMARK Flexibility Score: inf
ROOT
ATOM      1  C   UNL     1      -0.972  46.119  10.168  1.00  0.00     0.000 C 
ENDROOT
BRANCH   1   2
ATOM      2  C   UNL     1       0.414  45.737  10.722  1.00  0.00     0.000 C 
BRANCH   2   3
ATOM      3  C   UNL     1       0.788  44.255  10.508  1.00  0.00     0.000 C 
BRANCH   3   4
ATOM      4  C   UNL     1       1.451  44.004   9.143  1.00  0.00    -0.000 C 
BRANCH   4   5
ATOM      5  C   UNL     1       2.541  42.917   9.199  1.00  0.00    -0.000 C 
BRANCH   5   6
ATOM      6  C   UNL     1       3.882  43.371   9.805  1.00  0.00    -0.000 C 
BRANCH   6   7
ATOM      7  C   UNL     1       3.970  43.125  11.319  1.00  0.00    -0.000 C 
BRANCH   7   8
ATOM      8  C   UNL     1       3.804  41.632  11.643  1.00  0.00    -0.000 C 
BRANCH   8   9
ATOM      9  C   UNL     1       2.438  41.310  12.270  1.00  0.00    -0.000 C 
BRANCH   9  10
ATOM     10  C   UNL     1       2.423  39.944  12.979  1.00  0.00    -0.000 C 
BRANCH  10  11
ATOM     11  C   UNL     1       3.508  38.993  12.450  1.00  0.00    -0.003 C 
ATOM     12  C   UNL     1       2.946  37.639  12.014  1.00  0.00     0.004 C 
ENDBRANCH  10  11
ENDBRANCH   9  10
ENDBRANCH   8   9
ENDBRANCH   7   8
ENDBRANCH   6   7
ENDBRANCH   5   6
ENDBRANCH   4   5
ENDBRANCH   3   4
ENDBRANCH   2   3
ENDBRANCH   1   2
BRANCH   1  13
ATOM     13  C   UNL     1      -1.008  47.415   9.336  1.00  0.00     0.000 C 
BRANCH  13  14
ATOM     14  C   UNL     1      -0.712  47.235   7.832  1.00  0.00     0.000 C 
BRANCH  14  15
ATOM     15  C   UNL     1       0.777  47.062   7.474  1.00  0.00     0.000 C 
BRANCH  15  16
ATOM     16  C   UNL     1       1.714  48.126   8.071  1.00  0.00     0.000 C 
BRANCH  16  17
ATOM     17  C   UNL     1       3.195  47.706   8.027  1.00  0.00     0.000 C 
BRANCH  17  18
ATOM     18  C   UNL     1       3.546  46.662   9.101  1.00  0.00     0.000 C 
BRANCH  18  19
ATOM     19  C   UNL     1       4.794  47.052   9.914  1.00  0.00     0.000 C 
BRANCH  19  20
ATOM     20  C   UNL     1       6.071  47.112   9.054  1.00  0.00     0.006 C 
BRANCH  20  21
ATOM     21  C   UNL     1       7.121  48.125   9.538  1.00  0.00     0.053 C 
BRANCH  21  22
ATOM     22  C   UNL     1       6.615  49.532   9.483  1.00  0.00     0.041 C 
ATOM     23  O   UNL     1       6.811  50.314  10.452  1.00  0.00    -0.550 OA
ATOM     24  O   UNL     1       5.963  49.995   8.347  1.00  0.00    -0.550 OA
ENDBRANCH  21  22
ENDBRANCH  20  21
ENDBRANCH  19  20
ENDBRANCH  18  19
ENDBRANCH  17  18
ENDBRANCH  16  17
ENDBRANCH  15  16
ENDBRANCH  14  15
ENDBRANCH  13  14
ENDBRANCH   1  13
TORSDOF 20
ENDMDL
MODEL 3
REMARK VINA RESULT:    -4.671      3.278      8.353
REMARK INTER + INTRA:         -12.585
REMARK INTER:                 -10.699
REMARK INTRA:                  -1.886
REMARK UNBOUND:                -2.452
REMARK SMILES CCCCCCCCCCCCCCCCCCCCCC(=O)[O-]
REMARK SMILES IDX 12 1 11 2 10 3 9 4 8 5 7 6 6 7 5 8 4 9 3 10 2 11 1 12 13 13
REMARK SMILES IDX 14 14 15 15 16 16 17 17 18 18 19 19 20 20 21 21 22 22 23 23
REMARK SMILES IDX 24 24
REMARK H PARENT
REMARK Flexibility Score: inf
ROOT
ATOM      1  C   UNL     1       2.395  43.245   8.861  1.00  0.00     0.000 C 
ENDROOT
BRANCH   1   2
ATOM      2  C   UNL     1       3.672  43.890   9.432  1.00  0.00     0.000 C 
BRANCH   2   3
ATOM      3  C   UNL     1       4.137  43.280  10.771  1.00  0.00     0.000 C 
BRANCH   3   4
ATOM      4  C   UNL     1       3.112  43.479  11.900  1.00  0.00    -0.000 C 
BRANCH   4   5
ATOM      5  C   UNL     1       2.372  42.181  12.271  1.00  0.00    -0.000 C 
BRANCH   5   6
ATOM      6  C   UNL     1       3.021  40.888  11.740  1.00  0.00    -0.000 C 
BRANCH   6   7
ATOM      7  C   UNL     1       3.966  40.230  12.758  1.00  0.00    -0.000 C 
BRANCH   7   8
ATOM      8  C   UNL     1       3.944  38.700  12.619  1.00  0.00    -0.000 C 
BRANCH   8   9
ATOM      9  C   UNL     1       2.532  38.147  12.366  1.00  0.00    -0.000 C 
BRANCH   9  10
ATOM     10  C   UNL     1       2.550  36.824  11.581  1.00  0.00    -0.000 C 
BRANCH  10  11
ATOM     11  C   UNL     1       1.225  36.053  11.695  1.00  0.00    -0.003 C 
ATOM     12  C   UNL     1       0.126  36.864  12.384  1.00  0.00     0.004 C 
ENDBRANCH  10  11
ENDBRANCH   9  10
ENDBRANCH   8   9
ENDBRANCH   7   8
ENDBRANCH   6   7
ENDBRANCH   5   6
ENDBRANCH   4   5
ENDBRANCH   3   4
ENDBRANCH   2   3
ENDBRANCH   1   2
BRANCH   1  13
ATOM     13  C   UNL     1       1.118  44.099   8.989  1.00  0.00     0.000 C 
BRANCH  13  14
ATOM     14  C   UNL     1       0.456  44.490   7.652  1.00  0.00     0.000 C 
BRANCH  14  15
ATOM     15  C   UNL     1      -0.220  45.876   7.636  1.00  0.00     0.000 C 
BRANCH  15  16
ATOM     16  C   UNL     1       0.014  46.723   8.899  1.00  0.00     0.000 C 
BRANCH  16  17
ATOM     17  C   UNL     1       0.624  48.101   8.585  1.00  0.00     0.000 C 
BRANCH  17  18
ATOM     18  C   UNL     1       2.023  47.999   7.954  1.00  0.00     0.000 C 
BRANCH  18  19
ATOM     19  C   UNL     1       2.996  47.169   8.809  1.00  0.00     0.000 C 
BRANCH  19  20
ATOM     20  C   UNL     1       4.470  47.390   8.421  1.00  0.00     0.006 C 
BRANCH  20  21
ATOM     21  C   UNL     1       5.470  47.209   9.575  1.00  0.00     0.053 C 
BRANCH  21  22
ATOM     22  C   UNL     1       6.742  47.964   9.343  1.00  0.00     0.041 C 
ATOM     23  O   UNL     1       7.854  47.405   9.541  1.00  0.00    -0.550 OA
ATOM     24  O   UNL     1       6.702  49.269   8.870  1.00  0.00    -0.550 OA
ENDBRANCH  21  22
ENDBRANCH  20  21
ENDBRANCH  19  20
ENDBRANCH  18  19
ENDBRANCH  17  18
ENDBRANCH  16  17
ENDBRANCH  15  16
ENDBRANCH  14  15
ENDBRANCH  13  14
ENDBRANCH   1  13
TORSDOF 20
ENDMDL
MODEL 4
REMARK VINA RESULT:    -4.669      1.088      2.498
REMARK INTER + INTRA:         -12.579
REMARK INTER:                 -10.045
REMARK INTRA:                  -2.535
REMARK UNBOUND:                -2.452
REMARK SMILES CCCCCCCCCCCCCCCCCCCCCC(=O)[O-]
REMARK SMILES IDX 12 1 11 2 10 3 9 4 8 5 7 6 6 7 5 8 4 9 3 10 2 11 1 12 13 13
REMARK SMILES IDX 14 14 15 15 16 16 17 17 18 18 19 19 20 20 21 21 22 22 23 23
REMARK SMILES IDX 24 24
REMARK H PARENT
REMARK Flexibility Score: inf
ROOT
ATOM      1  C   UNL     1      -1.050  46.282   6.701  1.00  0.00     0.000 C 
ENDROOT
BRANCH   1   2
ATOM      2  C   UNL     1      -1.095  47.607   7.485  1.00  0.00     0.000 C 
BRANCH   2   3
ATOM      3  C   UNL     1      -0.501  47.514   8.907  1.00  0.00     0.000 C 
BRANCH   3   4
ATOM      4  C   UNL     1       0.877  48.186   9.016  1.00  0.00    -0.000 C 
BRANCH   4   5
ATOM      5  C   UNL     1       1.845  47.749   7.901  1.00  0.00    -0.000 C 
BRANCH   5   6
ATOM      6  C   UNL     1       3.262  47.377   8.378  1.00  0.00    -0.000 C 
BRANCH   6   7
ATOM      7  C   UNL     1       3.301  46.928   9.847  1.00  0.00    -0.000 C 
BRANCH   7   8
ATOM      8  C   UNL     1       4.740  46.623  10.290  1.00  0.00    -0.000 C 
BRANCH   8   9
ATOM      9  C   UNL     1       5.747  46.700   9.131  1.00  0.00    -0.000 C 
BRANCH   9  10
ATOM     10  C   UNL     1       6.855  47.737   9.383  1.00  0.00    -0.000 C 
BRANCH  10  11
ATOM     11  C   UNL     1       6.398  49.174   9.083  1.00  0.00    -0.003 C 
ATOM     12  C   UNL     1       6.755  50.154  10.202  1.00  0.00     0.004 C 
ENDBRANCH  10  11
ENDBRANCH   9  10
ENDBRANCH   8   9
ENDBRANCH   7   8
ENDBRANCH   6   7
ENDBRANCH   5   6
ENDBRANCH   4   5
ENDBRANCH   3   4
ENDBRANCH   2   3
ENDBRANCH   1   2
BRANCH   1  13
ATOM     13  C   UNL     1      -0.750  45.031   7.550  1.00  0.00     0.000 C 
BRANCH  13  14
ATOM     14  C   UNL     1       0.596  44.341   7.244  1.00  0.00     0.000 C 
BRANCH  14  15
ATOM     15  C   UNL     1       1.282  43.679   8.456  1.00  0.00     0.000 C 
BRANCH  15  16
ATOM     16  C   UNL     1       1.075  44.409   9.794  1.00  0.00     0.000 C 
BRANCH  16  17
ATOM     17  C   UNL     1       1.738  43.680  10.977  1.00  0.00     0.000 C 
BRANCH  17  18
ATOM     18  C   UNL     1       2.755  42.618  10.525  1.00  0.00     0.000 C 
BRANCH  18  19
ATOM     19  C   UNL     1       4.087  42.715  11.288  1.00  0.00     0.000 C 
BRANCH  19  20
ATOM     20  C   UNL     1       4.389  41.457  12.124  1.00  0.00     0.006 C 
BRANCH  20  21
ATOM     21  C   UNL     1       3.267  40.405  12.126  1.00  0.00     0.053 C 
BRANCH  21  22
ATOM     22  C   UNL     1       3.768  39.047  12.509  1.00  0.00     0.041 C 
ATOM     23  O   UNL     1       4.830  38.930  13.178  1.00  0.00    -0.550 OA
ATOM     24  O   UNL     1       3.042  37.914  12.165  1.00  0.00    -0.550 OA
ENDBRANCH  21  22
ENDBRANCH  20  21
ENDBRANCH  19  20
ENDBRANCH  18  19
ENDBRANCH  17  18
ENDBRANCH  16  17
ENDBRANCH  15  16
ENDBRANCH  14  15
ENDBRANCH  13  14
ENDBRANCH   1  13
TORSDOF 20
ENDMDL
MODEL 5
REMARK VINA RESULT:    -4.647      3.285      7.928
REMARK INTER + INTRA:         -12.533
REMARK INTER:                 -10.439
REMARK INTRA:                  -2.094
REMARK UNBOUND:                -2.452
REMARK SMILES CCCCCCCCCCCCCCCCCCCCCC(=O)[O-]
REMARK SMILES IDX 12 1 11 2 10 3 9 4 8 5 7 6 6 7 5 8 4 9 3 10 2 11 1 12 13 13
REMARK SMILES IDX 14 14 15 15 16 16 17 17 18 18 19 19 20 20 21 21 22 22 23 23
REMARK SMILES IDX 24 24
REMARK H PARENT
REMARK Flexibility Score: inf
ROOT
ATOM      1  C   UNL     1       0.764  44.482   9.457  1.00  0.00     0.000 C 
ENDROOT
BRANCH   1   2
ATOM      2  C   UNL     1       2.235  44.124   9.736  1.00  0.00     0.000 C 
BRANCH   2   3
ATOM      3  C   UNL     1       2.804  44.767  11.019  1.00  0.00     0.000 C 
BRANCH   3   4
ATOM      4  C   UNL     1       4.269  44.380  11.275  1.00  0.00    -0.000 C 
BRANCH   4   5
ATOM      5  C   UNL     1       4.417  43.262  12.325  1.00  0.00    -0.000 C 
BRANCH   5   6
ATOM      6  C   UNL     1       4.336  41.829  11.765  1.00  0.00    -0.000 C 
BRANCH   6   7
ATOM      7  C   UNL     1       2.919  41.238  11.833  1.00  0.00    -0.000 C 
BRANCH   7   8
ATOM      8  C   UNL     1       2.906  39.934  12.645  1.00  0.00    -0.000 C 
BRANCH   8   9
ATOM      9  C   UNL     1       1.584  39.717  13.398  1.00  0.00    -0.000 C 
BRANCH   9  10
ATOM     10  C   UNL     1       0.780  41.019  13.563  1.00  0.00    -0.000 C 
BRANCH  10  11
ATOM     11  C   UNL     1      -0.376  40.875  14.566  1.00  0.00    -0.003 C 
ATOM     12  C   UNL     1      -0.009  41.371  15.965  1.00  0.00     0.004 C 
ENDBRANCH  10  11
ENDBRANCH   9  10
ENDBRANCH   8   9
ENDBRANCH   7   8
ENDBRANCH   6   7
ENDBRANCH   5   6
ENDBRANCH   4   5
ENDBRANCH   3   4
ENDBRANCH   2   3
ENDBRANCH   1   2
BRANCH   1  13
ATOM     13  C   UNL     1       0.109  45.411  10.499  1.00  0.00     0.000 C 
BRANCH  13  14
ATOM     14  C   UNL     1      -0.962  46.370   9.938  1.00  0.00     0.000 C 
BRANCH  14  15
ATOM     15  C   UNL     1      -0.948  46.543   8.406  1.00  0.00     0.000 C 
BRANCH  15  16
ATOM     16  C   UNL     1      -0.734  47.988   7.922  1.00  0.00     0.000 C 
BRANCH  16  17
ATOM     17  C   UNL     1       0.636  48.556   8.335  1.00  0.00     0.000 C 
BRANCH  17  18
ATOM     18  C   UNL     1       1.809  47.699   7.831  1.00  0.00     0.000 C 
BRANCH  18  19
ATOM     19  C   UNL     1       2.841  47.406   8.935  1.00  0.00     0.000 C 
BRANCH  19  20
ATOM     20  C   UNL     1       4.289  47.392   8.410  1.00  0.00     0.006 C 
BRANCH  20  21
ATOM     21  C   UNL     1       5.362  47.204   9.495  1.00  0.00     0.053 C 
BRANCH  21  22
ATOM     22  C   UNL     1       6.608  47.978   9.197  1.00  0.00     0.041 C 
ATOM     23  O   UNL     1       6.535  49.194   8.875  1.00  0.00    -0.550 OA
ATOM     24  O   UNL     1       7.851  47.370   9.314  1.00  0.00    -0.550 OA
ENDBRANCH  21  22
ENDBRANCH  20  21
ENDBRANCH  19  20
ENDBRANCH  18  19
ENDBRANCH  17  18
ENDBRANCH  16  17
ENDBRANCH  15  16
ENDBRANCH  14  15
ENDBRANCH  13  14
ENDBRANCH   1  13
TORSDOF 20
ENDMDL
MODEL 6
REMARK VINA RESULT:    -4.580      2.222      3.406
REMARK INTER + INTRA:         -12.387
REMARK INTER:                 -10.766
REMARK INTRA:                  -1.621
REMARK UNBOUND:                -2.452
REMARK SMILES CCCCCCCCCCCCCCCCCCCCCC(=O)[O-]
REMARK SMILES IDX 12 1 11 2 10 3 9 4 8 5 7 6 6 7 5 8 4 9 3 10 2 11 1 12 13 13
REMARK SMILES IDX 14 14 15 15 16 16 17 17 18 18 19 19 20 20 21 21 22 22 23 23
REMARK SMILES IDX 24 24
REMARK H PARENT
REMARK Flexibility Score: inf
ROOT
ATOM      1  C   UNL     1       3.679  43.453   9.402  1.00  0.00     0.000 C 
ENDROOT
BRANCH   1   2
ATOM      2  C   UNL     1       2.195  43.041   9.398  1.00  0.00     0.000 C 
BRANCH   2   3
ATOM      3  C   UNL     1       1.230  44.177   8.999  1.00  0.00     0.000 C 
BRANCH   3   4
ATOM      4  C   UNL     1       0.986  45.174  10.143  1.00  0.00    -0.000 C 
BRANCH   4   5
ATOM      5  C   UNL     1      -0.260  46.051   9.915  1.00  0.00    -0.000 C 
BRANCH   5   6
ATOM      6  C   UNL     1      -0.006  47.351   9.128  1.00  0.00    -0.000 C 
BRANCH   6   7
ATOM      7  C   UNL     1       1.443  47.850   9.246  1.00  0.00    -0.000 C 
BRANCH   7   8
ATOM      8  C   UNL     1       2.215  47.613   7.939  1.00  0.00    -0.000 C 
BRANCH   8   9
ATOM      9  C   UNL     1       3.731  47.805   8.102  1.00  0.00    -0.000 C 
BRANCH   9  10
ATOM     10  C   UNL     1       4.345  46.816   9.108  1.00  0.00    -0.000 C 
BRANCH  10  11
ATOM     11  C   UNL     1       5.770  47.211   9.528  1.00  0.00    -0.003 C 
ATOM     12  C   UNL     1       6.186  48.582   8.993  1.00  0.00     0.004 C 
ENDBRANCH  10  11
ENDBRANCH   9  10
ENDBRANCH   8   9
ENDBRANCH   7   8
ENDBRANCH   6   7
ENDBRANCH   5   6
ENDBRANCH   4   5
ENDBRANCH   3   4
ENDBRANCH   2   3
ENDBRANCH   1   2
BRANCH   1  13
ATOM     13  C   UNL     1       4.308  43.615  10.800  1.00  0.00     0.000 C 
BRANCH  13  14
ATOM     14  C   UNL     1       3.714  42.702  11.894  1.00  0.00     0.000 C 
BRANCH  14  15
ATOM     15  C   UNL     1       4.003  41.197  11.718  1.00  0.00     0.000 C 
BRANCH  15  16
ATOM     16  C   UNL     1       4.939  40.591  12.777  1.00  0.00     0.000 C 
BRANCH  16  17
ATOM     17  C   UNL     1       4.451  39.223  13.288  1.00  0.00     0.000 C 
BRANCH  17  18
ATOM     18  C   UNL     1       3.460  38.550  12.323  1.00  0.00     0.000 C 
BRANCH  18  19
ATOM     19  C   UNL     1       2.039  38.460  12.908  1.00  0.00     0.000 C 
BRANCH  19  20
ATOM     20  C   UNL     1       1.460  39.837  13.283  1.00  0.00     0.006 C 
BRANCH  20  21
ATOM     21  C   UNL     1       0.108  39.785  14.014  1.00  0.00     0.053 C 
BRANCH  21  22
ATOM     22  C   UNL     1      -0.384  41.149  14.387  1.00  0.00     0.041 C 
ATOM     23  O   UNL     1      -0.790  41.941  13.495  1.00  0.00    -0.550 OA
ATOM     24  O   UNL     1      -0.433  41.531  15.722  1.00  0.00    -0.550 OA
ENDBRANCH  21  22
ENDBRANCH  20  21
ENDBRANCH  19  20
ENDBRANCH  18  19
ENDBRANCH  17  18
ENDBRANCH  16  17
ENDBRANCH  15  16
ENDBRANCH  14  15
ENDBRANCH  13  14
ENDBRANCH   1  13
TORSDOF 20
ENDMDL
MODEL 7
REMARK VINA RESULT:    -4.564      1.163      2.403
REMARK INTER + INTRA:         -12.353
REMARK INTER:                 -10.407
REMARK INTRA:                  -1.946
REMARK UNBOUND:                -2.452
REMARK SMILES CCCCCCCCCCCCCCCCCCCCCC(=O)[O-]
REMARK SMILES IDX 12 1 11 2 10 3 9 4 8 5 7 6 6 7 5 8 4 9 3 10 2 11 1 12 13 13
REMARK SMILES IDX 14 14 15 15 16 16 17 17 18 18 19 19 20 20 21 21 22 22 23 23
REMARK SMILES IDX 24 24
REMARK H PARENT
REMARK Flexibility Score: inf
ROOT
ATOM      1  C   UNL     1       3.782  43.877   9.330  1.00  0.00     0.000 C 
ENDROOT
BRANCH   1   2
ATOM      2  C   UNL     1       2.582  43.097   8.760  1.00  0.00     0.000 C 
BRANCH   2   3
ATOM      3  C   UNL     1       1.218  43.772   9.016  1.00  0.00     0.000 C 
BRANCH   3   4
ATOM      4  C   UNL     1       0.632  44.419   7.751  1.00  0.00    -0.000 C 
BRANCH   4   5
ATOM      5  C   UNL     1       0.401  45.934   7.906  1.00  0.00    -0.000 C 
BRANCH   5   6
ATOM      6  C   UNL     1       0.651  46.488   9.322  1.00  0.00    -0.000 C 
BRANCH   6   7
ATOM      7  C   UNL     1       1.878  47.412   9.396  1.00  0.00    -0.000 C 
BRANCH   7   8
ATOM      8  C   UNL     1       2.415  47.725   7.992  1.00  0.00    -0.000 C 
BRANCH   8   9
ATOM      9  C   UNL     1       3.951  47.724   7.931  1.00  0.00    -0.000 C 
BRANCH   9  10
ATOM     10  C   UNL     1       4.589  47.055   9.161  1.00  0.00    -0.000 C 
BRANCH  10  11
ATOM     11  C   UNL     1       6.090  47.363   9.288  1.00  0.00    -0.003 C 
ATOM     12  C   UNL     1       6.402  48.852   9.136  1.00  0.00     0.004 C 
ENDBRANCH  10  11
ENDBRANCH   9  10
ENDBRANCH   8   9
ENDBRANCH   7   8
ENDBRANCH   6   7
ENDBRANCH   5   6
ENDBRANCH   4   5
ENDBRANCH   3   4
ENDBRANCH   2   3
ENDBRANCH   1   2
BRANCH   1  13
ATOM     13  C   UNL     1       4.351  43.324  10.651  1.00  0.00     0.000 C 
BRANCH  13  14
ATOM     14  C   UNL     1       3.890  44.066  11.923  1.00  0.00     0.000 C 
BRANCH  14  15
ATOM     15  C   UNL     1       2.406  43.873  12.292  1.00  0.00     0.000 C 
BRANCH  15  16
ATOM     16  C   UNL     1       1.892  42.428  12.168  1.00  0.00     0.000 C 
BRANCH  16  17
ATOM     17  C   UNL     1       0.569  42.201  12.922  1.00  0.00     0.000 C 
BRANCH  17  18
ATOM     18  C   UNL     1       0.526  40.848  13.651  1.00  0.00     0.000 C 
BRANCH  18  19
ATOM     19  C   UNL     1       1.894  40.143  13.663  1.00  0.00     0.000 C 
BRANCH  19  20
ATOM     20  C   UNL     1       1.917  38.870  12.796  1.00  0.00     0.006 C 
BRANCH  20  21
ATOM     21  C   UNL     1       3.325  38.368  12.434  1.00  0.00     0.053 C 
BRANCH  21  22
ATOM     22  C   UNL     1       4.390  39.342  12.829  1.00  0.00     0.041 C 
ATOM     23  O   UNL     1       4.547  40.407  12.174  1.00  0.00    -0.550 OA
ATOM     24  O   UNL     1       5.182  39.096  13.943  1.00  0.00    -0.550 OA
ENDBRANCH  21  22
ENDBRANCH  20  21
ENDBRANCH  19  20
ENDBRANCH  18  19
ENDBRANCH  17  18
ENDBRANCH  16  17
ENDBRANCH  15  16
ENDBRANCH  14  15
ENDBRANCH  13  14
ENDBRANCH   1  13
TORSDOF 20
ENDMDL
MODEL 8
REMARK VINA RESULT:    -4.539      3.036      7.191
REMARK INTER + INTRA:         -12.298
REMARK INTER:                  -9.357
REMARK INTRA:                  -2.941
REMARK UNBOUND:                -2.452
REMARK SMILES CCCCCCCCCCCCCCCCCCCCCC(=O)[O-]
REMARK SMILES IDX 12 1 11 2 10 3 9 4 8 5 7 6 6 7 5 8 4 9 3 10 2 11 1 12 13 13
REMARK SMILES IDX 14 14 15 15 16 16 17 17 18 18 19 19 20 20 21 21 22 22 23 23
REMARK SMILES IDX 24 24
REMARK H PARENT
REMARK Flexibility Score: inf
ROOT
ATOM      1  C   UNL     1       0.371  44.178   7.369  1.00  0.00     0.000 C 
ENDROOT
BRANCH   1   2
ATOM      2  C   UNL     1       1.082  44.255   8.734  1.00  0.00     0.000 C 
BRANCH   2   3
ATOM      3  C   UNL     1       2.182  43.189   8.927  1.00  0.00     0.000 C 
BRANCH   3   4
ATOM      4  C   UNL     1       3.598  43.766   8.769  1.00  0.00    -0.000 C 
BRANCH   4   5
ATOM      5  C   UNL     1       4.456  43.601  10.038  1.00  0.00    -0.000 C 
BRANCH   5   6
ATOM      6  C   UNL     1       4.021  44.469  11.234  1.00  0.00    -0.000 C 
BRANCH   6   7
ATOM      7  C   UNL     1       3.582  43.638  12.450  1.00  0.00    -0.000 C 
BRANCH   7   8
ATOM      8  C   UNL     1       2.060  43.425  12.450  1.00  0.00    -0.000 C 
BRANCH   8   9
ATOM      9  C   UNL     1       1.665  41.968  12.163  1.00  0.00    -0.000 C 
BRANCH   9  10
ATOM     10  C   UNL     1       2.885  41.064  11.918  1.00  0.00    -0.000 C 
BRANCH  10  11
ATOM     11  C   UNL     1       2.985  39.918  12.937  1.00  0.00    -0.003 C 
ATOM     12  C   UNL     1       3.814  38.740  12.423  1.00  0.00     0.004 C 
ENDBRANCH  10  11
ENDBRANCH   9  10
ENDBRANCH   8   9
ENDBRANCH   7   8
ENDBRANCH   6   7
ENDBRANCH   5   6
ENDBRANCH   4   5
ENDBRANCH   3   4
ENDBRANCH   2   3
ENDBRANCH   1   2
BRANCH   1  13
ATOM     13  C   UNL     1      -0.318  45.482   6.919  1.00  0.00     0.000 C 
BRANCH  13  14
ATOM     14  C   UNL     1      -1.072  46.241   8.031  1.00  0.00     0.000 C 
BRANCH  14  15
ATOM     15  C   UNL     1      -1.042  47.778   7.910  1.00  0.00     0.000 C 
BRANCH  15  16
ATOM     16  C   UNL     1       0.273  48.436   8.362  1.00  0.00     0.000 C 
BRANCH  16  17
ATOM     17  C   UNL     1       0.857  47.787   9.630  1.00  0.00     0.000 C 
BRANCH  17  18
ATOM     18  C   UNL     1       2.271  47.223   9.410  1.00  0.00     0.000 C 
BRANCH  18  19
ATOM     19  C   UNL     1       2.915  47.740   8.112  1.00  0.00     0.000 C 
BRANCH  19  20
ATOM     20  C   UNL     1       4.403  47.359   7.992  1.00  0.00     0.006 C 
BRANCH  20  21
ATOM     21  C   UNL     1       5.170  47.341   9.325  1.00  0.00     0.053 C 
BRANCH  21  22
ATOM     22  C   UNL     1       6.447  48.119   9.252  1.00  0.00     0.041 C 
ATOM     23  O   UNL     1       7.533  47.586   9.606  1.00  0.00    -0.550 OA
ATOM     24  O   UNL     1       6.446  49.416   8.755  1.00  0.00    -0.550 OA
ENDBRANCH  21  22
ENDBRANCH  20  21
ENDBRANCH  19  20
ENDBRANCH  18  19
ENDBRANCH  17  18
ENDBRANCH  16  17
ENDBRANCH  15  16
ENDBRANCH  14  15
ENDBRANCH  13  14
ENDBRANCH   1  13
TORSDOF 20
ENDMDL
MODEL 9
REMARK VINA RESULT:    -4.513      3.081      7.683
REMARK INTER + INTRA:         -12.243
REMARK INTER:                  -9.718
REMARK INTRA:                  -2.525
REMARK UNBOUND:                -2.452
REMARK SMILES CCCCCCCCCCCCCCCCCCCCCC(=O)[O-]
REMARK SMILES IDX 12 1 11 2 10 3 9 4 8 5 7 6 6 7 5 8 4 9 3 10 2 11 1 12 13 13
REMARK SMILES IDX 14 14 15 15 16 16 17 17 18 18 19 19 20 20 21 21 22 22 23 23
REMARK SMILES IDX 24 24
REMARK H PARENT
REMARK Flexibility Score: inf
ROOT
ATOM      1  C   UNL     1       0.093  44.819   7.429  1.00  0.00     0.000 C 
ENDROOT
BRANCH   1   2
ATOM      2  C   UNL     1       0.787  44.227   8.670  1.00  0.00     0.000 C 
BRANCH   2   3
ATOM      3  C   UNL     1       2.045  43.394   8.347  1.00  0.00     0.000 C 
BRANCH   3   4
ATOM      4  C   UNL     1       2.960  43.207   9.568  1.00  0.00    -0.000 C 
BRANCH   4   5
ATOM      5  C   UNL     1       2.235  43.468  10.902  1.00  0.00    -0.000 C 
BRANCH   5   6
ATOM      6  C   UNL     1       2.635  42.526  12.054  1.00  0.00    -0.000 C 
BRANCH   6   7
ATOM      7  C   UNL     1       3.129  41.156  11.564  1.00  0.00    -0.000 C 
BRANCH   7   8
ATOM      8  C   UNL     1       4.317  40.667  12.407  1.00  0.00    -0.000 C 
BRANCH   8   9
ATOM      9  C   UNL     1       4.208  39.180  12.780  1.00  0.00    -0.000 C 
BRANCH   9  10
ATOM     10  C   UNL     1       2.817  38.598  12.476  1.00  0.00    -0.000 C 
BRANCH  10  11
ATOM     11  C   UNL     1       2.889  37.265  11.712  1.00  0.00    -0.003 C 
ATOM     12  C   UNL     1       1.591  36.461  11.802  1.00  0.00     0.004 C 
ENDBRANCH  10  11
ENDBRANCH   9  10
ENDBRANCH   8   9
ENDBRANCH   7   8
ENDBRANCH   6   7
ENDBRANCH   5   6
ENDBRANCH   4   5
ENDBRANCH   3   4
ENDBRANCH   2   3
ENDBRANCH   1   2
BRANCH   1  13
ATOM     13  C   UNL     1      -1.101  45.747   7.729  1.00  0.00     0.000 C 
BRANCH  13  14
ATOM     14  C   UNL     1      -1.035  47.135   7.059  1.00  0.00     0.000 C 
BRANCH  14  15
ATOM     15  C   UNL     1      -0.751  48.311   8.015  1.00  0.00     0.000 C 
BRANCH  15  16
ATOM     16  C   UNL     1       0.549  48.183   8.828  1.00  0.00     0.000 C 
BRANCH  16  17
ATOM     17  C   UNL     1       1.810  48.334   7.958  1.00  0.00     0.000 C 
BRANCH  17  18
ATOM     18  C   UNL     1       2.885  47.284   8.286  1.00  0.00     0.000 C 
BRANCH  18  19
ATOM     19  C   UNL     1       2.907  46.910   9.778  1.00  0.00     0.000 C 
BRANCH  19  20
ATOM     20  C   UNL     1       4.334  46.705  10.321  1.00  0.00     0.006 C 
BRANCH  20  21
ATOM     21  C   UNL     1       5.422  46.601   9.240  1.00  0.00     0.053 C 
BRANCH  21  22
ATOM     22  C   UNL     1       6.476  47.652   9.396  1.00  0.00     0.041 C 
ATOM     23  O   UNL     1       6.154  48.871   9.421  1.00  0.00    -0.550 OA
ATOM     24  O   UNL     1       7.806  47.288   9.556  1.00  0.00    -0.550 OA
ENDBRANCH  21  22
ENDBRANCH  20  21
ENDBRANCH  19  20
ENDBRANCH  18  19
ENDBRANCH  17  18
ENDBRANCH  16  17
ENDBRANCH  15  16
ENDBRANCH  14  15
ENDBRANCH  13  14
ENDBRANCH   1  13
TORSDOF 20
ENDMDL
