MODEL 1
REMARK VINA RESULT:    -3.837      0.000      0.000
REMARK INTER + INTRA:          -4.959
REMARK INTER:                  -4.734
REMARK INTRA:                  -0.226
REMARK UNBOUND:                -0.226
REMARK SMILES [NH3+][C@H](Cc1ccc(O)cc1)C(=O)[O-]
REMARK SMILES IDX 3 1 2 2 1 3 11 7 12 8 13 9 4 10 5 11 10 12 6 13 9 14 7 15
REMARK SMILES IDX 8 16
REMARK H PARENT 1 4 1 5 1 6 8 17
REMARK Flexibility Score: inf
ROOT
ATOM      1  C   UNL     1      31.574  11.140 -14.726  1.00  0.00     0.107 C 
ENDROOT
BRANCH   1   2
ATOM      2  C   UNL     1      32.863  11.970 -14.556  1.00  0.00     0.232 C 
BRANCH   2   3
ATOM      3  N   UNL     1      33.255  12.075 -13.144  1.00  0.00    -0.350 N 
ATOM      4  H   UNL     1      33.368  13.081 -12.880  1.00  0.00     0.345 HD
ATOM      5  H   UNL     1      32.510  11.668 -12.534  1.00  0.00     0.345 HD
ATOM      6  H   UNL     1      34.156  11.573 -12.970  1.00  0.00     0.345 HD
ENDBRANCH   2   3
BRANCH   2   7
ATOM      7  C   UNL     1      33.976  11.355 -15.362  1.00  0.00     0.099 C 
ATOM      8  O   UNL     1      35.170  11.712 -15.179  1.00  0.00    -0.544 OA
ATOM      9  O   UNL     1      33.692  10.371 -16.300  1.00  0.00    -0.544 OA
ENDBRANCH   2   7
ENDBRANCH   1   2
BRANCH   1  10
ATOM     10  C   UNL     1      30.509  11.902 -15.473  1.00  0.00    -0.041 A 
ATOM     11  C   UNL     1      29.524  12.620 -14.774  1.00  0.00     0.008 A 
ATOM     12  C   UNL     1      30.514  11.930 -16.878  1.00  0.00     0.008 A 
ATOM     13  C   UNL     1      28.552  13.344 -15.471  1.00  0.00     0.046 A 
ATOM     14  C   UNL     1      29.541  12.654 -17.572  1.00  0.00     0.046 A 
ATOM     15  C   UNL     1      28.558  13.363 -16.873  1.00  0.00     0.115 A 
BRANCH  15  16
ATOM     16  O   UNL     1      27.595  14.081 -17.578  1.00  0.00    -0.508 OA
ATOM     17  H   UNL     1      27.850  14.845 -18.194  1.00  0.00     0.293 HD
ENDBRANCH  15  16
ENDBRANCH   1  10
TORSDOF 5
ENDMDL
MODEL 2
REMARK VINA RESULT:    -3.724      2.392      5.262
REMARK INTER + INTRA:          -4.821
REMARK INTER:                  -4.547
REMARK INTRA:                  -0.275
REMARK UNBOUND:                -0.226
REMARK SMILES [NH3+][C@H](Cc1ccc(O)cc1)C(=O)[O-]
REMARK SMILES IDX 3 1 2 2 1 3 11 7 12 8 13 9 4 10 5 11 10 12 6 13 9 14 7 15
REMARK SMILES IDX 8 16
REMARK H PARENT 1 4 1 5 1 6 8 17
REMARK Flexibility Score: inf
ROOT
ATOM      1  C   UNL     1      29.681  10.792 -15.941  1.00  0.00     0.107 C 
ENDROOT
BRANCH   1   2
ATOM      2  C   UNL     1      29.348  11.269 -17.370  1.00  0.00     0.232 C 
BRANCH   2   3
ATOM      3  N   UNL     1      28.033  10.781 -17.809  1.00  0.00    -0.350 N 
ATOM      4  H   UNL     1      28.031   9.735 -17.829  1.00  0.00     0.345 HD
ATOM      5  H   UNL     1      27.294  11.088 -17.137  1.00  0.00     0.345 HD
ATOM      6  H   UNL     1      27.803  11.141 -18.763  1.00  0.00     0.345 HD
ENDBRANCH   2   3
BRANCH   2   7
ATOM      7  C   UNL     1      29.392  12.773 -17.428  1.00  0.00     0.099 C 
ATOM      8  O   UNL     1      30.253  13.360 -18.136  1.00  0.00    -0.544 OA
ATOM      9  O   UNL     1      28.465  13.522 -16.716  1.00  0.00    -0.544 OA
ENDBRANCH   2   7
ENDBRANCH   1   2
BRANCH   1  10
ATOM     10  C   UNL     1      31.133  11.015 -15.598  1.00  0.00    -0.041 A 
ATOM     11  C   UNL     1      32.147  10.470 -16.404  1.00  0.00     0.008 A 
ATOM     12  C   UNL     1      31.484  11.800 -14.487  1.00  0.00     0.008 A 
ATOM     13  C   UNL     1      33.491  10.698 -16.096  1.00  0.00     0.046 A 
ATOM     14  C   UNL     1      32.829  12.026 -14.181  1.00  0.00     0.046 A 
ATOM     15  C   UNL     1      33.836  11.477 -14.982  1.00  0.00     0.115 A 
BRANCH  15  16
ATOM     16  O   UNL     1      35.171  11.712 -14.665  1.00  0.00    -0.508 OA
ATOM     17  H   UNL     1      35.577  11.375 -13.799  1.00  0.00     0.293 HD
ENDBRANCH  15  16
ENDBRANCH   1  10
TORSDOF 5
ENDMDL
MODEL 3
REMARK VINA RESULT:    -3.645     15.652     17.067
REMARK INTER + INTRA:          -4.723
REMARK INTER:                  -4.573
REMARK INTRA:                  -0.150
REMARK UNBOUND:                -0.226
REMARK SMILES [NH3+][C@H](Cc1ccc(O)cc1)C(=O)[O-]
REMARK SMILES IDX 3 1 2 2 1 3 11 7 12 8 13 9 4 10 5 11 10 12 6 13 9 14 7 15
REMARK SMILES IDX 8 16
REMARK H PARENT 1 4 1 5 1 6 8 17
REMARK Flexibility Score: inf
ROOT
ATOM      1  C   UNL     1      31.588  25.638 -22.594  1.00  0.00     0.107 C 
ENDROOT
BRANCH   1   2
ATOM      2  C   UNL     1      30.390  26.580 -22.355  1.00  0.00     0.232 C 
BRANCH   2   3
ATOM      3  N   UNL     1      29.144  26.013 -22.887  1.00  0.00    -0.350 N 
ATOM      4  H   UNL     1      28.396  26.048 -22.156  1.00  0.00     0.345 HD
ATOM      5  H   UNL     1      28.815  26.573 -23.706  1.00  0.00     0.345 HD
ATOM      6  H   UNL     1      29.285  25.019 -23.183  1.00  0.00     0.345 HD
ENDBRANCH   2   3
BRANCH   2   7
ATOM      7  C   UNL     1      30.249  26.862 -20.883  1.00  0.00     0.099 C 
ATOM      8  O   UNL     1      29.805  25.979 -20.103  1.00  0.00    -0.544 OA
ATOM      9  O   UNL     1      30.630  28.097 -20.374  1.00  0.00    -0.544 OA
ENDBRANCH   2   7
ENDBRANCH   1   2
BRANCH   1  10
ATOM     10  C   UNL     1      32.761  26.363 -23.205  1.00  0.00    -0.041 A 
ATOM     11  C   UNL     1      32.902  27.751 -23.044  1.00  0.00     0.008 A 
ATOM     12  C   UNL     1      33.742  25.648 -23.913  1.00  0.00     0.008 A 
ATOM     13  C   UNL     1      34.003  28.416 -23.593  1.00  0.00     0.046 A 
ATOM     14  C   UNL     1      34.842  26.316 -24.461  1.00  0.00     0.046 A 
ATOM     15  C   UNL     1      34.976  27.699 -24.304  1.00  0.00     0.115 A 
BRANCH  15  16
ATOM     16  O   UNL     1      36.077  28.350 -24.854  1.00  0.00    -0.508 OA
ATOM     17  H   UNL     1      36.897  27.838 -25.159  1.00  0.00     0.293 HD
ENDBRANCH  15  16
ENDBRANCH   1  10
TORSDOF 5
ENDMDL
MODEL 4
REMARK VINA RESULT:    -3.572     12.751     13.890
REMARK INTER + INTRA:          -4.633
REMARK INTER:                  -4.544
REMARK INTRA:                  -0.088
REMARK UNBOUND:                -0.226
REMARK SMILES [NH3+][C@H](Cc1ccc(O)cc1)C(=O)[O-]
REMARK SMILES IDX 3 1 2 2 1 3 11 7 12 8 13 9 4 10 5 11 10 12 6 13 9 14 7 15
REMARK SMILES IDX 8 16
REMARK H PARENT 1 4 1 5 1 6 8 17
REMARK Flexibility Score: inf
ROOT
ATOM      1  C   UNL     1      35.587  21.607  -8.995  1.00  0.00     0.107 C 
ENDROOT
BRANCH   1   2
ATOM      2  C   UNL     1      34.104  21.476  -9.400  1.00  0.00     0.232 C 
BRANCH   2   3
ATOM      3  N   UNL     1      33.961  21.170 -10.830  1.00  0.00    -0.350 N 
ATOM      4  H   UNL     1      34.493  21.868 -11.398  1.00  0.00     0.345 HD
ATOM      5  H   UNL     1      34.356  20.224 -11.036  1.00  0.00     0.345 HD
ATOM      6  H   UNL     1      32.955  21.192 -11.116  1.00  0.00     0.345 HD
ENDBRANCH   2   3
BRANCH   2   7
ATOM      7  C   UNL     1      33.441  20.410  -8.570  1.00  0.00     0.099 C 
ATOM      8  O   UNL     1      33.011  19.355  -9.108  1.00  0.00    -0.544 OA
ATOM      9  O   UNL     1      33.318  20.576  -7.196  1.00  0.00    -0.544 OA
ENDBRANCH   2   7
ENDBRANCH   1   2
BRANCH   1  10
ATOM     10  C   UNL     1      36.116  22.997  -9.241  1.00  0.00    -0.041 A 
ATOM     11  C   UNL     1      37.496  23.254  -9.186  1.00  0.00     0.008 A 
ATOM     12  C   UNL     1      35.233  24.042  -9.561  1.00  0.00     0.008 A 
ATOM     13  C   UNL     1      37.984  24.540  -9.437  1.00  0.00     0.046 A 
ATOM     14  C   UNL     1      35.724  25.327  -9.812  1.00  0.00     0.046 A 
ATOM     15  C   UNL     1      37.098  25.581  -9.751  1.00  0.00     0.115 A 
BRANCH  15  16
ATOM     16  O   UNL     1      37.572  26.865 -10.004  1.00  0.00    -0.508 OA
ATOM     17  H   UNL     1      38.476  27.021 -10.436  1.00  0.00     0.293 HD
ENDBRANCH  15  16
ENDBRANCH   1  10
TORSDOF 5
ENDMDL
MODEL 5
REMARK VINA RESULT:    -3.528     10.961     11.535
REMARK INTER + INTRA:          -4.578
REMARK INTER:                  -4.358
REMARK INTRA:                  -0.220
REMARK UNBOUND:                -0.226
REMARK SMILES [NH3+][C@H](Cc1ccc(O)cc1)C(=O)[O-]
REMARK SMILES IDX 3 1 2 2 1 3 11 7 12 8 13 9 4 10 5 11 10 12 6 13 9 14 7 15
REMARK SMILES IDX 8 16
REMARK H PARENT 1 4 1 5 1 6 8 17
REMARK Flexibility Score: inf
ROOT
ATOM      1  C   UNL     1      37.556  16.483 -22.673  1.00  0.00     0.107 C 
ENDROOT
BRANCH   1   2
ATOM      2  C   UNL     1      39.037  16.478 -23.106  1.00  0.00     0.232 C 
BRANCH   2   3
ATOM      3  N   UNL     1      39.931  16.216 -21.970  1.00  0.00    -0.350 N 
ATOM      4  H   UNL     1      39.373  16.144 -21.088  1.00  0.00     0.345 HD
ATOM      5  H   UNL     1      40.429  15.307 -22.107  1.00  0.00     0.345 HD
ATOM      6  H   UNL     1      40.635  16.983 -21.867  1.00  0.00     0.345 HD
ENDBRANCH   2   3
BRANCH   2   7
ATOM      7  C   UNL     1      39.249  15.450 -24.185  1.00  0.00     0.099 C 
ATOM      8  O   UNL     1      40.232  14.663 -24.133  1.00  0.00    -0.544 OA
ATOM      9  O   UNL     1      38.346  15.349 -25.235  1.00  0.00    -0.544 OA
ENDBRANCH   2   7
ENDBRANCH   1   2
BRANCH   1  10
ATOM     10  C   UNL     1      36.914  17.831 -22.882  1.00  0.00    -0.041 A 
ATOM     11  C   UNL     1      35.516  17.968 -22.843  1.00  0.00     0.008 A 
ATOM     12  C   UNL     1      37.712  18.970 -23.084  1.00  0.00     0.008 A 
ATOM     13  C   UNL     1      34.926  19.224 -23.014  1.00  0.00     0.046 A 
ATOM     14  C   UNL     1      37.119  20.224 -23.256  1.00  0.00     0.046 A 
ATOM     15  C   UNL     1      35.726  20.356 -23.222  1.00  0.00     0.115 A 
BRANCH  15  16
ATOM     16  O   UNL     1      35.150  21.612 -23.393  1.00  0.00    -0.508 OA
ATOM     17  H   UNL     1      35.595  22.452 -23.040  1.00  0.00     0.293 HD
ENDBRANCH  15  16
ENDBRANCH   1  10
TORSDOF 5
ENDMDL
MODEL 6
REMARK VINA RESULT:    -3.492     15.543     17.056
REMARK INTER + INTRA:          -4.535
REMARK INTER:                  -4.350
REMARK INTRA:                  -0.185
REMARK UNBOUND:                -0.226
REMARK SMILES [NH3+][C@H](Cc1ccc(O)cc1)C(=O)[O-]
REMARK SMILES IDX 3 1 2 2 1 3 11 7 12 8 13 9 4 10 5 11 10 12 6 13 9 14 7 15
REMARK SMILES IDX 8 16
REMARK H PARENT 1 4 1 5 1 6 8 17
REMARK Flexibility Score: inf
ROOT
ATOM      1  C   UNL     1      30.834  27.832 -22.814  1.00  0.00     0.107 C 
ENDROOT
BRANCH   1   2
ATOM      2  C   UNL     1      30.688  27.609 -21.295  1.00  0.00     0.232 C 
BRANCH   2   3
ATOM      3  N   UNL     1      30.142  28.798 -20.626  1.00  0.00    -0.350 N 
ATOM      4  H   UNL     1      29.108  28.845 -20.774  1.00  0.00     0.345 HD
ATOM      5  H   UNL     1      30.314  28.742 -19.596  1.00  0.00     0.345 HD
ATOM      6  H   UNL     1      30.582  29.670 -21.001  1.00  0.00     0.345 HD
ENDBRANCH   2   3
BRANCH   2   7
ATOM      7  C   UNL     1      29.810  26.415 -21.036  1.00  0.00     0.099 C 
ATOM      8  O   UNL     1      29.863  25.809 -19.933  1.00  0.00    -0.544 OA
ATOM      9  O   UNL     1      28.916  25.987 -22.010  1.00  0.00    -0.544 OA
ENDBRANCH   2   7
ENDBRANCH   1   2
BRANCH   1  10
ATOM     10  C   UNL     1      32.180  27.378 -23.322  1.00  0.00    -0.041 A 
ATOM     11  C   UNL     1      32.450  26.011 -23.501  1.00  0.00     0.008 A 
ATOM     12  C   UNL     1      33.164  28.324 -23.655  1.00  0.00     0.008 A 
ATOM     13  C   UNL     1      33.691  25.597 -23.994  1.00  0.00     0.046 A 
ATOM     14  C   UNL     1      34.404  27.906 -24.148  1.00  0.00     0.046 A 
ATOM     15  C   UNL     1      34.672  26.544 -24.319  1.00  0.00     0.115 A 
BRANCH  15  16
ATOM     16  O   UNL     1      35.911  26.143 -24.811  1.00  0.00    -0.508 OA
ATOM     17  H   UNL     1      36.079  25.188 -25.109  1.00  0.00     0.293 HD
ENDBRANCH  15  16
ENDBRANCH   1  10
TORSDOF 5
ENDMDL
MODEL 7
REMARK VINA RESULT:    -3.379     15.651     17.060
REMARK INTER + INTRA:          -4.395
REMARK INTER:                  -4.166
REMARK INTRA:                  -0.229
REMARK UNBOUND:                -0.226
REMARK SMILES [NH3+][C@H](Cc1ccc(O)cc1)C(=O)[O-]
REMARK SMILES IDX 3 1 2 2 1 3 11 7 12 8 13 9 4 10 5 11 10 12 6 13 9 14 7 15
REMARK SMILES IDX 8 16
REMARK H PARENT 1 4 1 5 1 6 8 17
REMARK Flexibility Score: inf
ROOT
ATOM      1  C   UNL     1      31.215  27.442 -22.184  1.00  0.00     0.107 C 
ENDROOT
BRANCH   1   2
ATOM      2  C   UNL     1      30.307  26.198 -22.093  1.00  0.00     0.232 C 
BRANCH   2   3
ATOM      3  N   UNL     1      29.916  25.917 -20.704  1.00  0.00    -0.350 N 
ATOM      4  H   UNL     1      28.888  25.729 -20.656  1.00  0.00     0.345 HD
ATOM      5  H   UNL     1      30.412  25.065 -20.357  1.00  0.00     0.345 HD
ATOM      6  H   UNL     1      30.145  26.726 -20.083  1.00  0.00     0.345 HD
ENDBRANCH   2   3
BRANCH   2   7
ATOM      7  C   UNL     1      29.085  26.395 -22.949  1.00  0.00     0.099 C 
ATOM      8  O   UNL     1      29.109  27.196 -23.921  1.00  0.00    -0.544 OA
ATOM      9  O   UNL     1      27.927  25.676 -22.683  1.00  0.00    -0.544 OA
ENDBRANCH   2   7
ENDBRANCH   1   2
BRANCH   1  10
ATOM     10  C   UNL     1      32.491  27.153 -22.934  1.00  0.00    -0.041 A 
ATOM     11  C   UNL     1      32.813  25.838 -23.311  1.00  0.00     0.008 A 
ATOM     12  C   UNL     1      33.352  28.203 -23.293  1.00  0.00     0.008 A 
ATOM     13  C   UNL     1      33.985  25.578 -24.026  1.00  0.00     0.046 A 
ATOM     14  C   UNL     1      34.524  27.940 -24.009  1.00  0.00     0.046 A 
ATOM     15  C   UNL     1      34.845  26.629 -24.377  1.00  0.00     0.115 A 
BRANCH  15  16
ATOM     16  O   UNL     1      36.015  26.382 -25.090  1.00  0.00    -0.508 OA
ATOM     17  H   UNL     1      36.360  25.439 -25.231  1.00  0.00     0.293 HD
ENDBRANCH  15  16
ENDBRANCH   1  10
TORSDOF 5
ENDMDL
MODEL 8
REMARK VINA RESULT:    -3.369      2.805      3.251
REMARK INTER + INTRA:          -4.383
REMARK INTER:                  -4.149
REMARK INTRA:                  -0.234
REMARK UNBOUND:                -0.226
REMARK SMILES [NH3+][C@H](Cc1ccc(O)cc1)C(=O)[O-]
REMARK SMILES IDX 3 1 2 2 1 3 11 7 12 8 13 9 4 10 5 11 10 12 6 13 9 14 7 15
REMARK SMILES IDX 8 16
REMARK H PARENT 1 4 1 5 1 6 8 17
REMARK Flexibility Score: inf
ROOT
ATOM      1  C   UNL     1      30.897  12.444 -12.865  1.00  0.00     0.107 C 
ENDROOT
BRANCH   1   2
ATOM      2  C   UNL     1      32.359  12.555 -12.382  1.00  0.00     0.232 C 
BRANCH   2   3
ATOM      3  N   UNL     1      32.690  13.929 -11.979  1.00  0.00    -0.350 N 
ATOM      4  H   UNL     1      33.536  13.925 -11.364  1.00  0.00     0.345 HD
ATOM      5  H   UNL     1      32.912  14.507 -12.822  1.00  0.00     0.345 HD
ATOM      6  H   UNL     1      31.893  14.366 -11.462  1.00  0.00     0.345 HD
ENDBRANCH   2   3
BRANCH   2   7
ATOM      7  C   UNL     1      32.591  11.605 -11.238  1.00  0.00     0.099 C 
ATOM      8  O   UNL     1      32.731  12.041 -10.065  1.00  0.00    -0.544 OA
ATOM      9  O   UNL     1      32.632  10.236 -11.470  1.00  0.00    -0.544 OA
ENDBRANCH   2   7
ENDBRANCH   1   2
BRANCH   1  10
ATOM     10  C   UNL     1      30.815  12.107 -14.333  1.00  0.00    -0.041 A 
ATOM     11  C   UNL     1      29.637  12.360 -15.056  1.00  0.00     0.008 A 
ATOM     12  C   UNL     1      31.929  11.569 -14.998  1.00  0.00     0.008 A 
ATOM     13  C   UNL     1      29.573  12.067 -16.422  1.00  0.00     0.046 A 
ATOM     14  C   UNL     1      31.862  11.277 -16.363  1.00  0.00     0.046 A 
ATOM     15  C   UNL     1      30.686  11.524 -17.079  1.00  0.00     0.115 A 
BRANCH  15  16
ATOM     16  O   UNL     1      30.633  11.229 -18.439  1.00  0.00    -0.508 OA
ATOM     17  H   UNL     1      29.846  10.734 -18.844  1.00  0.00     0.293 HD
ENDBRANCH  15  16
ENDBRANCH   1  10
TORSDOF 5
ENDMDL
MODEL 9
REMARK VINA RESULT:    -1.797     12.866     14.001
REMARK INTER + INTRA:          -2.443
REMARK INTER:                  -2.307
REMARK INTRA:                  -0.137
REMARK UNBOUND:                -0.226
REMARK SMILES [NH3+][C@H](Cc1ccc(O)cc1)C(=O)[O-]
REMARK SMILES IDX 3 1 2 2 1 3 11 7 12 8 13 9 4 10 5 11 10 12 6 13 9 14 7 15
REMARK SMILES IDX 8 16
REMARK H PARENT 1 4 1 5 1 6 8 17
REMARK Flexibility Score: inf
ROOT
ATOM      1  C   UNL     1      34.715  21.854  -9.471  1.00  0.00     0.107 C 
ENDROOT
BRANCH   1   2
ATOM      2  C   UNL     1      34.473  21.346  -8.035  1.00  0.00     0.232 C 
BRANCH   2   3
ATOM      3  N   UNL     1      33.989  22.420  -7.157  1.00  0.00    -0.350 N 
ATOM      4  H   UNL     1      33.694  22.021  -6.236  1.00  0.00     0.345 HD
ATOM      5  H   UNL     1      34.755  23.108  -6.975  1.00  0.00     0.345 HD
ATOM      6  H   UNL     1      33.177  22.917  -7.591  1.00  0.00     0.345 HD
ENDBRANCH   2   3
BRANCH   2   7
ATOM      7  C   UNL     1      33.489  20.207  -8.056  1.00  0.00     0.099 C 
ATOM      8  O   UNL     1      33.213  19.621  -9.137  1.00  0.00    -0.544 OA
ATOM      9  O   UNL     1      32.895  19.780  -6.875  1.00  0.00    -0.544 OA
ENDBRANCH   2   7
ENDBRANCH   1   2
BRANCH   1  10
ATOM     10  C   UNL     1      35.623  23.057  -9.496  1.00  0.00    -0.041 A 
ATOM     11  C   UNL     1      35.124  24.320  -9.858  1.00  0.00     0.008 A 
ATOM     12  C   UNL     1      36.972  22.932  -9.122  1.00  0.00     0.008 A 
ATOM     13  C   UNL     1      35.965  25.437  -9.857  1.00  0.00     0.046 A 
ATOM     14  C   UNL     1      37.810  24.051  -9.123  1.00  0.00     0.046 A 
ATOM     15  C   UNL     1      37.311  25.305  -9.489  1.00  0.00     0.115 A 
BRANCH  15  16
ATOM     16  O   UNL     1      38.158  26.410  -9.484  1.00  0.00    -0.508 OA
ATOM     17  H   UNL     1      38.196  27.052 -10.268  1.00  0.00     0.293 HD
ENDBRANCH  15  16
ENDBRANCH   1  10
TORSDOF 5
ENDMDL
