MODEL 1
REMARK VINA RESULT:    -3.143      0.000      0.000
REMARK INTER + INTRA:          -3.940
REMARK INTER:                  -3.786
REMARK INTRA:                  -0.154
REMARK UNBOUND:                -0.154
REMARK SMILES CC[C@@H](C)[C@@H]([NH3+])C(=O)[O-]
REMARK SMILES IDX 3 1 4 2 5 3 6 4 7 8 8 9 9 10 2 11 1 12
REMARK H PARENT 6 5 6 6 6 7
REMARK Flexibility Score: inf
ROOT
ATOM      1  C   UNL     1      49.125  33.802  86.501  1.00  0.00     0.050 C 
ATOM      2  C   UNL     1      48.214  32.705  87.092  1.00  0.00     0.014 C 
ENDROOT
BRANCH   1   3
ATOM      3  C   UNL     1      48.638  34.203  85.071  1.00  0.00     0.230 C 
BRANCH   3   4
ATOM      4  N   UNL     1      47.860  35.453  85.076  1.00  0.00    -0.350 N 
ATOM      5  H   UNL     1      47.704  35.785  84.097  1.00  0.00     0.345 HD
ATOM      6  H   UNL     1      46.942  35.316  85.556  1.00  0.00     0.345 HD
ATOM      7  H   UNL     1      48.392  36.208  85.570  1.00  0.00     0.345 HD
ENDBRANCH   3   4
BRANCH   3   8
ATOM      8  C   UNL     1      49.804  34.347  84.123  1.00  0.00     0.099 C 
ATOM      9  O   UNL     1      49.612  34.655  82.917  1.00  0.00    -0.544 OA
ATOM     10  O   UNL     1      51.100  34.141  84.580  1.00  0.00    -0.544 OA
ENDBRANCH   3   8
ENDBRANCH   1   3
BRANCH   1  11
ATOM     11  C   UNL     1      49.185  35.030  87.448  1.00  0.00     0.006 C 
ATOM     12  C   UNL     1      50.606  35.408  87.873  1.00  0.00     0.004 C 
ENDBRANCH   1  11
TORSDOF 4
ENDMDL
MODEL 2
REMARK VINA RESULT:    -3.016     16.175     16.984
REMARK INTER + INTRA:          -3.787
REMARK INTER:                  -3.645
REMARK INTRA:                  -0.142
REMARK UNBOUND:                -0.154
REMARK SMILES CC[C@@H](C)[C@@H]([NH3+])C(=O)[O-]
REMARK SMILES IDX 3 1 4 2 5 3 6 4 7 8 8 9 9 10 2 11 1 12
REMARK H PARENT 6 5 6 6 6 7
REMARK Flexibility Score: inf
ROOT
ATOM      1  C   UNL     1      46.182  19.952  77.863  1.00  0.00     0.050 C 
ATOM      2  C   UNL     1      44.924  20.323  78.677  1.00  0.00     0.014 C 
ENDROOT
BRANCH   1   3
ATOM      3  C   UNL     1      47.421  19.814  78.807  1.00  0.00     0.230 C 
BRANCH   3   4
ATOM      4  N   UNL     1      47.689  18.414  79.174  1.00  0.00    -0.350 N 
ATOM      5  H   UNL     1      47.496  17.784  78.363  1.00  0.00     0.345 HD
ATOM      6  H   UNL     1      48.680  18.297  79.488  1.00  0.00     0.345 HD
ATOM      7  H   UNL     1      47.051  18.113  79.948  1.00  0.00     0.345 HD
ENDBRANCH   3   4
BRANCH   3   8
ATOM      8  C   UNL     1      48.654  20.406  78.171  1.00  0.00     0.099 C 
ATOM      9  O   UNL     1      48.586  20.960  77.041  1.00  0.00    -0.544 OA
ATOM     10  O   UNL     1      49.875  20.344  78.831  1.00  0.00    -0.544 OA
ENDBRANCH   3   8
ENDBRANCH   1   3
BRANCH   1  11
ATOM     11  C   UNL     1      45.941  18.655  77.045  1.00  0.00     0.006 C 
ATOM     12  C   UNL     1      46.032  18.860  75.531  1.00  0.00     0.004 C 
ENDBRANCH   1  11
TORSDOF 4
ENDMDL
MODEL 3
REMARK VINA RESULT:    -2.923     18.132     18.785
REMARK INTER + INTRA:          -3.676
REMARK INTER:                  -3.586
REMARK INTRA:                  -0.090
REMARK UNBOUND:                -0.154
REMARK SMILES CC[C@@H](C)[C@@H]([NH3+])C(=O)[O-]
REMARK SMILES IDX 3 1 4 2 5 3 6 4 7 8 8 9 9 10 2 11 1 12
REMARK H PARENT 6 5 6 6 6 7
REMARK Flexibility Score: inf
ROOT
ATOM      1  C   UNL     1      39.540  20.431  79.482  1.00  0.00     0.050 C 
ATOM      2  C   UNL     1      40.733  19.836  80.261  1.00  0.00     0.014 C 
ENDROOT
BRANCH   1   3
ATOM      3  C   UNL     1      38.381  20.805  80.463  1.00  0.00     0.230 C 
BRANCH   3   4
ATOM      4  N   UNL     1      37.367  21.663  79.828  1.00  0.00    -0.350 N 
ATOM      5  H   UNL     1      36.925  21.165  79.023  1.00  0.00     0.345 HD
ATOM      6  H   UNL     1      36.634  21.944  80.519  1.00  0.00     0.345 HD
ATOM      7  H   UNL     1      37.815  22.527  79.440  1.00  0.00     0.345 HD
ENDBRANCH   3   4
BRANCH   3   8
ATOM      8  C   UNL     1      37.713  19.566  81.007  1.00  0.00     0.099 C 
ATOM      9  O   UNL     1      37.365  19.507  82.217  1.00  0.00    -0.544 OA
ATOM     10  O   UNL     1      37.475  18.481  80.172  1.00  0.00    -0.544 OA
ENDBRANCH   3   8
ENDBRANCH   1   3
BRANCH   1  11
ATOM     11  C   UNL     1      39.993  21.655  78.642  1.00  0.00     0.006 C 
ATOM     12  C   UNL     1      40.710  21.275  77.344  1.00  0.00     0.004 C 
ENDBRANCH   1  11
TORSDOF 4
ENDMDL
MODEL 4
REMARK VINA RESULT:    -2.918      4.465      5.636
REMARK INTER + INTRA:          -3.670
REMARK INTER:                  -3.577
REMARK INTRA:                  -0.093
REMARK UNBOUND:                -0.154
REMARK SMILES CC[C@@H](C)[C@@H]([NH3+])C(=O)[O-]
REMARK SMILES IDX 3 1 4 2 5 3 6 4 7 8 8 9 9 10 2 11 1 12
REMARK H PARENT 6 5 6 6 6 7
REMARK Flexibility Score: inf
ROOT
ATOM      1  C   UNL     1      52.435  34.392  87.453  1.00  0.00     0.050 C 
ATOM      2  C   UNL     1      52.700  34.571  85.943  1.00  0.00     0.014 C 
ENDROOT
BRANCH   1   3
ATOM      3  C   UNL     1      53.763  34.553  88.262  1.00  0.00     0.230 C 
BRANCH   3   4
ATOM      4  N   UNL     1      54.174  35.961  88.388  1.00  0.00    -0.350 N 
ATOM      5  H   UNL     1      55.102  36.109  87.931  1.00  0.00     0.345 HD
ATOM      6  H   UNL     1      53.460  36.594  87.959  1.00  0.00     0.345 HD
ATOM      7  H   UNL     1      54.290  36.216  89.397  1.00  0.00     0.345 HD
ENDBRANCH   3   4
BRANCH   3   8
ATOM      8  C   UNL     1      53.634  33.948  89.639  1.00  0.00     0.099 C 
ATOM      9  O   UNL     1      53.035  32.852  89.801  1.00  0.00    -0.544 OA
ATOM     10  O   UNL     1      54.180  34.600  90.738  1.00  0.00    -0.544 OA
ENDBRANCH   3   8
ENDBRANCH   1   3
BRANCH   1  11
ATOM     11  C   UNL     1      51.348  35.388  87.938  1.00  0.00     0.006 C 
ATOM     12  C   UNL     1      49.917  34.894  87.709  1.00  0.00     0.004 C 
ENDBRANCH   1  11
TORSDOF 4
ENDMDL
MODEL 5
REMARK VINA RESULT:    -2.904      8.478      9.409
REMARK INTER + INTRA:          -3.652
REMARK INTER:                  -3.554
REMARK INTRA:                  -0.099
REMARK UNBOUND:                -0.154
REMARK SMILES CC[C@@H](C)[C@@H]([NH3+])C(=O)[O-]
REMARK SMILES IDX 3 1 4 2 5 3 6 4 7 8 8 9 9 10 2 11 1 12
REMARK H PARENT 6 5 6 6 6 7
REMARK Flexibility Score: inf
ROOT
ATOM      1  C   UNL     1      45.695  30.523  91.465  1.00  0.00     0.050 C 
ATOM      2  C   UNL     1      45.076  31.250  90.251  1.00  0.00     0.014 C 
ENDROOT
BRANCH   1   3
ATOM      3  C   UNL     1      44.686  29.481  92.048  1.00  0.00     0.230 C 
BRANCH   3   4
ATOM      4  N   UNL     1      45.327  28.553  92.995  1.00  0.00    -0.350 N 
ATOM      5  H   UNL     1      46.311  28.851  93.183  1.00  0.00     0.345 HD
ATOM      6  H   UNL     1      44.790  28.510  93.891  1.00  0.00     0.345 HD
ATOM      7  H   UNL     1      45.376  27.591  92.583  1.00  0.00     0.345 HD
ENDBRANCH   3   4
BRANCH   3   8
ATOM      8  C   UNL     1      43.532  30.170  92.732  1.00  0.00     0.099 C 
ATOM      9  O   UNL     1      42.349  29.787  92.531  1.00  0.00    -0.544 OA
ATOM     10  O   UNL     1      43.770  31.234  93.594  1.00  0.00    -0.544 OA
ENDBRANCH   3   8
ENDBRANCH   1   3
BRANCH   1  11
ATOM     11  C   UNL     1      47.041  29.857  91.073  1.00  0.00     0.006 C 
ATOM     12  C   UNL     1      48.220  30.833  91.035  1.00  0.00     0.004 C 
ENDBRANCH   1  11
TORSDOF 4
ENDMDL
MODEL 6
REMARK VINA RESULT:    -2.902     17.501     18.312
REMARK INTER + INTRA:          -3.651
REMARK INTER:                  -3.591
REMARK INTRA:                  -0.060
REMARK UNBOUND:                -0.154
REMARK SMILES CC[C@@H](C)[C@@H]([NH3+])C(=O)[O-]
REMARK SMILES IDX 3 1 4 2 5 3 6 4 7 8 8 9 9 10 2 11 1 12
REMARK H PARENT 6 5 6 6 6 7
REMARK Flexibility Score: inf
ROOT
ATOM      1  C   UNL     1      46.845  20.305  75.969  1.00  0.00     0.050 C 
ATOM      2  C   UNL     1      45.995  21.548  76.312  1.00  0.00     0.014 C 
ENDROOT
BRANCH   1   3
ATOM      3  C   UNL     1      45.921  19.096  75.611  1.00  0.00     0.230 C 
BRANCH   3   4
ATOM      4  N   UNL     1      46.351  18.411  74.381  1.00  0.00    -0.350 N 
ATOM      5  H   UNL     1      47.359  18.145  74.449  1.00  0.00     0.345 HD
ATOM      6  H   UNL     1      45.769  17.559  74.209  1.00  0.00     0.345 HD
ATOM      7  H   UNL     1      46.263  19.053  73.558  1.00  0.00     0.345 HD
ENDBRANCH   3   4
BRANCH   3   8
ATOM      8  C   UNL     1      45.872  18.099  76.743  1.00  0.00     0.099 C 
ATOM      9  O   UNL     1      45.701  16.874  76.508  1.00  0.00    -0.544 OA
ATOM     10  O   UNL     1      46.019  18.531  78.056  1.00  0.00    -0.544 OA
ENDBRANCH   3   8
ENDBRANCH   1   3
BRANCH   1  11
ATOM     11  C   UNL     1      47.839  20.624  74.821  1.00  0.00     0.006 C 
ATOM     12  C   UNL     1      48.999  21.527  75.247  1.00  0.00     0.004 C 
ENDBRANCH   1  11
TORSDOF 4
ENDMDL
MODEL 7
REMARK VINA RESULT:    -2.899     16.648     17.471
REMARK INTER + INTRA:          -3.647
REMARK INTER:                  -3.586
REMARK INTRA:                  -0.060
REMARK UNBOUND:                -0.154
REMARK SMILES CC[C@@H](C)[C@@H]([NH3+])C(=O)[O-]
REMARK SMILES IDX 3 1 4 2 5 3 6 4 7 8 8 9 9 10 2 11 1 12
REMARK H PARENT 6 5 6 6 6 7
REMARK Flexibility Score: inf
ROOT
ATOM      1  C   UNL     1      45.507  20.488  78.175  1.00  0.00     0.050 C 
ATOM      2  C   UNL     1      46.050  21.281  79.383  1.00  0.00     0.014 C 
ENDROOT
BRANCH   1   3
ATOM      3  C   UNL     1      46.543  19.407  77.723  1.00  0.00     0.230 C 
BRANCH   3   4
ATOM      4  N   UNL     1      47.017  18.584  78.848  1.00  0.00    -0.350 N 
ATOM      5  H   UNL     1      47.009  19.140  79.732  1.00  0.00     0.345 HD
ATOM      6  H   UNL     1      46.423  17.730  78.959  1.00  0.00     0.345 HD
ATOM      7  H   UNL     1      48.009  18.287  78.688  1.00  0.00     0.345 HD
ENDBRANCH   3   4
BRANCH   3   8
ATOM      8  C   UNL     1      45.957  18.507  76.663  1.00  0.00     0.099 C 
ATOM      9  O   UNL     1      45.773  18.936  75.492  1.00  0.00    -0.544 OA
ATOM     10  O   UNL     1      45.619  17.196  76.972  1.00  0.00    -0.544 OA
ENDBRANCH   3   8
ENDBRANCH   1   3
BRANCH   1  11
ATOM     11  C   UNL     1      44.131  19.853  78.512  1.00  0.00     0.006 C 
ATOM     12  C   UNL     1      43.193  20.794  79.272  1.00  0.00     0.004 C 
ENDBRANCH   1  11
TORSDOF 4
ENDMDL
MODEL 8
REMARK VINA RESULT:    -2.820     17.650     18.618
REMARK INTER + INTRA:          -3.552
REMARK INTER:                  -3.475
REMARK INTRA:                  -0.077
REMARK UNBOUND:                -0.154
REMARK SMILES CC[C@@H](C)[C@@H]([NH3+])C(=O)[O-]
REMARK SMILES IDX 3 1 4 2 5 3 6 4 7 8 8 9 9 10 2 11 1 12
REMARK H PARENT 6 5 6 6 6 7
REMARK Flexibility Score: inf
ROOT
ATOM      1  C   UNL     1      38.173  20.457  80.325  1.00  0.00     0.050 C 
ATOM      2  C   UNL     1      38.687  21.813  80.853  1.00  0.00     0.014 C 
ENDROOT
BRANCH   1   3
ATOM      3  C   UNL     1      39.331  19.407  80.301  1.00  0.00     0.230 C 
BRANCH   3   4
ATOM      4  N   UNL     1      38.913  18.128  79.703  1.00  0.00    -0.350 N 
ATOM      5  H   UNL     1      38.179  17.676  80.293  1.00  0.00     0.345 HD
ATOM      6  H   UNL     1      38.550  18.274  78.733  1.00  0.00     0.345 HD
ATOM      7  H   UNL     1      39.722  17.464  79.665  1.00  0.00     0.345 HD
ENDBRANCH   3   4
BRANCH   3   8
ATOM      8  C   UNL     1      40.527  19.938  79.550  1.00  0.00     0.099 C 
ATOM      9  O   UNL     1      41.657  19.992  80.105  1.00  0.00    -0.544 OA
ATOM     10  O   UNL     1      40.387  20.370  78.237  1.00  0.00    -0.544 OA
ENDBRANCH   3   8
ENDBRANCH   1   3
BRANCH   1  11
ATOM     11  C   UNL     1      36.971  19.961  81.173  1.00  0.00     0.006 C 
ATOM     12  C   UNL     1      37.027  20.410  82.636  1.00  0.00     0.004 C 
ENDBRANCH   1  11
TORSDOF 4
ENDMDL
MODEL 9
REMARK VINA RESULT:    -2.796      8.773      9.925
REMARK INTER + INTRA:          -3.522
REMARK INTER:                  -3.371
REMARK INTRA:                  -0.151
REMARK UNBOUND:                -0.154
REMARK SMILES CC[C@@H](C)[C@@H]([NH3+])C(=O)[O-]
REMARK SMILES IDX 3 1 4 2 5 3 6 4 7 8 8 9 9 10 2 11 1 12
REMARK H PARENT 6 5 6 6 6 7
REMARK Flexibility Score: inf
ROOT
ATOM      1  C   UNL     1      44.465  30.908  92.837  1.00  0.00     0.050 C 
ATOM      2  C   UNL     1      43.789  32.041  93.639  1.00  0.00     0.014 C 
ENDROOT
BRANCH   1   3
ATOM      3  C   UNL     1      43.789  29.536  93.157  1.00  0.00     0.230 C 
BRANCH   3   4
ATOM      4  N   UNL     1      42.357  29.526  92.814  1.00  0.00    -0.350 N 
ATOM      5  H   UNL     1      42.233  29.448  91.780  1.00  0.00     0.345 HD
ATOM      6  H   UNL     1      41.868  28.735  93.292  1.00  0.00     0.345 HD
ATOM      7  H   UNL     1      41.909  30.426  93.105  1.00  0.00     0.345 HD
ENDBRANCH   3   4
BRANCH   3   8
ATOM      8  C   UNL     1      44.481  28.410  92.428  1.00  0.00     0.099 C 
ATOM      9  O   UNL     1      43.833  27.657  91.653  1.00  0.00    -0.544 OA
ATOM     10  O   UNL     1      45.843  28.198  92.609  1.00  0.00    -0.544 OA
ENDBRANCH   3   8
ENDBRANCH   1   3
BRANCH   1  11
ATOM     11  C   UNL     1      44.431  31.221  91.316  1.00  0.00     0.006 C 
ATOM     12  C   UNL     1      45.817  31.437  90.704  1.00  0.00     0.004 C 
ENDBRANCH   1  11
TORSDOF 4
ENDMDL
