MODEL 1
REMARK VINA RESULT:    -4.743      0.000      0.000
REMARK INTER + INTRA:          -5.254
REMARK INTER:                  -5.158
REMARK INTRA:                  -0.095
REMARK UNBOUND:                -0.095
REMARK SMILES C=C(C)[C@H]1CC[C@H](C)[C@@H](O)C1
REMARK SMILES IDX 8 1 7 2 6 3 5 4 4 5 11 6 9 7 10 8 2 10 1 11 3 12
REMARK H PARENT 10 9
REMARK Flexibility Score: inf
ROOT
ATOM      1  C   UNL     1     122.216 133.922 127.974  1.00  0.00     0.010 C 
ATOM      2  C   UNL     1     121.554 132.748 128.708  1.00  0.00     0.015 C 
ATOM      3  C   UNL     1     120.049 132.699 128.370  1.00  0.00     0.006 C 
ATOM      4  C   UNL     1     119.360 131.525 129.074  1.00  0.00     0.008 C 
ATOM      5  C   UNL     1     120.039 130.192 128.707  1.00  0.00     0.017 C 
ATOM      6  C   UNL     1     121.541 130.232 129.051  1.00  0.00     0.040 C 
ATOM      7  C   UNL     1     122.240 131.410 128.346  1.00  0.00     0.117 C 
ENDROOT
BRANCH   7   8
ATOM      8  O   UNL     1     123.588 131.452 128.741  1.00  0.00    -0.393 OA
ATOM      9  H   UNL     1     124.075 130.807 128.165  1.00  0.00     0.210 HD
ENDBRANCH   7   8
BRANCH   5  10
ATOM     10  C   UNL     1     119.346 129.011 129.377  1.00  0.00    -0.077 C 
ATOM     11  C   UNL     1     118.640 129.167 130.510  1.00  0.00     0.008 C 
ATOM     12  C   UNL     1     119.444 127.635 128.772  1.00  0.00     0.039 C 
ENDBRANCH   5  10
TORSDOF 2
ENDMDL
MODEL 2
REMARK VINA RESULT:    -4.599     15.268     16.643
REMARK INTER + INTRA:          -5.097
REMARK INTER:                  -5.006
REMARK INTRA:                  -0.091
REMARK UNBOUND:                -0.095
REMARK SMILES C=C(C)[C@H]1CC[C@H](C)[C@@H](O)C1
REMARK SMILES IDX 8 1 7 2 6 3 5 4 4 5 11 6 9 7 10 8 2 10 1 11 3 12
REMARK H PARENT 10 9
REMARK Flexibility Score: inf
ROOT
ATOM      1  C   UNL     1     123.567 117.129 119.269  1.00  0.00     0.010 C 
ATOM      2  C   UNL     1     124.801 117.978 118.936  1.00  0.00     0.015 C 
ATOM      3  C   UNL     1     124.409 119.469 118.868  1.00  0.00     0.006 C 
ATOM      4  C   UNL     1     125.625 120.349 118.553  1.00  0.00     0.008 C 
ATOM      5  C   UNL     1     126.741 120.132 119.593  1.00  0.00     0.017 C 
ATOM      6  C   UNL     1     127.142 118.645 119.659  1.00  0.00     0.040 C 
ATOM      7  C   UNL     1     125.925 117.755 119.975  1.00  0.00     0.117 C 
ENDROOT
BRANCH   7   8
ATOM      8  O   UNL     1     126.320 116.407 119.956  1.00  0.00    -0.393 OA
ATOM      9  H   UNL     1     126.712 116.236 119.060  1.00  0.00     0.210 HD
ENDBRANCH   7   8
BRANCH   5  10
ATOM     10  C   UNL     1     127.945 121.021 119.310  1.00  0.00    -0.077 C 
ATOM     11  C   UNL     1     127.825 122.357 119.237  1.00  0.00     0.008 C 
ATOM     12  C   UNL     1     129.306 120.408 119.105  1.00  0.00     0.039 C 
ENDBRANCH   5  10
TORSDOF 2
ENDMDL
MODEL 3
REMARK VINA RESULT:    -4.564     15.246     15.913
REMARK INTER + INTRA:          -5.060
REMARK INTER:                  -4.969
REMARK INTRA:                  -0.091
REMARK UNBOUND:                -0.095
REMARK SMILES C=C(C)[C@H]1CC[C@H](C)[C@@H](O)C1
REMARK SMILES IDX 8 1 7 2 6 3 5 4 4 5 11 6 9 7 10 8 2 10 1 11 3 12
REMARK H PARENT 10 9
REMARK Flexibility Score: inf
ROOT
ATOM      1  C   UNL     1     128.244 121.782 119.062  1.00  0.00     0.010 C 
ATOM      2  C   UNL     1     127.037 120.913 119.438  1.00  0.00     0.015 C 
ATOM      3  C   UNL     1     126.000 120.931 118.295  1.00  0.00     0.006 C 
ATOM      4  C   UNL     1     124.787 120.057 118.633  1.00  0.00     0.008 C 
ATOM      5  C   UNL     1     125.223 118.612 118.943  1.00  0.00     0.017 C 
ATOM      6  C   UNL     1     126.252 118.588 120.090  1.00  0.00     0.040 C 
ATOM      7  C   UNL     1     127.474 119.464 119.758  1.00  0.00     0.117 C 
ENDROOT
BRANCH   7   8
ATOM      8  O   UNL     1     128.352 119.470 120.855  1.00  0.00    -0.393 OA
ATOM      9  H   UNL     1     127.901 118.970 121.585  1.00  0.00     0.210 HD
ENDBRANCH   7   8
BRANCH   5  10
ATOM     10  C   UNL     1     124.024 117.724 119.252  1.00  0.00    -0.077 C 
ATOM     11  C   UNL     1     123.792 116.597 118.558  1.00  0.00     0.008 C 
ATOM     12  C   UNL     1     123.067 118.102 120.353  1.00  0.00     0.039 C 
ENDBRANCH   5  10
TORSDOF 2
ENDMDL
MODEL 4
REMARK VINA RESULT:    -4.521      9.788     11.389
REMARK INTER + INTRA:          -5.013
REMARK INTER:                  -4.918
REMARK INTRA:                  -0.095
REMARK UNBOUND:                -0.095
REMARK SMILES C=C(C)[C@H]1CC[C@H](C)[C@@H](O)C1
REMARK SMILES IDX 8 1 7 2 6 3 5 4 4 5 11 6 9 7 10 8 2 10 1 11 3 12
REMARK H PARENT 10 9
REMARK Flexibility Score: inf
ROOT
ATOM      1  C   UNL     1     115.459 121.756 128.337  1.00  0.00     0.010 C 
ATOM      2  C   UNL     1     115.307 121.671 129.862  1.00  0.00     0.015 C 
ATOM      3  C   UNL     1     115.415 120.201 130.319  1.00  0.00     0.006 C 
ATOM      4  C   UNL     1     115.284 120.082 131.842  1.00  0.00     0.008 C 
ATOM      5  C   UNL     1     116.343 120.946 132.551  1.00  0.00     0.017 C 
ATOM      6  C   UNL     1     116.235 122.417 132.105  1.00  0.00     0.040 C 
ATOM      7  C   UNL     1     116.366 122.545 130.575  1.00  0.00     0.117 C 
ENDROOT
BRANCH   7   8
ATOM      8  O   UNL     1     116.191 123.889 130.206  1.00  0.00    -0.393 OA
ATOM      9  H   UNL     1     116.736 124.034 129.389  1.00  0.00     0.210 HD
ENDBRANCH   7   8
BRANCH   5  10
ATOM     10  C   UNL     1     116.244 120.815 134.066  1.00  0.00    -0.077 C 
ATOM     11  C   UNL     1     115.054 120.740 134.684  1.00  0.00     0.008 C 
ATOM     12  C   UNL     1     117.496 120.769 134.904  1.00  0.00     0.039 C 
ENDBRANCH   5  10
TORSDOF 2
ENDMDL
MODEL 5
REMARK VINA RESULT:    -4.473     14.943     15.962
REMARK INTER + INTRA:          -4.960
REMARK INTER:                  -4.865
REMARK INTRA:                  -0.094
REMARK UNBOUND:                -0.095
REMARK SMILES C=C(C)[C@H]1CC[C@H](C)[C@@H](O)C1
REMARK SMILES IDX 8 1 7 2 6 3 5 4 4 5 11 6 9 7 10 8 2 10 1 11 3 12
REMARK H PARENT 10 9
REMARK Flexibility Score: inf
ROOT
ATOM      1  C   UNL     1     123.380 118.356 120.289  1.00  0.00     0.010 C 
ATOM      2  C   UNL     1     124.581 119.310 120.295  1.00  0.00     0.015 C 
ATOM      3  C   UNL     1     125.692 118.752 121.209  1.00  0.00     0.006 C 
ATOM      4  C   UNL     1     126.916 119.675 121.224  1.00  0.00     0.008 C 
ATOM      5  C   UNL     1     127.452 119.895 119.796  1.00  0.00     0.017 C 
ATOM      6  C   UNL     1     126.349 120.462 118.881  1.00  0.00     0.040 C 
ATOM      7  C   UNL     1     125.115 119.539 118.861  1.00  0.00     0.117 C 
ENDROOT
BRANCH   7   8
ATOM      8  O   UNL     1     124.111 120.126 118.074  1.00  0.00    -0.393 OA
ATOM      9  H   UNL     1     124.460 121.005 117.772  1.00  0.00     0.210 HD
ENDBRANCH   7   8
BRANCH   5  10
ATOM     10  C   UNL     1     128.687 120.788 119.798  1.00  0.00    -0.077 C 
ATOM     11  C   UNL     1     128.581 122.126 119.848  1.00  0.00     0.008 C 
ATOM     12  C   UNL     1     130.062 120.175 119.742  1.00  0.00     0.039 C 
ENDBRANCH   5  10
TORSDOF 2
ENDMDL
MODEL 6
REMARK VINA RESULT:    -4.441      1.576      2.414
REMARK INTER + INTRA:          -4.925
REMARK INTER:                  -4.830
REMARK INTRA:                  -0.095
REMARK UNBOUND:                -0.095
REMARK SMILES C=C(C)[C@H]1CC[C@H](C)[C@@H](O)C1
REMARK SMILES IDX 8 1 7 2 6 3 5 4 4 5 11 6 9 7 10 8 2 10 1 11 3 12
REMARK H PARENT 10 9
REMARK Flexibility Score: inf
ROOT
ATOM      1  C   UNL     1     122.243 133.633 128.199  1.00  0.00     0.010 C 
ATOM      2  C   UNL     1     121.310 132.416 128.225  1.00  0.00     0.015 C 
ATOM      3  C   UNL     1     122.069 131.184 128.761  1.00  0.00     0.006 C 
ATOM      4  C   UNL     1     121.158 129.951 128.816  1.00  0.00     0.008 C 
ATOM      5  C   UNL     1     119.910 130.232 129.675  1.00  0.00     0.017 C 
ATOM      6  C   UNL     1     119.143 131.457 129.139  1.00  0.00     0.040 C 
ATOM      7  C   UNL     1     120.052 132.699 129.081  1.00  0.00     0.117 C 
ENDROOT
BRANCH   7   8
ATOM      8  O   UNL     1     119.336 133.771 128.522  1.00  0.00    -0.393 OA
ATOM      9  H   UNL     1     119.520 133.761 127.546  1.00  0.00     0.210 HD
ENDBRANCH   7   8
BRANCH   5  10
ATOM     10  C   UNL     1     119.009 129.006 129.764  1.00  0.00    -0.077 C 
ATOM     11  C   UNL     1     119.297 127.878 129.093  1.00  0.00     0.008 C 
ATOM     12  C   UNL     1     117.766 129.042 130.615  1.00  0.00     0.039 C 
ENDBRANCH   5  10
TORSDOF 2
ENDMDL
MODEL 7
REMARK VINA RESULT:    -4.385      2.381      4.042
REMARK INTER + INTRA:          -4.864
REMARK INTER:                  -4.771
REMARK INTRA:                  -0.093
REMARK UNBOUND:                -0.095
REMARK SMILES C=C(C)[C@H]1CC[C@H](C)[C@@H](O)C1
REMARK SMILES IDX 8 1 7 2 6 3 5 4 4 5 11 6 9 7 10 8 2 10 1 11 3 12
REMARK H PARENT 10 9
REMARK Flexibility Score: inf
ROOT
ATOM      1  C   UNL     1     123.091 131.731 128.424  1.00  0.00     0.010 C 
ATOM      2  C   UNL     1     121.687 132.265 128.737  1.00  0.00     0.015 C 
ATOM      3  C   UNL     1     121.626 133.781 128.459  1.00  0.00     0.006 C 
ATOM      4  C   UNL     1     120.229 134.343 128.747  1.00  0.00     0.008 C 
ATOM      5  C   UNL     1     119.160 133.600 127.923  1.00  0.00     0.017 C 
ATOM      6  C   UNL     1     119.210 132.086 128.204  1.00  0.00     0.040 C 
ATOM      7  C   UNL     1     120.611 131.514 127.917  1.00  0.00     0.117 C 
ENDROOT
BRANCH   7   8
ATOM      8  O   UNL     1     120.632 130.150 128.252  1.00  0.00    -0.393 OA
ATOM      9  H   UNL     1     120.238 129.660 127.484  1.00  0.00     0.210 HD
ENDBRANCH   7   8
BRANCH   5  10
ATOM     10  C   UNL     1     117.769 134.168 128.177  1.00  0.00    -0.077 C 
ATOM     11  C   UNL     1     116.801 134.087 127.248  1.00  0.00     0.008 C 
ATOM     12  C   UNL     1     117.454 134.838 129.489  1.00  0.00     0.039 C 
ENDBRANCH   5  10
TORSDOF 2
ENDMDL
MODEL 8
REMARK VINA RESULT:    -4.349     11.104     11.860
REMARK INTER + INTRA:          -4.826
REMARK INTER:                  -4.736
REMARK INTRA:                  -0.090
REMARK UNBOUND:                -0.095
REMARK SMILES C=C(C)[C@H]1CC[C@H](C)[C@@H](O)C1
REMARK SMILES IDX 8 1 7 2 6 3 5 4 4 5 11 6 9 7 10 8 2 10 1 11 3 12
REMARK H PARENT 10 9
REMARK Flexibility Score: inf
ROOT
ATOM      1  C   UNL     1     114.631 121.488 127.285  1.00  0.00     0.010 C 
ATOM      2  C   UNL     1     115.244 121.431 128.690  1.00  0.00     0.015 C 
ATOM      3  C   UNL     1     114.378 122.244 129.675  1.00  0.00     0.006 C 
ATOM      4  C   UNL     1     114.956 122.193 131.095  1.00  0.00     0.008 C 
ATOM      5  C   UNL     1     115.097 120.736 131.576  1.00  0.00     0.017 C 
ATOM      6  C   UNL     1     115.969 119.922 130.600  1.00  0.00     0.040 C 
ATOM      7  C   UNL     1     115.395 119.968 129.171  1.00  0.00     0.117 C 
ENDROOT
BRANCH   7   8
ATOM      8  O   UNL     1     116.255 119.275 128.303  1.00  0.00    -0.393 OA
ATOM      9  H   UNL     1     116.988 118.906 128.861  1.00  0.00     0.210 HD
ENDBRANCH   7   8
BRANCH   5  10
ATOM     10  C   UNL     1     115.643 120.671 132.997  1.00  0.00    -0.077 C 
ATOM     11  C   UNL     1     114.823 120.562 134.056  1.00  0.00     0.008 C 
ATOM     12  C   UNL     1     117.129 120.728 133.238  1.00  0.00     0.039 C 
ENDBRANCH   5  10
TORSDOF 2
ENDMDL
