MODEL 1
REMARK VINA RESULT:    -4.066      0.000      0.000
REMARK INTER + INTRA:          -4.882
REMARK INTER:                  -4.660
REMARK INTRA:                  -0.222
REMARK UNBOUND:                -0.222
REMARK SMILES CC=Cc1ccc(O)c(OC)c1
REMARK SMILES IDX 4 1 12 2 9 3 7 4 6 5 5 6 3 7 1 8 2 9 10 10 11 11 8 12
REMARK H PARENT 8 13
REMARK Flexibility Score: inf
ROOT
ATOM      1  C   UNL     1       4.151   4.734   5.230  1.00  0.00    -0.022 A 
ATOM      2  C   UNL     1       5.532   4.513   5.136  1.00  0.00     0.058 A 
ATOM      3  C   UNL     1       6.449   5.480   5.598  1.00  0.00     0.161 A 
ATOM      4  C   UNL     1       5.960   6.685   6.136  1.00  0.00     0.157 A 
ATOM      5  C   UNL     1       4.583   6.916   6.201  1.00  0.00     0.051 A 
ATOM      6  C   UNL     1       3.682   5.953   5.743  1.00  0.00     0.012 A 
ENDROOT
BRANCH   1   7
ATOM      7  C   UNL     1       3.221   3.710   4.711  1.00  0.00     0.003 C 
ATOM      8  C   UNL     1       3.278   2.302   6.787  1.00  0.00     0.035 C 
ATOM      9  C   UNL     1       2.810   2.637   5.403  1.00  0.00    -0.030 C 
ENDBRANCH   1   7
BRANCH   3  10
ATOM     10  O   UNL     1       7.837   5.279   5.534  1.00  0.00    -0.493 OA
ATOM     11  C   UNL     1       8.589   4.527   6.480  1.00  0.00     0.278 C 
ENDBRANCH   3  10
BRANCH   4  12
ATOM     12  O   UNL     1       6.829   7.669   6.606  1.00  0.00    -0.504 OA
ATOM     13  H   UNL     1       6.917   8.573   6.155  1.00  0.00     0.293 HD
ENDBRANCH   4  12
TORSDOF 3
ENDMDL
MODEL 2
REMARK VINA RESULT:    -4.048      1.046      2.756
REMARK INTER + INTRA:          -4.862
REMARK INTER:                  -4.671
REMARK INTRA:                  -0.191
REMARK UNBOUND:                -0.222
REMARK SMILES CC=Cc1ccc(O)c(OC)c1
REMARK SMILES IDX 4 1 12 2 9 3 7 4 6 5 5 6 3 7 1 8 2 9 10 10 11 11 8 12
REMARK H PARENT 8 13
REMARK Flexibility Score: inf
ROOT
ATOM      1  C   UNL     1       4.128   4.462   5.106  1.00  0.00    -0.022 A 
ATOM      2  C   UNL     1       3.685   5.710   5.566  1.00  0.00     0.058 A 
ATOM      3  C   UNL     1       4.607   6.692   5.982  1.00  0.00     0.161 A 
ATOM      4  C   UNL     1       5.984   6.398   5.950  1.00  0.00     0.157 A 
ATOM      5  C   UNL     1       6.421   5.142   5.518  1.00  0.00     0.051 A 
ATOM      6  C   UNL     1       5.501   4.176   5.107  1.00  0.00     0.012 A 
ENDROOT
BRANCH   1   7
ATOM      7  C   UNL     1       3.131   3.448   4.704  1.00  0.00     0.003 C 
ATOM      8  C   UNL     1       3.197   2.210   6.886  1.00  0.00     0.035 C 
ATOM      9  C   UNL     1       2.695   2.457   5.495  1.00  0.00    -0.030 C 
ENDBRANCH   1   7
BRANCH   3  10
ATOM     10  O   UNL     1       4.195   7.957   6.430  1.00  0.00    -0.493 OA
ATOM     11  C   UNL     1       2.980   8.211   7.127  1.00  0.00     0.278 C 
ENDBRANCH   3  10
BRANCH   4  12
ATOM     12  O   UNL     1       6.931   7.339   6.350  1.00  0.00    -0.504 OA
ATOM     13  H   UNL     1       6.909   7.772   7.266  1.00  0.00     0.293 HD
ENDBRANCH   4  12
TORSDOF 3
ENDMDL
MODEL 3
REMARK VINA RESULT:    -4.021     14.273     15.513
REMARK INTER + INTRA:          -4.831
REMARK INTER:                  -4.607
REMARK INTRA:                  -0.224
REMARK UNBOUND:                -0.222
REMARK SMILES CC=Cc1ccc(O)c(OC)c1
REMARK SMILES IDX 4 1 12 2 9 3 7 4 6 5 5 6 3 7 1 8 2 9 10 10 11 11 8 12
REMARK H PARENT 8 13
REMARK Flexibility Score: inf
ROOT
ATOM      1  C   UNL     1      -7.509   7.583  -3.585  1.00  0.00    -0.022 A 
ATOM      2  C   UNL     1      -6.477   8.334  -4.166  1.00  0.00     0.058 A 
ATOM      3  C   UNL     1      -5.203   7.766  -4.372  1.00  0.00     0.161 A 
ATOM      4  C   UNL     1      -4.971   6.437  -3.967  1.00  0.00     0.157 A 
ATOM      5  C   UNL     1      -5.994   5.701  -3.362  1.00  0.00     0.051 A 
ATOM      6  C   UNL     1      -7.252   6.270  -3.162  1.00  0.00     0.012 A 
ENDROOT
BRANCH   1   7
ATOM      7  C   UNL     1      -8.824   8.220  -3.359  1.00  0.00     0.003 C 
ATOM      8  C   UNL     1      -8.256   9.074  -1.069  1.00  0.00     0.035 C 
ATOM      9  C   UNL     1      -9.157   8.903  -2.255  1.00  0.00    -0.030 C 
ENDBRANCH   1   7
BRANCH   3  10
ATOM     10  O   UNL     1      -4.156   8.486  -4.967  1.00  0.00    -0.493 OA
ATOM     11  C   UNL     1      -4.267   9.221  -6.181  1.00  0.00     0.278 C 
ENDBRANCH   3  10
BRANCH   4  12
ATOM     12  O   UNL     1      -3.728   5.835  -4.153  1.00  0.00    -0.504 OA
ATOM     13  H   UNL     1      -2.951   6.321  -4.587  1.00  0.00     0.293 HD
ENDBRANCH   4  12
TORSDOF 3
ENDMDL
MODEL 4
REMARK VINA RESULT:    -3.903     11.726     14.088
REMARK INTER + INTRA:          -4.695
REMARK INTER:                  -4.460
REMARK INTRA:                  -0.236
REMARK UNBOUND:                -0.222
REMARK SMILES CC=Cc1ccc(O)c(OC)c1
REMARK SMILES IDX 4 1 12 2 9 3 7 4 6 5 5 6 3 7 1 8 2 9 10 10 11 11 8 12
REMARK H PARENT 8 13
REMARK Flexibility Score: inf
ROOT
ATOM      1  C   UNL     1       3.829  -8.230   4.191  1.00  0.00    -0.022 A 
ATOM      2  C   UNL     1       2.971  -7.257   4.722  1.00  0.00     0.058 A 
ATOM      3  C   UNL     1       1.575  -7.455   4.725  1.00  0.00     0.161 A 
ATOM      4  C   UNL     1       1.048  -8.636   4.169  1.00  0.00     0.157 A 
ATOM      5  C   UNL     1       1.905  -9.591   3.614  1.00  0.00     0.051 A 
ATOM      6  C   UNL     1       3.286  -9.388   3.616  1.00  0.00     0.012 A 
ENDROOT
BRANCH   1   7
ATOM      7  C   UNL     1       5.286  -7.977   4.181  1.00  0.00     0.003 C 
ATOM      8  C   UNL     1       5.728  -9.195   6.329  1.00  0.00     0.035 C 
ATOM      9  C   UNL     1       6.140  -8.421   5.114  1.00  0.00    -0.030 C 
ENDBRANCH   1   7
BRANCH   3  10
ATOM     10  O   UNL     1       0.691  -6.507   5.265  1.00  0.00    -0.493 OA
ATOM     11  C   UNL     1       1.083  -5.242   5.788  1.00  0.00     0.278 C 
ENDBRANCH   3  10
BRANCH   4  12
ATOM     12  O   UNL     1      -0.326  -8.874   4.152  1.00  0.00    -0.504 OA
ATOM     13  H   UNL     1      -0.804  -9.217   3.327  1.00  0.00     0.293 HD
ENDBRANCH   4  12
TORSDOF 3
ENDMDL
MODEL 5
REMARK VINA RESULT:    -3.901     11.279     13.645
REMARK INTER + INTRA:          -4.692
REMARK INTER:                  -4.439
REMARK INTRA:                  -0.253
REMARK UNBOUND:                -0.222
REMARK SMILES CC=Cc1ccc(O)c(OC)c1
REMARK SMILES IDX 4 1 12 2 9 3 7 4 6 5 5 6 3 7 1 8 2 9 10 10 11 11 8 12
REMARK H PARENT 8 13
REMARK Flexibility Score: inf
ROOT
ATOM      1  C   UNL     1       2.336  -8.137   4.444  1.00  0.00    -0.022 A 
ATOM      2  C   UNL     1       2.155  -6.932   5.137  1.00  0.00     0.058 A 
ATOM      3  C   UNL     1       0.860  -6.466   5.443  1.00  0.00     0.161 A 
ATOM      4  C   UNL     1      -0.256  -7.217   5.026  1.00  0.00     0.157 A 
ATOM      5  C   UNL     1      -0.072  -8.403   4.310  1.00  0.00     0.051 A 
ATOM      6  C   UNL     1       1.213  -8.858   4.012  1.00  0.00     0.012 A 
ENDROOT
BRANCH   1   7
ATOM      7  C   UNL     1       3.707  -8.581   4.117  1.00  0.00     0.003 C 
ATOM      8  C   UNL     1       3.969  -9.994   6.174  1.00  0.00     0.035 C 
ATOM      9  C   UNL     1       4.432  -9.423   4.868  1.00  0.00    -0.030 C 
ENDBRANCH   1   7
BRANCH   3  10
ATOM     10  O   UNL     1       0.647  -5.272   6.151  1.00  0.00    -0.493 OA
ATOM     11  C   UNL     1       1.039  -3.982   5.695  1.00  0.00     0.278 C 
ENDBRANCH   3  10
BRANCH   4  12
ATOM     12  O   UNL     1      -1.554  -6.795   5.308  1.00  0.00    -0.504 OA
ATOM     13  H   UNL     1      -1.914  -6.753   6.255  1.00  0.00     0.293 HD
ENDBRANCH   4  12
TORSDOF 3
ENDMDL
MODEL 6
REMARK VINA RESULT:    -3.836     12.354     14.260
REMARK INTER + INTRA:          -4.618
REMARK INTER:                  -5.190
REMARK INTRA:                   0.571
REMARK UNBOUND:                -0.222
REMARK SMILES CC=Cc1ccc(O)c(OC)c1
REMARK SMILES IDX 4 1 12 2 9 3 7 4 6 5 5 6 3 7 1 8 2 9 10 10 11 11 8 12
REMARK H PARENT 8 13
REMARK Flexibility Score: inf
ROOT
ATOM      1  C   UNL     1       2.660  -8.712   4.060  1.00  0.00    -0.022 A 
ATOM      2  C   UNL     1       1.280  -8.947   3.985  1.00  0.00     0.058 A 
ATOM      3  C   UNL     1       0.361  -8.002   4.486  1.00  0.00     0.161 A 
ATOM      4  C   UNL     1       0.847  -6.824   5.084  1.00  0.00     0.157 A 
ATOM      5  C   UNL     1       2.224  -6.605   5.183  1.00  0.00     0.051 A 
ATOM      6  C   UNL     1       3.127  -7.545   4.684  1.00  0.00     0.012 A 
ENDROOT
BRANCH   1   7
ATOM      7  C   UNL     1       3.594  -9.737   3.550  1.00  0.00     0.003 C 
ATOM      8  C   UNL     1       5.593  -8.219   3.545  1.00  0.00     0.035 C 
ATOM      9  C   UNL     1       4.903  -9.534   3.339  1.00  0.00    -0.030 C 
ENDBRANCH   1   7
BRANCH   3  10
ATOM     10  O   UNL     1      -1.026  -8.201   4.409  1.00  0.00    -0.493 OA
ATOM     11  C   UNL     1      -1.763  -9.086   5.246  1.00  0.00     0.278 C 
ENDBRANCH   3  10
BRANCH   4  12
ATOM     12  O   UNL     1      -0.025  -5.861   5.591  1.00  0.00    -0.504 OA
ATOM     13  H   UNL     1       0.033  -5.530   6.547  1.00  0.00     0.293 HD
ENDBRANCH   4  12
TORSDOF 3
ENDMDL
MODEL 7
REMARK VINA RESULT:    -3.800      2.783      4.593
REMARK INTER + INTRA:          -4.577
REMARK INTER:                  -4.370
REMARK INTRA:                  -0.207
REMARK UNBOUND:                -0.222
REMARK SMILES CC=Cc1ccc(O)c(OC)c1
REMARK SMILES IDX 4 1 12 2 9 3 7 4 6 5 5 6 3 7 1 8 2 9 10 10 11 11 8 12
REMARK H PARENT 8 13
REMARK Flexibility Score: inf
ROOT
ATOM      1  C   UNL     1       5.458   4.752   6.501  1.00  0.00    -0.022 A 
ATOM      2  C   UNL     1       5.159   3.390   6.641  1.00  0.00     0.058 A 
ATOM      3  C   UNL     1       4.186   2.780   5.822  1.00  0.00     0.161 A 
ATOM      4  C   UNL     1       3.500   3.562   4.873  1.00  0.00     0.157 A 
ATOM      5  C   UNL     1       3.781   4.926   4.756  1.00  0.00     0.051 A 
ATOM      6  C   UNL     1       4.746   5.522   5.570  1.00  0.00     0.012 A 
ENDROOT
BRANCH   1   7
ATOM      7  C   UNL     1       6.465   5.364   7.395  1.00  0.00     0.003 C 
ATOM      8  C   UNL     1       8.438   4.596   6.048  1.00  0.00     0.035 C 
ATOM      9  C   UNL     1       7.789   5.319   7.190  1.00  0.00    -0.030 C 
ENDBRANCH   1   7
BRANCH   3  10
ATOM     10  O   UNL     1       3.877   1.414   5.926  1.00  0.00    -0.493 OA
ATOM     11  C   UNL     1       3.259   0.809   7.057  1.00  0.00     0.278 C 
ENDBRANCH   3  10
BRANCH   4  12
ATOM     12  O   UNL     1       2.532   3.000   4.042  1.00  0.00    -0.504 OA
ATOM     13  H   UNL     1       1.664   2.622   4.403  1.00  0.00     0.293 HD
ENDBRANCH   4  12
TORSDOF 3
ENDMDL
MODEL 8
REMARK VINA RESULT:    -3.763      2.374      4.233
REMARK INTER + INTRA:          -4.534
REMARK INTER:                  -4.305
REMARK INTRA:                  -0.229
REMARK UNBOUND:                -0.222
REMARK SMILES CC=Cc1ccc(O)c(OC)c1
REMARK SMILES IDX 4 1 12 2 9 3 7 4 6 5 5 6 3 7 1 8 2 9 10 10 11 11 8 12
REMARK H PARENT 8 13
REMARK Flexibility Score: inf
ROOT
ATOM      1  C   UNL     1       7.526   2.693   5.858  1.00  0.00    -0.022 A 
ATOM      2  C   UNL     1       6.365   3.236   5.291  1.00  0.00     0.058 A 
ATOM      3  C   UNL     1       6.133   4.627   5.322  1.00  0.00     0.161 A 
ATOM      4  C   UNL     1       7.073   5.465   5.951  1.00  0.00     0.157 A 
ATOM      5  C   UNL     1       8.215   4.917   6.541  1.00  0.00     0.051 A 
ATOM      6  C   UNL     1       8.439   3.540   6.505  1.00  0.00     0.012 A 
ENDROOT
BRANCH   1   7
ATOM      7  C   UNL     1       7.724   1.228   5.831  1.00  0.00     0.003 C 
ATOM      8  C   UNL     1       9.261   1.259   3.848  1.00  0.00     0.035 C 
ATOM      9  C   UNL     1       8.509   0.585   4.955  1.00  0.00    -0.030 C 
ENDBRANCH   1   7
BRANCH   3  10
ATOM     10  O   UNL     1       4.989   5.202   4.747  1.00  0.00    -0.493 OA
ATOM     11  C   UNL     1       3.681   4.642   4.814  1.00  0.00     0.278 C 
ENDBRANCH   3  10
BRANCH   4  12
ATOM     12  O   UNL     1       6.885   6.846   6.004  1.00  0.00    -0.504 OA
ATOM     13  H   UNL     1       5.965   7.262   6.099  1.00  0.00     0.293 HD
ENDBRANCH   4  12
TORSDOF 3
ENDMDL
MODEL 9
REMARK VINA RESULT:    -3.716     11.277     13.485
REMARK INTER + INTRA:          -4.480
REMARK INTER:                  -4.266
REMARK INTRA:                  -0.214
REMARK UNBOUND:                -0.222
REMARK SMILES CC=Cc1ccc(O)c(OC)c1
REMARK SMILES IDX 4 1 12 2 9 3 7 4 6 5 5 6 3 7 1 8 2 9 10 10 11 11 8 12
REMARK H PARENT 8 13
REMARK Flexibility Score: inf
ROOT
ATOM      1  C   UNL     1       2.154  -8.351   4.240  1.00  0.00    -0.022 A 
ATOM      2  C   UNL     1       2.850  -7.275   4.810  1.00  0.00     0.058 A 
ATOM      3  C   UNL     1       4.257  -7.210   4.737  1.00  0.00     0.161 A 
ATOM      4  C   UNL     1       4.960  -8.252   4.103  1.00  0.00     0.157 A 
ATOM      5  C   UNL     1       4.265  -9.337   3.561  1.00  0.00     0.051 A 
ATOM      6  C   UNL     1       2.872  -9.394   3.637  1.00  0.00     0.012 A 
ENDROOT
BRANCH   1   7
ATOM      7  C   UNL     1       0.682  -8.399   4.359  1.00  0.00     0.003 C 
ATOM      8  C   UNL     1       0.685  -9.706   6.502  1.00  0.00     0.035 C 
ATOM      9  C   UNL     1       0.020  -8.980   5.371  1.00  0.00    -0.030 C 
ENDBRANCH   1   7
BRANCH   3  10
ATOM     10  O   UNL     1       4.980  -6.137   5.282  1.00  0.00    -0.493 OA
ATOM     11  C   UNL     1       4.394  -4.957   5.820  1.00  0.00     0.278 C 
ENDBRANCH   3  10
BRANCH   4  12
ATOM     12  O   UNL     1       6.350  -8.228   4.006  1.00  0.00    -0.504 OA
ATOM     13  H   UNL     1       6.829  -8.194   3.113  1.00  0.00     0.293 HD
ENDBRANCH   4  12
TORSDOF 3
ENDMDL
