MODEL 1
REMARK VINA RESULT:    -4.635      0.000      0.000
REMARK INTER + INTRA:          -9.279
REMARK INTER:                  -7.074
REMARK INTRA:                  -2.204
REMARK UNBOUND:                -2.204
REMARK SMILES CC(=O)CCC=C(C)CCC=C(C)CCC=C(C)C
REMARK SMILES IDX 10 1 11 2 12 3 13 4 14 5 15 6 16 7 18 8 17 9 19 10 9 11 7 12
REMARK SMILES IDX 6 13 8 14 5 15 4 16 2 17 3 18 1 19
REMARK H PARENT
REMARK Flexibility Score: inf
ROOT
ATOM      1  C   UNL     1      24.667  -2.968  54.659  1.00  0.00     0.032 C 
ENDROOT
BRANCH   1   2
ATOM      2  C   UNL     1      24.939  -4.232  55.442  1.00  0.00    -0.028 C 
ATOM      3  C   UNL     1      26.147  -4.589  55.936  1.00  0.00    -0.077 C 
ATOM      4  C   UNL     1      27.387  -3.762  55.699  1.00  0.00     0.039 C 
BRANCH   3   5
ATOM      5  C   UNL     1      26.259  -5.866  56.743  1.00  0.00     0.034 C 
BRANCH   5   6
ATOM      6  C   UNL     1      26.532  -5.578  58.224  1.00  0.00     0.032 C 
BRANCH   6   7
ATOM      7  C   UNL     1      25.270  -5.145  58.934  1.00  0.00    -0.028 C 
ATOM      8  C   UNL     1      25.996  -2.757  59.166  1.00  0.00     0.039 C 
ATOM      9  C   UNL     1      25.004  -3.882  59.338  1.00  0.00    -0.080 C 
ATOM     10  C   UNL     1      23.670  -3.601  59.979  1.00  0.00     0.039 C 
ENDBRANCH   6   7
ENDBRANCH   5   6
ENDBRANCH   3   5
ENDBRANCH   1   2
BRANCH   1  11
ATOM     11  C   UNL     1      24.665  -3.242  53.150  1.00  0.00     0.034 C 
BRANCH  11  12
ATOM     12  C   UNL     1      25.921  -2.718  52.476  1.00  0.00    -0.077 C 
ATOM     13  C   UNL     1      26.832  -3.524  51.882  1.00  0.00    -0.028 C 
ATOM     14  C   UNL     1      26.180  -1.233  52.479  1.00  0.00     0.039 C 
BRANCH  13  15
ATOM     15  C   UNL     1      26.714  -5.023  51.732  1.00  0.00     0.035 C 
BRANCH  15  16
ATOM     16  C   UNL     1      27.777  -5.744  52.567  1.00  0.00     0.079 C 
BRANCH  16  17
ATOM     17  C   UNL     1      29.160  -5.526  52.009  1.00  0.00     0.130 C 
ATOM     18  O   UNL     1      29.413  -5.892  50.871  1.00  0.00    -0.300 OA
ATOM     19  C   UNL     1      30.232  -4.864  52.821  1.00  0.00     0.087 C 
ENDBRANCH  16  17
ENDBRANCH  15  16
ENDBRANCH  13  15
ENDBRANCH  11  12
ENDBRANCH   1  11
TORSDOF 9
ENDMDL
MODEL 2
REMARK VINA RESULT:    -4.565     10.387     12.964
REMARK INTER + INTRA:          -9.172
REMARK INTER:                  -6.646
REMARK INTRA:                  -2.526
REMARK UNBOUND:                -2.204
REMARK SMILES CC(=O)CCC=C(C)CCC=C(C)CCC=C(C)C
REMARK SMILES IDX 10 1 11 2 12 3 13 4 14 5 15 6 16 7 18 8 17 9 19 10 9 11 7 12
REMARK SMILES IDX 6 13 8 14 5 15 4 16 2 17 3 18 1 19
REMARK H PARENT
REMARK Flexibility Score: inf
ROOT
ATOM      1  C   UNL     1      14.350  -1.816  61.650  1.00  0.00     0.032 C 
ENDROOT
BRANCH   1   2
ATOM      2  C   UNL     1      14.458  -0.869  60.478  1.00  0.00    -0.028 C 
ATOM      3  C   UNL     1      14.651   0.466  60.579  1.00  0.00    -0.077 C 
ATOM      4  C   UNL     1      14.723   1.167  61.914  1.00  0.00     0.039 C 
BRANCH   3   5
ATOM      5  C   UNL     1      14.786   1.284  59.311  1.00  0.00     0.034 C 
BRANCH   5   6
ATOM      6  C   UNL     1      15.128   0.405  58.103  1.00  0.00     0.032 C 
BRANCH   6   7
ATOM      7  C   UNL     1      16.079   1.115  57.167  1.00  0.00    -0.028 C 
ATOM      8  C   UNL     1      17.145  -0.999  56.345  1.00  0.00     0.039 C 
ATOM      9  C   UNL     1      16.968   0.500  56.355  1.00  0.00    -0.080 C 
ATOM     10  C   UNL     1      17.803   1.351  55.433  1.00  0.00     0.039 C 
ENDBRANCH   6   7
ENDBRANCH   5   6
ENDBRANCH   3   5
ENDBRANCH   1   2
BRANCH   1  11
ATOM     11  C   UNL     1      15.731  -2.335  62.071  1.00  0.00     0.034 C 
BRANCH  11  12
ATOM     12  C   UNL     1      16.538  -2.828  60.884  1.00  0.00    -0.077 C 
ATOM     13  C   UNL     1      17.564  -2.129  60.345  1.00  0.00    -0.028 C 
ATOM     14  C   UNL     1      16.175  -4.152  60.261  1.00  0.00     0.039 C 
BRANCH  13  15
ATOM     15  C   UNL     1      18.104  -0.818  60.868  1.00  0.00     0.035 C 
BRANCH  15  16
ATOM     16  C   UNL     1      18.573   0.080  59.718  1.00  0.00     0.079 C 
BRANCH  16  17
ATOM     17  C   UNL     1      18.460   1.539  60.075  1.00  0.00     0.130 C 
ATOM     18  O   UNL     1      18.583   2.383  59.199  1.00  0.00    -0.300 OA
ATOM     19  C   UNL     1      18.194   1.978  61.482  1.00  0.00     0.087 C 
ENDBRANCH  16  17
ENDBRANCH  15  16
ENDBRANCH  13  15
ENDBRANCH  11  12
ENDBRANCH   1  11
TORSDOF 9
ENDMDL
MODEL 3
REMARK VINA RESULT:    -4.564      9.429     12.289
REMARK INTER + INTRA:          -9.169
REMARK INTER:                  -7.075
REMARK INTRA:                  -2.094
REMARK UNBOUND:                -2.204
REMARK SMILES CC(=O)CCC=C(C)CCC=C(C)CCC=C(C)C
REMARK SMILES IDX 10 1 11 2 12 3 13 4 14 5 15 6 16 7 18 8 17 9 19 10 9 11 7 12
REMARK SMILES IDX 6 13 8 14 5 15 4 16 2 17 3 18 1 19
REMARK H PARENT
REMARK Flexibility Score: inf
ROOT
ATOM      1  C   UNL     1      15.266  -2.278  60.799  1.00  0.00     0.032 C 
ENDROOT
BRANCH   1   2
ATOM      2  C   UNL     1      14.854  -1.007  60.094  1.00  0.00    -0.028 C 
ATOM      3  C   UNL     1      15.262   0.236  60.440  1.00  0.00    -0.077 C 
ATOM      4  C   UNL     1      16.150   0.484  61.636  1.00  0.00     0.039 C 
BRANCH   3   5
ATOM      5  C   UNL     1      14.802   1.416  59.610  1.00  0.00     0.034 C 
BRANCH   5   6
ATOM      6  C   UNL     1      14.822   1.096  58.110  1.00  0.00     0.032 C 
BRANCH   6   7
ATOM      7  C   UNL     1      16.132   1.515  57.483  1.00  0.00    -0.028 C 
ATOM      8  C   UNL     1      16.865  -0.831  56.994  1.00  0.00     0.039 C 
ATOM      9  C   UNL     1      17.043   0.667  56.956  1.00  0.00    -0.080 C 
ATOM     10  C   UNL     1      18.273   1.250  56.310  1.00  0.00     0.039 C 
ENDBRANCH   6   7
ENDBRANCH   5   6
ENDBRANCH   3   5
ENDBRANCH   1   2
BRANCH   1  11
ATOM     11  C   UNL     1      16.465  -2.933  60.102  1.00  0.00     0.034 C 
BRANCH  11  12
ATOM     12  C   UNL     1      17.083  -4.031  60.949  1.00  0.00    -0.077 C 
ATOM     13  C   UNL     1      18.000  -3.792  61.915  1.00  0.00    -0.028 C 
ATOM     14  C   UNL     1      16.672  -5.459  60.697  1.00  0.00     0.039 C 
BRANCH  13  15
ATOM     15  C   UNL     1      18.487  -2.427  62.345  1.00  0.00     0.035 C 
BRANCH  15  16
ATOM     16  C   UNL     1      20.009  -2.315  62.193  1.00  0.00     0.079 C 
BRANCH  16  17
ATOM     17  C   UNL     1      20.386  -1.477  61.000  1.00  0.00     0.130 C 
ATOM     18  O   UNL     1      21.538  -1.493  60.594  1.00  0.00    -0.300 OA
ATOM     19  C   UNL     1      19.374  -0.626  60.295  1.00  0.00     0.087 C 
ENDBRANCH  16  17
ENDBRANCH  15  16
ENDBRANCH  13  15
ENDBRANCH  11  12
ENDBRANCH   1  11
TORSDOF 9
ENDMDL
MODEL 4
REMARK VINA RESULT:    -4.521     10.642     12.389
REMARK INTER + INTRA:          -9.104
REMARK INTER:                  -6.350
REMARK INTRA:                  -2.754
REMARK UNBOUND:                -2.204
REMARK SMILES CC(=O)CCC=C(C)CCC=C(C)CCC=C(C)C
REMARK SMILES IDX 10 1 11 2 12 3 13 4 14 5 15 6 16 7 18 8 17 9 19 10 9 11 7 12
REMARK SMILES IDX 6 13 8 14 5 15 4 16 2 17 3 18 1 19
REMARK H PARENT
REMARK Flexibility Score: inf
ROOT
ATOM      1  C   UNL     1      18.582   1.369  57.271  1.00  0.00     0.032 C 
ENDROOT
BRANCH   1   2
ATOM      2  C   UNL     1      18.459   0.816  58.672  1.00  0.00    -0.028 C 
ATOM      3  C   UNL     1      18.886   1.445  59.791  1.00  0.00    -0.077 C 
ATOM      4  C   UNL     1      19.598   2.776  59.740  1.00  0.00     0.039 C 
BRANCH   3   5
ATOM      5  C   UNL     1      18.653   0.788  61.136  1.00  0.00     0.034 C 
BRANCH   5   6
ATOM      6  C   UNL     1      18.421  -0.721  60.996  1.00  0.00     0.032 C 
BRANCH   6   7
ATOM      7  C   UNL     1      17.077  -1.119  61.563  1.00  0.00    -0.028 C 
ATOM      8  C   UNL     1      16.438  -2.506  59.576  1.00  0.00     0.039 C 
ATOM      9  C   UNL     1      16.191  -1.937  60.952  1.00  0.00    -0.080 C 
ATOM     10  C   UNL     1      14.919  -2.286  61.680  1.00  0.00     0.039 C 
ENDBRANCH   6   7
ENDBRANCH   5   6
ENDBRANCH   3   5
ENDBRANCH   1   2
BRANCH   1  11
ATOM     11  C   UNL     1      17.205   1.515  56.612  1.00  0.00     0.034 C 
BRANCH  11  12
ATOM     12  C   UNL     1      16.398   0.231  56.691  1.00  0.00    -0.077 C 
ATOM     13  C   UNL     1      15.246   0.124  57.393  1.00  0.00    -0.028 C 
ATOM     14  C   UNL     1      16.907  -0.990  55.968  1.00  0.00     0.039 C 
BRANCH  13  15
ATOM     15  C   UNL     1      14.557   1.251  58.129  1.00  0.00     0.035 C 
BRANCH  15  16
ATOM     16  C   UNL     1      14.873   1.200  59.627  1.00  0.00     0.079 C 
BRANCH  16  17
ATOM     17  C   UNL     1      15.443   2.506  60.117  1.00  0.00     0.130 C 
ATOM     18  O   UNL     1      15.772   3.360  59.307  1.00  0.00    -0.300 OA
ATOM     19  C   UNL     1      15.611   2.782  61.580  1.00  0.00     0.087 C 
ENDBRANCH  16  17
ENDBRANCH  15  16
ENDBRANCH  13  15
ENDBRANCH  11  12
ENDBRANCH   1  11
TORSDOF 9
ENDMDL
MODEL 5
REMARK VINA RESULT:    -4.504     10.525     12.785
REMARK INTER + INTRA:          -9.078
REMARK INTER:                  -6.106
REMARK INTRA:                  -2.972
REMARK UNBOUND:                -2.204
REMARK SMILES CC(=O)CCC=C(C)CCC=C(C)CCC=C(C)C
REMARK SMILES IDX 10 1 11 2 12 3 13 4 14 5 15 6 16 7 18 8 17 9 19 10 9 11 7 12
REMARK SMILES IDX 6 13 8 14 5 15 4 16 2 17 3 18 1 19
REMARK H PARENT
REMARK Flexibility Score: inf
ROOT
ATOM      1  C   UNL     1      17.529   3.755  60.483  1.00  0.00     0.032 C 
ENDROOT
BRANCH   1   2
ATOM      2  C   UNL     1      16.495   2.854  59.850  1.00  0.00    -0.028 C 
ATOM      3  C   UNL     1      15.612   2.092  60.535  1.00  0.00    -0.077 C 
ATOM      4  C   UNL     1      15.612   2.023  62.043  1.00  0.00     0.039 C 
BRANCH   3   5
ATOM      5  C   UNL     1      14.598   1.272  59.763  1.00  0.00     0.034 C 
BRANCH   5   6
ATOM      6  C   UNL     1      14.734   1.482  58.250  1.00  0.00     0.032 C 
BRANCH   6   7
ATOM      7  C   UNL     1      15.371   0.282  57.590  1.00  0.00    -0.028 C 
ATOM      8  C   UNL     1      17.151   1.622  56.441  1.00  0.00     0.039 C 
ATOM      9  C   UNL     1      16.468   0.324  56.800  1.00  0.00    -0.080 C 
ATOM     10  C   UNL     1      17.017  -0.974  56.267  1.00  0.00     0.039 C 
ENDBRANCH   6   7
ENDBRANCH   5   6
ENDBRANCH   3   5
ENDBRANCH   1   2
BRANCH   1  11
ATOM     11  C   UNL     1      18.791   2.967  60.862  1.00  0.00     0.034 C 
BRANCH  11  12
ATOM     12  C   UNL     1      19.348   2.188  59.684  1.00  0.00    -0.077 C 
ATOM     13  C   UNL     1      19.333   0.836  59.618  1.00  0.00    -0.028 C 
ATOM     14  C   UNL     1      19.960   2.949  58.536  1.00  0.00     0.039 C 
BRANCH  13  15
ATOM     15  C   UNL     1      18.713  -0.086  60.642  1.00  0.00     0.035 C 
BRANCH  15  16
ATOM     16  C   UNL     1      17.752  -1.077  59.977  1.00  0.00     0.079 C 
BRANCH  16  17
ATOM     17  C   UNL     1      16.694  -1.553  60.939  1.00  0.00     0.130 C 
ATOM     18  O   UNL     1      16.830  -1.342  62.134  1.00  0.00    -0.300 OA
ATOM     19  C   UNL     1      15.473  -2.276  60.457  1.00  0.00     0.087 C 
ENDBRANCH  16  17
ENDBRANCH  15  16
ENDBRANCH  13  15
ENDBRANCH  11  12
ENDBRANCH   1  11
TORSDOF 9
ENDMDL
MODEL 6
REMARK VINA RESULT:    -4.473      9.548     12.073
REMARK INTER + INTRA:          -9.031
REMARK INTER:                  -6.313
REMARK INTRA:                  -2.718
REMARK UNBOUND:                -2.204
REMARK SMILES CC(=O)CCC=C(C)CCC=C(C)CCC=C(C)C
REMARK SMILES IDX 10 1 11 2 12 3 13 4 14 5 15 6 16 7 18 8 17 9 19 10 9 11 7 12
REMARK SMILES IDX 6 13 8 14 5 15 4 16 2 17 3 18 1 19
REMARK H PARENT
REMARK Flexibility Score: inf
ROOT
ATOM      1  C   UNL     1      16.414   0.072  56.486  1.00  0.00     0.032 C 
ENDROOT
BRANCH   1   2
ATOM      2  C   UNL     1      17.548  -0.431  57.348  1.00  0.00    -0.028 C 
ATOM      3  C   UNL     1      18.665   0.274  57.644  1.00  0.00    -0.077 C 
ATOM      4  C   UNL     1      18.917   1.651  57.079  1.00  0.00     0.039 C 
BRANCH   3   5
ATOM      5  C   UNL     1      19.699  -0.345  58.562  1.00  0.00     0.034 C 
BRANCH   5   6
ATOM      6  C   UNL     1      20.072   0.598  59.712  1.00  0.00     0.032 C 
BRANCH   6   7
ATOM      7  C   UNL     1      19.011   0.587  60.788  1.00  0.00    -0.028 C 
ATOM      8  C   UNL     1      18.531   3.040  60.605  1.00  0.00     0.039 C 
ATOM      9  C   UNL     1      18.295   1.664  61.181  1.00  0.00    -0.080 C 
ATOM     10  C   UNL     1      17.228   1.473  62.227  1.00  0.00     0.039 C 
ENDBRANCH   6   7
ENDBRANCH   5   6
ENDBRANCH   3   5
ENDBRANCH   1   2
BRANCH   1  11
ATOM     11  C   UNL     1      15.096   0.109  57.272  1.00  0.00     0.034 C 
BRANCH  11  12
ATOM     12  C   UNL     1      15.214   0.935  58.540  1.00  0.00    -0.077 C 
ATOM     13  C   UNL     1      15.064   0.414  59.780  1.00  0.00    -0.028 C 
ATOM     14  C   UNL     1      15.498   2.411  58.419  1.00  0.00     0.039 C 
BRANCH  13  15
ATOM     15  C   UNL     1      14.834  -1.046  60.096  1.00  0.00     0.035 C 
BRANCH  15  16
ATOM     16  C   UNL     1      16.152  -1.746  60.442  1.00  0.00     0.079 C 
BRANCH  16  17
ATOM     17  C   UNL     1      15.916  -3.128  60.996  1.00  0.00     0.130 C 
ATOM     18  O   UNL     1      16.851  -3.911  61.077  1.00  0.00    -0.300 OA
ATOM     19  C   UNL     1      14.558  -3.560  61.456  1.00  0.00     0.087 C 
ENDBRANCH  16  17
ENDBRANCH  15  16
ENDBRANCH  13  15
ENDBRANCH  11  12
ENDBRANCH   1  11
TORSDOF 9
ENDMDL
MODEL 7
REMARK VINA RESULT:    -4.462     10.757     12.979
REMARK INTER + INTRA:          -9.014
REMARK INTER:                  -6.700
REMARK INTRA:                  -2.314
REMARK UNBOUND:                -2.204
REMARK SMILES CC(=O)CCC=C(C)CCC=C(C)CCC=C(C)C
REMARK SMILES IDX 10 1 11 2 12 3 13 4 14 5 15 6 16 7 18 8 17 9 19 10 9 11 7 12
REMARK SMILES IDX 6 13 8 14 5 15 4 16 2 17 3 18 1 19
REMARK H PARENT
REMARK Flexibility Score: inf
ROOT
ATOM      1  C   UNL     1      15.138   0.140  57.868  1.00  0.00     0.032 C 
ENDROOT
BRANCH   1   2
ATOM      2  C   UNL     1      16.328   0.919  57.356  1.00  0.00    -0.028 C 
ATOM      3  C   UNL     1      17.200   0.473  56.423  1.00  0.00    -0.077 C 
ATOM      4  C   UNL     1      17.097  -0.910  55.825  1.00  0.00     0.039 C 
BRANCH   3   5
ATOM      5  C   UNL     1      18.321   1.386  55.973  1.00  0.00     0.034 C 
BRANCH   5   6
ATOM      6  C   UNL     1      17.850   2.377  54.902  1.00  0.00     0.032 C 
BRANCH   6   7
ATOM      7  C   UNL     1      18.262   3.789  55.248  1.00  0.00    -0.028 C 
ATOM      8  C   UNL     1      16.053   4.383  56.271  1.00  0.00     0.039 C 
ATOM      9  C   UNL     1      17.480   4.689  55.884  1.00  0.00    -0.080 C 
ATOM     10  C   UNL     1      18.062   6.039  56.212  1.00  0.00     0.039 C 
ENDBRANCH   6   7
ENDBRANCH   5   6
ENDBRANCH   3   5
ENDBRANCH   1   2
BRANCH   1  11
ATOM     11  C   UNL     1      15.141   0.069  59.400  1.00  0.00     0.034 C 
BRANCH  11  12
ATOM     12  C   UNL     1      16.244  -0.833  59.925  1.00  0.00    -0.077 C 
ATOM     13  C   UNL     1      17.106  -0.457  60.899  1.00  0.00    -0.028 C 
ATOM     14  C   UNL     1      16.404  -2.207  59.326  1.00  0.00     0.039 C 
BRANCH  13  15
ATOM     15  C   UNL     1      17.063   0.853  61.651  1.00  0.00     0.035 C 
BRANCH  15  16
ATOM     16  C   UNL     1      18.196   1.781  61.200  1.00  0.00     0.079 C 
BRANCH  16  17
ATOM     17  C   UNL     1      17.709   2.809  60.212  1.00  0.00     0.130 C 
ATOM     18  O   UNL     1      16.553   3.199  60.271  1.00  0.00    -0.300 OA
ATOM     19  C   UNL     1      18.617   3.367  59.159  1.00  0.00     0.087 C 
ENDBRANCH  16  17
ENDBRANCH  15  16
ENDBRANCH  13  15
ENDBRANCH  11  12
ENDBRANCH   1  11
TORSDOF 9
ENDMDL
MODEL 8
REMARK VINA RESULT:    -4.456      9.522     12.920
REMARK INTER + INTRA:          -9.005
REMARK INTER:                  -6.522
REMARK INTRA:                  -2.484
REMARK UNBOUND:                -2.204
REMARK SMILES CC(=O)CCC=C(C)CCC=C(C)CCC=C(C)C
REMARK SMILES IDX 10 1 11 2 12 3 13 4 14 5 15 6 16 7 18 8 17 9 19 10 9 11 7 12
REMARK SMILES IDX 6 13 8 14 5 15 4 16 2 17 3 18 1 19
REMARK H PARENT
REMARK Flexibility Score: inf
ROOT
ATOM      1  C   UNL     1      15.517   1.133  60.986  1.00  0.00     0.032 C 
ENDROOT
BRANCH   1   2
ATOM      2  C   UNL     1      16.015   2.085  59.923  1.00  0.00    -0.028 C 
ATOM      3  C   UNL     1      15.633   2.062  58.626  1.00  0.00    -0.077 C 
ATOM      4  C   UNL     1      14.686   1.017  58.087  1.00  0.00     0.039 C 
BRANCH   3   5
ATOM      5  C   UNL     1      16.182   3.112  57.682  1.00  0.00     0.034 C 
BRANCH   5   6
ATOM      6  C   UNL     1      16.897   2.477  56.483  1.00  0.00     0.032 C 
BRANCH   6   7
ATOM      7  C   UNL     1      18.100   1.679  56.930  1.00  0.00    -0.028 C 
ATOM      8  C   UNL     1      17.296  -0.461  55.902  1.00  0.00     0.039 C 
ATOM      9  C   UNL     1      18.306   0.371  56.655  1.00  0.00    -0.080 C 
ATOM     10  C   UNL     1      19.590  -0.265  57.121  1.00  0.00     0.039 C 
ENDBRANCH   6   7
ENDBRANCH   5   6
ENDBRANCH   3   5
ENDBRANCH   1   2
BRANCH   1  11
ATOM     11  C   UNL     1      16.686   0.451  61.709  1.00  0.00     0.034 C 
BRANCH  11  12
ATOM     12  C   UNL     1      17.710  -0.103  60.734  1.00  0.00    -0.077 C 
ATOM     13  C   UNL     1      17.472  -1.172  59.940  1.00  0.00    -0.028 C 
ATOM     14  C   UNL     1      19.064   0.555  60.653  1.00  0.00     0.039 C 
BRANCH  13  15
ATOM     15  C   UNL     1      16.162  -1.920  59.844  1.00  0.00     0.035 C 
BRANCH  15  16
ATOM     16  C   UNL     1      16.239  -3.260  60.584  1.00  0.00     0.079 C 
BRANCH  16  17
ATOM     17  C   UNL     1      15.777  -3.131  62.012  1.00  0.00     0.130 C 
ATOM     18  O   UNL     1      14.580  -3.095  62.255  1.00  0.00    -0.300 OA
ATOM     19  C   UNL     1      16.756  -3.051  63.143  1.00  0.00     0.087 C 
ENDBRANCH  16  17
ENDBRANCH  15  16
ENDBRANCH  13  15
ENDBRANCH  11  12
ENDBRANCH   1  11
TORSDOF 9
ENDMDL
MODEL 9
REMARK VINA RESULT:    -4.410     10.059     12.146
REMARK INTER + INTRA:          -8.935
REMARK INTER:                  -6.657
REMARK INTRA:                  -2.278
REMARK UNBOUND:                -2.204
REMARK SMILES CC(=O)CCC=C(C)CCC=C(C)CCC=C(C)C
REMARK SMILES IDX 10 1 11 2 12 3 13 4 14 5 15 6 16 7 18 8 17 9 19 10 9 11 7 12
REMARK SMILES IDX 6 13 8 14 5 15 4 16 2 17 3 18 1 19
REMARK H PARENT
REMARK Flexibility Score: inf
ROOT
ATOM      1  C   UNL     1      14.902   1.467  57.762  1.00  0.00     0.032 C 
ENDROOT
BRANCH   1   2
ATOM      2  C   UNL     1      15.409   0.304  58.581  1.00  0.00    -0.028 C 
ATOM      3  C   UNL     1      16.272  -0.638  58.135  1.00  0.00    -0.077 C 
ATOM      4  C   UNL     1      16.784  -0.647  56.714  1.00  0.00     0.039 C 
BRANCH   3   5
ATOM      5  C   UNL     1      16.730  -1.723  59.088  1.00  0.00     0.034 C 
BRANCH   5   6
ATOM      6  C   UNL     1      16.185  -1.500  60.504  1.00  0.00     0.032 C 
BRANCH   6   7
ATOM      7  C   UNL     1      15.341  -2.671  60.951  1.00  0.00    -0.028 C 
ATOM      8  C   UNL     1      13.509  -1.237  61.882  1.00  0.00     0.039 C 
ATOM      9  C   UNL     1      14.131  -2.570  61.545  1.00  0.00    -0.080 C 
ATOM     10  C   UNL     1      13.387  -3.839  61.875  1.00  0.00     0.039 C 
ENDBRANCH   6   7
ENDBRANCH   5   6
ENDBRANCH   3   5
ENDBRANCH   1   2
BRANCH   1  11
ATOM     11  C   UNL     1      15.591   2.775  58.173  1.00  0.00     0.034 C 
BRANCH  11  12
ATOM     12  C   UNL     1      16.863   3.020  57.382  1.00  0.00    -0.077 C 
ATOM     13  C   UNL     1      18.101   2.873  57.909  1.00  0.00    -0.028 C 
ATOM     14  C   UNL     1      16.750   3.463  55.946  1.00  0.00     0.039 C 
BRANCH  13  15
ATOM     15  C   UNL     1      18.409   2.384  59.305  1.00  0.00     0.035 C 
BRANCH  15  16
ATOM     16  C   UNL     1      19.348   1.173  59.268  1.00  0.00     0.079 C 
BRANCH  16  17
ATOM     17  C   UNL     1      19.318   0.409  60.566  1.00  0.00     0.130 C 
ATOM     18  O   UNL     1      18.625   0.815  61.487  1.00  0.00    -0.300 OA
ATOM     19  C   UNL     1      20.120  -0.843  60.751  1.00  0.00     0.087 C 
ENDBRANCH  16  17
ENDBRANCH  15  16
ENDBRANCH  13  15
ENDBRANCH  11  12
ENDBRANCH   1  11
TORSDOF 9
ENDMDL
