MODEL 1
REMARK VINA RESULT:    -4.606      0.000      0.000
REMARK INTER + INTRA:         -15.981
REMARK INTER:                 -11.607
REMARK INTRA:                  -4.374
REMARK UNBOUND:                -4.374
REMARK SMILES CCCCCCCCCCCCCCCCCCCCCCCCCCCC(=O)[O-]
REMARK SMILES IDX 15 1 16 2 17 3 18 4 19 5 20 6 21 7 22 8 23 9 24 10 25 11
REMARK SMILES IDX 26 12 27 13 28 14 29 15 30 16 14 17 13 18 12 19 11 20 10 21
REMARK SMILES IDX 9 22 8 23 7 24 6 25 5 26 4 27 3 28 2 29 1 30
REMARK H PARENT
REMARK Flexibility Score: inf
ROOT
ATOM      1  C   UNL     1      62.972  31.107  13.256  1.00  0.00     0.000 C 
ENDROOT
BRANCH   1   2
ATOM      2  C   UNL     1      62.251  32.087  12.313  1.00  0.00     0.000 C 
BRANCH   2   3
ATOM      3  C   UNL     1      60.839  32.448  12.799  1.00  0.00     0.000 C 
BRANCH   3   4
ATOM      4  C   UNL     1      60.711  32.409  14.332  1.00  0.00     0.000 C 
BRANCH   4   5
ATOM      5  C   UNL     1      61.032  33.756  15.001  1.00  0.00     0.000 C 
BRANCH   5   6
ATOM      6  C   UNL     1      61.530  33.642  16.457  1.00  0.00     0.000 C 
BRANCH   6   7
ATOM      7  C   UNL     1      62.960  34.183  16.645  1.00  0.00     0.000 C 
BRANCH   7   8
ATOM      8  C   UNL     1      63.994  33.443  15.785  1.00  0.00     0.000 C 
BRANCH   8   9
ATOM      9  C   UNL     1      65.049  34.385  15.178  1.00  0.00     0.000 C 
BRANCH   9  10
ATOM     10  C   UNL     1      66.472  34.064  15.680  1.00  0.00     0.000 C 
BRANCH  10  11
ATOM     11  C   UNL     1      66.519  33.574  17.139  1.00  0.00     0.000 C 
BRANCH  11  12
ATOM     12  C   UNL     1      66.936  34.674  18.130  1.00  0.00     0.006 C 
BRANCH  12  13
ATOM     13  C   UNL     1      65.726  35.399  18.735  1.00  0.00     0.053 C 
BRANCH  13  14
ATOM     14  C   UNL     1      65.236  34.719  19.978  1.00  0.00     0.041 C 
ATOM     15  O   UNL     1      66.014  34.540  20.952  1.00  0.00    -0.550 OA
ATOM     16  O   UNL     1      63.929  34.254  20.045  1.00  0.00    -0.550 OA
ENDBRANCH  13  14
ENDBRANCH  12  13
ENDBRANCH  11  12
ENDBRANCH  10  11
ENDBRANCH   9  10
ENDBRANCH   8   9
ENDBRANCH   7   8
ENDBRANCH   6   7
ENDBRANCH   5   6
ENDBRANCH   4   5
ENDBRANCH   3   4
ENDBRANCH   2   3
ENDBRANCH   1   2
BRANCH   1  17
ATOM     17  C   UNL     1      62.778  29.641  12.835  1.00  0.00     0.000 C 
BRANCH  17  18
ATOM     18  C   UNL     1      61.757  28.903  13.719  1.00  0.00     0.000 C 
BRANCH  18  19
ATOM     19  C   UNL     1      60.623  28.252  12.903  1.00  0.00     0.000 C 
BRANCH  19  20
ATOM     20  C   UNL     1      59.940  29.193  11.892  1.00  0.00     0.000 C 
BRANCH  20  21
ATOM     21  C   UNL     1      60.172  28.771  10.434  1.00  0.00     0.000 C 
BRANCH  21  22
ATOM     22  C   UNL     1      60.323  29.995   9.521  1.00  0.00    -0.000 C 
BRANCH  22  23
ATOM     23  C   UNL     1      61.791  30.204   9.121  1.00  0.00    -0.000 C 
BRANCH  23  24
ATOM     24  C   UNL     1      62.594  28.885   9.109  1.00  0.00    -0.000 C 
BRANCH  24  25
ATOM     25  C   UNL     1      64.115  29.089   9.189  1.00  0.00    -0.000 C 
BRANCH  25  26
ATOM     26  C   UNL     1      64.502  30.470   9.745  1.00  0.00    -0.000 C 
BRANCH  26  27
ATOM     27  C   UNL     1      65.731  31.066   9.026  1.00  0.00    -0.000 C 
BRANCH  27  28
ATOM     28  C   UNL     1      66.379  32.240   9.780  1.00  0.00    -0.000 C 
BRANCH  28  29
ATOM     29  C   UNL     1      65.495  32.784  10.909  1.00  0.00    -0.003 C 
ATOM     30  C   UNL     1      66.147  33.989  11.583  1.00  0.00     0.004 C 
ENDBRANCH  28  29
ENDBRANCH  27  28
ENDBRANCH  26  27
ENDBRANCH  25  26
ENDBRANCH  24  25
ENDBRANCH  23  24
ENDBRANCH  22  23
ENDBRANCH  21  22
ENDBRANCH  20  21
ENDBRANCH  19  20
ENDBRANCH  18  19
ENDBRANCH  17  18
ENDBRANCH   1  17
TORSDOF 26
ENDMDL
MODEL 2
REMARK VINA RESULT:    -4.153      7.364     12.645
REMARK INTER + INTRA:         -14.839
REMARK INTER:                 -11.228
REMARK INTRA:                  -3.611
REMARK UNBOUND:                -4.374
REMARK SMILES CCCCCCCCCCCCCCCCCCCCCCCCCCCC(=O)[O-]
REMARK SMILES IDX 15 1 16 2 17 3 18 4 19 5 20 6 21 7 22 8 23 9 24 10 25 11
REMARK SMILES IDX 26 12 27 13 28 14 29 15 30 16 14 17 13 18 12 19 11 20 10 21
REMARK SMILES IDX 9 22 8 23 7 24 6 25 5 26 4 27 3 28 2 29 1 30
REMARK H PARENT
REMARK Flexibility Score: inf
ROOT
ATOM      1  C   UNL     1      61.736  28.410  24.645  1.00  0.00     0.000 C 
ENDROOT
BRANCH   1   2
ATOM      2  C   UNL     1      62.387  29.774  24.931  1.00  0.00     0.000 C 
BRANCH   2   3
ATOM      3  C   UNL     1      63.636  30.027  24.073  1.00  0.00     0.000 C 
BRANCH   3   4
ATOM      4  C   UNL     1      64.282  31.396  24.353  1.00  0.00     0.000 C 
BRANCH   4   5
ATOM      5  C   UNL     1      64.906  32.038  23.103  1.00  0.00     0.000 C 
BRANCH   5   6
ATOM      6  C   UNL     1      64.101  33.220  22.525  1.00  0.00     0.000 C 
BRANCH   6   7
ATOM      7  C   UNL     1      64.853  33.968  21.406  1.00  0.00     0.000 C 
BRANCH   7   8
ATOM      8  C   UNL     1      63.969  34.255  20.184  1.00  0.00     0.000 C 
BRANCH   8   9
ATOM      9  C   UNL     1      64.753  34.226  18.861  1.00  0.00     0.000 C 
BRANCH   9  10
ATOM     10  C   UNL     1      63.853  34.529  17.645  1.00  0.00     0.000 C 
BRANCH  10  11
ATOM     11  C   UNL     1      62.370  34.184  17.871  1.00  0.00     0.000 C 
BRANCH  11  12
ATOM     12  C   UNL     1      61.538  34.227  16.578  1.00  0.00     0.006 C 
BRANCH  12  13
ATOM     13  C   UNL     1      62.072  33.260  15.512  1.00  0.00     0.053 C 
BRANCH  13  14
ATOM     14  C   UNL     1      61.206  32.043  15.384  1.00  0.00     0.041 C 
ATOM     15  O   UNL     1      61.624  30.923  15.780  1.00  0.00    -0.550 OA
ATOM     16  O   UNL     1      59.951  32.142  14.796  1.00  0.00    -0.550 OA
ENDBRANCH  13  14
ENDBRANCH  12  13
ENDBRANCH  11  12
ENDBRANCH  10  11
ENDBRANCH   9  10
ENDBRANCH   8   9
ENDBRANCH   7   8
ENDBRANCH   6   7
ENDBRANCH   5   6
ENDBRANCH   4   5
ENDBRANCH   3   4
ENDBRANCH   2   3
ENDBRANCH   1   2
BRANCH   1  17
ATOM     17  C   UNL     1      61.294  27.691  25.930  1.00  0.00     0.000 C 
BRANCH  17  18
ATOM     18  C   UNL     1      61.387  28.593  27.173  1.00  0.00     0.000 C 
BRANCH  18  19
ATOM     19  C   UNL     1      62.134  27.923  28.342  1.00  0.00     0.000 C 
BRANCH  19  20
ATOM     20  C   UNL     1      63.117  28.846  29.088  1.00  0.00     0.000 C 
BRANCH  20  21
ATOM     21  C   UNL     1      62.935  30.326  28.723  1.00  0.00     0.000 C 
BRANCH  21  22
ATOM     22  C   UNL     1      64.191  30.887  28.043  1.00  0.00    -0.000 C 
BRANCH  22  23
ATOM     23  C   UNL     1      65.350  29.881  28.116  1.00  0.00    -0.000 C 
BRANCH  23  24
ATOM     24  C   UNL     1      66.390  30.095  26.994  1.00  0.00    -0.000 C 
BRANCH  24  25
ATOM     25  C   UNL     1      66.366  29.000  25.916  1.00  0.00    -0.000 C 
BRANCH  25  26
ATOM     26  C   UNL     1      65.280  27.940  26.167  1.00  0.00    -0.000 C 
BRANCH  26  27
ATOM     27  C   UNL     1      65.535  26.642  25.370  1.00  0.00    -0.000 C 
BRANCH  27  28
ATOM     28  C   UNL     1      64.255  26.005  24.801  1.00  0.00    -0.000 C 
BRANCH  28  29
ATOM     29  C   UNL     1      64.189  26.065  23.269  1.00  0.00    -0.003 C 
ATOM     30  C   UNL     1      65.393  26.811  22.699  1.00  0.00     0.004 C 
ENDBRANCH  28  29
ENDBRANCH  27  28
ENDBRANCH  26  27
ENDBRANCH  25  26
ENDBRANCH  24  25
ENDBRANCH  23  24
ENDBRANCH  22  23
ENDBRANCH  21  22
ENDBRANCH  20  21
ENDBRANCH  19  20
ENDBRANCH  18  19
ENDBRANCH  17  18
ENDBRANCH   1  17
TORSDOF 26
ENDMDL
MODEL 3
REMARK VINA RESULT:    -4.091      2.081      6.166
REMARK INTER + INTRA:         -14.682
REMARK INTER:                 -10.215
REMARK INTRA:                  -4.467
REMARK UNBOUND:                -4.374
REMARK SMILES CCCCCCCCCCCCCCCCCCCCCCCCCCCC(=O)[O-]
REMARK SMILES IDX 15 1 16 2 17 3 18 4 19 5 20 6 21 7 22 8 23 9 24 10 25 11
REMARK SMILES IDX 26 12 27 13 28 14 29 15 30 16 14 17 13 18 12 19 11 20 10 21
REMARK SMILES IDX 9 22 8 23 7 24 6 25 5 26 4 27 3 28 2 29 1 30
REMARK H PARENT
REMARK Flexibility Score: inf
ROOT
ATOM      1  C   UNL     1      62.086  28.871   9.292  1.00  0.00     0.000 C 
ENDROOT
BRANCH   1   2
ATOM      2  C   UNL     1      61.287  30.178   9.439  1.00  0.00     0.000 C 
BRANCH   2   3
ATOM      3  C   UNL     1      60.219  30.100  10.540  1.00  0.00     0.000 C 
BRANCH   3   4
ATOM      4  C   UNL     1      60.119  28.701  11.173  1.00  0.00     0.000 C 
BRANCH   4   5
ATOM      5  C   UNL     1      60.484  28.684  12.667  1.00  0.00     0.000 C 
BRANCH   5   6
ATOM      6  C   UNL     1      61.981  28.447  12.953  1.00  0.00     0.000 C 
BRANCH   6   7
ATOM      7  C   UNL     1      62.597  29.530  13.861  1.00  0.00     0.000 C 
BRANCH   7   8
ATOM      8  C   UNL     1      64.091  29.754  13.590  1.00  0.00     0.000 C 
BRANCH   8   9
ATOM      9  C   UNL     1      64.465  31.245  13.512  1.00  0.00     0.000 C 
BRANCH   9  10
ATOM     10  C   UNL     1      63.293  32.113  13.010  1.00  0.00     0.000 C 
BRANCH  10  11
ATOM     11  C   UNL     1      63.178  33.471  13.724  1.00  0.00     0.000 C 
BRANCH  11  12
ATOM     12  C   UNL     1      62.741  33.344  15.194  1.00  0.00     0.006 C 
BRANCH  12  13
ATOM     13  C   UNL     1      61.228  33.528  15.367  1.00  0.00     0.053 C 
BRANCH  13  14
ATOM     14  C   UNL     1      60.498  32.220  15.302  1.00  0.00     0.041 C 
ATOM     15  O   UNL     1      59.644  32.014  14.400  1.00  0.00    -0.550 OA
ATOM     16  O   UNL     1      60.738  31.243  16.260  1.00  0.00    -0.550 OA
ENDBRANCH  13  14
ENDBRANCH  12  13
ENDBRANCH  11  12
ENDBRANCH  10  11
ENDBRANCH   9  10
ENDBRANCH   8   9
ENDBRANCH   7   8
ENDBRANCH   6   7
ENDBRANCH   5   6
ENDBRANCH   4   5
ENDBRANCH   3   4
ENDBRANCH   2   3
ENDBRANCH   1   2
BRANCH   1  17
ATOM     17  C   UNL     1      63.603  29.113   9.252  1.00  0.00     0.000 C 
BRANCH  17  18
ATOM     18  C   UNL     1      64.018  30.383  10.016  1.00  0.00     0.000 C 
BRANCH  18  19
ATOM     19  C   UNL     1      64.750  31.404   9.123  1.00  0.00     0.000 C 
BRANCH  19  20
ATOM     20  C   UNL     1      66.282  31.251   9.098  1.00  0.00     0.000 C 
BRANCH  20  21
ATOM     21  C   UNL     1      66.996  32.261  10.008  1.00  0.00     0.000 C 
BRANCH  21  22
ATOM     22  C   UNL     1      65.986  33.123  10.777  1.00  0.00    -0.000 C 
BRANCH  22  23
ATOM     23  C   UNL     1      66.572  34.508  11.091  1.00  0.00    -0.000 C 
BRANCH  23  24
ATOM     24  C   UNL     1      66.359  34.920  12.564  1.00  0.00    -0.000 C 
BRANCH  24  25
ATOM     25  C   UNL     1      67.116  34.035  13.567  1.00  0.00    -0.000 C 
BRANCH  25  26
ATOM     26  C   UNL     1      66.436  33.981  14.946  1.00  0.00    -0.000 C 
BRANCH  26  27
ATOM     27  C   UNL     1      66.183  35.389  15.528  1.00  0.00    -0.000 C 
BRANCH  27  28
ATOM     28  C   UNL     1      65.275  35.391  16.769  1.00  0.00    -0.000 C 
BRANCH  28  29
ATOM     29  C   UNL     1      65.417  34.117  17.614  1.00  0.00    -0.003 C 
ATOM     30  C   UNL     1      64.614  34.227  18.908  1.00  0.00     0.004 C 
ENDBRANCH  28  29
ENDBRANCH  27  28
ENDBRANCH  26  27
ENDBRANCH  25  26
ENDBRANCH  24  25
ENDBRANCH  23  24
ENDBRANCH  22  23
ENDBRANCH  21  22
ENDBRANCH  20  21
ENDBRANCH  19  20
ENDBRANCH  18  19
ENDBRANCH  17  18
ENDBRANCH   1  17
TORSDOF 26
ENDMDL
MODEL 4
REMARK VINA RESULT:    -4.059      6.944     12.210
REMARK INTER + INTRA:         -14.603
REMARK INTER:                 -12.145
REMARK INTRA:                  -2.458
REMARK UNBOUND:                -4.374
REMARK SMILES CCCCCCCCCCCCCCCCCCCCCCCCCCCC(=O)[O-]
REMARK SMILES IDX 15 1 16 2 17 3 18 4 19 5 20 6 21 7 22 8 23 9 24 10 25 11
REMARK SMILES IDX 26 12 27 13 28 14 29 15 30 16 14 17 13 18 12 19 11 20 10 21
REMARK SMILES IDX 9 22 8 23 7 24 6 25 5 26 4 27 3 28 2 29 1 30
REMARK H PARENT
REMARK Flexibility Score: inf
ROOT
ATOM      1  C   UNL     1      64.923  31.266  23.610  1.00  0.00     0.000 C 
ENDROOT
BRANCH   1   2
ATOM      2  C   UNL     1      64.485  32.658  23.121  1.00  0.00     0.000 C 
BRANCH   2   3
ATOM      3  C   UNL     1      65.380  33.199  21.995  1.00  0.00     0.000 C 
BRANCH   3   4
ATOM      4  C   UNL     1      64.666  34.245  21.120  1.00  0.00     0.000 C 
BRANCH   4   5
ATOM      5  C   UNL     1      65.637  35.117  20.305  1.00  0.00     0.000 C 
BRANCH   5   6
ATOM      6  C   UNL     1      65.253  35.280  18.820  1.00  0.00     0.000 C 
BRANCH   6   7
ATOM      7  C   UNL     1      64.395  34.114  18.291  1.00  0.00     0.000 C 
BRANCH   7   8
ATOM      8  C   UNL     1      63.138  34.590  17.549  1.00  0.00     0.000 C 
BRANCH   8   9
ATOM      9  C   UNL     1      62.468  33.470  16.733  1.00  0.00     0.000 C 
BRANCH   9  10
ATOM     10  C   UNL     1      61.199  33.961  16.005  1.00  0.00     0.000 C 
BRANCH  10  11
ATOM     11  C   UNL     1      61.263  33.802  14.475  1.00  0.00     0.000 C 
BRANCH  11  12
ATOM     12  C   UNL     1      60.557  32.531  13.973  1.00  0.00     0.006 C 
BRANCH  12  13
ATOM     13  C   UNL     1      61.227  31.952  12.720  1.00  0.00     0.053 C 
BRANCH  13  14
ATOM     14  C   UNL     1      60.681  30.599  12.373  1.00  0.00     0.041 C 
ATOM     15  O   UNL     1      60.566  29.714  13.263  1.00  0.00    -0.550 OA
ATOM     16  O   UNL     1      60.333  30.306  11.061  1.00  0.00    -0.550 OA
ENDBRANCH  13  14
ENDBRANCH  12  13
ENDBRANCH  11  12
ENDBRANCH  10  11
ENDBRANCH   9  10
ENDBRANCH   8   9
ENDBRANCH   7   8
ENDBRANCH   6   7
ENDBRANCH   5   6
ENDBRANCH   4   5
ENDBRANCH   3   4
ENDBRANCH   2   3
ENDBRANCH   1   2
BRANCH   1  17
ATOM     17  C   UNL     1      64.224  30.860  24.918  1.00  0.00     0.000 C 
BRANCH  17  18
ATOM     18  C   UNL     1      65.164  30.115  25.883  1.00  0.00     0.000 C 
BRANCH  18  19
ATOM     19  C   UNL     1      64.651  30.117  27.336  1.00  0.00     0.000 C 
BRANCH  19  20
ATOM     20  C   UNL     1      63.118  30.198  27.472  1.00  0.00     0.000 C 
BRANCH  20  21
ATOM     21  C   UNL     1      62.566  29.261  28.556  1.00  0.00     0.000 C 
BRANCH  21  22
ATOM     22  C   UNL     1      61.226  28.649  28.127  1.00  0.00    -0.000 C 
BRANCH  22  23
ATOM     23  C   UNL     1      61.444  27.381  27.288  1.00  0.00    -0.000 C 
BRANCH  23  24
ATOM     24  C   UNL     1      61.103  27.593  25.797  1.00  0.00    -0.000 C 
BRANCH  24  25
ATOM     25  C   UNL     1      62.341  27.705  24.892  1.00  0.00    -0.000 C 
BRANCH  25  26
ATOM     26  C   UNL     1      63.506  26.821  25.366  1.00  0.00    -0.000 C 
BRANCH  26  27
ATOM     27  C   UNL     1      63.909  25.768  24.310  1.00  0.00    -0.000 C 
BRANCH  27  28
ATOM     28  C   UNL     1      65.389  25.842  23.898  1.00  0.00    -0.000 C 
BRANCH  28  29
ATOM     29  C   UNL     1      65.915  27.281  23.818  1.00  0.00    -0.003 C 
ATOM     30  C   UNL     1      65.684  27.872  22.430  1.00  0.00     0.004 C 
ENDBRANCH  28  29
ENDBRANCH  27  28
ENDBRANCH  26  27
ENDBRANCH  25  26
ENDBRANCH  24  25
ENDBRANCH  23  24
ENDBRANCH  22  23
ENDBRANCH  21  22
ENDBRANCH  20  21
ENDBRANCH  19  20
ENDBRANCH  18  19
ENDBRANCH  17  18
ENDBRANCH   1  17
TORSDOF 26
ENDMDL
MODEL 5
REMARK VINA RESULT:    -4.045      6.822     10.647
REMARK INTER + INTRA:         -14.567
REMARK INTER:                 -12.047
REMARK INTRA:                  -2.520
REMARK UNBOUND:                -4.374
REMARK SMILES CCCCCCCCCCCCCCCCCCCCCCCCCCCC(=O)[O-]
REMARK SMILES IDX 15 1 16 2 17 3 18 4 19 5 20 6 21 7 22 8 23 9 24 10 25 11
REMARK SMILES IDX 26 12 27 13 28 14 29 15 30 16 14 17 13 18 12 19 11 20 10 21
REMARK SMILES IDX 9 22 8 23 7 24 6 25 5 26 4 27 3 28 2 29 1 30
REMARK H PARENT
REMARK Flexibility Score: inf
ROOT
ATOM      1  C   UNL     1      64.320  31.857  23.665  1.00  0.00     0.000 C 
ENDROOT
BRANCH   1   2
ATOM      2  C   UNL     1      64.918  30.457  23.893  1.00  0.00     0.000 C 
BRANCH   2   3
ATOM      3  C   UNL     1      65.237  30.182  25.370  1.00  0.00     0.000 C 
BRANCH   3   4
ATOM      4  C   UNL     1      64.053  30.495  26.302  1.00  0.00     0.000 C 
BRANCH   4   5
ATOM      5  C   UNL     1      64.322  30.122  27.769  1.00  0.00     0.000 C 
BRANCH   5   6
ATOM      6  C   UNL     1      63.080  30.188  28.681  1.00  0.00     0.000 C 
BRANCH   6   7
ATOM      7  C   UNL     1      62.586  28.797  29.125  1.00  0.00     0.000 C 
BRANCH   7   8
ATOM      8  C   UNL     1      61.184  28.466  28.595  1.00  0.00     0.000 C 
BRANCH   8   9
ATOM      9  C   UNL     1      61.196  27.366  27.521  1.00  0.00     0.000 C 
BRANCH   9  10
ATOM     10  C   UNL     1      61.255  27.948  26.093  1.00  0.00     0.000 C 
BRANCH  10  11
ATOM     11  C   UNL     1      62.462  27.457  25.273  1.00  0.00     0.000 C 
BRANCH  11  12
ATOM     12  C   UNL     1      63.531  26.763  26.134  1.00  0.00     0.006 C 
BRANCH  12  13
ATOM     13  C   UNL     1      64.822  26.492  25.349  1.00  0.00     0.053 C 
BRANCH  13  14
ATOM     14  C   UNL     1      64.546  26.230  23.899  1.00  0.00     0.041 C 
ATOM     15  O   UNL     1      63.865  25.228  23.553  1.00  0.00    -0.550 OA
ATOM     16  O   UNL     1      65.069  27.076  22.929  1.00  0.00    -0.550 OA
ENDBRANCH  13  14
ENDBRANCH  12  13
ENDBRANCH  11  12
ENDBRANCH  10  11
ENDBRANCH   9  10
ENDBRANCH   8   9
ENDBRANCH   7   8
ENDBRANCH   6   7
ENDBRANCH   5   6
ENDBRANCH   4   5
ENDBRANCH   3   4
ENDBRANCH   2   3
ENDBRANCH   1   2
BRANCH   1  17
ATOM     17  C   UNL     1      65.119  32.674  22.637  1.00  0.00     0.000 C 
BRANCH  17  18
ATOM     18  C   UNL     1      64.231  33.643  21.834  1.00  0.00     0.000 C 
BRANCH  18  19
ATOM     19  C   UNL     1      65.022  34.442  20.781  1.00  0.00     0.000 C 
BRANCH  19  20
ATOM     20  C   UNL     1      64.532  34.251  19.333  1.00  0.00     0.000 C 
BRANCH  20  21
ATOM     21  C   UNL     1      63.021  33.993  19.244  1.00  0.00     0.000 C 
BRANCH  21  22
ATOM     22  C   UNL     1      62.457  34.466  17.898  1.00  0.00    -0.000 C 
BRANCH  22  23
ATOM     23  C   UNL     1      63.472  34.239  16.767  1.00  0.00    -0.000 C 
BRANCH  23  24
ATOM     24  C   UNL     1      62.831  33.595  15.519  1.00  0.00    -0.000 C 
BRANCH  24  25
ATOM     25  C   UNL     1      61.314  33.382  15.645  1.00  0.00    -0.000 C 
BRANCH  25  26
ATOM     26  C   UNL     1      60.873  31.970  15.223  1.00  0.00    -0.000 C 
BRANCH  26  27
ATOM     27  C   UNL     1      60.078  31.978  13.899  1.00  0.00    -0.000 C 
BRANCH  27  28
ATOM     28  C   UNL     1      60.956  32.178  12.652  1.00  0.00    -0.000 C 
BRANCH  28  29
ATOM     29  C   UNL     1      61.466  30.856  12.063  1.00  0.00    -0.003 C 
ATOM     30  C   UNL     1      60.316  30.038  11.479  1.00  0.00     0.004 C 
ENDBRANCH  28  29
ENDBRANCH  27  28
ENDBRANCH  26  27
ENDBRANCH  25  26
ENDBRANCH  24  25
ENDBRANCH  23  24
ENDBRANCH  22  23
ENDBRANCH  21  22
ENDBRANCH  20  21
ENDBRANCH  19  20
ENDBRANCH  18  19
ENDBRANCH  17  18
ENDBRANCH   1  17
TORSDOF 26
ENDMDL
MODEL 6
REMARK VINA RESULT:    -4.031      2.226      6.269
REMARK INTER + INTRA:         -14.533
REMARK INTER:                 -11.017
REMARK INTRA:                  -3.516
REMARK UNBOUND:                -4.374
REMARK SMILES CCCCCCCCCCCCCCCCCCCCCCCCCCCC(=O)[O-]
REMARK SMILES IDX 15 1 16 2 17 3 18 4 19 5 20 6 21 7 22 8 23 9 24 10 25 11
REMARK SMILES IDX 26 12 27 13 28 14 29 15 30 16 14 17 13 18 12 19 11 20 10 21
REMARK SMILES IDX 9 22 8 23 7 24 6 25 5 26 4 27 3 28 2 29 1 30
REMARK H PARENT
REMARK Flexibility Score: inf
ROOT
ATOM      1  C   UNL     1      65.256  35.701  16.625  1.00  0.00     0.000 C 
ENDROOT
BRANCH   1   2
ATOM      2  C   UNL     1      66.090  35.880  17.906  1.00  0.00     0.000 C 
BRANCH   2   3
ATOM      3  C   UNL     1      66.064  34.637  18.808  1.00  0.00     0.000 C 
BRANCH   3   4
ATOM      4  C   UNL     1      65.639  34.961  20.252  1.00  0.00     0.000 C 
BRANCH   4   5
ATOM      5  C   UNL     1      64.209  34.500  20.580  1.00  0.00     0.000 C 
BRANCH   5   6
ATOM      6  C   UNL     1      63.484  33.795  19.414  1.00  0.00     0.000 C 
BRANCH   6   7
ATOM      7  C   UNL     1      61.996  34.182  19.312  1.00  0.00     0.000 C 
BRANCH   7   8
ATOM      8  C   UNL     1      61.496  34.243  17.862  1.00  0.00     0.000 C 
BRANCH   8   9
ATOM      9  C   UNL     1      62.452  33.556  16.872  1.00  0.00     0.000 C 
BRANCH   9  10
ATOM     10  C   UNL     1      62.011  33.750  15.407  1.00  0.00     0.000 C 
BRANCH  10  11
ATOM     11  C   UNL     1      60.798  32.892  15.006  1.00  0.00     0.000 C 
BRANCH  11  12
ATOM     12  C   UNL     1      61.195  31.545  14.378  1.00  0.00     0.006 C 
BRANCH  12  13
ATOM     13  C   UNL     1      62.462  31.657  13.518  1.00  0.00     0.053 C 
BRANCH  13  14
ATOM     14  C   UNL     1      63.516  30.685  13.955  1.00  0.00     0.041 C 
ATOM     15  O   UNL     1      64.356  31.012  14.834  1.00  0.00    -0.550 OA
ATOM     16  O   UNL     1      63.590  29.429  13.365  1.00  0.00    -0.550 OA
ENDBRANCH  13  14
ENDBRANCH  12  13
ENDBRANCH  11  12
ENDBRANCH  10  11
ENDBRANCH   9  10
ENDBRANCH   8   9
ENDBRANCH   7   8
ENDBRANCH   6   7
ENDBRANCH   5   6
ENDBRANCH   4   5
ENDBRANCH   3   4
ENDBRANCH   2   3
ENDBRANCH   1   2
BRANCH   1  17
ATOM     17  C   UNL     1      66.119  35.315  15.413  1.00  0.00     0.000 C 
BRANCH  17  18
ATOM     18  C   UNL     1      65.425  34.292  14.496  1.00  0.00     0.000 C 
BRANCH  18  19
ATOM     19  C   UNL     1      66.177  34.075  13.168  1.00  0.00     0.000 C 
BRANCH  19  20
ATOM     20  C   UNL     1      65.347  33.388  12.067  1.00  0.00     0.000 C 
BRANCH  20  21
ATOM     21  C   UNL     1      66.163  33.101  10.798  1.00  0.00     0.000 C 
BRANCH  21  22
ATOM     22  C   UNL     1      65.306  32.394   9.739  1.00  0.00    -0.000 C 
BRANCH  22  23
ATOM     23  C   UNL     1      64.544  31.209  10.350  1.00  0.00    -0.000 C 
BRANCH  23  24
ATOM     24  C   UNL     1      64.597  29.950   9.458  1.00  0.00    -0.000 C 
BRANCH  24  25
ATOM     25  C   UNL     1      63.210  29.410   9.071  1.00  0.00    -0.000 C 
BRANCH  25  26
ATOM     26  C   UNL     1      62.297  29.190  10.288  1.00  0.00    -0.000 C 
BRANCH  26  27
ATOM     27  C   UNL     1      60.929  29.888  10.126  1.00  0.00    -0.000 C 
BRANCH  27  28
ATOM     28  C   UNL     1      60.037  29.799  11.377  1.00  0.00    -0.000 C 
BRANCH  28  29
ATOM     29  C   UNL     1      60.373  28.592  12.263  1.00  0.00    -0.003 C 
ATOM     30  C   UNL     1      59.114  28.020  12.909  1.00  0.00     0.004 C 
ENDBRANCH  28  29
ENDBRANCH  27  28
ENDBRANCH  26  27
ENDBRANCH  25  26
ENDBRANCH  24  25
ENDBRANCH  23  24
ENDBRANCH  22  23
ENDBRANCH  21  22
ENDBRANCH  20  21
ENDBRANCH  19  20
ENDBRANCH  18  19
ENDBRANCH  17  18
ENDBRANCH   1  17
TORSDOF 26
ENDMDL
MODEL 7
REMARK VINA RESULT:    -4.005      6.280     11.940
REMARK INTER + INTRA:         -14.467
REMARK INTER:                 -11.481
REMARK INTRA:                  -2.986
REMARK UNBOUND:                -4.374
REMARK SMILES CCCCCCCCCCCCCCCCCCCCCCCCCCCC(=O)[O-]
REMARK SMILES IDX 15 1 16 2 17 3 18 4 19 5 20 6 21 7 22 8 23 9 24 10 25 11
REMARK SMILES IDX 26 12 27 13 28 14 29 15 30 16 14 17 13 18 12 19 11 20 10 21
REMARK SMILES IDX 9 22 8 23 7 24 6 25 5 26 4 27 3 28 2 29 1 30
REMARK H PARENT
REMARK Flexibility Score: inf
ROOT
ATOM      1  C   UNL     1      65.078  32.365  22.968  1.00  0.00     0.000 C 
ENDROOT
BRANCH   1   2
ATOM      2  C   UNL     1      64.689  33.503  22.008  1.00  0.00     0.000 C 
BRANCH   2   3
ATOM      3  C   UNL     1      65.868  33.980  21.147  1.00  0.00     0.000 C 
BRANCH   3   4
ATOM      4  C   UNL     1      65.606  35.346  20.486  1.00  0.00     0.000 C 
BRANCH   4   5
ATOM      5  C   UNL     1      65.724  35.310  18.953  1.00  0.00     0.000 C 
BRANCH   5   6
ATOM      6  C   UNL     1      65.015  34.112  18.288  1.00  0.00     0.000 C 
BRANCH   6   7
ATOM      7  C   UNL     1      63.549  34.412  17.920  1.00  0.00     0.000 C 
BRANCH   7   8
ATOM      8  C   UNL     1      63.043  33.556  16.749  1.00  0.00     0.000 C 
BRANCH   8   9
ATOM      9  C   UNL     1      64.040  33.499  15.579  1.00  0.00     0.000 C 
BRANCH   9  10
ATOM     10  C   UNL     1      63.342  33.206  14.235  1.00  0.00     0.000 C 
BRANCH  10  11
ATOM     11  C   UNL     1      61.833  32.928  14.368  1.00  0.00     0.000 C 
BRANCH  11  12
ATOM     12  C   UNL     1      61.107  32.885  13.013  1.00  0.00     0.006 C 
BRANCH  12  13
ATOM     13  C   UNL     1      60.302  31.592  12.826  1.00  0.00     0.053 C 
BRANCH  13  14
ATOM     14  C   UNL     1      60.946  30.677  11.828  1.00  0.00     0.041 C 
ATOM     15  O   UNL     1      60.264  29.793  11.245  1.00  0.00    -0.550 OA
ATOM     16  O   UNL     1      62.307  30.780  11.568  1.00  0.00    -0.550 OA
ENDBRANCH  13  14
ENDBRANCH  12  13
ENDBRANCH  11  12
ENDBRANCH  10  11
ENDBRANCH   9  10
ENDBRANCH   8   9
ENDBRANCH   7   8
ENDBRANCH   6   7
ENDBRANCH   5   6
ENDBRANCH   4   5
ENDBRANCH   3   4
ENDBRANCH   2   3
ENDBRANCH   1   2
BRANCH   1  17
ATOM     17  C   UNL     1      66.568  31.998  22.868  1.00  0.00     0.000 C 
BRANCH  17  18
ATOM     18  C   UNL     1      66.817  30.489  23.043  1.00  0.00     0.000 C 
BRANCH  18  19
ATOM     19  C   UNL     1      65.911  29.855  24.115  1.00  0.00     0.000 C 
BRANCH  19  20
ATOM     20  C   UNL     1      66.656  29.347  25.364  1.00  0.00     0.000 C 
BRANCH  20  21
ATOM     21  C   UNL     1      65.824  29.479  26.648  1.00  0.00     0.000 C 
BRANCH  21  22
ATOM     22  C   UNL     1      64.563  30.319  26.407  1.00  0.00    -0.000 C 
BRANCH  22  23
ATOM     23  C   UNL     1      63.513  30.060  27.498  1.00  0.00    -0.000 C 
BRANCH  23  24
ATOM     24  C   UNL     1      62.258  29.344  26.953  1.00  0.00    -0.000 C 
BRANCH  24  25
ATOM     25  C   UNL     1      62.233  29.227  25.420  1.00  0.00    -0.000 C 
BRANCH  25  26
ATOM     26  C   UNL     1      62.108  27.772  24.936  1.00  0.00    -0.000 C 
BRANCH  26  27
ATOM     27  C   UNL     1      63.379  27.288  24.204  1.00  0.00    -0.000 C 
BRANCH  27  28
ATOM     28  C   UNL     1      64.262  26.356  25.051  1.00  0.00    -0.000 C 
BRANCH  28  29
ATOM     29  C   UNL     1      65.572  25.975  24.348  1.00  0.00    -0.003 C 
ATOM     30  C   UNL     1      65.525  26.343  22.868  1.00  0.00     0.004 C 
ENDBRANCH  28  29
ENDBRANCH  27  28
ENDBRANCH  26  27
ENDBRANCH  25  26
ENDBRANCH  24  25
ENDBRANCH  23  24
ENDBRANCH  22  23
ENDBRANCH  21  22
ENDBRANCH  20  21
ENDBRANCH  19  20
ENDBRANCH  18  19
ENDBRANCH  17  18
ENDBRANCH   1  17
TORSDOF 26
ENDMDL
MODEL 8
REMARK VINA RESULT:    -3.992      6.328     11.832
REMARK INTER + INTRA:         -14.433
REMARK INTER:                 -11.882
REMARK INTRA:                  -2.551
REMARK UNBOUND:                -4.374
REMARK SMILES CCCCCCCCCCCCCCCCCCCCCCCCCCCC(=O)[O-]
REMARK SMILES IDX 15 1 16 2 17 3 18 4 19 5 20 6 21 7 22 8 23 9 24 10 25 11
REMARK SMILES IDX 26 12 27 13 28 14 29 15 30 16 14 17 13 18 12 19 11 20 10 21
REMARK SMILES IDX 9 22 8 23 7 24 6 25 5 26 4 27 3 28 2 29 1 30
REMARK H PARENT
REMARK Flexibility Score: inf
ROOT
ATOM      1  C   UNL     1      64.614  33.156  22.434  1.00  0.00     0.000 C 
ENDROOT
BRANCH   1   2
ATOM      2  C   UNL     1      64.192  33.991  21.212  1.00  0.00     0.000 C 
BRANCH   2   3
ATOM      3  C   UNL     1      65.288  34.963  20.750  1.00  0.00     0.000 C 
BRANCH   3   4
ATOM      4  C   UNL     1      65.596  34.840  19.247  1.00  0.00     0.000 C 
BRANCH   4   5
ATOM      5  C   UNL     1      64.547  34.018  18.479  1.00  0.00     0.000 C 
BRANCH   5   6
ATOM      6  C   UNL     1      63.633  34.853  17.558  1.00  0.00     0.000 C 
BRANCH   6   7
ATOM      7  C   UNL     1      62.336  34.115  17.173  1.00  0.00     0.000 C 
BRANCH   7   8
ATOM      8  C   UNL     1      62.385  33.528  15.755  1.00  0.00     0.000 C 
BRANCH   8   9
ATOM      9  C   UNL     1      61.078  33.746  14.974  1.00  0.00     0.000 C 
BRANCH   9  10
ATOM     10  C   UNL     1      60.951  32.785  13.774  1.00  0.00     0.000 C 
BRANCH  10  11
ATOM     11  C   UNL     1      62.115  31.785  13.655  1.00  0.00     0.000 C 
BRANCH  11  12
ATOM     12  C   UNL     1      61.704  30.340  13.986  1.00  0.00     0.006 C 
BRANCH  12  13
ATOM     13  C   UNL     1      62.615  29.308  13.309  1.00  0.00     0.053 C 
BRANCH  13  14
ATOM     14  C   UNL     1      62.356  29.221  11.834  1.00  0.00     0.041 C 
ATOM     15  O   UNL     1      61.204  28.946  11.407  1.00  0.00    -0.550 OA
ATOM     16  O   UNL     1      63.397  29.411  10.934  1.00  0.00    -0.550 OA
ENDBRANCH  13  14
ENDBRANCH  12  13
ENDBRANCH  11  12
ENDBRANCH  10  11
ENDBRANCH   9  10
ENDBRANCH   8   9
ENDBRANCH   7   8
ENDBRANCH   6   7
ENDBRANCH   5   6
ENDBRANCH   4   5
ENDBRANCH   3   4
ENDBRANCH   2   3
ENDBRANCH   1   2
BRANCH   1  17
ATOM     17  C   UNL     1      66.110  32.804  22.414  1.00  0.00     0.000 C 
BRANCH  17  18
ATOM     18  C   UNL     1      66.416  31.488  23.151  1.00  0.00     0.000 C 
BRANCH  18  19
ATOM     19  C   UNL     1      65.142  30.736  23.583  1.00  0.00     0.000 C 
BRANCH  19  20
ATOM     20  C   UNL     1      65.006  30.530  25.103  1.00  0.00     0.000 C 
BRANCH  20  21
ATOM     21  C   UNL     1      66.169  29.725  25.702  1.00  0.00     0.000 C 
BRANCH  21  22
ATOM     22  C   UNL     1      66.310  28.361  25.013  1.00  0.00    -0.000 C 
BRANCH  22  23
ATOM     23  C   UNL     1      65.270  27.366  25.548  1.00  0.00    -0.000 C 
BRANCH  23  24
ATOM     24  C   UNL     1      64.847  26.326  24.487  1.00  0.00    -0.000 C 
BRANCH  24  25
ATOM     25  C   UNL     1      63.357  26.398  24.116  1.00  0.00    -0.000 C 
BRANCH  25  26
ATOM     26  C   UNL     1      62.958  27.757  23.514  1.00  0.00    -0.000 C 
BRANCH  26  27
ATOM     27  C   UNL     1      62.079  28.586  24.476  1.00  0.00    -0.000 C 
BRANCH  27  28
ATOM     28  C   UNL     1      61.306  27.733  25.497  1.00  0.00    -0.000 C 
BRANCH  28  29
ATOM     29  C   UNL     1      61.502  28.210  26.942  1.00  0.00    -0.003 C 
ATOM     30  C   UNL     1      62.134  27.116  27.799  1.00  0.00     0.004 C 
ENDBRANCH  28  29
ENDBRANCH  27  28
ENDBRANCH  26  27
ENDBRANCH  25  26
ENDBRANCH  24  25
ENDBRANCH  23  24
ENDBRANCH  22  23
ENDBRANCH  21  22
ENDBRANCH  20  21
ENDBRANCH  19  20
ENDBRANCH  18  19
ENDBRANCH  17  18
ENDBRANCH   1  17
TORSDOF 26
ENDMDL
MODEL 9
REMARK VINA RESULT:    -3.989      6.901     10.910
REMARK INTER + INTRA:         -14.427
REMARK INTER:                 -11.701
REMARK INTRA:                  -2.726
REMARK UNBOUND:                -4.374
REMARK SMILES CCCCCCCCCCCCCCCCCCCCCCCCCCCC(=O)[O-]
REMARK SMILES IDX 15 1 16 2 17 3 18 4 19 5 20 6 21 7 22 8 23 9 24 10 25 11
REMARK SMILES IDX 26 12 27 13 28 14 29 15 30 16 14 17 13 18 12 19 11 20 10 21
REMARK SMILES IDX 9 22 8 23 7 24 6 25 5 26 4 27 3 28 2 29 1 30
REMARK H PARENT
REMARK Flexibility Score: inf
ROOT
ATOM      1  C   UNL     1      64.332  30.793  24.952  1.00  0.00     0.000 C 
ENDROOT
BRANCH   1   2
ATOM      2  C   UNL     1      65.370  30.046  25.809  1.00  0.00     0.000 C 
BRANCH   2   3
ATOM      3  C   UNL     1      64.859  29.736  27.224  1.00  0.00     0.000 C 
BRANCH   3   4
ATOM      4  C   UNL     1      63.499  30.392  27.521  1.00  0.00     0.000 C 
BRANCH   4   5
ATOM      5  C   UNL     1      62.807  29.814  28.767  1.00  0.00     0.000 C 
BRANCH   5   6
ATOM      6  C   UNL     1      61.543  28.982  28.466  1.00  0.00     0.000 C 
BRANCH   6   7
ATOM      7  C   UNL     1      61.863  27.523  28.084  1.00  0.00     0.000 C 
BRANCH   7   8
ATOM      8  C   UNL     1      61.233  27.107  26.748  1.00  0.00     0.000 C 
BRANCH   8   9
ATOM      9  C   UNL     1      61.443  28.152  25.638  1.00  0.00     0.000 C 
BRANCH   9  10
ATOM     10  C   UNL     1      62.554  27.736  24.651  1.00  0.00     0.000 C 
BRANCH  10  11
ATOM     11  C   UNL     1      63.217  26.391  24.997  1.00  0.00     0.000 C 
BRANCH  11  12
ATOM     12  C   UNL     1      64.713  26.525  25.327  1.00  0.00     0.006 C 
BRANCH  12  13
ATOM     13  C   UNL     1      65.607  25.946  24.221  1.00  0.00     0.053 C 
BRANCH  13  14
ATOM     14  C   UNL     1      65.901  26.961  23.157  1.00  0.00     0.041 C 
ATOM     15  O   UNL     1      66.690  27.914  23.391  1.00  0.00    -0.550 OA
ATOM     16  O   UNL     1      65.276  26.871  21.920  1.00  0.00    -0.550 OA
ENDBRANCH  13  14
ENDBRANCH  12  13
ENDBRANCH  11  12
ENDBRANCH  10  11
ENDBRANCH   9  10
ENDBRANCH   8   9
ENDBRANCH   7   8
ENDBRANCH   6   7
ENDBRANCH   5   6
ENDBRANCH   4   5
ENDBRANCH   3   4
ENDBRANCH   2   3
ENDBRANCH   1   2
BRANCH   1  17
ATOM     17  C   UNL     1      64.850  31.096  23.537  1.00  0.00     0.000 C 
BRANCH  17  18
ATOM     18  C   UNL     1      64.483  32.515  23.066  1.00  0.00     0.000 C 
BRANCH  18  19
ATOM     19  C   UNL     1      65.550  33.130  22.140  1.00  0.00     0.000 C 
BRANCH  19  20
ATOM     20  C   UNL     1      65.015  34.199  21.169  1.00  0.00     0.000 C 
BRANCH  20  21
ATOM     21  C   UNL     1      66.127  34.867  20.347  1.00  0.00     0.000 C 
BRANCH  21  22
ATOM     22  C   UNL     1      65.616  35.286  18.962  1.00  0.00    -0.000 C 
BRANCH  22  23
ATOM     23  C   UNL     1      64.765  34.173  18.331  1.00  0.00    -0.000 C 
BRANCH  23  24
ATOM     24  C   UNL     1      64.346  34.499  16.881  1.00  0.00    -0.000 C 
BRANCH  24  25
ATOM     25  C   UNL     1      63.302  33.527  16.308  1.00  0.00    -0.000 C 
BRANCH  25  26
ATOM     26  C   UNL     1      63.871  32.633  15.193  1.00  0.00    -0.000 C 
BRANCH  26  27
ATOM     27  C   UNL     1      63.517  33.160  13.785  1.00  0.00    -0.000 C 
BRANCH  27  28
ATOM     28  C   UNL     1      62.376  32.385  13.103  1.00  0.00    -0.000 C 
BRANCH  28  29
ATOM     29  C   UNL     1      61.010  33.062  13.274  1.00  0.00    -0.003 C 
ATOM     30  C   UNL     1      60.267  32.498  14.483  1.00  0.00     0.004 C 
ENDBRANCH  28  29
ENDBRANCH  27  28
ENDBRANCH  26  27
ENDBRANCH  25  26
ENDBRANCH  24  25
ENDBRANCH  23  24
ENDBRANCH  22  23
ENDBRANCH  21  22
ENDBRANCH  20  21
ENDBRANCH  19  20
ENDBRANCH  18  19
ENDBRANCH  17  18
ENDBRANCH   1  17
TORSDOF 26
ENDMDL
