MODEL 1
REMARK VINA RESULT:    -5.385      0.000      0.000
REMARK INTER + INTRA:          -7.337
REMARK INTER:                  -6.959
REMARK INTRA:                  -0.378
REMARK UNBOUND:                -0.378
REMARK SMILES CCO[C@H]1O[C@@H](CO)[C@H](O)[C@H](O)[C@@H]1O
REMARK SMILES IDX 4 1 13 2 11 3 9 4 6 5 5 6 3 7 2 8 1 9 14 10 12 12 7 14 8 15
REMARK SMILES IDX 10 17
REMARK H PARENT 14 11 12 13 8 16 10 18
REMARK Flexibility Score: inf
ROOT
ATOM      1  C   UNL     1      38.470  28.653  10.000  1.00  0.00     0.281 C 
ATOM      2  C   UNL     1      37.814  28.082  11.270  1.00  0.00     0.202 C 
ATOM      3  C   UNL     1      36.706  27.089  10.897  1.00  0.00     0.179 C 
ATOM      4  C   UNL     1      35.714  27.739   9.916  1.00  0.00     0.177 C 
ATOM      5  C   UNL     1      36.460  28.378   8.720  1.00  0.00     0.178 C 
ATOM      6  O   UNL     1      37.521  29.244   9.117  1.00  0.00    -0.341 OA
ENDROOT
BRANCH   1   7
ATOM      7  O   UNL     1      39.231  27.647   9.353  1.00  0.00    -0.350 OA
BRANCH   7   8
ATOM      8  C   UNL     1      40.443  27.426  10.044  1.00  0.00     0.160 C 
ATOM      9  C   UNL     1      41.586  27.382   9.042  1.00  0.00     0.035 C 
ENDBRANCH   7   8
ENDBRANCH   1   7
BRANCH   2  10
ATOM     10  O   UNL     1      37.297  29.141  12.037  1.00  0.00    -0.385 OA
ATOM     11  H   UNL     1      37.803  29.958  11.785  1.00  0.00     0.211 HD
ENDBRANCH   2  10
BRANCH   3  12
ATOM     12  O   UNL     1      36.046  26.654  12.058  1.00  0.00    -0.387 OA
ATOM     13  H   UNL     1      35.889  25.679  11.949  1.00  0.00     0.211 HD
ENDBRANCH   3  12
BRANCH   5  14
ATOM     14  C   UNL     1      36.898  27.355   7.648  1.00  0.00     0.191 C 
BRANCH  14  15
ATOM     15  O   UNL     1      37.733  27.962   6.698  1.00  0.00    -0.394 OA
ATOM     16  H   UNL     1      38.630  28.046   7.116  1.00  0.00     0.210 HD
ENDBRANCH  14  15
ENDBRANCH   5  14
BRANCH   4  17
ATOM     17  O   UNL     1      34.962  28.732  10.566  1.00  0.00    -0.387 OA
ATOM     18  H   UNL     1      35.578  29.213  11.179  1.00  0.00     0.211 HD
ENDBRANCH   4  17
TORSDOF 7
ENDMDL
MODEL 2
REMARK VINA RESULT:    -5.367      1.670      3.957
REMARK INTER + INTRA:          -7.314
REMARK INTER:                  -7.040
REMARK INTRA:                  -0.273
REMARK UNBOUND:                -0.378
REMARK SMILES CCO[C@H]1O[C@@H](CO)[C@H](O)[C@H](O)[C@@H]1O
REMARK SMILES IDX 4 1 13 2 11 3 9 4 6 5 5 6 3 7 2 8 1 9 14 10 12 12 7 14 8 15
REMARK SMILES IDX 10 17
REMARK H PARENT 14 11 12 13 8 16 10 18
REMARK Flexibility Score: inf
ROOT
ATOM      1  C   UNL     1      38.580  28.901   9.728  1.00  0.00     0.281 C 
ATOM      2  C   UNL     1      38.418  29.125   8.215  1.00  0.00     0.202 C 
ATOM      3  C   UNL     1      37.089  28.533   7.727  1.00  0.00     0.179 C 
ATOM      4  C   UNL     1      36.969  27.061   8.161  1.00  0.00     0.177 C 
ATOM      5  C   UNL     1      37.247  26.908   9.675  1.00  0.00     0.178 C 
ATOM      6  O   UNL     1      38.462  27.528  10.090  1.00  0.00    -0.341 OA
ENDROOT
BRANCH   1   7
ATOM      7  O   UNL     1      37.660  29.711  10.439  1.00  0.00    -0.350 OA
BRANCH   7   8
ATOM      8  C   UNL     1      38.292  30.319  11.546  1.00  0.00     0.160 C 
ATOM      9  C   UNL     1      37.940  29.545  12.807  1.00  0.00     0.035 C 
ENDBRANCH   7   8
ENDBRANCH   1   7
BRANCH   2  10
ATOM     10  O   UNL     1      39.503  28.535   7.542  1.00  0.00    -0.385 OA
ATOM     11  H   UNL     1      39.680  27.663   7.984  1.00  0.00     0.211 HD
ENDBRANCH   2  10
BRANCH   3  12
ATOM     12  O   UNL     1      36.999  28.650   6.330  1.00  0.00    -0.387 OA
ATOM     13  H   UNL     1      37.919  28.818   5.998  1.00  0.00     0.211 HD
ENDBRANCH   3  12
BRANCH   5  14
ATOM     14  C   UNL     1      36.046  27.300  10.565  1.00  0.00     0.191 C 
BRANCH  14  15
ATOM     15  O   UNL     1      36.096  26.618  11.790  1.00  0.00    -0.394 OA
ATOM     16  H   UNL     1      35.259  26.088  11.859  1.00  0.00     0.210 HD
ENDBRANCH  14  15
ENDBRANCH   5  14
BRANCH   4  17
ATOM     17  O   UNL     1      37.883  26.264   7.448  1.00  0.00    -0.387 OA
ATOM     18  H   UNL     1      37.359  25.558   6.988  1.00  0.00     0.211 HD
ENDBRANCH   4  17
TORSDOF 7
ENDMDL
MODEL 3
REMARK VINA RESULT:    -4.839      1.565      3.429
REMARK INTER + INTRA:          -6.631
REMARK INTER:                  -6.271
REMARK INTRA:                  -0.360
REMARK UNBOUND:                -0.378
REMARK SMILES CCO[C@H]1O[C@@H](CO)[C@H](O)[C@H](O)[C@@H]1O
REMARK SMILES IDX 4 1 13 2 11 3 9 4 6 5 5 6 3 7 2 8 1 9 14 10 12 12 7 14 8 15
REMARK SMILES IDX 10 17
REMARK H PARENT 14 11 12 13 8 16 10 18
REMARK Flexibility Score: inf
ROOT
ATOM      1  C   UNL     1      37.733  27.203   8.767  1.00  0.00     0.281 C 
ATOM      2  C   UNL     1      37.841  28.464   7.893  1.00  0.00     0.202 C 
ATOM      3  C   UNL     1      37.164  29.653   8.586  1.00  0.00     0.179 C 
ATOM      4  C   UNL     1      35.723  29.289   8.986  1.00  0.00     0.177 C 
ATOM      5  C   UNL     1      35.689  27.957   9.772  1.00  0.00     0.178 C 
ATOM      6  O   UNL     1      36.385  26.899   9.118  1.00  0.00    -0.341 OA
ENDROOT
BRANCH   1   7
ATOM      7  O   UNL     1      38.554  27.336   9.915  1.00  0.00    -0.350 OA
BRANCH   7   8
ATOM      8  C   UNL     1      39.915  27.396   9.542  1.00  0.00     0.160 C 
ATOM      9  C   UNL     1      40.751  27.747  10.763  1.00  0.00     0.035 C 
ENDBRANCH   7   8
ENDBRANCH   1   7
BRANCH   2  10
ATOM     10  O   UNL     1      37.248  28.211   6.643  1.00  0.00    -0.385 OA
ATOM     11  H   UNL     1      37.970  27.903   6.035  1.00  0.00     0.211 HD
ENDBRANCH   2  10
BRANCH   3  12
ATOM     12  O   UNL     1      37.177  30.772   7.735  1.00  0.00    -0.387 OA
ATOM     13  H   UNL     1      37.679  31.485   8.210  1.00  0.00     0.211 HD
ENDBRANCH   3  12
BRANCH   5  14
ATOM     14  C   UNL     1      36.095  28.107  11.256  1.00  0.00     0.191 C 
BRANCH  14  15
ATOM     15  O   UNL     1      36.097  26.858  11.896  1.00  0.00    -0.394 OA
ATOM     16  H   UNL     1      35.739  26.200  11.244  1.00  0.00     0.210 HD
ENDBRANCH  14  15
ENDBRANCH   5  14
BRANCH   4  17
ATOM     17  O   UNL     1      34.914  29.162   7.842  1.00  0.00    -0.387 OA
ATOM     18  H   UNL     1      33.970  29.227   8.143  1.00  0.00     0.211 HD
ENDBRANCH   4  17
TORSDOF 7
ENDMDL
MODEL 4
REMARK VINA RESULT:    -4.708      2.670      4.583
REMARK INTER + INTRA:          -6.463
REMARK INTER:                  -6.273
REMARK INTRA:                  -0.190
REMARK UNBOUND:                -0.378
REMARK SMILES CCO[C@H]1O[C@@H](CO)[C@H](O)[C@H](O)[C@@H]1O
REMARK SMILES IDX 4 1 13 2 11 3 9 4 6 5 5 6 3 7 2 8 1 9 14 10 12 12 7 14 8 15
REMARK SMILES IDX 10 17
REMARK H PARENT 14 11 12 13 8 16 10 18
REMARK Flexibility Score: inf
ROOT
ATOM      1  C   UNL     1      39.605  28.051  10.875  1.00  0.00     0.281 C 
ATOM      2  C   UNL     1      41.130  27.872  10.960  1.00  0.00     0.202 C 
ATOM      3  C   UNL     1      41.809  28.484   9.728  1.00  0.00     0.179 C 
ATOM      4  C   UNL     1      41.181  27.922   8.439  1.00  0.00     0.177 C 
ATOM      5  C   UNL     1      39.640  28.047   8.477  1.00  0.00     0.178 C 
ATOM      6  O   UNL     1      39.061  27.521   9.669  1.00  0.00    -0.341 OA
ENDROOT
BRANCH   1   7
ATOM      7  O   UNL     1      39.267  29.417  11.045  1.00  0.00    -0.350 OA
BRANCH   7   8
ATOM      8  C   UNL     1      39.108  29.718  12.416  1.00  0.00     0.160 C 
ATOM      9  C   UNL     1      37.698  29.347  12.847  1.00  0.00     0.035 C 
ENDBRANCH   7   8
ENDBRANCH   1   7
BRANCH   2  10
ATOM     10  O   UNL     1      41.428  26.501  11.065  1.00  0.00    -0.385 OA
ATOM     11  H   UNL     1      40.563  26.020  11.138  1.00  0.00     0.211 HD
ENDBRANCH   2  10
BRANCH   3  12
ATOM     12  O   UNL     1      43.189  28.223   9.764  1.00  0.00    -0.387 OA
ATOM     13  H   UNL     1      43.345  27.618  10.535  1.00  0.00     0.211 HD
ENDBRANCH   3  12
BRANCH   5  14
ATOM     14  C   UNL     1      39.128  29.466   8.144  1.00  0.00     0.191 C 
BRANCH  14  15
ATOM     15  O   UNL     1      39.051  29.651   6.755  1.00  0.00    -0.394 OA
ATOM     16  H   UNL     1      38.866  30.614   6.603  1.00  0.00     0.210 HD
ENDBRANCH  14  15
ENDBRANCH   5  14
BRANCH   4  17
ATOM     17  O   UNL     1      41.525  26.568   8.277  1.00  0.00    -0.387 OA
ATOM     18  H   UNL     1      41.516  26.154   9.179  1.00  0.00     0.211 HD
ENDBRANCH   4  17
TORSDOF 7
ENDMDL
MODEL 5
REMARK VINA RESULT:    -4.550      1.752      3.495
REMARK INTER + INTRA:          -6.258
REMARK INTER:                  -5.808
REMARK INTRA:                  -0.450
REMARK UNBOUND:                -0.378
REMARK SMILES CCO[C@H]1O[C@@H](CO)[C@H](O)[C@H](O)[C@@H]1O
REMARK SMILES IDX 4 1 13 2 11 3 9 4 6 5 5 6 3 7 2 8 1 9 14 10 12 12 7 14 8 15
REMARK SMILES IDX 10 17
REMARK H PARENT 14 11 12 13 8 16 10 18
REMARK Flexibility Score: inf
ROOT
ATOM      1  C   UNL     1      38.861  28.111   9.683  1.00  0.00     0.281 C 
ATOM      2  C   UNL     1      38.173  27.985   8.313  1.00  0.00     0.202 C 
ATOM      3  C   UNL     1      36.665  28.237   8.448  1.00  0.00     0.179 C 
ATOM      4  C   UNL     1      36.067  27.328   9.537  1.00  0.00     0.177 C 
ATOM      5  C   UNL     1      36.877  27.436  10.851  1.00  0.00     0.178 C 
ATOM      6  O   UNL     1      38.279  27.256  10.664  1.00  0.00    -0.341 OA
ENDROOT
BRANCH   1   7
ATOM      7  O   UNL     1      38.861  29.465  10.102  1.00  0.00    -0.350 OA
BRANCH   7   8
ATOM      8  C   UNL     1      40.185  29.930  10.262  1.00  0.00     0.160 C 
ATOM      9  C   UNL     1      40.624  29.697  11.700  1.00  0.00     0.035 C 
ENDBRANCH   7   8
ENDBRANCH   1   7
BRANCH   2  10
ATOM     10  O   UNL     1      38.419  26.703   7.789  1.00  0.00    -0.385 OA
ATOM     11  H   UNL     1      38.847  26.828   6.902  1.00  0.00     0.211 HD
ENDBRANCH   2  10
BRANCH   3  12
ATOM     12  O   UNL     1      36.032  28.018   7.213  1.00  0.00    -0.387 OA
ATOM     13  H   UNL     1      35.241  28.617   7.187  1.00  0.00     0.211 HD
ENDBRANCH   3  12
BRANCH   5  14
ATOM     14  C   UNL     1      36.545  28.698  11.678  1.00  0.00     0.191 C 
BRANCH  14  15
ATOM     15  O   UNL     1      37.395  28.797  12.790  1.00  0.00    -0.394 OA
ATOM     16  H   UNL     1      36.844  29.135  13.544  1.00  0.00     0.210 HD
ENDBRANCH  14  15
ENDBRANCH   5  14
BRANCH   4  17
ATOM     17  O   UNL     1      36.067  25.988   9.111  1.00  0.00    -0.387 OA
ATOM     18  H   UNL     1      37.009  25.673   9.135  1.00  0.00     0.211 HD
ENDBRANCH   4  17
TORSDOF 7
ENDMDL
MODEL 6
REMARK VINA RESULT:    -4.518      4.504      6.278
REMARK INTER + INTRA:          -6.216
REMARK INTER:                  -5.814
REMARK INTRA:                  -0.403
REMARK UNBOUND:                -0.378
REMARK SMILES CCO[C@H]1O[C@@H](CO)[C@H](O)[C@H](O)[C@@H]1O
REMARK SMILES IDX 4 1 13 2 11 3 9 4 6 5 5 6 3 7 2 8 1 9 14 10 12 12 7 14 8 15
REMARK SMILES IDX 10 17
REMARK H PARENT 14 11 12 13 8 16 10 18
REMARK Flexibility Score: inf
ROOT
ATOM      1  C   UNL     1      42.533  27.775  12.200  1.00  0.00     0.281 C 
ATOM      2  C   UNL     1      42.412  27.130  10.809  1.00  0.00     0.202 C 
ATOM      3  C   UNL     1      42.725  28.159   9.714  1.00  0.00     0.179 C 
ATOM      4  C   UNL     1      41.857  29.417   9.901  1.00  0.00     0.177 C 
ATOM      5  C   UNL     1      41.954  29.943  11.352  1.00  0.00     0.178 C 
ATOM      6  O   UNL     1      41.718  28.937  12.333  1.00  0.00    -0.341 OA
ENDROOT
BRANCH   1   7
ATOM      7  O   UNL     1      43.893  28.055  12.488  1.00  0.00    -0.350 OA
BRANCH   7   8
ATOM      8  C   UNL     1      44.285  27.412  13.683  1.00  0.00     0.160 C 
ATOM      9  C   UNL     1      45.735  27.760  13.982  1.00  0.00     0.035 C 
ENDBRANCH   7   8
ENDBRANCH   1   7
BRANCH   2  10
ATOM     10  O   UNL     1      41.114  26.613  10.652  1.00  0.00    -0.385 OA
ATOM     11  H   UNL     1      40.542  27.357  10.325  1.00  0.00     0.211 HD
ENDBRANCH   2  10
BRANCH   3  12
ATOM     12  O   UNL     1      42.510  27.589   8.448  1.00  0.00    -0.387 OA
ATOM     13  H   UNL     1      41.575  27.804   8.193  1.00  0.00     0.211 HD
ENDBRANCH   3  12
BRANCH   5  14
ATOM     14  C   UNL     1      43.242  30.752  11.629  1.00  0.00     0.191 C 
BRANCH  14  15
ATOM     15  O   UNL     1      43.387  30.993  13.004  1.00  0.00    -0.394 OA
ATOM     16  H   UNL     1      44.288  31.391  13.133  1.00  0.00     0.210 HD
ENDBRANCH  14  15
ENDBRANCH   5  14
BRANCH   4  17
ATOM     17  O   UNL     1      40.511  29.131   9.610  1.00  0.00    -0.387 OA
ATOM     18  H   UNL     1      40.287  29.607   8.767  1.00  0.00     0.211 HD
ENDBRANCH   4  17
TORSDOF 7
ENDMDL
MODEL 7
REMARK VINA RESULT:    -4.484      2.021      4.987
REMARK INTER + INTRA:          -6.173
REMARK INTER:                  -5.729
REMARK INTRA:                  -0.444
REMARK UNBOUND:                -0.378
REMARK SMILES CCO[C@H]1O[C@@H](CO)[C@H](O)[C@H](O)[C@@H]1O
REMARK SMILES IDX 4 1 13 2 11 3 9 4 6 5 5 6 3 7 2 8 1 9 14 10 12 12 7 14 8 15
REMARK SMILES IDX 10 17
REMARK H PARENT 14 11 12 13 8 16 10 18
REMARK Flexibility Score: inf
ROOT
ATOM      1  C   UNL     1      38.630  28.500   9.834  1.00  0.00     0.281 C 
ATOM      2  C   UNL     1      39.402  27.698   8.771  1.00  0.00     0.202 C 
ATOM      3  C   UNL     1      40.831  27.415   9.251  1.00  0.00     0.179 C 
ATOM      4  C   UNL     1      41.522  28.724   9.674  1.00  0.00     0.177 C 
ATOM      5  C   UNL     1      40.637  29.519  10.663  1.00  0.00     0.178 C 
ATOM      6  O   UNL     1      39.301  29.703  10.201  1.00  0.00    -0.341 OA
ENDROOT
BRANCH   1   7
ATOM      7  O   UNL     1      38.368  27.682  10.962  1.00  0.00    -0.350 OA
BRANCH   7   8
ATOM      8  C   UNL     1      36.977  27.491  11.118  1.00  0.00     0.160 C 
ATOM      9  C   UNL     1      36.542  28.074  12.453  1.00  0.00     0.035 C 
ENDBRANCH   7   8
ENDBRANCH   1   7
BRANCH   2  10
ATOM     10  O   UNL     1      39.414  28.423   7.566  1.00  0.00    -0.385 OA
ATOM     11  H   UNL     1      38.478  28.453   7.234  1.00  0.00     0.211 HD
ENDBRANCH   2  10
BRANCH   3  12
ATOM     12  O   UNL     1      41.558  26.775   8.232  1.00  0.00    -0.387 OA
ATOM     13  H   UNL     1      41.135  25.887   8.095  1.00  0.00     0.211 HD
ENDBRANCH   3  12
BRANCH   5  14
ATOM     14  C   UNL     1      40.696  28.984  12.111  1.00  0.00     0.191 C 
BRANCH  14  15
ATOM     15  O   UNL     1      39.724  29.607  12.908  1.00  0.00    -0.394 OA
ATOM     16  H   UNL     1      40.210  30.140  13.590  1.00  0.00     0.210 HD
ENDBRANCH  14  15
ENDBRANCH   5  14
BRANCH   4  17
ATOM     17  O   UNL     1      41.781  29.527   8.549  1.00  0.00    -0.387 OA
ATOM     18  H   UNL     1      41.063  29.345   7.888  1.00  0.00     0.211 HD
ENDBRANCH   4  17
TORSDOF 7
ENDMDL
MODEL 8
REMARK VINA RESULT:    -4.475      5.082      6.874
REMARK INTER + INTRA:          -6.162
REMARK INTER:                  -5.965
REMARK INTRA:                  -0.197
REMARK UNBOUND:                -0.378
REMARK SMILES CCO[C@H]1O[C@@H](CO)[C@H](O)[C@H](O)[C@@H]1O
REMARK SMILES IDX 4 1 13 2 11 3 9 4 6 5 5 6 3 7 2 8 1 9 14 10 12 12 7 14 8 15
REMARK SMILES IDX 10 17
REMARK H PARENT 14 11 12 13 8 16 10 18
REMARK Flexibility Score: inf
ROOT
ATOM      1  C   UNL     1      43.839  30.089  10.887  1.00  0.00     0.281 C 
ATOM      2  C   UNL     1      44.713  29.981  12.149  1.00  0.00     0.202 C 
ATOM      3  C   UNL     1      44.567  28.590  12.781  1.00  0.00     0.179 C 
ATOM      4  C   UNL     1      43.081  28.263  13.015  1.00  0.00     0.177 C 
ATOM      5  C   UNL     1      42.256  28.495  11.728  1.00  0.00     0.178 C 
ATOM      6  O   UNL     1      42.472  29.777  11.143  1.00  0.00    -0.341 OA
ENDROOT
BRANCH   1   7
ATOM      7  O   UNL     1      44.376  29.278   9.855  1.00  0.00    -0.350 OA
BRANCH   7   8
ATOM      8  C   UNL     1      45.593  29.819   9.387  1.00  0.00     0.160 C 
ATOM      9  C   UNL     1      46.494  28.686   8.921  1.00  0.00     0.035 C 
ENDBRANCH   7   8
ENDBRANCH   1   7
BRANCH   2  10
ATOM     10  O   UNL     1      44.334  30.984  13.059  1.00  0.00    -0.385 OA
ATOM     11  H   UNL     1      43.530  30.654  13.539  1.00  0.00     0.211 HD
ENDBRANCH   2  10
BRANCH   3  12
ATOM     12  O   UNL     1      45.286  28.537  13.987  1.00  0.00    -0.387 OA
ATOM     13  H   UNL     1      44.907  27.784  14.511  1.00  0.00     0.211 HD
ENDBRANCH   3  12
BRANCH   5  14
ATOM     14  C   UNL     1      42.378  27.346  10.701  1.00  0.00     0.191 C 
BRANCH  14  15
ATOM     15  O   UNL     1      41.250  26.514  10.754  1.00  0.00    -0.394 OA
ATOM     16  H   UNL     1      40.581  26.898  10.128  1.00  0.00     0.210 HD
ENDBRANCH  14  15
ENDBRANCH   5  14
BRANCH   4  17
ATOM     17  O   UNL     1      42.559  29.069  14.042  1.00  0.00    -0.387 OA
ATOM     18  H   UNL     1      41.610  29.255  13.814  1.00  0.00     0.211 HD
ENDBRANCH   4  17
TORSDOF 7
ENDMDL
MODEL 9
REMARK VINA RESULT:    -4.424      3.511      5.751
REMARK INTER + INTRA:          -6.095
REMARK INTER:                  -5.658
REMARK INTRA:                  -0.437
REMARK UNBOUND:                -0.378
REMARK SMILES CCO[C@H]1O[C@@H](CO)[C@H](O)[C@H](O)[C@@H]1O
REMARK SMILES IDX 4 1 13 2 11 3 9 4 6 5 5 6 3 7 2 8 1 9 14 10 12 12 7 14 8 15
REMARK SMILES IDX 10 17
REMARK H PARENT 14 11 12 13 8 16 10 18
REMARK Flexibility Score: inf
ROOT
ATOM      1  C   UNL     1      43.264  28.105   9.652  1.00  0.00     0.281 C 
ATOM      2  C   UNL     1      42.090  28.141   8.659  1.00  0.00     0.202 C 
ATOM      3  C   UNL     1      40.874  28.826   9.296  1.00  0.00     0.179 C 
ATOM      4  C   UNL     1      40.535  28.167  10.645  1.00  0.00     0.177 C 
ATOM      5  C   UNL     1      41.791  28.077  11.545  1.00  0.00     0.178 C 
ATOM      6  O   UNL     1      42.912  27.490  10.889  1.00  0.00    -0.341 OA
ENDROOT
BRANCH   1   7
ATOM      7  O   UNL     1      43.775  29.413   9.845  1.00  0.00    -0.350 OA
BRANCH   7   8
ATOM      8  C   UNL     1      45.185  29.382   9.937  1.00  0.00     0.160 C 
ATOM      9  C   UNL     1      45.757  28.876   8.622  1.00  0.00     0.035 C 
ENDBRANCH   7   8
ENDBRANCH   1   7
BRANCH   2  10
ATOM     10  O   UNL     1      41.775  26.826   8.270  1.00  0.00    -0.385 OA
ATOM     11  H   UNL     1      41.006  26.534   8.827  1.00  0.00     0.211 HD
ENDBRANCH   2  10
BRANCH   3  12
ATOM     12  O   UNL     1      39.776  28.761   8.420  1.00  0.00    -0.387 OA
ATOM     13  H   UNL     1      39.829  29.562   7.837  1.00  0.00     0.211 HD
ENDBRANCH   3  12
BRANCH   5  14
ATOM     14  C   UNL     1      42.143  29.407  12.248  1.00  0.00     0.191 C 
BRANCH  14  15
ATOM     15  O   UNL     1      43.325  29.275  12.992  1.00  0.00    -0.394 OA
ATOM     16  H   UNL     1      43.937  29.995  12.689  1.00  0.00     0.210 HD
ENDBRANCH  14  15
ENDBRANCH   5  14
BRANCH   4  17
ATOM     17  O   UNL     1      40.025  26.872  10.444  1.00  0.00    -0.387 OA
ATOM     18  H   UNL     1      39.519  26.887   9.590  1.00  0.00     0.211 HD
ENDBRANCH   4  17
TORSDOF 7
ENDMDL
