MODEL 1
REMARK VINA RESULT:    -3.146      0.000      0.000
REMARK INTER + INTRA:          -7.386
REMARK INTER:                  -5.353
REMARK INTRA:                  -2.034
REMARK UNBOUND:                -2.034
REMARK SMILES CCCCCCCCCCCCCC(=O)[O-]
REMARK SMILES IDX 8 1 9 2 10 3 11 4 12 5 13 6 14 7 15 8 16 9 7 10 6 11 5 12
REMARK SMILES IDX 4 13 3 14 2 15 1 16
REMARK H PARENT
REMARK Flexibility Score: inf
ROOT
ATOM      1  C   UNL     1      61.285  33.450  59.497  1.00  0.00     0.000 C 
ENDROOT
BRANCH   1   2
ATOM      2  C   UNL     1      60.959  32.006  59.934  1.00  0.00     0.000 C 
BRANCH   2   3
ATOM      3  C   UNL     1      60.782  31.804  61.451  1.00  0.00     0.000 C 
BRANCH   3   4
ATOM      4  C   UNL     1      61.580  30.605  61.990  1.00  0.00     0.000 C 
BRANCH   4   5
ATOM      5  C   UNL     1      61.901  29.573  60.898  1.00  0.00     0.006 C 
BRANCH   5   6
ATOM      6  C   UNL     1      63.180  28.777  61.193  1.00  0.00     0.053 C 
BRANCH   6   7
ATOM      7  C   UNL     1      62.844  27.365  61.555  1.00  0.00     0.041 C 
ATOM      8  O   UNL     1      61.678  27.065  61.922  1.00  0.00    -0.550 OA
ATOM      9  O   UNL     1      63.808  26.370  61.440  1.00  0.00    -0.550 OA
ENDBRANCH   6   7
ENDBRANCH   5   6
ENDBRANCH   4   5
ENDBRANCH   3   4
ENDBRANCH   2   3
ENDBRANCH   1   2
BRANCH   1  10
ATOM     10  C   UNL     1      61.077  34.525  60.579  1.00  0.00     0.000 C 
BRANCH  10  11
ATOM     11  C   UNL     1      62.380  35.230  60.979  1.00  0.00    -0.000 C 
BRANCH  11  12
ATOM     12  C   UNL     1      63.596  34.531  60.353  1.00  0.00    -0.000 C 
BRANCH  12  13
ATOM     13  C   UNL     1      64.298  33.571  61.327  1.00  0.00    -0.000 C 
BRANCH  13  14
ATOM     14  C   UNL     1      64.582  32.196  60.700  1.00  0.00    -0.000 C 
BRANCH  14  15
ATOM     15  C   UNL     1      64.864  32.284  59.192  1.00  0.00    -0.003 C 
ATOM     16  C   UNL     1      64.245  31.129  58.405  1.00  0.00     0.004 C 
ENDBRANCH  14  15
ENDBRANCH  13  14
ENDBRANCH  12  13
ENDBRANCH  11  12
ENDBRANCH  10  11
ENDBRANCH   1  10
TORSDOF 12
ENDMDL
MODEL 2
REMARK VINA RESULT:    -3.134      1.360      2.920
REMARK INTER + INTRA:          -7.367
REMARK INTER:                  -5.940
REMARK INTRA:                  -1.427
REMARK UNBOUND:                -2.034
REMARK SMILES CCCCCCCCCCCCCC(=O)[O-]
REMARK SMILES IDX 8 1 9 2 10 3 11 4 12 5 13 6 14 7 15 8 16 9 7 10 6 11 5 12
REMARK SMILES IDX 4 13 3 14 2 15 1 16
REMARK H PARENT
REMARK Flexibility Score: inf
ROOT
ATOM      1  C   UNL     1      61.772  31.634  58.689  1.00  0.00     0.000 C 
ENDROOT
BRANCH   1   2
ATOM      2  C   UNL     1      63.272  31.722  59.043  1.00  0.00     0.000 C 
BRANCH   2   3
ATOM      3  C   UNL     1      63.855  30.481  59.744  1.00  0.00     0.000 C 
BRANCH   3   4
ATOM      4  C   UNL     1      63.936  30.641  61.271  1.00  0.00     0.000 C 
BRANCH   4   5
ATOM      5  C   UNL     1      62.724  30.030  61.992  1.00  0.00     0.006 C 
BRANCH   5   6
ATOM      6  C   UNL     1      62.054  28.912  61.181  1.00  0.00     0.053 C 
BRANCH   6   7
ATOM      7  C   UNL     1      62.487  27.571  61.685  1.00  0.00     0.041 C 
ATOM      8  O   UNL     1      63.609  27.103  61.360  1.00  0.00    -0.550 OA
ATOM      9  O   UNL     1      61.669  26.860  62.556  1.00  0.00    -0.550 OA
ENDBRANCH   6   7
ENDBRANCH   5   6
ENDBRANCH   4   5
ENDBRANCH   3   4
ENDBRANCH   2   3
ENDBRANCH   1   2
BRANCH   1  10
ATOM     10  C   UNL     1      60.898  32.766  59.257  1.00  0.00     0.000 C 
BRANCH  10  11
ATOM     11  C   UNL     1      61.433  33.327  60.582  1.00  0.00    -0.000 C 
BRANCH  11  12
ATOM     12  C   UNL     1      61.285  34.856  60.629  1.00  0.00    -0.000 C 
BRANCH  12  13
ATOM     13  C   UNL     1      62.514  35.554  61.235  1.00  0.00    -0.000 C 
BRANCH  13  14
ATOM     14  C   UNL     1      63.753  34.643  61.271  1.00  0.00    -0.000 C 
BRANCH  14  15
ATOM     15  C   UNL     1      64.932  35.283  62.020  1.00  0.00    -0.003 C 
ATOM     16  C   UNL     1      64.850  36.809  62.060  1.00  0.00     0.004 C 
ENDBRANCH  14  15
ENDBRANCH  13  14
ENDBRANCH  12  13
ENDBRANCH  11  12
ENDBRANCH  10  11
ENDBRANCH   1  10
TORSDOF 12
ENDMDL
MODEL 3
REMARK VINA RESULT:    -3.090      1.166      3.072
REMARK INTER + INTRA:          -7.291
REMARK INTER:                  -5.163
REMARK INTRA:                  -2.128
REMARK UNBOUND:                -2.034
REMARK SMILES CCCCCCCCCCCCCC(=O)[O-]
REMARK SMILES IDX 8 1 9 2 10 3 11 4 12 5 13 6 14 7 15 8 16 9 7 10 6 11 5 12
REMARK SMILES IDX 4 13 3 14 2 15 1 16
REMARK H PARENT
REMARK Flexibility Score: inf
ROOT
ATOM      1  C   UNL     1      61.865  30.463  58.150  1.00  0.00     0.000 C 
ENDROOT
BRANCH   1   2
ATOM      2  C   UNL     1      61.301  31.834  58.578  1.00  0.00     0.000 C 
BRANCH   2   3
ATOM      3  C   UNL     1      60.283  31.793  59.734  1.00  0.00     0.000 C 
BRANCH   3   4
ATOM      4  C   UNL     1      60.938  31.987  61.112  1.00  0.00     0.000 C 
BRANCH   4   5
ATOM      5  C   UNL     1      60.817  30.739  62.001  1.00  0.00     0.006 C 
BRANCH   5   6
ATOM      6  C   UNL     1      62.104  29.903  62.027  1.00  0.00     0.053 C 
BRANCH   6   7
ATOM      7  C   UNL     1      61.832  28.512  61.546  1.00  0.00     0.041 C 
ATOM      8  O   UNL     1      62.553  27.556  61.932  1.00  0.00    -0.550 OA
ATOM      9  O   UNL     1      60.750  28.266  60.709  1.00  0.00    -0.550 OA
ENDBRANCH   6   7
ENDBRANCH   5   6
ENDBRANCH   4   5
ENDBRANCH   3   4
ENDBRANCH   2   3
ENDBRANCH   1   2
BRANCH   1  10
ATOM     10  C   UNL     1      63.333  30.210  58.535  1.00  0.00     0.000 C 
BRANCH  10  11
ATOM     11  C   UNL     1      64.113  31.506  58.801  1.00  0.00    -0.000 C 
BRANCH  11  12
ATOM     12  C   UNL     1      64.842  31.439  60.151  1.00  0.00    -0.000 C 
BRANCH  12  13
ATOM     13  C   UNL     1      64.410  32.557  61.116  1.00  0.00    -0.000 C 
BRANCH  13  14
ATOM     14  C   UNL     1      64.009  33.847  60.382  1.00  0.00    -0.000 C 
BRANCH  14  15
ATOM     15  C   UNL     1      63.455  34.917  61.336  1.00  0.00    -0.003 C 
ATOM     16  C   UNL     1      62.079  35.434  60.912  1.00  0.00     0.004 C 
ENDBRANCH  14  15
ENDBRANCH  13  14
ENDBRANCH  12  13
ENDBRANCH  11  12
ENDBRANCH  10  11
ENDBRANCH   1  10
TORSDOF 12
ENDMDL
MODEL 4
REMARK VINA RESULT:    -3.054      2.739      4.087
REMARK INTER + INTRA:          -7.231
REMARK INTER:                  -5.883
REMARK INTRA:                  -1.348
REMARK UNBOUND:                -2.034
REMARK SMILES CCCCCCCCCCCCCC(=O)[O-]
REMARK SMILES IDX 8 1 9 2 10 3 11 4 12 5 13 6 14 7 15 8 16 9 7 10 6 11 5 12
REMARK SMILES IDX 4 13 3 14 2 15 1 16
REMARK H PARENT
REMARK Flexibility Score: inf
ROOT
ATOM      1  C   UNL     1      60.575  31.200  60.399  1.00  0.00     0.000 C 
ENDROOT
BRANCH   1   2
ATOM      2  C   UNL     1      61.029  30.924  61.848  1.00  0.00     0.000 C 
BRANCH   2   3
ATOM      3  C   UNL     1      62.127  29.855  61.999  1.00  0.00     0.000 C 
BRANCH   3   4
ATOM      4  C   UNL     1      63.543  30.423  61.804  1.00  0.00     0.000 C 
BRANCH   4   5
ATOM      5  C   UNL     1      64.104  30.139  60.402  1.00  0.00     0.006 C 
BRANCH   5   6
ATOM      6  C   UNL     1      65.144  31.177  59.958  1.00  0.00     0.053 C 
BRANCH   6   7
ATOM      7  C   UNL     1      64.576  32.064  58.896  1.00  0.00     0.041 C 
ATOM      8  O   UNL     1      64.799  33.302  58.918  1.00  0.00    -0.550 OA
ATOM      9  O   UNL     1      63.840  31.515  57.854  1.00  0.00    -0.550 OA
ENDBRANCH   6   7
ENDBRANCH   5   6
ENDBRANCH   4   5
ENDBRANCH   3   4
ENDBRANCH   2   3
ENDBRANCH   1   2
BRANCH   1  10
ATOM     10  C   UNL     1      61.081  32.523  59.796  1.00  0.00     0.000 C 
BRANCH  10  11
ATOM     11  C   UNL     1      61.626  33.493  60.854  1.00  0.00    -0.000 C 
BRANCH  11  12
ATOM     12  C   UNL     1      61.234  34.941  60.523  1.00  0.00    -0.000 C 
BRANCH  12  13
ATOM     13  C   UNL     1      62.453  35.849  60.291  1.00  0.00    -0.000 C 
BRANCH  13  14
ATOM     14  C   UNL     1      62.840  36.649  61.546  1.00  0.00    -0.000 C 
BRANCH  14  15
ATOM     15  C   UNL     1      64.326  36.496  61.906  1.00  0.00    -0.003 C 
ATOM     16  C   UNL     1      64.786  35.038  61.919  1.00  0.00     0.004 C 
ENDBRANCH  14  15
ENDBRANCH  13  14
ENDBRANCH  12  13
ENDBRANCH  11  12
ENDBRANCH  10  11
ENDBRANCH   1  10
TORSDOF 12
ENDMDL
MODEL 5
REMARK VINA RESULT:    -3.037      3.768      5.926
REMARK INTER + INTRA:          -7.200
REMARK INTER:                  -5.241
REMARK INTRA:                  -1.959
REMARK UNBOUND:                -2.034
REMARK SMILES CCCCCCCCCCCCCC(=O)[O-]
REMARK SMILES IDX 8 1 9 2 10 3 11 4 12 5 13 6 14 7 15 8 16 9 7 10 6 11 5 12
REMARK SMILES IDX 4 13 3 14 2 15 1 16
REMARK H PARENT
REMARK Flexibility Score: inf
ROOT
ATOM      1  C   UNL     1      63.726  31.800  58.192  1.00  0.00     0.000 C 
ENDROOT
BRANCH   1   2
ATOM      2  C   UNL     1      64.562  33.096  58.252  1.00  0.00     0.000 C 
BRANCH   2   3
ATOM      3  C   UNL     1      63.797  34.350  58.716  1.00  0.00     0.000 C 
BRANCH   3   4
ATOM      4  C   UNL     1      62.721  34.036  59.770  1.00  0.00     0.000 C 
BRANCH   4   5
ATOM      5  C   UNL     1      62.956  34.784  61.092  1.00  0.00     0.006 C 
BRANCH   5   6
ATOM      6  C   UNL     1      64.371  34.574  61.648  1.00  0.00     0.053 C 
BRANCH   6   7
ATOM      7  C   UNL     1      65.067  35.888  61.815  1.00  0.00     0.041 C 
ATOM      8  O   UNL     1      66.227  36.054  61.355  1.00  0.00    -0.550 OA
ATOM      9  O   UNL     1      64.415  36.945  62.437  1.00  0.00    -0.550 OA
ENDBRANCH   6   7
ENDBRANCH   5   6
ENDBRANCH   4   5
ENDBRANCH   3   4
ENDBRANCH   2   3
ENDBRANCH   1   2
BRANCH   1  10
ATOM     10  C   UNL     1      64.354  30.582  58.892  1.00  0.00     0.000 C 
BRANCH  10  11
ATOM     11  C   UNL     1      65.132  30.958  60.162  1.00  0.00    -0.000 C 
BRANCH  11  12
ATOM     12  C   UNL     1      64.224  30.891  61.400  1.00  0.00    -0.000 C 
BRANCH  12  13
ATOM     13  C   UNL     1      63.148  29.799  61.290  1.00  0.00    -0.000 C 
BRANCH  13  14
ATOM     14  C   UNL     1      61.906  30.106  62.145  1.00  0.00    -0.000 C 
BRANCH  14  15
ATOM     15  C   UNL     1      61.107  31.305  61.611  1.00  0.00    -0.003 C 
ATOM     16  C   UNL     1      60.555  31.072  60.205  1.00  0.00     0.004 C 
ENDBRANCH  14  15
ENDBRANCH  13  14
ENDBRANCH  12  13
ENDBRANCH  11  12
ENDBRANCH  10  11
ENDBRANCH   1  10
TORSDOF 12
ENDMDL
MODEL 6
REMARK VINA RESULT:    -3.024     11.165     12.698
REMARK INTER + INTRA:          -7.178
REMARK INTER:                  -5.600
REMARK INTRA:                  -1.578
REMARK UNBOUND:                -2.034
REMARK SMILES CCCCCCCCCCCCCC(=O)[O-]
REMARK SMILES IDX 8 1 9 2 10 3 11 4 12 5 13 6 14 7 15 8 16 9 7 10 6 11 5 12
REMARK SMILES IDX 4 13 3 14 2 15 1 16
REMARK H PARENT
REMARK Flexibility Score: inf
ROOT
ATOM      1  C   UNL     1      57.393  28.949  52.100  1.00  0.00     0.000 C 
ENDROOT
BRANCH   1   2
ATOM      2  C   UNL     1      58.473  29.574  51.192  1.00  0.00     0.000 C 
BRANCH   2   3
ATOM      3  C   UNL     1      58.402  29.164  49.710  1.00  0.00     0.000 C 
BRANCH   3   4
ATOM      4  C   UNL     1      59.720  28.561  49.194  1.00  0.00     0.000 C 
BRANCH   4   5
ATOM      5  C   UNL     1      59.718  27.025  49.228  1.00  0.00     0.006 C 
BRANCH   5   6
ATOM      6  C   UNL     1      60.457  26.458  50.448  1.00  0.00     0.053 C 
BRANCH   6   7
ATOM      7  C   UNL     1      60.830  25.028  50.215  1.00  0.00     0.041 C 
ATOM      8  O   UNL     1      62.038  24.703  50.076  1.00  0.00    -0.550 OA
ATOM      9  O   UNL     1      59.846  24.048  50.201  1.00  0.00    -0.550 OA
ENDBRANCH   6   7
ENDBRANCH   5   6
ENDBRANCH   4   5
ENDBRANCH   3   4
ENDBRANCH   2   3
ENDBRANCH   1   2
BRANCH   1  10
ATOM     10  C   UNL     1      56.072  29.734  52.183  1.00  0.00     0.000 C 
BRANCH  10  11
ATOM     11  C   UNL     1      54.851  28.893  51.785  1.00  0.00    -0.000 C 
BRANCH  11  12
ATOM     12  C   UNL     1      54.971  28.404  50.334  1.00  0.00    -0.000 C 
BRANCH  12  13
ATOM     13  C   UNL     1      54.065  27.198  50.036  1.00  0.00    -0.000 C 
BRANCH  13  14
ATOM     14  C   UNL     1      54.863  25.924  49.713  1.00  0.00    -0.000 C 
BRANCH  14  15
ATOM     15  C   UNL     1      56.355  26.062  50.055  1.00  0.00    -0.003 C 
ATOM     16  C   UNL     1      56.711  25.456  51.413  1.00  0.00     0.004 C 
ENDBRANCH  14  15
ENDBRANCH  13  14
ENDBRANCH  12  13
ENDBRANCH  11  12
ENDBRANCH  10  11
ENDBRANCH   1  10
TORSDOF 12
ENDMDL
MODEL 7
REMARK VINA RESULT:    -3.018      1.132      2.583
REMARK INTER + INTRA:          -7.168
REMARK INTER:                  -5.849
REMARK INTRA:                  -1.320
REMARK UNBOUND:                -2.034
REMARK SMILES CCCCCCCCCCCCCC(=O)[O-]
REMARK SMILES IDX 8 1 9 2 10 3 11 4 12 5 13 6 14 7 15 8 16 9 7 10 6 11 5 12
REMARK SMILES IDX 4 13 3 14 2 15 1 16
REMARK H PARENT
REMARK Flexibility Score: inf
ROOT
ATOM      1  C   UNL     1      61.003  32.054  59.612  1.00  0.00     0.000 C 
ENDROOT
BRANCH   1   2
ATOM      2  C   UNL     1      60.830  31.787  61.122  1.00  0.00     0.000 C 
BRANCH   2   3
ATOM      3  C   UNL     1      61.232  30.376  61.589  1.00  0.00     0.000 C 
BRANCH   3   4
ATOM      4  C   UNL     1      62.736  30.252  61.888  1.00  0.00     0.000 C 
BRANCH   4   5
ATOM      5  C   UNL     1      63.317  28.903  61.438  1.00  0.00     0.006 C 
BRANCH   5   6
ATOM      6  C   UNL     1      62.379  27.725  61.737  1.00  0.00     0.053 C 
BRANCH   6   7
ATOM      7  C   UNL     1      63.089  26.425  61.524  1.00  0.00     0.041 C 
ATOM      8  O   UNL     1      62.718  25.392  62.138  1.00  0.00    -0.550 OA
ATOM      9  O   UNL     1      64.131  26.346  60.608  1.00  0.00    -0.550 OA
ENDBRANCH   6   7
ENDBRANCH   5   6
ENDBRANCH   4   5
ENDBRANCH   3   4
ENDBRANCH   2   3
ENDBRANCH   1   2
BRANCH   1  10
ATOM     10  C   UNL     1      62.096  33.076  59.249  1.00  0.00     0.000 C 
BRANCH  10  11
ATOM     11  C   UNL     1      63.485  32.438  59.104  1.00  0.00    -0.000 C 
BRANCH  11  12
ATOM     12  C   UNL     1      64.491  33.091  60.064  1.00  0.00    -0.000 C 
BRANCH  12  13
ATOM     13  C   UNL     1      63.810  33.798  61.248  1.00  0.00    -0.000 C 
BRANCH  13  14
ATOM     14  C   UNL     1      64.569  35.056  61.702  1.00  0.00    -0.000 C 
BRANCH  14  15
ATOM     15  C   UNL     1      63.771  36.345  61.455  1.00  0.00    -0.003 C 
ATOM     16  C   UNL     1      62.282  36.086  61.222  1.00  0.00     0.004 C 
ENDBRANCH  14  15
ENDBRANCH  13  14
ENDBRANCH  12  13
ENDBRANCH  11  12
ENDBRANCH  10  11
ENDBRANCH   1  10
TORSDOF 12
ENDMDL
MODEL 8
REMARK VINA RESULT:    -2.989     11.672     13.503
REMARK INTER + INTRA:          -7.119
REMARK INTER:                  -5.511
REMARK INTRA:                  -1.609
REMARK UNBOUND:                -2.034
REMARK SMILES CCCCCCCCCCCCCC(=O)[O-]
REMARK SMILES IDX 8 1 9 2 10 3 11 4 12 5 13 6 14 7 15 8 16 9 7 10 6 11 5 12
REMARK SMILES IDX 4 13 3 14 2 15 1 16
REMARK H PARENT
REMARK Flexibility Score: inf
ROOT
ATOM      1  C   UNL     1      56.909  26.699  51.244  1.00  0.00     0.000 C 
ENDROOT
BRANCH   1   2
ATOM      2  C   UNL     1      57.497  27.328  49.963  1.00  0.00     0.000 C 
BRANCH   2   3
ATOM      3  C   UNL     1      57.788  28.838  50.048  1.00  0.00     0.000 C 
BRANCH   3   4
ATOM      4  C   UNL     1      59.052  29.246  49.272  1.00  0.00     0.000 C 
BRANCH   4   5
ATOM      5  C   UNL     1      60.228  29.585  50.200  1.00  0.00     0.006 C 
BRANCH   5   6
ATOM      6  C   UNL     1      60.906  28.335  50.778  1.00  0.00     0.053 C 
BRANCH   6   7
ATOM      7  C   UNL     1      61.364  27.433  49.676  1.00  0.00     0.041 C 
ATOM      8  O   UNL     1      62.289  27.795  48.904  1.00  0.00    -0.550 OA
ATOM      9  O   UNL     1      60.801  26.171  49.533  1.00  0.00    -0.550 OA
ENDBRANCH   6   7
ENDBRANCH   5   6
ENDBRANCH   4   5
ENDBRANCH   3   4
ENDBRANCH   2   3
ENDBRANCH   1   2
BRANCH   1  10
ATOM     10  C   UNL     1      55.695  25.778  51.024  1.00  0.00     0.000 C 
BRANCH  10  11
ATOM     11  C   UNL     1      55.136  25.857  49.596  1.00  0.00    -0.000 C 
BRANCH  11  12
ATOM     12  C   UNL     1      53.610  26.031  49.614  1.00  0.00    -0.000 C 
BRANCH  12  13
ATOM     13  C   UNL     1      53.144  27.094  50.623  1.00  0.00    -0.000 C 
BRANCH  13  14
ATOM     14  C   UNL     1      53.019  28.491  49.993  1.00  0.00    -0.000 C 
BRANCH  14  15
ATOM     15  C   UNL     1      54.176  29.421  50.389  1.00  0.00    -0.003 C 
ATOM     16  C   UNL     1      54.471  29.396  51.889  1.00  0.00     0.004 C 
ENDBRANCH  14  15
ENDBRANCH  13  14
ENDBRANCH  12  13
ENDBRANCH  11  12
ENDBRANCH  10  11
ENDBRANCH   1  10
TORSDOF 12
ENDMDL
MODEL 9
REMARK VINA RESULT:    -2.989      1.562      2.489
REMARK INTER + INTRA:          -7.119
REMARK INTER:                  -5.061
REMARK INTRA:                  -2.057
REMARK UNBOUND:                -2.034
REMARK SMILES CCCCCCCCCCCCCC(=O)[O-]
REMARK SMILES IDX 8 1 9 2 10 3 11 4 12 5 13 6 14 7 15 8 16 9 7 10 6 11 5 12
REMARK SMILES IDX 4 13 3 14 2 15 1 16
REMARK H PARENT
REMARK Flexibility Score: inf
ROOT
ATOM      1  C   UNL     1      61.993  34.712  57.986  1.00  0.00     0.000 C 
ENDROOT
BRANCH   1   2
ATOM      2  C   UNL     1      60.762  33.957  58.531  1.00  0.00     0.000 C 
BRANCH   2   3
ATOM      3  C   UNL     1      61.071  32.634  59.255  1.00  0.00     0.000 C 
BRANCH   3   4
ATOM      4  C   UNL     1      60.587  32.625  60.715  1.00  0.00     0.000 C 
BRANCH   4   5
ATOM      5  C   UNL     1      61.128  31.424  61.507  1.00  0.00     0.006 C 
BRANCH   5   6
ATOM      6  C   UNL     1      62.056  30.532  60.671  1.00  0.00     0.053 C 
BRANCH   6   7
ATOM      7  C   UNL     1      62.807  29.587  61.554  1.00  0.00     0.041 C 
ATOM      8  O   UNL     1      64.007  29.817  61.854  1.00  0.00    -0.550 OA
ATOM      9  O   UNL     1      62.164  28.476  62.087  1.00  0.00    -0.550 OA
ENDBRANCH   6   7
ENDBRANCH   5   6
ENDBRANCH   4   5
ENDBRANCH   3   4
ENDBRANCH   2   3
ENDBRANCH   1   2
BRANCH   1  10
ATOM     10  C   UNL     1      62.389  35.973  58.775  1.00  0.00     0.000 C 
BRANCH  10  11
ATOM     11  C   UNL     1      61.532  36.187  60.031  1.00  0.00    -0.000 C 
BRANCH  11  12
ATOM     12  C   UNL     1      62.316  35.817  61.299  1.00  0.00    -0.000 C 
BRANCH  12  13
ATOM     13  C   UNL     1      63.820  36.111  61.175  1.00  0.00    -0.000 C 
BRANCH  13  14
ATOM     14  C   UNL     1      64.693  34.955  61.693  1.00  0.00    -0.000 C 
BRANCH  14  15
ATOM     15  C   UNL     1      64.137  33.578  61.301  1.00  0.00    -0.003 C 
ATOM     16  C   UNL     1      64.656  33.092  59.948  1.00  0.00     0.004 C 
ENDBRANCH  14  15
ENDBRANCH  13  14
ENDBRANCH  12  13
ENDBRANCH  11  12
ENDBRANCH  10  11
ENDBRANCH   1  10
TORSDOF 12
ENDMDL
