MODEL 1
REMARK VINA RESULT:    -3.994      0.000      0.000
REMARK INTER + INTRA:          -4.111
REMARK INTER:                  -4.111
REMARK INTRA:                   0.000
REMARK UNBOUND:                 0.000
REMARK SMILES Nc1ncnc2nc[nH]c12
REMARK SMILES IDX 8 1 7 2 6 3 5 4 4 5 3 6 2 7 10 8 9 9 1 11
REMARK H PARENT 9 10 1 12 1 13
REMARK Flexibility Score: inf
ROOT
ATOM      1  C   UNL     1      13.687 -22.443  17.026  1.00  0.00     0.199 A 
ATOM      2  N   UNL     1      14.792 -22.133  17.757  1.00  0.00    -0.217 NA
ATOM      3  C   UNL     1      15.620 -23.150  17.467  1.00  0.00     0.182 A 
ATOM      4  N   UNL     1      16.876 -23.330  17.941  1.00  0.00    -0.215 NA
ATOM      5  C   UNL     1      17.569 -24.434  17.529  1.00  0.00     0.226 A 
ATOM      6  N   UNL     1      17.000 -25.329  16.658  1.00  0.00    -0.217 NA
ATOM      7  C   UNL     1      15.733 -25.149  16.179  1.00  0.00     0.152 A 
ATOM      8  C   UNL     1      15.041 -24.021  16.608  1.00  0.00     0.127 A 
ATOM      9  N   UNL     1      13.808 -23.591  16.312  1.00  0.00    -0.340 N 
ATOM     10  H   UNL     1      13.097 -24.026  15.684  1.00  0.00     0.168 HD
ENDROOT
BRANCH   7  11
ATOM     11  N   UNL     1      15.161 -26.094  15.274  1.00  0.00    -0.382 N 
ATOM     12  H   UNL     1      14.883 -27.049  15.588  1.00  0.00     0.158 HD
ATOM     13  H   UNL     1      15.013 -25.834  14.274  1.00  0.00     0.158 HD
ENDBRANCH   7  11
TORSDOF 1
ENDMDL
MODEL 2
REMARK VINA RESULT:    -3.858     13.274     15.104
REMARK INTER + INTRA:          -3.970
REMARK INTER:                  -3.970
REMARK INTRA:                   0.000
REMARK UNBOUND:                 0.000
REMARK SMILES Nc1ncnc2nc[nH]c12
REMARK SMILES IDX 8 1 7 2 6 3 5 4 4 5 3 6 2 7 10 8 9 9 1 11
REMARK H PARENT 9 10 1 12 1 13
REMARK Flexibility Score: inf
ROOT
ATOM      1  C   UNL     1      14.942 -10.691  15.736  1.00  0.00     0.199 A 
ATOM      2  N   UNL     1      15.649 -11.098  16.826  1.00  0.00    -0.217 NA
ATOM      3  C   UNL     1      15.480 -10.071  17.674  1.00  0.00     0.182 A 
ATOM      4  N   UNL     1      15.986  -9.966  18.927  1.00  0.00    -0.215 NA
ATOM      5  C   UNL     1      15.703  -8.837  19.644  1.00  0.00     0.226 A 
ATOM      6  N   UNL     1      14.926  -7.843  19.103  1.00  0.00    -0.217 NA
ATOM      7  C   UNL     1      14.415  -7.948  17.840  1.00  0.00     0.152 A 
ATOM      8  C   UNL     1      14.712  -9.103  17.122  1.00  0.00     0.127 A 
ATOM      9  N   UNL     1      14.357  -9.476  15.887  1.00  0.00    -0.340 N 
ATOM     10  H   UNL     1      13.770  -8.963  15.193  1.00  0.00     0.168 HD
ENDROOT
BRANCH   7  11
ATOM     11  N   UNL     1      13.609  -6.902  17.297  1.00  0.00    -0.382 N 
ATOM     12  H   UNL     1      13.990  -6.229  16.596  1.00  0.00     0.158 HD
ATOM     13  H   UNL     1      12.615  -6.798  17.599  1.00  0.00     0.158 HD
ENDBRANCH   7  11
TORSDOF 1
ENDMDL
MODEL 3
REMARK VINA RESULT:    -3.810     13.288     14.854
REMARK INTER + INTRA:          -3.921
REMARK INTER:                  -3.921
REMARK INTRA:                   0.000
REMARK UNBOUND:                 0.000
REMARK SMILES Nc1ncnc2nc[nH]c12
REMARK SMILES IDX 8 1 7 2 6 3 5 4 4 5 3 6 2 7 10 8 9 9 1 11
REMARK H PARENT 9 10 1 12 1 13
REMARK Flexibility Score: inf
ROOT
ATOM      1  C   UNL     1      14.215  -6.914  17.842  1.00  0.00     0.199 A 
ATOM      2  N   UNL     1      14.997  -7.467  18.809  1.00  0.00    -0.217 NA
ATOM      3  C   UNL     1      15.209  -8.704  18.332  1.00  0.00     0.182 A 
ATOM      4  N   UNL     1      15.938  -9.683  18.919  1.00  0.00    -0.215 NA
ATOM      5  C   UNL     1      16.041 -10.885  18.276  1.00  0.00     0.226 A 
ATOM      6  N   UNL     1      15.420 -11.085  17.068  1.00  0.00    -0.217 NA
ATOM      7  C   UNL     1      14.684 -10.098  16.475  1.00  0.00     0.152 A 
ATOM      8  C   UNL     1      14.589  -8.881  17.142  1.00  0.00     0.127 A 
ATOM      9  N   UNL     1      13.948  -7.753  16.809  1.00  0.00    -0.340 N 
ATOM     10  H   UNL     1      13.376  -7.553  15.959  1.00  0.00     0.168 HD
ENDROOT
BRANCH   7  11
ATOM     11  N   UNL     1      14.046 -10.328  15.218  1.00  0.00    -0.382 N 
ATOM     12  H   UNL     1      14.532 -10.834  14.445  1.00  0.00     0.158 HD
ATOM     13  H   UNL     1      13.072  -9.989  15.057  1.00  0.00     0.158 HD
ENDBRANCH   7  11
TORSDOF 1
ENDMDL
MODEL 4
REMARK VINA RESULT:    -3.725      2.479      3.569
REMARK INTER + INTRA:          -3.834
REMARK INTER:                  -3.834
REMARK INTRA:                   0.000
REMARK UNBOUND:                 0.000
REMARK SMILES Nc1ncnc2nc[nH]c12
REMARK SMILES IDX 8 1 7 2 6 3 5 4 4 5 3 6 2 7 10 8 9 9 1 11
REMARK H PARENT 9 10 1 12 1 13
REMARK Flexibility Score: inf
ROOT
ATOM      1  C   UNL     1      10.944 -20.732  17.458  1.00  0.00     0.199 A 
ATOM      2  N   UNL     1      11.745 -20.021  18.297  1.00  0.00    -0.217 NA
ATOM      3  C   UNL     1      12.917 -20.668  18.191  1.00  0.00     0.182 A 
ATOM      4  N   UNL     1      14.070 -20.361  18.832  1.00  0.00    -0.215 NA
ATOM      5  C   UNL     1      15.168 -21.141  18.594  1.00  0.00     0.226 A 
ATOM      6  N   UNL     1      15.093 -22.204  17.728  1.00  0.00    -0.217 NA
ATOM      7  C   UNL     1      13.930 -22.514  17.081  1.00  0.00     0.152 A 
ATOM      8  C   UNL     1      12.822 -21.710  17.334  1.00  0.00     0.127 A 
ATOM      9  N   UNL     1      11.574 -21.772  16.853  1.00  0.00    -0.340 N 
ATOM     10  H   UNL     1      11.167 -22.453  16.175  1.00  0.00     0.168 HD
ENDROOT
BRANCH   7  11
ATOM     11  N   UNL     1      13.875 -23.624  16.184  1.00  0.00    -0.382 N 
ATOM     12  H   UNL     1      14.060 -23.509  15.163  1.00  0.00     0.158 HD
ATOM     13  H   UNL     1      13.647 -24.576  16.545  1.00  0.00     0.158 HD
ENDBRANCH   7  11
TORSDOF 1
ENDMDL
MODEL 5
REMARK VINA RESULT:    -3.703      4.830      6.387
REMARK INTER + INTRA:          -3.811
REMARK INTER:                  -3.811
REMARK INTRA:                   0.000
REMARK UNBOUND:                 0.000
REMARK SMILES Nc1ncnc2nc[nH]c12
REMARK SMILES IDX 8 1 7 2 6 3 5 4 4 5 3 6 2 7 10 8 9 9 1 11
REMARK H PARENT 9 10 1 12 1 13
REMARK Flexibility Score: inf
ROOT
ATOM      1  C   UNL     1       9.090 -21.951  19.556  1.00  0.00     0.199 A 
ATOM      2  N   UNL     1       9.166 -20.635  19.895  1.00  0.00    -0.217 NA
ATOM      3  C   UNL     1      10.147 -20.190  19.092  1.00  0.00     0.182 A 
ATOM      4  N   UNL     1      10.626 -18.924  19.028  1.00  0.00    -0.215 NA
ATOM      5  C   UNL     1      11.633 -18.661  18.141  1.00  0.00     0.226 A 
ATOM      6  N   UNL     1      12.138 -19.657  17.343  1.00  0.00    -0.217 NA
ATOM      7  C   UNL     1      11.655 -20.933  17.407  1.00  0.00     0.152 A 
ATOM      8  C   UNL     1      10.630 -21.186  18.314  1.00  0.00     0.127 A 
ATOM      9  N   UNL     1       9.972 -22.318  18.591  1.00  0.00    -0.340 N 
ATOM     10  H   UNL     1      10.098 -23.266  18.173  1.00  0.00     0.168 HD
ENDROOT
BRANCH   7  11
ATOM     11  N   UNL     1      12.195 -21.954  16.566  1.00  0.00    -0.382 N 
ATOM     12  H   UNL     1      12.857 -21.728  15.792  1.00  0.00     0.158 HD
ATOM     13  H   UNL     1      11.929 -22.952  16.720  1.00  0.00     0.158 HD
ENDBRANCH   7  11
TORSDOF 1
ENDMDL
MODEL 6
REMARK VINA RESULT:    -3.682     10.815     12.141
REMARK INTER + INTRA:          -3.790
REMARK INTER:                  -3.790
REMARK INTRA:                   0.000
REMARK UNBOUND:                 0.000
REMARK SMILES Nc1ncnc2nc[nH]c12
REMARK SMILES IDX 8 1 7 2 6 3 5 4 4 5 3 6 2 7 10 8 9 9 1 11
REMARK H PARENT 9 10 1 12 1 13
REMARK Flexibility Score: inf
ROOT
ATOM      1  C   UNL     1      16.709 -12.498  10.373  1.00  0.00     0.199 A 
ATOM      2  N   UNL     1      17.346 -13.571  10.913  1.00  0.00    -0.217 NA
ATOM      3  C   UNL     1      16.879 -13.577  12.172  1.00  0.00     0.182 A 
ATOM      4  N   UNL     1      17.201 -14.458  13.150  1.00  0.00    -0.215 NA
ATOM      5  C   UNL     1      16.617 -14.302  14.376  1.00  0.00     0.226 A 
ATOM      6  N   UNL     1      15.731 -13.279  14.601  1.00  0.00    -0.217 NA
ATOM      7  C   UNL     1      15.405 -12.390  13.616  1.00  0.00     0.152 A 
ATOM      8  C   UNL     1      16.007 -12.562  12.373  1.00  0.00     0.127 A 
ATOM      9  N   UNL     1      15.882 -11.860  11.240  1.00  0.00    -0.340 N 
ATOM     10  H   UNL     1      15.292 -11.019  11.054  1.00  0.00     0.168 HD
ENDROOT
BRANCH   7  11
ATOM     11  N   UNL     1      14.479 -11.333  13.872  1.00  0.00    -0.382 N 
ATOM     12  H   UNL     1      13.576 -11.508  14.365  1.00  0.00     0.158 HD
ATOM     13  H   UNL     1      14.699 -10.360  13.565  1.00  0.00     0.158 HD
ENDBRANCH   7  11
TORSDOF 1
ENDMDL
MODEL 7
REMARK VINA RESULT:    -3.672     11.375     12.536
REMARK INTER + INTRA:          -3.779
REMARK INTER:                  -3.779
REMARK INTRA:                   0.000
REMARK UNBOUND:                 0.000
REMARK SMILES Nc1ncnc2nc[nH]c12
REMARK SMILES IDX 8 1 7 2 6 3 5 4 4 5 3 6 2 7 10 8 9 9 1 11
REMARK H PARENT 9 10 1 12 1 13
REMARK Flexibility Score: inf
ROOT
ATOM      1  C   UNL     1      15.303 -12.578  12.718  1.00  0.00     0.199 A 
ATOM      2  N   UNL     1      16.159 -13.342  13.449  1.00  0.00    -0.217 NA
ATOM      3  C   UNL     1      16.133 -12.735  14.646  1.00  0.00     0.182 A 
ATOM      4  N   UNL     1      16.823 -13.101  15.753  1.00  0.00    -0.215 NA
ATOM      5  C   UNL     1      16.665 -12.354  16.887  1.00  0.00     0.226 A 
ATOM      6  N   UNL     1      15.830 -11.265  16.894  1.00  0.00    -0.217 NA
ATOM      7  C   UNL     1      15.134 -10.894  15.778  1.00  0.00     0.152 A 
ATOM      8  C   UNL     1      15.305 -11.665  14.632  1.00  0.00     0.127 A 
ATOM      9  N   UNL     1      14.763 -11.545  13.413  1.00  0.00    -0.340 N 
ATOM     10  H   UNL     1      14.086 -10.830  13.066  1.00  0.00     0.168 HD
ENDROOT
BRANCH   7  11
ATOM     11  N   UNL     1      14.270  -9.757  15.808  1.00  0.00    -0.382 N 
ATOM     12  H   UNL     1      13.959  -9.287  14.931  1.00  0.00     0.158 HD
ATOM     13  H   UNL     1      13.936  -9.380  16.722  1.00  0.00     0.158 HD
ENDBRANCH   7  11
TORSDOF 1
ENDMDL
MODEL 8
REMARK VINA RESULT:    -3.611     11.062     12.244
REMARK INTER + INTRA:          -3.716
REMARK INTER:                  -3.716
REMARK INTRA:                   0.000
REMARK UNBOUND:                 0.000
REMARK SMILES Nc1ncnc2nc[nH]c12
REMARK SMILES IDX 8 1 7 2 6 3 5 4 4 5 3 6 2 7 10 8 9 9 1 11
REMARK H PARENT 9 10 1 12 1 13
REMARK Flexibility Score: inf
ROOT
ATOM      1  C   UNL     1      14.628 -10.318  16.228  1.00  0.00     0.199 A 
ATOM      2  N   UNL     1      15.602 -11.093  16.778  1.00  0.00    -0.217 NA
ATOM      3  C   UNL     1      15.930 -11.904  15.759  1.00  0.00     0.182 A 
ATOM      4  N   UNL     1      16.866 -12.884  15.775  1.00  0.00    -0.215 NA
ATOM      5  C   UNL     1      17.060 -13.609  14.632  1.00  0.00     0.226 A 
ATOM      6  N   UNL     1      16.322 -13.344  13.505  1.00  0.00    -0.217 NA
ATOM      7  C   UNL     1      15.378 -12.356  13.488  1.00  0.00     0.152 A 
ATOM      8  C   UNL     1      15.193 -11.627  14.659  1.00  0.00     0.127 A 
ATOM      9  N   UNL     1      14.356 -10.619  14.933  1.00  0.00    -0.340 N 
ATOM     10  H   UNL     1      13.654 -10.164  14.309  1.00  0.00     0.168 HD
ENDROOT
BRANCH   7  11
ATOM     11  N   UNL     1      14.623 -12.098  12.304  1.00  0.00    -0.382 N 
ATOM     12  H   UNL     1      14.523 -11.133  11.921  1.00  0.00     0.158 HD
ATOM     13  H   UNL     1      14.156 -12.885  11.800  1.00  0.00     0.158 HD
ENDBRANCH   7  11
TORSDOF 1
ENDMDL
MODEL 9
REMARK VINA RESULT:    -3.596      1.847      3.988
REMARK INTER + INTRA:          -3.701
REMARK INTER:                  -3.701
REMARK INTRA:                   0.000
REMARK UNBOUND:                 0.000
REMARK SMILES Nc1ncnc2nc[nH]c12
REMARK SMILES IDX 8 1 7 2 6 3 5 4 4 5 3 6 2 7 10 8 9 9 1 11
REMARK H PARENT 9 10 1 12 1 13
REMARK Flexibility Score: inf
ROOT
ATOM      1  C   UNL     1      14.886 -23.905  16.515  1.00  0.00     0.199 A 
ATOM      2  N   UNL     1      15.591 -23.292  17.504  1.00  0.00    -0.217 NA
ATOM      3  C   UNL     1      14.729 -22.353  17.929  1.00  0.00     0.182 A 
ATOM      4  N   UNL     1      14.939 -21.452  18.919  1.00  0.00    -0.215 NA
ATOM      5  C   UNL     1      13.936 -20.569  19.210  1.00  0.00     0.226 A 
ATOM      6  N   UNL     1      12.754 -20.603  18.514  1.00  0.00    -0.217 NA
ATOM      7  C   UNL     1      12.541 -21.511  17.516  1.00  0.00     0.152 A 
ATOM      8  C   UNL     1      13.571 -22.403  17.231  1.00  0.00     0.127 A 
ATOM      9  N   UNL     1      13.647 -23.385  16.324  1.00  0.00    -0.340 N 
ATOM     10  H   UNL     1      12.930 -23.688  15.628  1.00  0.00     0.168 HD
ENDROOT
BRANCH   7  11
ATOM     11  N   UNL     1      11.302 -21.528  16.805  1.00  0.00    -0.382 N 
ATOM     12  H   UNL     1      10.478 -20.980  17.135  1.00  0.00     0.158 HD
ATOM     13  H   UNL     1      11.207 -22.098  15.936  1.00  0.00     0.158 HD
ENDBRANCH   7  11
TORSDOF 1
ENDMDL
