MODEL 1
REMARK VINA RESULT:    -5.119      0.000      0.000
REMARK INTER + INTRA:         -15.613
REMARK INTER:                 -12.898
REMARK INTRA:                  -2.714
REMARK UNBOUND:                -2.714
REMARK SMILES CCCCCCCCCCCCCCCCCCCCCCCCCCCC(=O)[O-]
REMARK SMILES IDX 15 1 16 2 17 3 18 4 19 5 20 6 21 7 22 8 23 9 24 10 25 11
REMARK SMILES IDX 26 12 27 13 28 14 29 15 30 16 14 17 13 18 12 19 11 20 10 21
REMARK SMILES IDX 9 22 8 23 7 24 6 25 5 26 4 27 3 28 2 29 1 30
REMARK H PARENT
REMARK Flexibility Score: inf
ROOT
ATOM      1  C   UNL     1      13.817  15.994  63.154  1.00  0.00     0.000 C 
ENDROOT
BRANCH   1   2
ATOM      2  C   UNL     1      12.927  17.207  63.498  1.00  0.00     0.000 C 
BRANCH   2   3
ATOM      3  C   UNL     1      11.466  16.831  63.813  1.00  0.00     0.000 C 
BRANCH   3   4
ATOM      4  C   UNL     1      10.573  18.010  64.237  1.00  0.00     0.000 C 
BRANCH   4   5
ATOM      5  C   UNL     1      10.544  19.196  63.253  1.00  0.00     0.000 C 
BRANCH   5   6
ATOM      6  C   UNL     1      10.834  20.562  63.909  1.00  0.00     0.000 C 
BRANCH   6   7
ATOM      7  C   UNL     1      11.752  21.445  63.049  1.00  0.00     0.000 C 
BRANCH   7   8
ATOM      8  C   UNL     1      13.006  20.676  62.614  1.00  0.00     0.000 C 
BRANCH   8   9
ATOM      9  C   UNL     1      13.557  21.224  61.290  1.00  0.00     0.000 C 
BRANCH   9  10
ATOM     10  C   UNL     1      12.891  22.549  60.885  1.00  0.00     0.000 C 
BRANCH  10  11
ATOM     11  C   UNL     1      13.883  23.723  60.888  1.00  0.00     0.000 C 
BRANCH  11  12
ATOM     12  C   UNL     1      14.319  24.073  62.315  1.00  0.00     0.006 C 
BRANCH  12  13
ATOM     13  C   UNL     1      13.610  25.339  62.808  1.00  0.00     0.053 C 
BRANCH  13  14
ATOM     14  C   UNL     1      14.597  26.373  63.252  1.00  0.00     0.041 C 
ATOM     15  O   UNL     1      15.807  26.283  62.913  1.00  0.00    -0.550 OA
ATOM     16  O   UNL     1      14.188  27.423  64.067  1.00  0.00    -0.550 OA
ENDBRANCH  13  14
ENDBRANCH  12  13
ENDBRANCH  11  12
ENDBRANCH  10  11
ENDBRANCH   9  10
ENDBRANCH   8   9
ENDBRANCH   7   8
ENDBRANCH   6   7
ENDBRANCH   5   6
ENDBRANCH   4   5
ENDBRANCH   3   4
ENDBRANCH   2   3
ENDBRANCH   1   2
BRANCH   1  17
ATOM     17  C   UNL     1      14.388  15.313  64.411  1.00  0.00     0.000 C 
BRANCH  17  18
ATOM     18  C   UNL     1      13.884  13.872  64.581  1.00  0.00     0.000 C 
BRANCH  18  19
ATOM     19  C   UNL     1      13.619  13.181  63.232  1.00  0.00     0.000 C 
BRANCH  19  20
ATOM     20  C   UNL     1      14.547  11.978  63.004  1.00  0.00     0.000 C 
BRANCH  20  21
ATOM     21  C   UNL     1      15.403  12.128  61.734  1.00  0.00     0.000 C 
BRANCH  21  22
ATOM     22  C   UNL     1      15.375  13.567  61.175  1.00  0.00    -0.000 C 
BRANCH  22  23
ATOM     23  C   UNL     1      15.155  13.634  59.652  1.00  0.00    -0.000 C 
BRANCH  23  24
ATOM     24  C   UNL     1      15.329  15.034  59.030  1.00  0.00    -0.000 C 
BRANCH  24  25
ATOM     25  C   UNL     1      15.853  16.113  59.995  1.00  0.00    -0.000 C 
BRANCH  25  26
ATOM     26  C   UNL     1      16.931  17.007  59.364  1.00  0.00    -0.000 C 
BRANCH  26  27
ATOM     27  C   UNL     1      18.322  16.373  59.509  1.00  0.00    -0.000 C 
BRANCH  27  28
ATOM     28  C   UNL     1      18.719  16.163  60.986  1.00  0.00    -0.000 C 
BRANCH  28  29
ATOM     29  C   UNL     1      19.879  17.062  61.445  1.00  0.00    -0.003 C 
ATOM     30  C   UNL     1      19.577  17.813  62.740  1.00  0.00     0.004 C 
ENDBRANCH  28  29
ENDBRANCH  27  28
ENDBRANCH  26  27
ENDBRANCH  25  26
ENDBRANCH  24  25
ENDBRANCH  23  24
ENDBRANCH  22  23
ENDBRANCH  21  22
ENDBRANCH  20  21
ENDBRANCH  19  20
ENDBRANCH  18  19
ENDBRANCH  17  18
ENDBRANCH   1  17
TORSDOF 26
ENDMDL
MODEL 2
REMARK VINA RESULT:    -5.043      3.620      8.579
REMARK INTER + INTRA:         -15.422
REMARK INTER:                 -12.232
REMARK INTRA:                  -3.190
REMARK UNBOUND:                -2.714
REMARK SMILES CCCCCCCCCCCCCCCCCCCCCCCCCCCC(=O)[O-]
REMARK SMILES IDX 15 1 16 2 17 3 18 4 19 5 20 6 21 7 22 8 23 9 24 10 25 11
REMARK SMILES IDX 26 12 27 13 28 14 29 15 30 16 14 17 13 18 12 19 11 20 10 21
REMARK SMILES IDX 9 22 8 23 7 24 6 25 5 26 4 27 3 28 2 29 1 30
REMARK H PARENT
REMARK Flexibility Score: inf
ROOT
ATOM      1  C   UNL     1      12.981  17.597  63.213  1.00  0.00     0.000 C 
ENDROOT
BRANCH   1   2
ATOM      2  C   UNL     1      14.176  16.980  63.970  1.00  0.00     0.000 C 
BRANCH   2   3
ATOM      3  C   UNL     1      14.438  15.504  63.610  1.00  0.00     0.000 C 
BRANCH   3   4
ATOM      4  C   UNL     1      14.157  14.503  64.745  1.00  0.00     0.000 C 
BRANCH   4   5
ATOM      5  C   UNL     1      13.860  13.062  64.287  1.00  0.00     0.000 C 
BRANCH   5   6
ATOM      6  C   UNL     1      13.674  12.914  62.762  1.00  0.00     0.000 C 
BRANCH   6   7
ATOM      7  C   UNL     1      14.891  12.271  62.081  1.00  0.00     0.000 C 
BRANCH   7   8
ATOM      8  C   UNL     1      14.887  12.545  60.572  1.00  0.00     0.000 C 
BRANCH   8   9
ATOM      9  C   UNL     1      15.898  13.643  60.208  1.00  0.00     0.000 C 
BRANCH   9  10
ATOM     10  C   UNL     1      15.269  14.751  59.348  1.00  0.00     0.000 C 
BRANCH  10  11
ATOM     11  C   UNL     1      15.288  16.116  60.054  1.00  0.00     0.000 C 
BRANCH  11  12
ATOM     12  C   UNL     1      16.711  16.495  60.481  1.00  0.00     0.006 C 
BRANCH  12  13
ATOM     13  C   UNL     1      17.474  17.144  59.321  1.00  0.00     0.053 C 
BRANCH  13  14
ATOM     14  C   UNL     1      18.286  16.131  58.575  1.00  0.00     0.041 C 
ATOM     15  O   UNL     1      18.320  16.147  57.316  1.00  0.00    -0.550 OA
ATOM     16  O   UNL     1      18.984  15.149  59.269  1.00  0.00    -0.550 OA
ENDBRANCH  13  14
ENDBRANCH  12  13
ENDBRANCH  11  12
ENDBRANCH  10  11
ENDBRANCH   9  10
ENDBRANCH   8   9
ENDBRANCH   7   8
ENDBRANCH   6   7
ENDBRANCH   5   6
ENDBRANCH   4   5
ENDBRANCH   3   4
ENDBRANCH   2   3
ENDBRANCH   1   2
BRANCH   1  17
ATOM     17  C   UNL     1      11.628  17.123  63.773  1.00  0.00     0.000 C 
BRANCH  17  18
ATOM     18  C   UNL     1      10.633  18.277  63.967  1.00  0.00     0.000 C 
BRANCH  18  19
ATOM     19  C   UNL     1      11.241  19.643  63.600  1.00  0.00     0.000 C 
BRANCH  19  20
ATOM     20  C   UNL     1      10.167  20.669  63.207  1.00  0.00     0.000 C 
BRANCH  20  21
ATOM     21  C   UNL     1       9.672  20.478  61.762  1.00  0.00     0.000 C 
BRANCH  21  22
ATOM     22  C   UNL     1       9.231  21.808  61.113  1.00  0.00    -0.000 C 
BRANCH  22  23
ATOM     23  C   UNL     1      10.018  23.033  61.617  1.00  0.00    -0.000 C 
BRANCH  23  24
ATOM     24  C   UNL     1      11.222  23.437  60.743  1.00  0.00    -0.000 C 
BRANCH  24  25
ATOM     25  C   UNL     1      12.447  22.510  60.856  1.00  0.00    -0.000 C 
BRANCH  25  26
ATOM     26  C   UNL     1      13.773  23.279  60.939  1.00  0.00    -0.000 C 
BRANCH  26  27
ATOM     27  C   UNL     1      14.092  23.666  62.390  1.00  0.00    -0.000 C 
BRANCH  27  28
ATOM     28  C   UNL     1      13.459  22.693  63.408  1.00  0.00    -0.000 C 
BRANCH  28  29
ATOM     29  C   UNL     1      12.521  23.380  64.415  1.00  0.00    -0.003 C 
ATOM     30  C   UNL     1      12.319  22.570  65.694  1.00  0.00     0.004 C 
ENDBRANCH  28  29
ENDBRANCH  27  28
ENDBRANCH  26  27
ENDBRANCH  25  26
ENDBRANCH  24  25
ENDBRANCH  23  24
ENDBRANCH  22  23
ENDBRANCH  21  22
ENDBRANCH  20  21
ENDBRANCH  19  20
ENDBRANCH  18  19
ENDBRANCH  17  18
ENDBRANCH   1  17
TORSDOF 26
ENDMDL
MODEL 3
REMARK VINA RESULT:    -5.020      3.024      8.635
REMARK INTER + INTRA:         -15.365
REMARK INTER:                 -12.187
REMARK INTRA:                  -3.178
REMARK UNBOUND:                -2.714
REMARK SMILES CCCCCCCCCCCCCCCCCCCCCCCCCCCC(=O)[O-]
REMARK SMILES IDX 15 1 16 2 17 3 18 4 19 5 20 6 21 7 22 8 23 9 24 10 25 11
REMARK SMILES IDX 26 12 27 13 28 14 29 15 30 16 14 17 13 18 12 19 11 20 10 21
REMARK SMILES IDX 9 22 8 23 7 24 6 25 5 26 4 27 3 28 2 29 1 30
REMARK H PARENT
REMARK Flexibility Score: inf
ROOT
ATOM      1  C   UNL     1      13.020  16.741  63.765  1.00  0.00     0.000 C 
ENDROOT
BRANCH   1   2
ATOM      2  C   UNL     1      13.973  15.826  64.563  1.00  0.00     0.000 C 
BRANCH   2   3
ATOM      3  C   UNL     1      13.292  14.559  65.116  1.00  0.00     0.000 C 
BRANCH   3   4
ATOM      4  C   UNL     1      13.878  13.233  64.601  1.00  0.00     0.000 C 
BRANCH   4   5
ATOM      5  C   UNL     1      13.524  12.884  63.142  1.00  0.00     0.000 C 
BRANCH   5   6
ATOM      6  C   UNL     1      14.489  13.490  62.101  1.00  0.00     0.000 C 
BRANCH   6   7
ATOM      7  C   UNL     1      14.799  12.518  60.952  1.00  0.00     0.000 C 
BRANCH   7   8
ATOM      8  C   UNL     1      15.175  13.278  59.674  1.00  0.00     0.000 C 
BRANCH   8   9
ATOM      9  C   UNL     1      16.653  13.059  59.317  1.00  0.00     0.000 C 
BRANCH   9  10
ATOM     10  C   UNL     1      17.299  14.318  58.715  1.00  0.00     0.000 C 
BRANCH  10  11
ATOM     11  C   UNL     1      16.274  15.436  58.470  1.00  0.00     0.000 C 
BRANCH  11  12
ATOM     12  C   UNL     1      16.603  16.678  59.307  1.00  0.00     0.006 C 
BRANCH  12  13
ATOM     13  C   UNL     1      15.690  16.767  60.535  1.00  0.00     0.053 C 
BRANCH  13  14
ATOM     14  C   UNL     1      16.477  16.643  61.802  1.00  0.00     0.041 C 
ATOM     15  O   UNL     1      17.230  15.649  61.988  1.00  0.00    -0.550 OA
ATOM     16  O   UNL     1      16.360  17.611  62.793  1.00  0.00    -0.550 OA
ENDBRANCH  13  14
ENDBRANCH  12  13
ENDBRANCH  11  12
ENDBRANCH  10  11
ENDBRANCH   9  10
ENDBRANCH   8   9
ENDBRANCH   7   8
ENDBRANCH   6   7
ENDBRANCH   5   6
ENDBRANCH   4   5
ENDBRANCH   3   4
ENDBRANCH   2   3
ENDBRANCH   1   2
BRANCH   1  17
ATOM     17  C   UNL     1      11.546  16.328  63.924  1.00  0.00     0.000 C 
BRANCH  17  18
ATOM     18  C   UNL     1      10.607  17.536  64.063  1.00  0.00     0.000 C 
BRANCH  18  19
ATOM     19  C   UNL     1      11.190  18.808  63.421  1.00  0.00     0.000 C 
BRANCH  19  20
ATOM     20  C   UNL     1      10.254  20.017  63.578  1.00  0.00     0.000 C 
BRANCH  20  21
ATOM     21  C   UNL     1      11.019  21.353  63.597  1.00  0.00     0.000 C 
BRANCH  21  22
ATOM     22  C   UNL     1      12.430  21.230  62.982  1.00  0.00    -0.000 C 
BRANCH  22  23
ATOM     23  C   UNL     1      12.470  21.506  61.467  1.00  0.00    -0.000 C 
BRANCH  23  24
ATOM     24  C   UNL     1      13.634  22.402  60.999  1.00  0.00    -0.000 C 
BRANCH  24  25
ATOM     25  C   UNL     1      13.256  23.870  60.729  1.00  0.00    -0.000 C 
BRANCH  25  26
ATOM     26  C   UNL     1      11.969  24.014  59.903  1.00  0.00    -0.000 C 
BRANCH  26  27
ATOM     27  C   UNL     1      10.962  24.929  60.614  1.00  0.00    -0.000 C 
BRANCH  27  28
ATOM     28  C   UNL     1       9.948  24.135  61.465  1.00  0.00    -0.000 C 
BRANCH  28  29
ATOM     29  C   UNL     1       8.757  23.593  60.657  1.00  0.00    -0.003 C 
ATOM     30  C   UNL     1       8.589  22.079  60.782  1.00  0.00     0.004 C 
ENDBRANCH  28  29
ENDBRANCH  27  28
ENDBRANCH  26  27
ENDBRANCH  25  26
ENDBRANCH  24  25
ENDBRANCH  23  24
ENDBRANCH  22  23
ENDBRANCH  21  22
ENDBRANCH  20  21
ENDBRANCH  19  20
ENDBRANCH  18  19
ENDBRANCH  17  18
ENDBRANCH   1  17
TORSDOF 26
ENDMDL
MODEL 4
REMARK VINA RESULT:    -4.980      3.003      8.555
REMARK INTER + INTRA:         -15.265
REMARK INTER:                 -11.935
REMARK INTRA:                  -3.330
REMARK UNBOUND:                -2.714
REMARK SMILES CCCCCCCCCCCCCCCCCCCCCCCCCCCC(=O)[O-]
REMARK SMILES IDX 15 1 16 2 17 3 18 4 19 5 20 6 21 7 22 8 23 9 24 10 25 11
REMARK SMILES IDX 26 12 27 13 28 14 29 15 30 16 14 17 13 18 12 19 11 20 10 21
REMARK SMILES IDX 9 22 8 23 7 24 6 25 5 26 4 27 3 28 2 29 1 30
REMARK H PARENT
REMARK Flexibility Score: inf
ROOT
ATOM      1  C   UNL     1      14.215  17.143  62.779  1.00  0.00     0.000 C 
ENDROOT
BRANCH   1   2
ATOM      2  C   UNL     1      14.883  15.880  63.362  1.00  0.00     0.000 C 
BRANCH   2   3
ATOM      3  C   UNL     1      14.150  15.305  64.590  1.00  0.00     0.000 C 
BRANCH   3   4
ATOM      4  C   UNL     1      13.917  13.784  64.551  1.00  0.00     0.000 C 
BRANCH   4   5
ATOM      5  C   UNL     1      13.860  13.168  63.139  1.00  0.00     0.000 C 
BRANCH   5   6
ATOM      6  C   UNL     1      14.758  11.926  62.959  1.00  0.00     0.000 C 
BRANCH   6   7
ATOM      7  C   UNL     1      15.403  11.864  61.566  1.00  0.00     0.000 C 
BRANCH   7   8
ATOM      8  C   UNL     1      15.415  13.246  60.902  1.00  0.00     0.000 C 
BRANCH   8   9
ATOM      9  C   UNL     1      16.298  13.246  59.645  1.00  0.00     0.000 C 
BRANCH   9  10
ATOM     10  C   UNL     1      16.170  14.551  58.844  1.00  0.00     0.000 C 
BRANCH  10  11
ATOM     11  C   UNL     1      15.336  15.608  59.585  1.00  0.00     0.000 C 
BRANCH  11  12
ATOM     12  C   UNL     1      16.141  16.896  59.797  1.00  0.00     0.006 C 
BRANCH  12  13
ATOM     13  C   UNL     1      17.641  16.638  59.619  1.00  0.00     0.053 C 
BRANCH  13  14
ATOM     14  C   UNL     1      18.343  16.596  60.941  1.00  0.00     0.041 C 
ATOM     15  O   UNL     1      18.311  15.552  61.644  1.00  0.00    -0.550 OA
ATOM     16  O   UNL     1      19.010  17.722  61.411  1.00  0.00    -0.550 OA
ENDBRANCH  13  14
ENDBRANCH  12  13
ENDBRANCH  11  12
ENDBRANCH  10  11
ENDBRANCH   9  10
ENDBRANCH   8   9
ENDBRANCH   7   8
ENDBRANCH   6   7
ENDBRANCH   5   6
ENDBRANCH   4   5
ENDBRANCH   3   4
ENDBRANCH   2   3
ENDBRANCH   1   2
BRANCH   1  17
ATOM     17  C   UNL     1      13.095  17.682  63.687  1.00  0.00     0.000 C 
BRANCH  17  18
ATOM     18  C   UNL     1      12.769  19.157  63.409  1.00  0.00     0.000 C 
BRANCH  18  19
ATOM     19  C   UNL     1      11.254  19.421  63.347  1.00  0.00     0.000 C 
BRANCH  19  20
ATOM     20  C   UNL     1      10.822  20.546  64.301  1.00  0.00     0.000 C 
BRANCH  20  21
ATOM     21  C   UNL     1      10.404  21.823  63.551  1.00  0.00     0.000 C 
BRANCH  21  22
ATOM     22  C   UNL     1       9.248  21.569  62.559  1.00  0.00    -0.000 C 
BRANCH  22  23
ATOM     23  C   UNL     1       9.547  22.048  61.126  1.00  0.00    -0.000 C 
BRANCH  23  24
ATOM     24  C   UNL     1       9.144  23.506  60.829  1.00  0.00    -0.000 C 
BRANCH  24  25
ATOM     25  C   UNL     1      10.315  24.504  60.766  1.00  0.00    -0.000 C 
BRANCH  25  26
ATOM     26  C   UNL     1      11.511  23.973  59.961  1.00  0.00    -0.000 C 
BRANCH  26  27
ATOM     27  C   UNL     1      12.826  24.583  60.467  1.00  0.00    -0.000 C 
BRANCH  27  28
ATOM     28  C   UNL     1      13.816  23.509  60.966  1.00  0.00    -0.000 C 
BRANCH  28  29
ATOM     29  C   UNL     1      13.169  22.132  61.188  1.00  0.00    -0.003 C 
ATOM     30  C   UNL     1      13.822  21.024  60.363  1.00  0.00     0.004 C 
ENDBRANCH  28  29
ENDBRANCH  27  28
ENDBRANCH  26  27
ENDBRANCH  25  26
ENDBRANCH  24  25
ENDBRANCH  23  24
ENDBRANCH  22  23
ENDBRANCH  21  22
ENDBRANCH  20  21
ENDBRANCH  19  20
ENDBRANCH  18  19
ENDBRANCH  17  18
ENDBRANCH   1  17
TORSDOF 26
ENDMDL
MODEL 5
REMARK VINA RESULT:    -4.976      1.876      2.999
REMARK INTER + INTRA:         -15.255
REMARK INTER:                 -12.127
REMARK INTRA:                  -3.127
REMARK UNBOUND:                -2.714
REMARK SMILES CCCCCCCCCCCCCCCCCCCCCCCCCCCC(=O)[O-]
REMARK SMILES IDX 15 1 16 2 17 3 18 4 19 5 20 6 21 7 22 8 23 9 24 10 25 11
REMARK SMILES IDX 26 12 27 13 28 14 29 15 30 16 14 17 13 18 12 19 11 20 10 21
REMARK SMILES IDX 9 22 8 23 7 24 6 25 5 26 4 27 3 28 2 29 1 30
REMARK H PARENT
REMARK Flexibility Score: inf
ROOT
ATOM      1  C   UNL     1      11.386  16.863  63.992  1.00  0.00     0.000 C 
ENDROOT
BRANCH   1   2
ATOM      2  C   UNL     1      10.021  16.481  64.603  1.00  0.00     0.000 C 
BRANCH   2   3
ATOM      3  C   UNL     1      10.113  15.995  66.063  1.00  0.00     0.000 C 
BRANCH   3   4
ATOM      4  C   UNL     1       9.511  16.957  67.103  1.00  0.00     0.000 C 
BRANCH   4   5
ATOM      5  C   UNL     1       8.525  17.998  66.538  1.00  0.00     0.000 C 
BRANCH   5   6
ATOM      6  C   UNL     1       9.010  19.457  66.665  1.00  0.00     0.000 C 
BRANCH   6   7
ATOM      7  C   UNL     1       9.032  20.189  65.315  1.00  0.00     0.000 C 
BRANCH   7   8
ATOM      8  C   UNL     1      10.445  20.683  64.979  1.00  0.00     0.000 C 
BRANCH   8   9
ATOM      9  C   UNL     1      10.741  20.529  63.480  1.00  0.00     0.000 C 
BRANCH   9  10
ATOM     10  C   UNL     1      12.239  20.328  63.200  1.00  0.00     0.000 C 
BRANCH  10  11
ATOM     11  C   UNL     1      12.723  21.159  62.002  1.00  0.00     0.000 C 
BRANCH  11  12
ATOM     12  C   UNL     1      11.868  22.419  61.824  1.00  0.00     0.006 C 
BRANCH  12  13
ATOM     13  C   UNL     1      12.596  23.654  62.366  1.00  0.00     0.053 C 
BRANCH  13  14
ATOM     14  C   UNL     1      13.092  24.521  61.251  1.00  0.00     0.041 C 
ATOM     15  O   UNL     1      12.486  25.585  60.955  1.00  0.00    -0.550 OA
ATOM     16  O   UNL     1      14.211  24.140  60.517  1.00  0.00    -0.550 OA
ENDBRANCH  13  14
ENDBRANCH  12  13
ENDBRANCH  11  12
ENDBRANCH  10  11
ENDBRANCH   9  10
ENDBRANCH   8   9
ENDBRANCH   7   8
ENDBRANCH   6   7
ENDBRANCH   5   6
ENDBRANCH   4   5
ENDBRANCH   3   4
ENDBRANCH   2   3
ENDBRANCH   1   2
BRANCH   1  17
ATOM     17  C   UNL     1      12.355  15.668  63.938  1.00  0.00     0.000 C 
BRANCH  17  18
ATOM     18  C   UNL     1      13.790  16.056  64.323  1.00  0.00     0.000 C 
BRANCH  18  19
ATOM     19  C   UNL     1      14.316  17.248  63.504  1.00  0.00     0.000 C 
BRANCH  19  20
ATOM     20  C   UNL     1      15.522  16.866  62.632  1.00  0.00     0.000 C 
BRANCH  20  21
ATOM     21  C   UNL     1      15.103  16.310  61.260  1.00  0.00     0.000 C 
BRANCH  21  22
ATOM     22  C   UNL     1      15.356  14.792  61.140  1.00  0.00    -0.000 C 
BRANCH  22  23
ATOM     23  C   UNL     1      15.549  14.310  59.690  1.00  0.00    -0.000 C 
BRANCH  23  24
ATOM     24  C   UNL     1      15.699  15.433  58.645  1.00  0.00    -0.000 C 
BRANCH  24  25
ATOM     25  C   UNL     1      17.050  15.458  57.907  1.00  0.00    -0.000 C 
BRANCH  25  26
ATOM     26  C   UNL     1      18.246  15.630  58.855  1.00  0.00    -0.000 C 
BRANCH  26  27
ATOM     27  C   UNL     1      18.212  17.006  59.536  1.00  0.00    -0.000 C 
BRANCH  27  28
ATOM     28  C   UNL     1      19.451  17.251  60.424  1.00  0.00    -0.000 C 
BRANCH  28  29
ATOM     29  C   UNL     1      19.257  16.808  61.884  1.00  0.00    -0.003 C 
ATOM     30  C   UNL     1      19.537  17.923  62.890  1.00  0.00     0.004 C 
ENDBRANCH  28  29
ENDBRANCH  27  28
ENDBRANCH  26  27
ENDBRANCH  25  26
ENDBRANCH  24  25
ENDBRANCH  23  24
ENDBRANCH  22  23
ENDBRANCH  21  22
ENDBRANCH  20  21
ENDBRANCH  19  20
ENDBRANCH  18  19
ENDBRANCH  17  18
ENDBRANCH   1  17
TORSDOF 26
ENDMDL
MODEL 6
REMARK VINA RESULT:    -4.957      5.786      9.480
REMARK INTER + INTRA:         -15.205
REMARK INTER:                 -10.576
REMARK INTRA:                  -4.629
REMARK UNBOUND:                -2.714
REMARK SMILES CCCCCCCCCCCCCCCCCCCCCCCCCCCC(=O)[O-]
REMARK SMILES IDX 15 1 16 2 17 3 18 4 19 5 20 6 21 7 22 8 23 9 24 10 25 11
REMARK SMILES IDX 26 12 27 13 28 14 29 15 30 16 14 17 13 18 12 19 11 20 10 21
REMARK SMILES IDX 9 22 8 23 7 24 6 25 5 26 4 27 3 28 2 29 1 30
REMARK H PARENT
REMARK Flexibility Score: inf
ROOT
ATOM      1  C   UNL     1      12.829  21.339  63.090  1.00  0.00     0.000 C 
ENDROOT
BRANCH   1   2
ATOM      2  C   UNL     1      13.579  20.902  61.813  1.00  0.00     0.000 C 
BRANCH   2   3
ATOM      3  C   UNL     1      13.157  21.683  60.553  1.00  0.00     0.000 C 
BRANCH   3   4
ATOM      4  C   UNL     1      12.083  22.760  60.789  1.00  0.00     0.000 C 
BRANCH   4   5
ATOM      5  C   UNL     1      12.604  24.210  60.805  1.00  0.00     0.000 C 
BRANCH   5   6
ATOM      6  C   UNL     1      11.768  25.187  59.952  1.00  0.00     0.000 C 
BRANCH   6   7
ATOM      7  C   UNL     1      11.579  26.550  60.635  1.00  0.00     0.000 C 
BRANCH   7   8
ATOM      8  C   UNL     1      11.063  27.597  59.640  1.00  0.00     0.000 C 
BRANCH   8   9
ATOM      9  C   UNL     1      10.415  26.927  58.420  1.00  0.00     0.000 C 
BRANCH   9  10
ATOM     10  C   UNL     1       9.842  27.952  57.428  1.00  0.00     0.000 C 
BRANCH  10  11
ATOM     11  C   UNL     1      10.744  29.187  57.283  1.00  0.00     0.000 C 
BRANCH  11  12
ATOM     12  C   UNL     1      11.027  29.493  55.807  1.00  0.00     0.006 C 
BRANCH  12  13
ATOM     13  C   UNL     1      10.780  28.256  54.937  1.00  0.00     0.053 C 
BRANCH  13  14
ATOM     14  C   UNL     1      11.313  28.455  53.552  1.00  0.00     0.041 C 
ATOM     15  O   UNL     1      11.058  29.515  52.920  1.00  0.00    -0.550 OA
ATOM     16  O   UNL     1      12.070  27.458  52.946  1.00  0.00    -0.550 OA
ENDBRANCH  13  14
ENDBRANCH  12  13
ENDBRANCH  11  12
ENDBRANCH  10  11
ENDBRANCH   9  10
ENDBRANCH   8   9
ENDBRANCH   7   8
ENDBRANCH   6   7
ENDBRANCH   5   6
ENDBRANCH   4   5
ENDBRANCH   3   4
ENDBRANCH   2   3
ENDBRANCH   1   2
BRANCH   1  17
ATOM     17  C   UNL     1      12.204  20.147  63.836  1.00  0.00     0.000 C 
BRANCH  17  18
ATOM     18  C   UNL     1      11.038  19.513  63.062  1.00  0.00     0.000 C 
BRANCH  18  19
ATOM     19  C   UNL     1       9.762  20.372  63.118  1.00  0.00     0.000 C 
BRANCH  19  20
ATOM     20  C   UNL     1       9.136  20.571  61.728  1.00  0.00     0.000 C 
BRANCH  20  21
ATOM     21  C   UNL     1       8.154  21.755  61.691  1.00  0.00     0.000 C 
BRANCH  21  22
ATOM     22  C   UNL     1       8.513  22.780  60.593  1.00  0.00    -0.000 C 
BRANCH  22  23
ATOM     23  C   UNL     1       8.404  24.245  61.057  1.00  0.00    -0.000 C 
BRANCH  23  24
ATOM     24  C   UNL     1       8.343  24.442  62.584  1.00  0.00    -0.000 C 
BRANCH  24  25
ATOM     25  C   UNL     1       8.970  25.752  63.097  1.00  0.00    -0.000 C 
BRANCH  25  26
ATOM     26  C   UNL     1      10.248  25.523  63.917  1.00  0.00    -0.000 C 
BRANCH  26  27
ATOM     27  C   UNL     1      10.607  24.031  63.965  1.00  0.00    -0.000 C 
BRANCH  27  28
ATOM     28  C   UNL     1      10.631  23.480  65.407  1.00  0.00    -0.000 C 
BRANCH  28  29
ATOM     29  C   UNL     1       9.265  23.543  66.112  1.00  0.00    -0.003 C 
ATOM     30  C   UNL     1       8.399  22.313  65.849  1.00  0.00     0.004 C 
ENDBRANCH  28  29
ENDBRANCH  27  28
ENDBRANCH  26  27
ENDBRANCH  25  26
ENDBRANCH  24  25
ENDBRANCH  23  24
ENDBRANCH  22  23
ENDBRANCH  21  22
ENDBRANCH  20  21
ENDBRANCH  19  20
ENDBRANCH  18  19
ENDBRANCH  17  18
ENDBRANCH   1  17
TORSDOF 26
ENDMDL
MODEL 7
REMARK VINA RESULT:    -4.931      3.585      8.945
REMARK INTER + INTRA:         -15.140
REMARK INTER:                 -11.987
REMARK INTRA:                  -3.153
REMARK UNBOUND:                -2.714
REMARK SMILES CCCCCCCCCCCCCCCCCCCCCCCCCCCC(=O)[O-]
REMARK SMILES IDX 15 1 16 2 17 3 18 4 19 5 20 6 21 7 22 8 23 9 24 10 25 11
REMARK SMILES IDX 26 12 27 13 28 14 29 15 30 16 14 17 13 18 12 19 11 20 10 21
REMARK SMILES IDX 9 22 8 23 7 24 6 25 5 26 4 27 3 28 2 29 1 30
REMARK H PARENT
REMARK Flexibility Score: inf
ROOT
ATOM      1  C   UNL     1      10.564  17.484  63.880  1.00  0.00     0.000 C 
ENDROOT
BRANCH   1   2
ATOM      2  C   UNL     1      11.715  16.471  64.062  1.00  0.00     0.000 C 
BRANCH   2   3
ATOM      3  C   UNL     1      13.047  16.932  63.439  1.00  0.00     0.000 C 
BRANCH   3   4
ATOM      4  C   UNL     1      14.254  16.032  63.758  1.00  0.00     0.000 C 
BRANCH   4   5
ATOM      5  C   UNL     1      14.073  15.101  64.973  1.00  0.00     0.000 C 
BRANCH   5   6
ATOM      6  C   UNL     1      13.899  13.613  64.603  1.00  0.00     0.000 C 
BRANCH   6   7
ATOM      7  C   UNL     1      13.570  13.412  63.116  1.00  0.00     0.000 C 
BRANCH   7   8
ATOM      8  C   UNL     1      14.639  12.557  62.426  1.00  0.00     0.000 C 
BRANCH   8   9
ATOM      9  C   UNL     1      14.554  12.693  60.898  1.00  0.00     0.000 C 
BRANCH   9  10
ATOM     10  C   UNL     1      15.756  13.451  60.313  1.00  0.00     0.000 C 
BRANCH  10  11
ATOM     11  C   UNL     1      15.397  14.892  59.916  1.00  0.00     0.000 C 
BRANCH  11  12
ATOM     12  C   UNL     1      16.417  15.889  60.480  1.00  0.00     0.006 C 
BRANCH  12  13
ATOM     13  C   UNL     1      17.013  16.751  59.362  1.00  0.00     0.053 C 
BRANCH  13  14
ATOM     14  C   UNL     1      18.113  16.027  58.650  1.00  0.00     0.041 C 
ATOM     15  O   UNL     1      18.729  15.088  59.221  1.00  0.00    -0.550 OA
ATOM     16  O   UNL     1      18.480  16.408  57.364  1.00  0.00    -0.550 OA
ENDBRANCH  13  14
ENDBRANCH  12  13
ENDBRANCH  11  12
ENDBRANCH  10  11
ENDBRANCH   9  10
ENDBRANCH   8   9
ENDBRANCH   7   8
ENDBRANCH   6   7
ENDBRANCH   5   6
ENDBRANCH   4   5
ENDBRANCH   3   4
ENDBRANCH   2   3
ENDBRANCH   1   2
BRANCH   1  17
ATOM     17  C   UNL     1      11.075  18.884  63.495  1.00  0.00     0.000 C 
BRANCH  17  18
ATOM     18  C   UNL     1      10.432  19.998  64.334  1.00  0.00     0.000 C 
BRANCH  18  19
ATOM     19  C   UNL     1      11.337  21.237  64.454  1.00  0.00     0.000 C 
BRANCH  19  20
ATOM     20  C   UNL     1      10.794  22.431  63.653  1.00  0.00     0.000 C 
BRANCH  20  21
ATOM     21  C   UNL     1       9.271  22.357  63.448  1.00  0.00     0.000 C 
BRANCH  21  22
ATOM     22  C   UNL     1       8.886  22.217  61.959  1.00  0.00    -0.000 C 
BRANCH  22  23
ATOM     23  C   UNL     1      10.013  22.618  60.988  1.00  0.00    -0.000 C 
BRANCH  23  24
ATOM     24  C   UNL     1       9.970  24.083  60.511  1.00  0.00    -0.000 C 
BRANCH  24  25
ATOM     25  C   UNL     1      11.281  24.605  59.895  1.00  0.00    -0.000 C 
BRANCH  25  26
ATOM     26  C   UNL     1      12.058  25.532  60.841  1.00  0.00    -0.000 C 
BRANCH  26  27
ATOM     27  C   UNL     1      12.985  24.723  61.760  1.00  0.00    -0.000 C 
BRANCH  27  28
ATOM     28  C   UNL     1      13.814  23.678  60.983  1.00  0.00    -0.000 C 
BRANCH  28  29
ATOM     29  C   UNL     1      13.823  22.288  61.641  1.00  0.00    -0.003 C 
ATOM     30  C   UNL     1      13.454  21.165  60.673  1.00  0.00     0.004 C 
ENDBRANCH  28  29
ENDBRANCH  27  28
ENDBRANCH  26  27
ENDBRANCH  25  26
ENDBRANCH  24  25
ENDBRANCH  23  24
ENDBRANCH  22  23
ENDBRANCH  21  22
ENDBRANCH  20  21
ENDBRANCH  19  20
ENDBRANCH  18  19
ENDBRANCH  17  18
ENDBRANCH   1  17
TORSDOF 26
ENDMDL
MODEL 8
REMARK VINA RESULT:    -4.930      3.682      9.157
REMARK INTER + INTRA:         -15.138
REMARK INTER:                 -11.474
REMARK INTRA:                  -3.664
REMARK UNBOUND:                -2.714
REMARK SMILES CCCCCCCCCCCCCCCCCCCCCCCCCCCC(=O)[O-]
REMARK SMILES IDX 15 1 16 2 17 3 18 4 19 5 20 6 21 7 22 8 23 9 24 10 25 11
REMARK SMILES IDX 26 12 27 13 28 14 29 15 30 16 14 17 13 18 12 19 11 20 10 21
REMARK SMILES IDX 9 22 8 23 7 24 6 25 5 26 4 27 3 28 2 29 1 30
REMARK H PARENT
REMARK Flexibility Score: inf
ROOT
ATOM      1  C   UNL     1      14.457  17.867  63.073  1.00  0.00     0.000 C 
ENDROOT
BRANCH   1   2
ATOM      2  C   UNL     1      14.623  16.405  63.538  1.00  0.00     0.000 C 
BRANCH   2   3
ATOM      3  C   UNL     1      13.292  15.718  63.899  1.00  0.00     0.000 C 
BRANCH   3   4
ATOM      4  C   UNL     1      13.419  14.240  64.312  1.00  0.00     0.000 C 
BRANCH   4   5
ATOM      5  C   UNL     1      13.384  13.231  63.148  1.00  0.00     0.000 C 
BRANCH   5   6
ATOM      6  C   UNL     1      14.561  12.234  63.146  1.00  0.00     0.000 C 
BRANCH   6   7
ATOM      7  C   UNL     1      15.231  12.118  61.768  1.00  0.00     0.000 C 
BRANCH   7   8
ATOM      8  C   UNL     1      14.736  13.217  60.820  1.00  0.00     0.000 C 
BRANCH   8   9
ATOM      9  C   UNL     1      15.705  14.409  60.804  1.00  0.00     0.000 C 
BRANCH   9  10
ATOM     10  C   UNL     1      15.201  15.557  59.915  1.00  0.00     0.000 C 
BRANCH  10  11
ATOM     11  C   UNL     1      16.197  16.726  59.857  1.00  0.00     0.000 C 
BRANCH  11  12
ATOM     12  C   UNL     1      17.576  16.302  60.375  1.00  0.00     0.006 C 
BRANCH  12  13
ATOM     13  C   UNL     1      18.610  16.309  59.245  1.00  0.00     0.053 C 
BRANCH  13  14
ATOM     14  C   UNL     1      18.239  15.337  58.168  1.00  0.00     0.041 C 
ATOM     15  O   UNL     1      18.611  14.135  58.241  1.00  0.00    -0.550 OA
ATOM     16  O   UNL     1      17.504  15.763  57.067  1.00  0.00    -0.550 OA
ENDBRANCH  13  14
ENDBRANCH  12  13
ENDBRANCH  11  12
ENDBRANCH  10  11
ENDBRANCH   9  10
ENDBRANCH   8   9
ENDBRANCH   7   8
ENDBRANCH   6   7
ENDBRANCH   5   6
ENDBRANCH   4   5
ENDBRANCH   3   4
ENDBRANCH   2   3
ENDBRANCH   1   2
BRANCH   1  17
ATOM     17  C   UNL     1      13.024  18.388  63.286  1.00  0.00     0.000 C 
BRANCH  17  18
ATOM     18  C   UNL     1      12.892  19.889  62.990  1.00  0.00     0.000 C 
BRANCH  18  19
ATOM     19  C   UNL     1      13.966  20.389  62.007  1.00  0.00     0.000 C 
BRANCH  19  20
ATOM     20  C   UNL     1      13.353  20.942  60.711  1.00  0.00     0.000 C 
BRANCH  20  21
ATOM     21  C   UNL     1      12.839  22.383  60.872  1.00  0.00     0.000 C 
BRANCH  21  22
ATOM     22  C   UNL     1      13.928  23.338  61.407  1.00  0.00    -0.000 C 
BRANCH  22  23
ATOM     23  C   UNL     1      13.478  24.171  62.622  1.00  0.00    -0.000 C 
BRANCH  23  24
ATOM     24  C   UNL     1      12.022  23.934  63.070  1.00  0.00    -0.000 C 
BRANCH  24  25
ATOM     25  C   UNL     1      11.865  23.089  64.348  1.00  0.00    -0.000 C 
BRANCH  25  26
ATOM     26  C   UNL     1      10.468  22.466  64.484  1.00  0.00    -0.000 C 
BRANCH  26  27
ATOM     27  C   UNL     1       9.807  22.297  63.108  1.00  0.00    -0.000 C 
BRANCH  27  28
ATOM     28  C   UNL     1       9.458  20.824  62.803  1.00  0.00    -0.000 C 
BRANCH  28  29
ATOM     29  C   UNL     1       9.596  20.454  61.317  1.00  0.00    -0.003 C 
ATOM     30  C   UNL     1       8.252  20.341  60.601  1.00  0.00     0.004 C 
ENDBRANCH  28  29
ENDBRANCH  27  28
ENDBRANCH  26  27
ENDBRANCH  25  26
ENDBRANCH  24  25
ENDBRANCH  23  24
ENDBRANCH  22  23
ENDBRANCH  21  22
ENDBRANCH  20  21
ENDBRANCH  19  20
ENDBRANCH  18  19
ENDBRANCH  17  18
ENDBRANCH   1  17
TORSDOF 26
ENDMDL
MODEL 9
REMARK VINA RESULT:    -4.925      4.430      5.513
REMARK INTER + INTRA:         -15.124
REMARK INTER:                 -13.227
REMARK INTRA:                  -1.897
REMARK UNBOUND:                -2.714
REMARK SMILES CCCCCCCCCCCCCCCCCCCCCCCCCCCC(=O)[O-]
REMARK SMILES IDX 15 1 16 2 17 3 18 4 19 5 20 6 21 7 22 8 23 9 24 10 25 11
REMARK SMILES IDX 26 12 27 13 28 14 29 15 30 16 14 17 13 18 12 19 11 20 10 21
REMARK SMILES IDX 9 22 8 23 7 24 6 25 5 26 4 27 3 28 2 29 1 30
REMARK H PARENT
REMARK Flexibility Score: inf
ROOT
ATOM      1  C   UNL     1      13.124  19.027  63.425  1.00  0.00     0.000 C 
ENDROOT
BRANCH   1   2
ATOM      2  C   UNL     1      12.547  20.359  62.899  1.00  0.00     0.000 C 
BRANCH   2   3
ATOM      3  C   UNL     1      13.450  21.055  61.862  1.00  0.00     0.000 C 
BRANCH   3   4
ATOM      4  C   UNL     1      13.704  22.550  62.127  1.00  0.00     0.000 C 
BRANCH   4   5
ATOM      5  C   UNL     1      13.663  23.452  60.878  1.00  0.00     0.000 C 
BRANCH   5   6
ATOM      6  C   UNL     1      12.265  23.569  60.234  1.00  0.00     0.000 C 
BRANCH   6   7
ATOM      7  C   UNL     1      12.095  24.868  59.431  1.00  0.00     0.000 C 
BRANCH   7   8
ATOM      8  C   UNL     1      10.626  25.306  59.397  1.00  0.00     0.000 C 
BRANCH   8   9
ATOM      9  C   UNL     1      10.508  26.826  59.216  1.00  0.00     0.000 C 
BRANCH   9  10
ATOM     10  C   UNL     1      10.377  27.229  57.739  1.00  0.00     0.000 C 
BRANCH  10  11
ATOM     11  C   UNL     1      10.891  28.653  57.477  1.00  0.00     0.000 C 
BRANCH  11  12
ATOM     12  C   UNL     1      10.684  29.052  56.011  1.00  0.00     0.006 C 
BRANCH  12  13
ATOM     13  C   UNL     1      10.884  27.849  55.083  1.00  0.00     0.053 C 
BRANCH  13  14
ATOM     14  C   UNL     1      11.352  28.283  53.729  1.00  0.00     0.041 C 
ATOM     15  O   UNL     1      12.137  27.555  53.064  1.00  0.00    -0.550 OA
ATOM     16  O   UNL     1      10.944  29.508  53.210  1.00  0.00    -0.550 OA
ENDBRANCH  13  14
ENDBRANCH  12  13
ENDBRANCH  11  12
ENDBRANCH  10  11
ENDBRANCH   9  10
ENDBRANCH   8   9
ENDBRANCH   7   8
ENDBRANCH   6   7
ENDBRANCH   5   6
ENDBRANCH   4   5
ENDBRANCH   3   4
ENDBRANCH   2   3
ENDBRANCH   1   2
BRANCH   1  17
ATOM     17  C   UNL     1      14.257  18.489  62.533  1.00  0.00     0.000 C 
BRANCH  17  18
ATOM     18  C   UNL     1      14.776  17.121  62.999  1.00  0.00     0.000 C 
BRANCH  18  19
ATOM     19  C   UNL     1      13.637  16.176  63.424  1.00  0.00     0.000 C 
BRANCH  19  20
ATOM     20  C   UNL     1      14.166  14.850  63.991  1.00  0.00     0.000 C 
BRANCH  20  21
ATOM     21  C   UNL     1      13.484  13.626  63.355  1.00  0.00     0.000 C 
BRANCH  21  22
ATOM     22  C   UNL     1      14.444  12.825  62.449  1.00  0.00    -0.000 C 
BRANCH  22  23
ATOM     23  C   UNL     1      14.823  13.559  61.149  1.00  0.00    -0.000 C 
BRANCH  23  24
ATOM     24  C   UNL     1      16.317  13.490  60.775  1.00  0.00    -0.000 C 
BRANCH  24  25
ATOM     25  C   UNL     1      16.749  14.446  59.647  1.00  0.00    -0.000 C 
BRANCH  25  26
ATOM     26  C   UNL     1      15.961  15.764  59.646  1.00  0.00    -0.000 C 
BRANCH  26  27
ATOM     27  C   UNL     1      16.888  16.956  59.365  1.00  0.00    -0.000 C 
BRANCH  27  28
ATOM     28  C   UNL     1      18.376  16.604  59.577  1.00  0.00    -0.000 C 
BRANCH  28  29
ATOM     29  C   UNL     1      19.141  17.644  60.413  1.00  0.00    -0.003 C 
ATOM     30  C   UNL     1      20.070  17.015  61.448  1.00  0.00     0.004 C 
ENDBRANCH  28  29
ENDBRANCH  27  28
ENDBRANCH  26  27
ENDBRANCH  25  26
ENDBRANCH  24  25
ENDBRANCH  23  24
ENDBRANCH  22  23
ENDBRANCH  21  22
ENDBRANCH  20  21
ENDBRANCH  19  20
ENDBRANCH  18  19
ENDBRANCH  17  18
ENDBRANCH   1  17
TORSDOF 26
ENDMDL
