MODEL 1
REMARK VINA RESULT:   145.908      0.000      0.000
REMARK INTER + INTRA:         234.396
REMARK INTER:                 231.206
REMARK INTRA:                   3.190
REMARK UNBOUND:                 3.190
REMARK SMILES C[C@H]1O[C@H](O[C@@H]2CC[C@@]3(C)[C@@H](CC[C@]4(C)[C@H]3C=C[C@@]35OC[C@]6(CCC(C)(C)C[C@@H]63)[C@@H](O)C[C@@]45C)[C@@]2(C)CO)[C@@H](O)[C@@H](O[C@@H]2O[C@H](CO)[C@@H](O)[C@H](O)[C@@H]2O)[C@@H]1O
REMARK SMILES IDX 1 1 2 2 54 3 41 4 39 5 4 6 3 7 55 8 42 10 43 11 52 12 44 13
REMARK SMILES IDX 50 14 45 15 48 16 53 17 51 19 46 21 47 22 49 24 5 26 6 27
REMARK SMILES IDX 7 28 35 29 8 30 11 31 36 32 9 33 12 34 10 35 16 36 13 37
REMARK SMILES IDX 14 38 17 39 15 40 33 41 18 42 19 43 32 44 34 45 29 46 20 47
REMARK SMILES IDX 30 48 22 49 28 50 21 51 23 52 25 53 24 54 26 55 27 56 37 57
REMARK SMILES IDX 38 58 31 60 40 62
REMARK H PARENT 55 9 53 18 51 20 47 23 49 25 38 59 31 61 40 63
REMARK Flexibility Score: inf
ROOT
ATOM      1  C   UNL     1       1.657  -5.268  33.938  1.00  0.00     0.041 C 
ATOM      2  C   UNL     1       1.961  -5.011  35.421  1.00  0.00     0.150 C 
ATOM      3  C   UNL     1       3.275  -5.632  35.883  1.00  0.00     0.175 C 
ATOM      4  C   UNL     1       3.597  -5.038  37.259  1.00  0.00     0.186 C 
ATOM      5  C   UNL     1       2.348  -5.156  38.206  1.00  0.00     0.202 C 
ATOM      6  C   UNL     1       0.955  -4.970  37.510  1.00  0.00     0.282 C 
ATOM      7  O   UNL     1       0.916  -5.548  36.220  1.00  0.00    -0.344 OA
ENDROOT
BRANCH   3   8
ATOM      8  O   UNL     1       4.294  -5.348  34.970  1.00  0.00    -0.388 OA
ATOM      9  H   UNL     1       4.385  -6.155  34.397  1.00  0.00     0.211 HD
ENDBRANCH   3   8
BRANCH   4  10
ATOM     10  O   UNL     1       4.675  -5.796  37.791  1.00  0.00    -0.341 OA
BRANCH  10  11
ATOM     11  C   UNL     1       5.989  -5.366  37.431  1.00  0.00     0.282 C 
ATOM     12  C   UNL     1       6.122  -3.828  37.528  1.00  0.00     0.202 C 
ATOM     13  O   UNL     1       7.003  -6.051  38.139  1.00  0.00    -0.341 OA
ATOM     14  C   UNL     1       7.420  -3.351  36.838  1.00  0.00     0.179 C 
ATOM     15  C   UNL     1       8.326  -5.558  37.894  1.00  0.00     0.178 C 
ATOM     16  C   UNL     1       8.481  -4.496  36.740  1.00  0.00     0.177 C 
BRANCH  12  17
ATOM     17  O   UNL     1       6.136  -3.431  38.867  1.00  0.00    -0.385 OA
ATOM     18  H   UNL     1       6.832  -3.965  39.323  1.00  0.00     0.211 HD
ENDBRANCH  12  17
BRANCH  14  19
ATOM     19  O   UNL     1       7.922  -2.182  37.469  1.00  0.00    -0.387 OA
ATOM     20  H   UNL     1       7.280  -1.437  37.318  1.00  0.00     0.211 HD
ENDBRANCH  14  19
BRANCH  15  21
ATOM     21  C   UNL     1       8.973  -5.066  39.206  1.00  0.00     0.191 C 
BRANCH  21  22
ATOM     22  O   UNL     1       9.522  -6.123  39.949  1.00  0.00    -0.394 OA
ATOM     23  H   UNL     1       9.241  -5.981  40.888  1.00  0.00     0.210 HD
ENDBRANCH  21  22
ENDBRANCH  15  21
BRANCH  16  24
ATOM     24  O   UNL     1       8.409  -5.072  35.447  1.00  0.00    -0.387 OA
ATOM     25  H   UNL     1       7.589  -4.769  34.971  1.00  0.00     0.211 HD
ENDBRANCH  16  24
ENDBRANCH  10  11
ENDBRANCH   4  10
BRANCH   6  26
ATOM     26  O   UNL     1       0.466  -3.610  37.486  1.00  0.00    -0.346 OA
BRANCH  26  27
ATOM     27  C   UNL     1       0.211  -3.186  36.133  1.00  0.00     0.130 C 
ATOM     28  C   UNL     1       1.534  -2.659  35.531  1.00  0.00     0.033 C 
ATOM     29  C   UNL     1      -0.991  -2.178  35.987  1.00  0.00     0.020 C 
ATOM     30  C   UNL     1       1.430  -1.529  34.505  1.00  0.00     0.010 C 
ATOM     31  C   UNL     1      -1.039  -1.465  34.522  1.00  0.00     0.006 C 
ATOM     32  C   UNL     1      -0.841  -1.078  37.079  1.00  0.00     0.017 C 
ATOM     33  C   UNL     1       0.199  -1.663  33.578  1.00  0.00    -0.022 C 
ATOM     34  C   UNL     1      -2.310  -1.594  33.668  1.00  0.00     0.005 C 
ATOM     35  C   UNL     1       0.266  -3.077  32.897  1.00  0.00     0.012 C 
ATOM     36  C   UNL     1       0.211  -0.568  32.397  1.00  0.00     0.024 C 
ATOM     37  C   UNL     1      -2.408  -0.429  32.674  1.00  0.00     0.008 C 
ATOM     38  C   UNL     1      -1.193  -0.259  31.657  1.00  0.00    -0.017 C 
ATOM     39  C   UNL     1       1.020   0.690  32.686  1.00  0.00    -0.024 C 
ATOM     40  C   UNL     1      -1.437  -1.385  30.587  1.00  0.00     0.013 C 
ATOM     41  C   UNL     1      -1.197   1.257  30.981  1.00  0.00     0.009 C 
ATOM     42  C   UNL     1       1.176   1.646  31.769  1.00  0.00     0.005 C 
ATOM     43  C   UNL     1       0.252   1.801  30.599  1.00  0.00     0.096 C 
ATOM     44  C   UNL     1      -2.162   1.443  29.733  1.00  0.00     0.043 C 
ATOM     45  C   UNL     1      -1.757   2.297  32.040  1.00  0.00     0.015 C 
ATOM     46  C   UNL     1       0.873   1.331  29.274  1.00  0.00     0.037 C 
ATOM     47  O   UNL     1       0.139   3.207  30.375  1.00  0.00    -0.369 OA
ATOM     48  C   UNL     1      -1.502   1.473  28.309  1.00  0.00     0.124 C 
ATOM     49  C   UNL     1      -0.035   2.049  28.307  1.00  0.00     0.026 C 
ATOM     50  C   UNL     1       1.195  -0.106  28.843  1.00  0.00     0.014 C 
ATOM     51  C   UNL     1      -0.050   3.423  28.984  1.00  0.00     0.171 C 
ATOM     52  C   UNL     1       0.608   2.092  26.896  1.00  0.00     0.013 C 
ATOM     53  C   UNL     1       1.844  -0.144  27.413  1.00  0.00    -0.035 C 
ATOM     54  C   UNL     1       1.024   0.697  26.383  1.00  0.00     0.007 C 
ATOM     55  C   UNL     1       1.881  -1.613  26.925  1.00  0.00     0.011 C 
ATOM     56  C   UNL     1       3.307   0.361  27.452  1.00  0.00     0.011 C 
BRANCH  29  57
ATOM     57  C   UNL     1      -2.317  -2.940  36.329  1.00  0.00     0.165 C 
BRANCH  57  58
ATOM     58  O   UNL     1      -2.877  -2.482  37.538  1.00  0.00    -0.396 OA
ATOM     59  H   UNL     1      -3.465  -3.208  37.880  1.00  0.00     0.210 HD
ENDBRANCH  57  58
ENDBRANCH  29  57
BRANCH  48  60
ATOM     60  O   UNL     1      -1.589   0.209  27.708  1.00  0.00    -0.392 OA
ATOM     61  H   UNL     1      -2.430   0.193  27.180  1.00  0.00     0.210 HD
ENDBRANCH  48  60
ENDBRANCH  26  27
ENDBRANCH   6  26
BRANCH   5  62
ATOM     62  O   UNL     1       2.356  -6.410  38.841  1.00  0.00    -0.385 OA
ATOM     63  H   UNL     1       1.541  -6.443  39.401  1.00  0.00     0.211 HD
ENDBRANCH   5  62
TORSDOF 14
ENDMDL
MODEL 2
REMARK VINA RESULT:   148.873      3.039      6.728
REMARK INTER + INTRA:         239.094
REMARK INTER:                 238.060
REMARK INTRA:                   1.034
REMARK UNBOUND:                 3.190
REMARK SMILES C[C@H]1O[C@H](O[C@@H]2CC[C@@]3(C)[C@@H](CC[C@]4(C)[C@H]3C=C[C@@]35OC[C@]6(CCC(C)(C)C[C@@H]63)[C@@H](O)C[C@@]45C)[C@@]2(C)CO)[C@@H](O)[C@@H](O[C@@H]2O[C@H](CO)[C@@H](O)[C@H](O)[C@@H]2O)[C@@H]1O
REMARK SMILES IDX 1 1 2 2 54 3 41 4 39 5 4 6 3 7 55 8 42 10 43 11 52 12 44 13
REMARK SMILES IDX 50 14 45 15 48 16 53 17 51 19 46 21 47 22 49 24 5 26 6 27
REMARK SMILES IDX 7 28 35 29 8 30 11 31 36 32 9 33 12 34 10 35 16 36 13 37
REMARK SMILES IDX 14 38 17 39 15 40 33 41 18 42 19 43 32 44 34 45 29 46 20 47
REMARK SMILES IDX 30 48 22 49 28 50 21 51 23 52 25 53 24 54 26 55 27 56 37 57
REMARK SMILES IDX 38 58 31 60 40 62
REMARK H PARENT 55 9 53 18 51 20 47 23 49 25 38 59 31 61 40 63
REMARK Flexibility Score: inf
ROOT
ATOM      1  C   UNL     1       8.747  -2.083  31.367  1.00  0.00     0.041 C 
ATOM      2  C   UNL     1       7.607  -2.987  31.855  1.00  0.00     0.150 C 
ATOM      3  C   UNL     1       7.866  -3.597  33.229  1.00  0.00     0.175 C 
ATOM      4  C   UNL     1       6.542  -4.198  33.714  1.00  0.00     0.186 C 
ATOM      5  C   UNL     1       5.925  -5.119  32.599  1.00  0.00     0.202 C 
ATOM      6  C   UNL     1       6.140  -4.629  31.125  1.00  0.00     0.282 C 
ATOM      7  O   UNL     1       7.417  -4.050  30.931  1.00  0.00    -0.344 OA
ENDROOT
BRANCH   3   8
ATOM      8  O   UNL     1       8.320  -2.618  34.116  1.00  0.00    -0.388 OA
ATOM      9  H   UNL     1       9.214  -2.336  33.785  1.00  0.00     0.211 HD
ENDBRANCH   3   8
BRANCH   4  10
ATOM     10  O   UNL     1       6.842  -4.975  34.865  1.00  0.00    -0.341 OA
BRANCH  10  11
ATOM     11  C   UNL     1       7.595  -4.323  35.889  1.00  0.00     0.282 C 
ATOM     12  C   UNL     1       6.666  -3.641  36.921  1.00  0.00     0.202 C 
ATOM     13  O   UNL     1       8.553  -5.172  36.490  1.00  0.00    -0.341 OA
ATOM     14  C   UNL     1       7.471  -2.682  37.826  1.00  0.00     0.179 C 
ATOM     15  C   UNL     1       9.239  -4.588  37.604  1.00  0.00     0.178 C 
ATOM     16  C   UNL     1       8.990  -3.053  37.861  1.00  0.00     0.177 C 
BRANCH  12  17
ATOM     17  O   UNL     1       6.036  -4.605  37.710  1.00  0.00    -0.385 OA
ATOM     18  H   UNL     1       5.345  -5.037  37.150  1.00  0.00     0.211 HD
ENDBRANCH  12  17
BRANCH  14  19
ATOM     19  O   UNL     1       6.888  -2.607  39.119  1.00  0.00    -0.387 OA
ATOM     20  H   UNL     1       6.159  -1.932  39.102  1.00  0.00     0.211 HD
ENDBRANCH  14  19
BRANCH  15  21
ATOM     21  C   UNL     1       9.003  -5.420  38.883  1.00  0.00     0.191 C 
BRANCH  21  22
ATOM     22  O   UNL     1       9.022  -6.799  38.622  1.00  0.00    -0.394 OA
ATOM     23  H   UNL     1       8.946  -6.899  37.639  1.00  0.00     0.210 HD
ENDBRANCH  21  22
ENDBRANCH  15  21
BRANCH  16  24
ATOM     24  O   UNL     1       9.681  -2.222  36.944  1.00  0.00    -0.387 OA
ATOM     25  H   UNL     1      10.644  -2.468  36.901  1.00  0.00     0.211 HD
ENDBRANCH  16  24
ENDBRANCH  10  11
ENDBRANCH   4  10
BRANCH   6  26
ATOM     26  O   UNL     1       5.096  -3.772  30.612  1.00  0.00    -0.346 OA
BRANCH  26  27
ATOM     27  C   UNL     1       4.112  -3.505  31.630  1.00  0.00     0.130 C 
ATOM     28  C   UNL     1       2.980  -4.550  31.499  1.00  0.00     0.033 C 
ATOM     29  C   UNL     1       3.594  -2.018  31.655  1.00  0.00     0.020 C 
ATOM     30  C   UNL     1       1.569  -4.097  31.875  1.00  0.00     0.010 C 
ATOM     31  C   UNL     1       2.260  -1.831  32.573  1.00  0.00     0.006 C 
ATOM     32  C   UNL     1       3.264  -1.591  30.193  1.00  0.00     0.017 C 
ATOM     33  C   UNL     1       1.543  -3.131  33.082  1.00  0.00    -0.022 C 
ATOM     34  C   UNL     1       2.283  -0.820  33.730  1.00  0.00     0.005 C 
ATOM     35  C   UNL     1       2.277  -3.841  34.277  1.00  0.00     0.012 C 
ATOM     36  C   UNL     1       0.042  -2.814  33.571  1.00  0.00     0.024 C 
ATOM     37  C   UNL     1       0.859  -0.355  34.062  1.00  0.00     0.008 C 
ATOM     38  C   UNL     1      -0.181  -1.490  34.473  1.00  0.00    -0.017 C 
ATOM     39  C   UNL     1      -1.038  -3.002  32.514  1.00  0.00    -0.024 C 
ATOM     40  C   UNL     1       0.208  -1.840  35.955  1.00  0.00     0.013 C 
ATOM     41  C   UNL     1      -1.741  -0.935  34.351  1.00  0.00     0.009 C 
ATOM     42  C   UNL     1      -2.331  -2.845  32.801  1.00  0.00     0.005 C 
ATOM     43  C   UNL     1      -2.806  -2.064  33.988  1.00  0.00     0.096 C 
ATOM     44  C   UNL     1      -2.270  -0.111  35.602  1.00  0.00     0.043 C 
ATOM     45  C   UNL     1      -1.829   0.108  33.158  1.00  0.00     0.015 C 
ATOM     46  C   UNL     1      -3.328  -2.955  35.127  1.00  0.00     0.037 C 
ATOM     47  O   UNL     1      -4.004  -1.408  33.571  1.00  0.00    -0.369 OA
ATOM     48  C   UNL     1      -3.252  -0.842  36.584  1.00  0.00     0.124 C 
ATOM     49  C   UNL     1      -4.144  -1.937  35.884  1.00  0.00     0.026 C 
ATOM     50  C   UNL     1      -2.518  -3.879  36.046  1.00  0.00     0.014 C 
ATOM     51  C   UNL     1      -4.863  -1.291  34.695  1.00  0.00     0.171 C 
ATOM     52  C   UNL     1      -5.124  -2.645  36.854  1.00  0.00     0.013 C 
ATOM     53  C   UNL     1      -3.447  -4.630  37.068  1.00  0.00    -0.035 C 
ATOM     54  C   UNL     1      -4.419  -3.647  37.794  1.00  0.00     0.007 C 
ATOM     55  C   UNL     1      -2.557  -5.315  38.133  1.00  0.00     0.011 C 
ATOM     56  C   UNL     1      -4.260  -5.745  36.366  1.00  0.00     0.011 C 
BRANCH  29  57
ATOM     57  C   UNL     1       4.774  -1.093  32.112  1.00  0.00     0.165 C 
BRANCH  57  58
ATOM     58  O   UNL     1       4.402  -0.287  33.206  1.00  0.00    -0.396 OA
ATOM     59  H   UNL     1       4.097   0.584  32.835  1.00  0.00     0.210 HD
ENDBRANCH  57  58
ENDBRANCH  29  57
BRANCH  48  60
ATOM     60  O   UNL     1      -2.548  -1.343  37.690  1.00  0.00    -0.392 OA
ATOM     61  H   UNL     1      -2.115  -2.188  37.403  1.00  0.00     0.210 HD
ENDBRANCH  48  60
ENDBRANCH  26  27
ENDBRANCH   6  26
BRANCH   5  62
ATOM     62  O   UNL     1       6.456  -6.415  32.713  1.00  0.00    -0.385 OA
ATOM     63  H   UNL     1       7.437  -6.309  32.781  1.00  0.00     0.211 HD
ENDBRANCH   5  62
TORSDOF 14
ENDMDL
