MODEL 1
REMARK VINA RESULT:    -6.639      0.000      0.000
REMARK INTER + INTRA:          -7.654
REMARK INTER:                  -7.610
REMARK INTRA:                  -0.045
REMARK UNBOUND:                -0.045
REMARK SMILES O=C([O-])c1cc(O)c(O)c(O)c1
REMARK SMILES IDX 4 1 5 2 12 3 6 4 10 5 8 6 2 7 1 8 3 9 7 10 11 12 9 14
REMARK H PARENT 7 11 11 13 9 15
REMARK Flexibility Score: inf
ROOT
ATOM      1  C   UNL     1      12.513 -13.273  28.493  1.00  0.00     0.005 A 
ATOM      2  C   UNL     1      11.238 -13.393  27.918  1.00  0.00     0.060 A 
ATOM      3  C   UNL     1      12.651 -12.574  29.703  1.00  0.00     0.060 A 
ATOM      4  C   UNL     1      10.114 -12.830  28.532  1.00  0.00     0.162 A 
ATOM      5  C   UNL     1      11.539 -12.006  30.329  1.00  0.00     0.162 A 
ATOM      6  C   UNL     1      10.261 -12.126  29.753  1.00  0.00     0.200 A 
ENDROOT
BRANCH   1   7
ATOM      7  C   UNL     1      13.692 -13.874  27.830  1.00  0.00     0.072 C 
ATOM      8  O   UNL     1      14.364 -13.212  26.994  1.00  0.00    -0.545 OA
ATOM      9  O   UNL     1      14.075 -15.179  28.121  1.00  0.00    -0.545 OA
ENDBRANCH   1   7
BRANCH   4  10
ATOM     10  O   UNL     1       8.880 -12.994  27.899  1.00  0.00    -0.504 OA
ATOM     11  H   UNL     1       8.766 -13.349  26.960  1.00  0.00     0.293 HD
ENDBRANCH   4  10
BRANCH   5  12
ATOM     12  O   UNL     1      11.724 -11.321  31.531  1.00  0.00    -0.504 OA
ATOM     13  H   UNL     1      12.644 -11.139  31.914  1.00  0.00     0.293 HD
ENDBRANCH   5  12
BRANCH   6  14
ATOM     14  O   UNL     1       9.176 -11.544  30.412  1.00  0.00    -0.502 OA
ATOM     15  H   UNL     1       8.267 -11.403  29.995  1.00  0.00     0.293 HD
ENDBRANCH   6  14
TORSDOF 4
ENDMDL
MODEL 2
REMARK VINA RESULT:    -6.532      0.171      2.449
REMARK INTER + INTRA:          -7.531
REMARK INTER:                  -7.487
REMARK INTRA:                  -0.045
REMARK UNBOUND:                -0.045
REMARK SMILES O=C([O-])c1cc(O)c(O)c(O)c1
REMARK SMILES IDX 4 1 5 2 12 3 6 4 10 5 8 6 2 7 1 8 3 9 7 10 11 12 9 14
REMARK H PARENT 7 11 11 13 9 15
REMARK Flexibility Score: inf
ROOT
ATOM      1  C   UNL     1      12.589 -13.298  28.595  1.00  0.00     0.005 A 
ATOM      2  C   UNL     1      12.737 -12.660  29.837  1.00  0.00     0.060 A 
ATOM      3  C   UNL     1      11.315 -13.354  28.007  1.00  0.00     0.060 A 
ATOM      4  C   UNL     1      11.640 -12.084  30.488  1.00  0.00     0.162 A 
ATOM      5  C   UNL     1      10.210 -12.785  28.644  1.00  0.00     0.162 A 
ATOM      6  C   UNL     1      10.358 -12.145  29.888  1.00  0.00     0.200 A 
ENDROOT
BRANCH   1   7
ATOM      7  C   UNL     1      13.760 -13.902  27.920  1.00  0.00     0.072 C 
ATOM      8  O   UNL     1      14.360 -13.282  27.002  1.00  0.00    -0.545 OA
ATOM      9  O   UNL     1      14.215 -15.162  28.292  1.00  0.00    -0.545 OA
ENDBRANCH   1   7
BRANCH   4  10
ATOM     10  O   UNL     1      11.869 -11.466  31.719  1.00  0.00    -0.504 OA
ATOM     11  H   UNL     1      11.173 -10.938  32.226  1.00  0.00     0.293 HD
ENDBRANCH   4  10
BRANCH   5  12
ATOM     12  O   UNL     1       8.963 -12.866  28.021  1.00  0.00    -0.504 OA
ATOM     13  H   UNL     1       8.192 -12.259  28.273  1.00  0.00     0.293 HD
ENDBRANCH   5  12
BRANCH   6  14
ATOM     14  O   UNL     1       9.227 -11.589  30.490  1.00  0.00    -0.502 OA
ATOM     15  H   UNL     1       8.457 -12.128  30.858  1.00  0.00     0.293 HD
ENDBRANCH   6  14
TORSDOF 4
ENDMDL
MODEL 3
REMARK VINA RESULT:    -5.838     12.150     13.297
REMARK INTER + INTRA:          -6.736
REMARK INTER:                  -6.690
REMARK INTRA:                  -0.046
REMARK UNBOUND:                -0.045
REMARK SMILES O=C([O-])c1cc(O)c(O)c(O)c1
REMARK SMILES IDX 4 1 5 2 12 3 6 4 10 5 8 6 2 7 1 8 3 9 7 10 11 12 9 14
REMARK H PARENT 7 11 11 13 9 15
REMARK Flexibility Score: inf
ROOT
ATOM      1  C   UNL     1      15.641  -0.855  26.512  1.00  0.00     0.005 A 
ATOM      2  C   UNL     1      16.947  -0.437  26.215  1.00  0.00     0.060 A 
ATOM      3  C   UNL     1      15.444  -2.133  27.059  1.00  0.00     0.060 A 
ATOM      4  C   UNL     1      18.045  -1.271  26.456  1.00  0.00     0.162 A 
ATOM      5  C   UNL     1      16.529  -2.979  27.305  1.00  0.00     0.162 A 
ATOM      6  C   UNL     1      17.838  -2.559  27.007  1.00  0.00     0.200 A 
ENDROOT
BRANCH   1   7
ATOM      7  C   UNL     1      14.491   0.040  26.251  1.00  0.00     0.072 C 
ATOM      8  O   UNL     1      13.638  -0.254  25.372  1.00  0.00    -0.545 OA
ATOM      9  O   UNL     1      14.337   1.218  26.974  1.00  0.00    -0.545 OA
ENDBRANCH   1   7
BRANCH   4  10
ATOM     10  O   UNL     1      19.313  -0.782  26.135  1.00  0.00    -0.504 OA
ATOM     11  H   UNL     1      19.962  -0.401  26.809  1.00  0.00     0.293 HD
ENDBRANCH   4  10
BRANCH   5  12
ATOM     12  O   UNL     1      16.284  -4.240  27.850  1.00  0.00    -0.504 OA
ATOM     13  H   UNL     1      15.825  -4.364  28.745  1.00  0.00     0.293 HD
ENDBRANCH   5  12
BRANCH   6  14
ATOM     14  O   UNL     1      18.894  -3.436  27.270  1.00  0.00    -0.502 OA
ATOM     15  H   UNL     1      19.208  -3.684  28.197  1.00  0.00     0.293 HD
ENDBRANCH   6  14
TORSDOF 4
ENDMDL
MODEL 4
REMARK VINA RESULT:    -5.806      1.535      4.064
REMARK INTER + INTRA:          -6.699
REMARK INTER:                  -6.648
REMARK INTRA:                  -0.051
REMARK UNBOUND:                -0.045
REMARK SMILES O=C([O-])c1cc(O)c(O)c(O)c1
REMARK SMILES IDX 4 1 5 2 12 3 6 4 10 5 8 6 2 7 1 8 3 9 7 10 11 12 9 14
REMARK H PARENT 7 11 11 13 9 15
REMARK Flexibility Score: inf
ROOT
ATOM      1  C   UNL     1      11.082 -11.364  29.452  1.00  0.00     0.005 A 
ATOM      2  C   UNL     1      10.525 -12.084  28.384  1.00  0.00     0.060 A 
ATOM      3  C   UNL     1      12.334 -11.752  29.954  1.00  0.00     0.060 A 
ATOM      4  C   UNL     1      11.197 -13.174  27.819  1.00  0.00     0.162 A 
ATOM      5  C   UNL     1      13.018 -12.838  29.402  1.00  0.00     0.162 A 
ATOM      6  C   UNL     1      12.460 -13.560  28.332  1.00  0.00     0.200 A 
ENDROOT
BRANCH   1   7
ATOM      7  C   UNL     1      10.358 -10.213  30.037  1.00  0.00     0.072 C 
ATOM      8  O   UNL     1      10.987  -9.286  30.614  1.00  0.00    -0.545 OA
ATOM      9  O   UNL     1       8.972 -10.139  29.958  1.00  0.00    -0.545 OA
ENDBRANCH   1   7
BRANCH   4  10
ATOM     10  O   UNL     1      10.577 -13.838  26.759  1.00  0.00    -0.504 OA
ATOM     11  H   UNL     1       9.641 -14.215  26.795  1.00  0.00     0.293 HD
ENDBRANCH   4  10
BRANCH   5  12
ATOM     12  O   UNL     1      14.261 -13.188  29.934  1.00  0.00    -0.504 OA
ATOM     13  H   UNL     1      15.132 -12.860  29.535  1.00  0.00     0.293 HD
ENDBRANCH   5  12
BRANCH   6  14
ATOM     14  O   UNL     1      13.178 -14.638  27.809  1.00  0.00    -0.502 OA
ATOM     15  H   UNL     1      13.009 -15.603  28.052  1.00  0.00     0.293 HD
ENDBRANCH   6  14
TORSDOF 4
ENDMDL
MODEL 5
REMARK VINA RESULT:    -5.787      1.365      1.684
REMARK INTER + INTRA:          -6.678
REMARK INTER:                  -6.633
REMARK INTRA:                  -0.045
REMARK UNBOUND:                -0.045
REMARK SMILES O=C([O-])c1cc(O)c(O)c(O)c1
REMARK SMILES IDX 4 1 5 2 12 3 6 4 10 5 8 6 2 7 1 8 3 9 7 10 11 12 9 14
REMARK H PARENT 7 11 11 13 9 15
REMARK Flexibility Score: inf
ROOT
ATOM      1  C   UNL     1      12.627 -12.857  28.740  1.00  0.00     0.005 A 
ATOM      2  C   UNL     1      11.451 -12.333  28.181  1.00  0.00     0.060 A 
ATOM      3  C   UNL     1      13.129 -12.290  29.922  1.00  0.00     0.060 A 
ATOM      4  C   UNL     1      10.781 -11.262  28.782  1.00  0.00     0.162 A 
ATOM      5  C   UNL     1      12.473 -11.220  30.535  1.00  0.00     0.162 A 
ATOM      6  C   UNL     1      11.294 -10.695  29.974  1.00  0.00     0.200 A 
ENDROOT
BRANCH   1   7
ATOM      7  C   UNL     1      13.324 -13.990  28.091  1.00  0.00     0.072 C 
ATOM      8  O   UNL     1      13.243 -15.152  28.572  1.00  0.00    -0.545 OA
ATOM      9  O   UNL     1      14.076 -13.788  26.939  1.00  0.00    -0.545 OA
ENDBRANCH   1   7
BRANCH   4  10
ATOM     10  O   UNL     1       9.617 -10.798  28.166  1.00  0.00    -0.504 OA
ATOM     11  H   UNL     1       8.794 -11.363  28.007  1.00  0.00     0.293 HD
ENDBRANCH   4  10
BRANCH   5  12
ATOM     12  O   UNL     1      13.009 -10.689  31.709  1.00  0.00    -0.504 OA
ATOM     13  H   UNL     1      13.956 -10.889  32.010  1.00  0.00     0.293 HD
ENDBRANCH   5  12
BRANCH   6  14
ATOM     14  O   UNL     1      10.669  -9.625  30.620  1.00  0.00    -0.502 OA
ATOM     15  H   UNL     1      10.997  -9.211  31.480  1.00  0.00     0.293 HD
ENDBRANCH   6  14
TORSDOF 4
ENDMDL
MODEL 6
REMARK VINA RESULT:    -5.786     12.131     13.212
REMARK INTER + INTRA:          -6.676
REMARK INTER:                  -6.630
REMARK INTRA:                  -0.046
REMARK UNBOUND:                -0.045
REMARK SMILES O=C([O-])c1cc(O)c(O)c(O)c1
REMARK SMILES IDX 4 1 5 2 12 3 6 4 10 5 8 6 2 7 1 8 3 9 7 10 11 12 9 14
REMARK H PARENT 7 11 11 13 9 15
REMARK Flexibility Score: inf
ROOT
ATOM      1  C   UNL     1      15.670  -0.894  26.565  1.00  0.00     0.005 A 
ATOM      2  C   UNL     1      15.504  -2.180  27.101  1.00  0.00     0.060 A 
ATOM      3  C   UNL     1      16.965  -0.447  26.258  1.00  0.00     0.060 A 
ATOM      4  C   UNL     1      16.604  -3.014  27.331  1.00  0.00     0.162 A 
ATOM      5  C   UNL     1      18.074  -1.267  26.481  1.00  0.00     0.162 A 
ATOM      6  C   UNL     1      17.907  -2.556  27.019  1.00  0.00     0.200 A 
ENDROOT
BRANCH   1   7
ATOM      7  C   UNL     1      14.495  -0.025  26.329  1.00  0.00     0.072 C 
ATOM      8  O   UNL     1      13.649  -0.318  25.442  1.00  0.00    -0.545 OA
ATOM      9  O   UNL     1      14.308   1.128  27.084  1.00  0.00    -0.545 OA
ENDBRANCH   1   7
BRANCH   4  10
ATOM     10  O   UNL     1      16.357  -4.281  27.865  1.00  0.00    -0.504 OA
ATOM     11  H   UNL     1      16.003  -5.062  27.332  1.00  0.00     0.293 HD
ENDBRANCH   4  10
BRANCH   5  12
ATOM     12  O   UNL     1      19.342  -0.780  26.161  1.00  0.00    -0.504 OA
ATOM     13  H   UNL     1      19.522   0.207  26.015  1.00  0.00     0.293 HD
ENDBRANCH   5  12
BRANCH   6  14
ATOM     14  O   UNL     1      19.043  -3.343  27.225  1.00  0.00    -0.502 OA
ATOM     15  H   UNL     1      19.824  -3.390  26.588  1.00  0.00     0.293 HD
ENDBRANCH   6  14
TORSDOF 4
ENDMDL
MODEL 7
REMARK VINA RESULT:    -5.773      1.371      3.924
REMARK INTER + INTRA:          -6.661
REMARK INTER:                  -6.613
REMARK INTRA:                  -0.048
REMARK UNBOUND:                -0.045
REMARK SMILES O=C([O-])c1cc(O)c(O)c(O)c1
REMARK SMILES IDX 4 1 5 2 12 3 6 4 10 5 8 6 2 7 1 8 3 9 7 10 11 12 9 14
REMARK H PARENT 7 11 11 13 9 15
REMARK Flexibility Score: inf
ROOT
ATOM      1  C   UNL     1      12.012 -11.388  30.096  1.00  0.00     0.005 A 
ATOM      2  C   UNL     1      10.704 -11.727  29.718  1.00  0.00     0.060 A 
ATOM      3  C   UNL     1      13.090 -11.973  29.413  1.00  0.00     0.060 A 
ATOM      4  C   UNL     1      10.464 -12.631  28.678  1.00  0.00     0.162 A 
ATOM      5  C   UNL     1      12.869 -12.878  28.373  1.00  0.00     0.162 A 
ATOM      6  C   UNL     1      11.557 -13.217  27.993  1.00  0.00     0.200 A 
ENDROOT
BRANCH   1   7
ATOM      7  C   UNL     1      12.248 -10.430  31.200  1.00  0.00     0.072 C 
ATOM      8  O   UNL     1      13.057 -10.705  32.125  1.00  0.00    -0.545 OA
ATOM      9  O   UNL     1      11.579  -9.211  31.229  1.00  0.00    -0.545 OA
ENDBRANCH   1   7
BRANCH   4  10
ATOM     10  O   UNL     1       9.134 -12.916  28.360  1.00  0.00    -0.504 OA
ATOM     11  H   UNL     1       8.352 -12.332  28.618  1.00  0.00     0.293 HD
ENDBRANCH   4  10
BRANCH   5  12
ATOM     12  O   UNL     1      13.972 -13.434  27.722  1.00  0.00    -0.504 OA
ATOM     13  H   UNL     1      14.917 -13.323  28.069  1.00  0.00     0.293 HD
ENDBRANCH   5  12
BRANCH   6  14
ATOM     14  O   UNL     1      11.381 -14.126  26.947  1.00  0.00    -0.502 OA
ATOM     15  H   UNL     1      10.483 -14.477  26.646  1.00  0.00     0.293 HD
ENDBRANCH   6  14
TORSDOF 4
ENDMDL
MODEL 8
REMARK VINA RESULT:    -5.725      1.706      3.836
REMARK INTER + INTRA:          -6.607
REMARK INTER:                  -6.554
REMARK INTRA:                  -0.052
REMARK UNBOUND:                -0.045
REMARK SMILES O=C([O-])c1cc(O)c(O)c(O)c1
REMARK SMILES IDX 4 1 5 2 12 3 6 4 10 5 8 6 2 7 1 8 3 9 7 10 11 12 9 14
REMARK H PARENT 7 11 11 13 9 15
REMARK Flexibility Score: inf
ROOT
ATOM      1  C   UNL     1      11.620 -11.051  30.279  1.00  0.00     0.005 A 
ATOM      2  C   UNL     1      10.300 -10.630  30.052  1.00  0.00     0.060 A 
ATOM      3  C   UNL     1      12.121 -12.139  29.547  1.00  0.00     0.060 A 
ATOM      4  C   UNL     1       9.488 -11.275  29.113  1.00  0.00     0.162 A 
ATOM      5  C   UNL     1      11.324 -12.794  28.606  1.00  0.00     0.162 A 
ATOM      6  C   UNL     1      10.001 -12.372  28.378  1.00  0.00     0.200 A 
ENDROOT
BRANCH   1   7
ATOM      7  C   UNL     1      12.465 -10.358  31.277  1.00  0.00     0.072 C 
ATOM      8  O   UNL     1      13.530 -10.888  31.692  1.00  0.00    -0.545 OA
ATOM      9  O   UNL     1      12.096  -9.111  31.768  1.00  0.00    -0.545 OA
ENDBRANCH   1   7
BRANCH   4  10
ATOM     10  O   UNL     1       8.187 -10.795  28.943  1.00  0.00    -0.504 OA
ATOM     11  H   UNL     1       7.443 -10.925  29.614  1.00  0.00     0.293 HD
ENDBRANCH   4  10
BRANCH   5  12
ATOM     12  O   UNL     1      11.866 -13.870  27.902  1.00  0.00    -0.504 OA
ATOM     13  H   UNL     1      12.515 -14.523  28.325  1.00  0.00     0.293 HD
ENDBRANCH   5  12
BRANCH   6  14
ATOM     14  O   UNL     1       9.239 -13.054  27.427  1.00  0.00    -0.502 OA
ATOM     15  H   UNL     1       9.618 -13.479  26.594  1.00  0.00     0.293 HD
ENDBRANCH   6  14
TORSDOF 4
ENDMDL
