MODEL 1
REMARK VINA RESULT:    -7.467      0.000      0.000
REMARK INTER + INTRA:         -18.287
REMARK INTER:                 -15.761
REMARK INTRA:                  -2.527
REMARK UNBOUND:                -2.527
REMARK SMILES CCC(=O)CCCCC[C@@H]1NC(=O)[C@H]2CCCCN2C(=O)[C@H]([C@H](C)CC)NC(=O)[C@@H](Cc2cn(OC)c3ccccc23)NC1=O
REMARK SMILES IDX 9 1 10 2 44 3 43 4 45 6 30 7 28 8 27 9 29 11 22 12 23 14
REMARK SMILES IDX 24 15 25 16 26 17 31 18 32 19 33 20 42 21 34 22 37 23 41 24
REMARK SMILES IDX 38 25 40 26 39 27 35 28 36 29 11 30 12 31 13 33 14 34 19 35
REMARK SMILES IDX 15 36 18 37 16 38 17 39 20 40 21 41 8 43 7 44 6 45 5 46 3 47
REMARK SMILES IDX 4 48 2 49 1 50
REMARK H PARENT 43 5 27 10 11 32
REMARK Flexibility Score: 80.00
ROOT
ATOM      1  C   UNL     1       9.496  47.309  29.890  1.00  0.00     0.035 C 
ENDROOT
BRANCH   1   2
ATOM      2  C   UNL     1      10.795  46.753  29.268  1.00  0.00     0.171 C 
BRANCH   2   3
ATOM      3  C   UNL     1      12.016  47.429  29.837  1.00  0.00     0.243 C 
ATOM      4  N   UNL     1      13.141  47.713  28.994  1.00  0.00    -0.342 N 
ATOM      5  H   UNL     1      13.007  47.665  27.958  1.00  0.00     0.164 HD
ATOM      6  O   UNL     1      12.072  47.685  31.070  1.00  0.00    -0.273 OA
BRANCH   4   7
ATOM      7  C   UNL     1      14.504  47.596  29.510  1.00  0.00     0.175 C 
BRANCH   7   8
ATOM      8  C   UNL     1      14.849  46.133  29.622  1.00  0.00     0.243 C 
ATOM      9  N   UNL     1      14.581  45.438  30.847  1.00  0.00    -0.342 N 
ATOM     10  H   UNL     1      14.289  46.000  31.681  1.00  0.00     0.164 HD
ATOM     11  O   UNL     1      15.288  45.510  28.617  1.00  0.00    -0.273 OA
BRANCH   9  12
ATOM     12  C   UNL     1      14.733  43.990  31.010  1.00  0.00     0.174 CG0
ATOM     13  G   UNL     1      13.379  43.359  30.795  1.00  0.00     0.000 G0
BRANCH  12  14
ATOM     14  C   UNL     1      15.325  43.684  32.419  1.00  0.00     0.018 C 
ATOM     15  C   UNL     1      16.467  44.673  32.738  1.00  0.00     0.010 C 
BRANCH  14  16
ATOM     16  C   UNL     1      15.813  42.216  32.519  1.00  0.00     0.002 C 
ATOM     17  C   UNL     1      17.287  42.089  32.914  1.00  0.00     0.004 C 
ENDBRANCH  14  16
ENDBRANCH  12  14
ENDBRANCH   9  12
ENDBRANCH   7   8
BRANCH   7  18
ATOM     18  C   UNL     1      15.491  48.364  28.612  1.00  0.00     0.073 C 
BRANCH  18  19
ATOM     19  C   UNL     1      16.313  49.334  29.416  1.00  0.00    -0.016 A 
ATOM     20  C   UNL     1      16.227  50.719  29.370  1.00  0.00     0.134 A 
ATOM     21  C   UNL     1      17.418  49.055  30.197  1.00  0.00     0.006 A 
ATOM     22  N   UNL     1      17.221  51.282  30.091  1.00  0.00    -0.191 N 
ATOM     23  C   UNL     1      17.958  50.258  30.598  1.00  0.00     0.087 A 
ATOM     24  C   UNL     1      17.988  47.829  30.539  1.00  0.00     0.011 A 
ATOM     25  C   UNL     1      19.125  50.283  31.380  1.00  0.00     0.030 A 
ATOM     26  C   UNL     1      19.150  47.838  31.321  1.00  0.00     0.001 A 
ATOM     27  C   UNL     1      19.715  49.059  31.739  1.00  0.00     0.002 A 
BRANCH  22  28
ATOM     28  O   UNL     1      17.374  52.658  30.190  1.00  0.00    -0.417 OA
ATOM     29  C   UNL     1      18.535  53.377  29.800  1.00  0.00     0.313 C 
ENDBRANCH  22  28
ENDBRANCH  18  19
ENDBRANCH   7  18
ENDBRANCH   4   7
ENDBRANCH   2   3
BRANCH   2  30
ATOM     30  N   UNL     1      10.896  45.308  29.509  1.00  0.00    -0.343 N 
ATOM     31  C   UNL     1      11.649  44.449  28.637  1.00  0.00     0.243 C 
ATOM     32  H   UNL     1      10.430  44.889  30.346  1.00  0.00     0.164 HD
ATOM     33  O   UNL     1      12.173  44.918  27.590  1.00  0.00    -0.273 OA
BRANCH  31  34
ATOM     34  C   UNL     1      11.761  42.970  28.921  1.00  0.00     0.174 C 
ATOM     35  N   UNL     1      13.050  42.663  29.584  1.00  0.00    -0.329 N 
ATOM     36  C   UNL     1      11.584  42.218  27.585  1.00  0.00     0.035 C 
ATOM     37  C   UNL     1      13.662  41.328  29.481  1.00  0.00     0.120 C 
ATOM     38  C   UNL     1      11.999  40.758  27.700  1.00  0.00     0.004 C 
ATOM     39  C   UNL     1      13.462  40.684  28.110  1.00  0.00     0.022 C 
BRANCH  35  40
ATOM     40  C   UNL     1      13.363  43.379  30.792  1.00  0.00     0.246 CG0
ATOM     41  O   UNL     1      12.460  43.569  31.653  1.00  0.00    -0.272 OA
ATOM     42  G   UNL     1      14.737  43.964  31.009  1.00  0.00     0.000 G0
ENDBRANCH  35  40
ENDBRANCH  31  34
ENDBRANCH   2  30
ENDBRANCH   1   2
BRANCH   1  43
ATOM     43  C   UNL     1       9.151  48.756  29.473  1.00  0.00     0.003 C 
BRANCH  43  44
ATOM     44  C   UNL     1       9.098  49.779  30.622  1.00  0.00     0.001 C 
BRANCH  44  45
ATOM     45  C   UNL     1       8.502  51.130  30.197  1.00  0.00     0.008 C 
BRANCH  45  46
ATOM     46  C   UNL     1       9.139  52.284  30.979  1.00  0.00     0.075 C 
BRANCH  46  47
ATOM     47  C   UNL     1       8.440  52.480  32.297  1.00  0.00     0.132 C 
ATOM     48  O   UNL     1       7.346  53.026  32.317  1.00  0.00    -0.300 OA
BRANCH  47  49
ATOM     49  C   UNL     1       9.064  52.024  33.590  1.00  0.00     0.072 C 
ATOM     50  C   UNL     1       8.146  51.052  34.322  1.00  0.00     0.012 C 
ENDBRANCH  47  49
ENDBRANCH  46  47
ENDBRANCH  45  46
ENDBRANCH  44  45
ENDBRANCH  43  44
ENDBRANCH   1  43
TORSDOF 12
ENDMDL
MODEL 2
REMARK VINA RESULT:    -7.097      1.360      2.073
REMARK INTER + INTRA:         -17.506
REMARK INTER:                 -14.873
REMARK INTRA:                  -2.634
REMARK UNBOUND:                -2.527
REMARK SMILES CCC(=O)CCCCC[C@@H]1NC(=O)[C@H]2CCCCN2C(=O)[C@H]([C@H](C)CC)NC(=O)[C@@H](Cc2cn(OC)c3ccccc23)NC1=O
REMARK SMILES IDX 9 1 10 2 44 3 43 4 45 6 30 7 28 8 27 9 29 11 22 12 23 14
REMARK SMILES IDX 24 15 25 16 26 17 31 18 32 19 33 20 42 21 34 22 37 23 41 24
REMARK SMILES IDX 38 25 40 26 39 27 35 28 36 29 11 30 12 31 13 33 14 34 19 35
REMARK SMILES IDX 15 36 18 37 16 38 17 39 20 40 21 41 8 43 7 44 6 45 5 46 3 47
REMARK SMILES IDX 4 48 2 49 1 50
REMARK H PARENT 43 5 27 10 11 32
REMARK Flexibility Score: 80.00
ROOT
ATOM      1  C   UNL     1       9.679  47.935  29.501  1.00  0.00     0.035 C 
ENDROOT
BRANCH   1   2
ATOM      2  C   UNL     1      10.959  47.223  29.013  1.00  0.00     0.171 C 
BRANCH   2   3
ATOM      3  C   UNL     1      12.194  47.787  29.669  1.00  0.00     0.243 C 
ATOM      4  N   UNL     1      13.411  47.917  28.922  1.00  0.00    -0.342 N 
ATOM      5  H   UNL     1      13.363  47.841  27.881  1.00  0.00     0.164 HD
ATOM      6  O   UNL     1      12.170  48.084  30.894  1.00  0.00    -0.273 OA
BRANCH   4   7
ATOM      7  C   UNL     1      14.704  47.676  29.563  1.00  0.00     0.175 C 
BRANCH   7   8
ATOM      8  C   UNL     1      14.870  46.191  29.763  1.00  0.00     0.243 C 
ATOM      9  N   UNL     1      14.465  45.598  31.004  1.00  0.00    -0.342 N 
ATOM     10  H   UNL     1      14.204  46.234  31.793  1.00  0.00     0.164 HD
ATOM     11  O   UNL     1      15.278  45.468  28.813  1.00  0.00    -0.273 OA
BRANCH   9  12
ATOM     12  C   UNL     1      14.439  44.153  31.245  1.00  0.00     0.174 CG0
ATOM     13  G   UNL     1      13.046  43.662  30.938  1.00  0.00     0.000 G0
BRANCH  12  14
ATOM     14  C   UNL     1      14.872  43.861  32.713  1.00  0.00     0.018 C 
ATOM     15  C   UNL     1      15.550  45.109  33.321  1.00  0.00     0.010 C 
BRANCH  14  16
ATOM     16  C   UNL     1      15.803  42.625  32.792  1.00  0.00     0.002 C 
ATOM     17  C   UNL     1      15.113  41.375  33.344  1.00  0.00     0.004 C 
ENDBRANCH  14  16
ENDBRANCH  12  14
ENDBRANCH   9  12
ENDBRANCH   7   8
BRANCH   7  18
ATOM     18  C   UNL     1      15.844  48.286  28.726  1.00  0.00     0.073 C 
BRANCH  18  19
ATOM     19  C   UNL     1      16.909  48.875  29.611  1.00  0.00    -0.016 A 
ATOM     20  C   UNL     1      17.575  48.222  30.639  1.00  0.00     0.134 A 
ATOM     21  C   UNL     1      17.289  50.199  29.701  1.00  0.00     0.006 A 
ATOM     22  N   UNL     1      18.342  49.090  31.335  1.00  0.00    -0.191 N 
ATOM     23  C   UNL     1      18.164  50.309  30.761  1.00  0.00     0.087 A 
ATOM     24  C   UNL     1      16.891  51.300  28.943  1.00  0.00     0.011 A 
ATOM     25  C   UNL     1      18.690  51.562  31.116  1.00  0.00     0.030 A 
ATOM     26  C   UNL     1      17.410  52.557  29.285  1.00  0.00     0.001 A 
ATOM     27  C   UNL     1      18.304  52.686  30.365  1.00  0.00     0.002 A 
BRANCH  22  28
ATOM     28  O   UNL     1      19.096  48.694  32.431  1.00  0.00    -0.417 OA
ATOM     29  C   UNL     1      20.512  48.748  32.507  1.00  0.00     0.313 C 
ENDBRANCH  22  28
ENDBRANCH  18  19
ENDBRANCH   7  18
ENDBRANCH   4   7
ENDBRANCH   2   3
BRANCH   2  30
ATOM     30  N   UNL     1      10.883  45.785  29.302  1.00  0.00    -0.343 N 
ATOM     31  C   UNL     1      11.671  44.827  28.577  1.00  0.00     0.243 C 
ATOM     32  H   UNL     1      10.259  45.444  30.068  1.00  0.00     0.164 HD
ATOM     33  O   UNL     1      12.389  45.204  27.611  1.00  0.00    -0.273 OA
BRANCH  31  34
ATOM     34  C   UNL     1      11.596  43.356  28.911  1.00  0.00     0.174 C 
ATOM     35  N   UNL     1      12.774  42.942  29.709  1.00  0.00    -0.329 N 
ATOM     36  C   UNL     1      11.470  42.576  27.586  1.00  0.00     0.035 C 
ATOM     37  C   UNL     1      13.246  41.548  29.705  1.00  0.00     0.120 C 
ATOM     38  C   UNL     1      11.713  41.086  27.782  1.00  0.00     0.004 C 
ATOM     39  C   UNL     1      13.112  40.876  28.338  1.00  0.00     0.022 C 
BRANCH  35  40
ATOM     40  C   UNL     1      13.043  43.667  30.922  1.00  0.00     0.246 CG0
ATOM     41  O   UNL     1      12.091  43.947  31.702  1.00  0.00    -0.272 OA
ATOM     42  G   UNL     1      14.435  44.155  31.237  1.00  0.00     0.000 G0
ENDBRANCH  35  40
ENDBRANCH  31  34
ENDBRANCH   2  30
ENDBRANCH   1   2
BRANCH   1  43
ATOM     43  C   UNL     1       9.602  49.435  29.143  1.00  0.00     0.003 C 
BRANCH  43  44
ATOM     44  C   UNL     1       8.298  50.145  29.552  1.00  0.00     0.001 C 
BRANCH  44  45
ATOM     45  C   UNL     1       8.519  51.259  30.587  1.00  0.00     0.008 C 
BRANCH  45  46
ATOM     46  C   UNL     1       9.103  50.695  31.886  1.00  0.00     0.075 C 
BRANCH  46  47
ATOM     47  C   UNL     1      10.284  51.512  32.335  1.00  0.00     0.132 C 
ATOM     48  O   UNL     1      11.409  51.043  32.228  1.00  0.00    -0.300 OA
BRANCH  47  49
ATOM     49  C   UNL     1      10.108  52.890  32.917  1.00  0.00     0.072 C 
ATOM     50  C   UNL     1      11.413  53.394  33.524  1.00  0.00     0.012 C 
ENDBRANCH  47  49
ENDBRANCH  46  47
ENDBRANCH  45  46
ENDBRANCH  44  45
ENDBRANCH  43  44
ENDBRANCH   1  43
TORSDOF 12
ENDMDL
MODEL 3
REMARK VINA RESULT:    -6.882      1.865      7.002
REMARK INTER + INTRA:         -17.053
REMARK INTER:                 -13.972
REMARK INTRA:                  -3.080
REMARK UNBOUND:                -2.527
REMARK SMILES CCC(=O)CCCCC[C@@H]1NC(=O)[C@H]2CCCCN2C(=O)[C@H]([C@H](C)CC)NC(=O)[C@@H](Cc2cn(OC)c3ccccc23)NC1=O
REMARK SMILES IDX 9 1 10 2 44 3 43 4 45 6 30 7 28 8 27 9 29 11 22 12 23 14
REMARK SMILES IDX 24 15 25 16 26 17 31 18 32 19 33 20 42 21 34 22 37 23 41 24
REMARK SMILES IDX 38 25 40 26 39 27 35 28 36 29 11 30 12 31 13 33 14 34 19 35
REMARK SMILES IDX 15 36 18 37 16 38 17 39 20 40 21 41 8 43 7 44 6 45 5 46 3 47
REMARK SMILES IDX 4 48 2 49 1 50
REMARK H PARENT 43 5 27 10 11 32
REMARK Flexibility Score: 80.00
ROOT
ATOM      1  C   UNL     1      15.132  48.780  28.543  1.00  0.00     0.035 C 
ENDROOT
BRANCH   1   2
ATOM      2  C   UNL     1      14.270  47.862  29.436  1.00  0.00     0.171 C 
BRANCH   2   3
ATOM      3  C   UNL     1      12.957  47.520  28.779  1.00  0.00     0.243 C 
ATOM      4  N   UNL     1      11.768  47.388  29.570  1.00  0.00    -0.342 N 
ATOM      5  H   UNL     1      11.780  47.759  30.547  1.00  0.00     0.164 HD
ATOM      6  O   UNL     1      12.921  47.288  27.541  1.00  0.00    -0.273 OA
BRANCH   4   7
ATOM      7  C   UNL     1      10.766  46.376  29.238  1.00  0.00     0.175 C 
BRANCH   7   8
ATOM      8  C   UNL     1      11.305  45.023  29.626  1.00  0.00     0.243 C 
ATOM      9  N   UNL     1      12.078  44.276  28.677  1.00  0.00    -0.342 N 
ATOM     10  H   UNL     1      12.122  44.624  27.691  1.00  0.00     0.164 HD
ATOM     11  O   UNL     1      11.151  44.595  30.802  1.00  0.00    -0.273 OA
BRANCH   9  12
ATOM     12  C   UNL     1      12.776  43.028  28.999  1.00  0.00     0.174 CG0
ATOM     13  G   UNL     1      14.197  43.378  29.366  1.00  0.00     0.000 G0
BRANCH  12  14
ATOM     14  C   UNL     1      12.687  42.053  27.786  1.00  0.00     0.018 C 
ATOM     15  C   UNL     1      11.261  42.075  27.194  1.00  0.00     0.010 C 
BRANCH  14  16
ATOM     16  C   UNL     1      13.105  40.615  28.185  1.00  0.00     0.002 C 
ATOM     17  C   UNL     1      14.187  40.020  27.280  1.00  0.00     0.004 C 
ENDBRANCH  14  16
ENDBRANCH  12  14
ENDBRANCH   9  12
ENDBRANCH   7   8
BRANCH   7  18
ATOM     18  C   UNL     1       9.427  46.693  29.931  1.00  0.00     0.073 C 
BRANCH  18  19
ATOM     19  C   UNL     1       9.533  47.940  30.766  1.00  0.00    -0.016 A 
ATOM     20  C   UNL     1       9.753  47.996  32.135  1.00  0.00     0.134 A 
ATOM     21  C   UNL     1       9.247  49.236  30.381  1.00  0.00     0.006 A 
ATOM     22  N   UNL     1       9.622  49.262  32.588  1.00  0.00    -0.191 N 
ATOM     23  C   UNL     1       9.307  50.027  31.510  1.00  0.00     0.087 A 
ATOM     24  C   UNL     1       8.909  49.746  29.128  1.00  0.00     0.011 A 
ATOM     25  C   UNL     1       9.021  51.400  31.426  1.00  0.00     0.030 A 
ATOM     26  C   UNL     1       8.624  51.115  29.030  1.00  0.00     0.001 A 
ATOM     27  C   UNL     1       8.680  51.936  30.173  1.00  0.00     0.002 A 
BRANCH  22  28
ATOM     28  O   UNL     1       9.771  49.586  33.930  1.00  0.00    -0.417 OA
ATOM     29  C   UNL     1       8.863  50.377  34.681  1.00  0.00     0.313 C 
ENDBRANCH  22  28
ENDBRANCH  18  19
ENDBRANCH   7  18
ENDBRANCH   4   7
ENDBRANCH   2   3
BRANCH   2  30
ATOM     30  N   UNL     1      14.991  46.617  29.732  1.00  0.00    -0.343 N 
ATOM     31  C   UNL     1      14.715  45.849  30.914  1.00  0.00     0.243 C 
ATOM     32  H   UNL     1      15.709  46.263  29.060  1.00  0.00     0.164 HD
ATOM     33  O   UNL     1      13.896  46.282  31.770  1.00  0.00    -0.273 OA
BRANCH  31  34
ATOM     34  C   UNL     1      15.450  44.557  31.183  1.00  0.00     0.174 C 
ATOM     35  N   UNL     1      14.647  43.396  30.735  1.00  0.00    -0.329 N 
ATOM     36  C   UNL     1      15.781  44.507  32.690  1.00  0.00     0.035 C 
ATOM     37  C   UNL     1      14.828  42.065  31.336  1.00  0.00     0.120 C 
ATOM     38  C   UNL     1      16.227  43.117  33.124  1.00  0.00     0.004 C 
ATOM     39  C   UNL     1      15.114  42.122  32.836  1.00  0.00     0.022 C 
BRANCH  35  40
ATOM     40  C   UNL     1      14.201  43.386  29.367  1.00  0.00     0.246 CG0
ATOM     41  O   UNL     1      14.993  43.748  28.453  1.00  0.00    -0.272 OA
ATOM     42  G   UNL     1      12.781  43.014  29.020  1.00  0.00     0.000 G0
ENDBRANCH  35  40
ENDBRANCH  31  34
ENDBRANCH   2  30
ENDBRANCH   1   2
BRANCH   1  43
ATOM     43  C   UNL     1      16.247  49.543  29.291  1.00  0.00     0.003 C 
BRANCH  43  44
ATOM     44  C   UNL     1      15.762  50.543  30.357  1.00  0.00     0.001 C 
BRANCH  44  45
ATOM     45  C   UNL     1      16.016  50.062  31.794  1.00  0.00     0.008 C 
BRANCH  45  46
ATOM     46  C   UNL     1      17.453  50.365  32.230  1.00  0.00     0.075 C 
BRANCH  46  47
ATOM     47  C   UNL     1      18.322  49.146  32.075  1.00  0.00     0.132 C 
ATOM     48  O   UNL     1      19.526  49.287  31.912  1.00  0.00    -0.300 OA
BRANCH  47  49
ATOM     49  C   UNL     1      17.737  47.758  32.111  1.00  0.00     0.072 C 
ATOM     50  C   UNL     1      18.329  46.890  31.006  1.00  0.00     0.012 C 
ENDBRANCH  47  49
ENDBRANCH  46  47
ENDBRANCH  45  46
ENDBRANCH  44  45
ENDBRANCH  43  44
ENDBRANCH   1  43
TORSDOF 12
ENDMDL
MODEL 4
REMARK VINA RESULT:    -6.705      1.826      6.876
REMARK INTER + INTRA:         -16.679
REMARK INTER:                 -14.007
REMARK INTRA:                  -2.672
REMARK UNBOUND:                -2.527
REMARK SMILES CCC(=O)CCCCC[C@@H]1NC(=O)[C@H]2CCCCN2C(=O)[C@H]([C@H](C)CC)NC(=O)[C@@H](Cc2cn(OC)c3ccccc23)NC1=O
REMARK SMILES IDX 9 1 10 2 44 3 43 4 45 6 30 7 28 8 27 9 29 11 22 12 23 14
REMARK SMILES IDX 24 15 25 16 26 17 31 18 32 19 33 20 42 21 34 22 37 23 41 24
REMARK SMILES IDX 38 25 40 26 39 27 35 28 36 29 11 30 12 31 13 33 14 34 19 35
REMARK SMILES IDX 15 36 18 37 16 38 17 39 20 40 21 41 8 43 7 44 6 45 5 46 3 47
REMARK SMILES IDX 4 48 2 49 1 50
REMARK H PARENT 43 5 27 10 11 32
REMARK Flexibility Score: 80.00
ROOT
ATOM      1  C   UNL     1      15.105  48.845  28.417  1.00  0.00     0.035 C 
ENDROOT
BRANCH   1   2
ATOM      2  C   UNL     1      14.252  47.910  29.302  1.00  0.00     0.171 C 
BRANCH   2   3
ATOM      3  C   UNL     1      12.943  47.562  28.643  1.00  0.00     0.243 C 
ATOM      4  N   UNL     1      11.748  47.448  29.428  1.00  0.00    -0.342 N 
ATOM      5  H   UNL     1      11.755  47.836  30.399  1.00  0.00     0.164 HD
ATOM      6  O   UNL     1      12.913  47.307  27.409  1.00  0.00    -0.273 OA
BRANCH   4   7
ATOM      7  C   UNL     1      10.744  46.434  29.108  1.00  0.00     0.175 C 
BRANCH   7   8
ATOM      8  C   UNL     1      11.279  45.085  29.517  1.00  0.00     0.243 C 
ATOM      9  N   UNL     1      12.055  44.324  28.583  1.00  0.00    -0.342 N 
ATOM     10  H   UNL     1      12.105  44.658  27.592  1.00  0.00     0.164 HD
ATOM     11  O   UNL     1      11.118  44.673  30.698  1.00  0.00    -0.273 OA
BRANCH   9  12
ATOM     12  C   UNL     1      12.749  43.079  28.925  1.00  0.00     0.174 CG0
ATOM     13  G   UNL     1      14.184  43.424  29.239  1.00  0.00     0.000 G0
BRANCH  12  14
ATOM     14  C   UNL     1      12.615  42.067  27.748  1.00  0.00     0.018 C 
ATOM     15  C   UNL     1      11.201  42.155  27.134  1.00  0.00     0.010 C 
BRANCH  14  16
ATOM     16  C   UNL     1      12.936  40.621  28.206  1.00  0.00     0.002 C 
ATOM     17  C   UNL     1      13.941  39.903  27.301  1.00  0.00     0.004 C 
ENDBRANCH  14  16
ENDBRANCH  12  14
ENDBRANCH   9  12
ENDBRANCH   7   8
BRANCH   7  18
ATOM     18  C   UNL     1       9.404  46.764  29.793  1.00  0.00     0.073 C 
BRANCH  18  19
ATOM     19  C   UNL     1       9.562  47.896  30.772  1.00  0.00    -0.016 A 
ATOM     20  C   UNL     1       9.844  47.777  32.125  1.00  0.00     0.134 A 
ATOM     21  C   UNL     1       9.274  49.231  30.566  1.00  0.00     0.006 A 
ATOM     22  N   UNL     1       9.749  48.977  32.739  1.00  0.00    -0.191 N 
ATOM     23  C   UNL     1       9.394  49.874  31.781  1.00  0.00     0.087 A 
ATOM     24  C   UNL     1       8.886  49.897  29.404  1.00  0.00     0.011 A 
ATOM     25  C   UNL     1       9.121  51.248  31.883  1.00  0.00     0.030 A 
ATOM     26  C   UNL     1       8.613  51.269  29.491  1.00  0.00     0.001 A 
ATOM     27  C   UNL     1       8.730  51.939  30.724  1.00  0.00     0.002 A 
BRANCH  22  28
ATOM     28  O   UNL     1       9.962  49.129  34.102  1.00  0.00    -0.417 OA
ATOM     29  C   UNL     1      11.227  49.051  34.741  1.00  0.00     0.313 C 
ENDBRANCH  22  28
ENDBRANCH  18  19
ENDBRANCH   7  18
ENDBRANCH   4   7
ENDBRANCH   2   3
BRANCH   2  30
ATOM     30  N   UNL     1      14.985  46.670  29.587  1.00  0.00    -0.343 N 
ATOM     31  C   UNL     1      14.730  45.898  30.772  1.00  0.00     0.243 C 
ATOM     32  H   UNL     1      15.698  46.322  28.906  1.00  0.00     0.164 HD
ATOM     33  O   UNL     1      13.919  46.324  31.638  1.00  0.00    -0.273 OA
BRANCH  31  34
ATOM     34  C   UNL     1      15.478  44.611  31.029  1.00  0.00     0.174 C 
ATOM     35  N   UNL     1      14.669  43.444  30.607  1.00  0.00    -0.329 N 
ATOM     36  C   UNL     1      15.846  44.570  32.527  1.00  0.00     0.035 C 
ATOM     37  C   UNL     1      14.870  42.117  31.211  1.00  0.00     0.120 C 
ATOM     38  C   UNL     1      16.309  43.185  32.957  1.00  0.00     0.004 C 
ATOM     39  C   UNL     1      15.194  42.184  32.703  1.00  0.00     0.022 C 
BRANCH  35  40
ATOM     40  C   UNL     1      14.189  43.424  29.250  1.00  0.00     0.246 CG0
ATOM     41  O   UNL     1      14.964  43.765  28.314  1.00  0.00    -0.272 OA
ATOM     42  G   UNL     1      12.755  43.069  28.943  1.00  0.00     0.000 G0
ENDBRANCH  35  40
ENDBRANCH  31  34
ENDBRANCH   2  30
ENDBRANCH   1   2
BRANCH   1  43
ATOM     43  C   UNL     1      16.057  49.777  29.196  1.00  0.00     0.003 C 
BRANCH  43  44
ATOM     44  C   UNL     1      17.349  49.118  29.714  1.00  0.00     0.001 C 
BRANCH  44  45
ATOM     45  C   UNL     1      18.419  50.138  30.132  1.00  0.00     0.008 C 
BRANCH  45  46
ATOM     46  C   UNL     1      18.463  50.296  31.656  1.00  0.00     0.075 C 
BRANCH  46  47
ATOM     47  C   UNL     1      18.205  51.726  32.048  1.00  0.00     0.132 C 
ATOM     48  O   UNL     1      18.807  52.202  33.000  1.00  0.00    -0.300 OA
BRANCH  47  49
ATOM     49  C   UNL     1      17.218  52.578  31.295  1.00  0.00     0.072 C 
ATOM     50  C   UNL     1      15.968  52.829  32.131  1.00  0.00     0.012 C 
ENDBRANCH  47  49
ENDBRANCH  46  47
ENDBRANCH  45  46
ENDBRANCH  44  45
ENDBRANCH  43  44
ENDBRANCH   1  43
TORSDOF 12
ENDMDL
MODEL 5
REMARK VINA RESULT:    -6.552      1.932      6.700
REMARK INTER + INTRA:         -16.356
REMARK INTER:                 -13.707
REMARK INTRA:                  -2.650
REMARK UNBOUND:                -2.527
REMARK SMILES CCC(=O)CCCCC[C@@H]1NC(=O)[C@H]2CCCCN2C(=O)[C@H]([C@H](C)CC)NC(=O)[C@@H](Cc2cn(OC)c3ccccc23)NC1=O
REMARK SMILES IDX 9 1 10 2 44 3 43 4 45 6 30 7 28 8 27 9 29 11 22 12 23 14
REMARK SMILES IDX 24 15 25 16 26 17 31 18 32 19 33 20 42 21 34 22 37 23 41 24
REMARK SMILES IDX 38 25 40 26 39 27 35 28 36 29 11 30 12 31 13 33 14 34 19 35
REMARK SMILES IDX 15 36 18 37 16 38 17 39 20 40 21 41 8 43 7 44 6 45 5 46 3 47
REMARK SMILES IDX 4 48 2 49 1 50
REMARK H PARENT 43 5 27 10 11 32
REMARK Flexibility Score: 80.00
ROOT
ATOM      1  C   UNL     1      15.149  48.720  28.902  1.00  0.00     0.035 C 
ENDROOT
BRANCH   1   2
ATOM      2  C   UNL     1      14.267  47.738  29.703  1.00  0.00     0.171 C 
BRANCH   2   3
ATOM      3  C   UNL     1      12.939  47.506  29.028  1.00  0.00     0.243 C 
ATOM      4  N   UNL     1      11.745  47.373  29.813  1.00  0.00    -0.342 N 
ATOM      5  H   UNL     1      11.776  47.671  30.814  1.00  0.00     0.164 HD
ATOM      6  O   UNL     1      12.890  47.365  27.776  1.00  0.00    -0.273 OA
BRANCH   4   7
ATOM      7  C   UNL     1      10.696  46.436  29.413  1.00  0.00     0.175 C 
BRANCH   7   8
ATOM      8  C   UNL     1      11.163  45.035  29.721  1.00  0.00     0.243 C 
ATOM      9  N   UNL     1      11.898  44.305  28.731  1.00  0.00    -0.342 N 
ATOM     10  H   UNL     1      11.964  44.708  27.766  1.00  0.00     0.164 HD
ATOM     11  O   UNL     1      10.982  44.548  30.870  1.00  0.00    -0.273 OA
BRANCH   9  12
ATOM     12  C   UNL     1      12.528  43.006  28.979  1.00  0.00     0.174 CG0
ATOM     13  G   UNL     1      13.992  43.250  29.252  1.00  0.00     0.000 G0
BRANCH  12  14
ATOM     14  C   UNL     1      12.289  42.068  27.757  1.00  0.00     0.018 C 
ATOM     15  C   UNL     1      10.876  42.304  27.180  1.00  0.00     0.010 C 
BRANCH  14  16
ATOM     16  C   UNL     1      12.496  40.580  28.138  1.00  0.00     0.002 C 
ATOM     17  C   UNL     1      13.822  40.001  27.636  1.00  0.00     0.004 C 
ENDBRANCH  14  16
ENDBRANCH  12  14
ENDBRANCH   9  12
ENDBRANCH   7   8
BRANCH   7  18
ATOM     18  C   UNL     1       9.369  46.779  30.115  1.00  0.00     0.073 C 
BRANCH  18  19
ATOM     19  C   UNL     1       9.170  48.268  30.199  1.00  0.00    -0.016 A 
ATOM     20  C   UNL     1       8.996  49.134  29.128  1.00  0.00     0.134 A 
ATOM     21  C   UNL     1       9.309  49.073  31.312  1.00  0.00     0.006 A 
ATOM     22  N   UNL     1       9.016  50.418  29.547  1.00  0.00    -0.191 N 
ATOM     23  C   UNL     1       9.212  50.383  30.892  1.00  0.00     0.087 A 
ATOM     24  C   UNL     1       9.546  48.731  32.643  1.00  0.00     0.011 A 
ATOM     25  C   UNL     1       9.355  51.433  31.814  1.00  0.00     0.030 A 
ATOM     26  C   UNL     1       9.688  49.768  33.574  1.00  0.00     0.001 A 
ATOM     27  C   UNL     1       9.593  51.112  33.161  1.00  0.00     0.002 A 
BRANCH  22  28
ATOM     28  O   UNL     1       8.885  51.484  28.668  1.00  0.00    -0.417 OA
ATOM     29  C   UNL     1       9.370  51.503  27.334  1.00  0.00     0.313 C 
ENDBRANCH  22  28
ENDBRANCH  18  19
ENDBRANCH   7  18
ENDBRANCH   4   7
ENDBRANCH   2   3
BRANCH   2  30
ATOM     30  N   UNL     1      14.952  46.448  29.857  1.00  0.00    -0.343 N 
ATOM     31  C   UNL     1      14.670  45.570  30.959  1.00  0.00     0.243 C 
ATOM     32  H   UNL     1      15.649  46.143  29.139  1.00  0.00     0.164 HD
ATOM     33  O   UNL     1      13.877  45.937  31.869  1.00  0.00    -0.273 OA
BRANCH  31  34
ATOM     34  C   UNL     1      15.367  44.236  31.081  1.00  0.00     0.174 C 
ATOM     35  N   UNL     1      14.493  43.143  30.595  1.00  0.00    -0.329 N 
ATOM     36  C   UNL     1      15.785  44.055  32.555  1.00  0.00     0.035 C 
ATOM     37  C   UNL     1      14.655  41.764  31.080  1.00  0.00     0.120 C 
ATOM     38  C   UNL     1      16.201  42.620  32.852  1.00  0.00     0.004 C 
ATOM     39  C   UNL     1      15.034  41.691  32.559  1.00  0.00     0.022 C 
BRANCH  35  40
ATOM     40  C   UNL     1      13.966  43.257  29.261  1.00  0.00     0.246 CG0
ATOM     41  O   UNL     1      14.725  43.627  28.324  1.00  0.00    -0.272 OA
ATOM     42  G   UNL     1      12.504  43.007  28.984  1.00  0.00     0.000 G0
ENDBRANCH  35  40
ENDBRANCH  31  34
ENDBRANCH   2  30
ENDBRANCH   1   2
BRANCH   1  43
ATOM     43  C   UNL     1      15.929  49.734  29.766  1.00  0.00     0.003 C 
BRANCH  43  44
ATOM     44  C   UNL     1      15.247  50.139  31.086  1.00  0.00     0.001 C 
BRANCH  44  45
ATOM     45  C   UNL     1      16.231  50.701  32.124  1.00  0.00     0.008 C 
BRANCH  45  46
ATOM     46  C   UNL     1      16.371  52.220  31.984  1.00  0.00     0.075 C 
BRANCH  46  47
ATOM     47  C   UNL     1      17.820  52.625  32.021  1.00  0.00     0.132 C 
ATOM     48  O   UNL     1      18.252  53.209  33.005  1.00  0.00    -0.300 OA
BRANCH  47  49
ATOM     49  C   UNL     1      18.745  52.329  30.870  1.00  0.00     0.072 C 
ATOM     50  C   UNL     1      18.639  53.407  29.797  1.00  0.00     0.012 C 
ENDBRANCH  47  49
ENDBRANCH  46  47
ENDBRANCH  45  46
ENDBRANCH  44  45
ENDBRANCH  43  44
ENDBRANCH   1  43
TORSDOF 12
ENDMDL
MODEL 6
REMARK VINA RESULT:    -6.546      2.028      3.229
REMARK INTER + INTRA:         -16.343
REMARK INTER:                 -13.477
REMARK INTRA:                  -2.866
REMARK UNBOUND:                -2.527
REMARK SMILES CCC(=O)CCCCC[C@@H]1NC(=O)[C@H]2CCCCN2C(=O)[C@H]([C@H](C)CC)NC(=O)[C@@H](Cc2cn(OC)c3ccccc23)NC1=O
REMARK SMILES IDX 9 1 10 2 44 3 43 4 45 6 30 7 28 8 27 9 29 11 22 12 23 14
REMARK SMILES IDX 24 15 25 16 26 17 31 18 32 19 33 20 42 21 34 22 37 23 41 24
REMARK SMILES IDX 38 25 40 26 39 27 35 28 36 29 11 30 12 31 13 33 14 34 19 35
REMARK SMILES IDX 15 36 18 37 16 38 17 39 20 40 21 41 8 43 7 44 6 45 5 46 3 47
REMARK SMILES IDX 4 48 2 49 1 50
REMARK H PARENT 43 5 27 10 11 32
REMARK Flexibility Score: 80.00
ROOT
ATOM      1  C   UNL     1      12.713  49.538  33.177  1.00  0.00     0.035 C 
ENDROOT
BRANCH   1   2
ATOM      2  C   UNL     1      13.360  48.692  32.059  1.00  0.00     0.171 C 
BRANCH   2   3
ATOM      3  C   UNL     1      14.770  48.290  32.412  1.00  0.00     0.243 C 
ATOM      4  N   UNL     1      15.797  48.308  31.411  1.00  0.00    -0.342 N 
ATOM      5  H   UNL     1      15.608  48.820  30.519  1.00  0.00     0.164 HD
ATOM      6  O   UNL     1      15.029  47.877  33.575  1.00  0.00    -0.273 OA
BRANCH   4   7
ATOM      7  C   UNL     1      16.841  47.285  31.401  1.00  0.00     0.175 C 
BRANCH   7   8
ATOM      8  C   UNL     1      16.236  45.987  30.929  1.00  0.00     0.243 C 
ATOM      9  N   UNL     1      15.698  45.070  31.890  1.00  0.00    -0.342 N 
ATOM     10  H   UNL     1      15.874  45.258  32.905  1.00  0.00     0.164 HD
ATOM     11  O   UNL     1      16.126  45.755  29.694  1.00  0.00    -0.273 OA
BRANCH   9  12
ATOM     12  C   UNL     1      14.953  43.860  31.532  1.00  0.00     0.174 CG0
ATOM     13  G   UNL     1      13.482  44.189  31.603  1.00  0.00     0.000 G0
BRANCH  12  14
ATOM     14  C   UNL     1      15.359  42.696  32.486  1.00  0.00     0.018 C 
ATOM     15  C   UNL     1      16.850  42.822  32.868  1.00  0.00     0.010 C 
BRANCH  14  16
ATOM     16  C   UNL     1      15.060  41.315  31.850  1.00  0.00     0.002 C 
ATOM     17  C   UNL     1      15.886  40.175  32.452  1.00  0.00     0.004 C 
ENDBRANCH  14  16
ENDBRANCH  12  14
ENDBRANCH   9  12
ENDBRANCH   7   8
BRANCH   7  18
ATOM     18  C   UNL     1      18.027  47.731  30.527  1.00  0.00     0.073 C 
BRANCH  18  19
ATOM     19  C   UNL     1      18.510  49.098  30.927  1.00  0.00    -0.016 A 
ATOM     20  C   UNL     1      19.212  49.416  32.082  1.00  0.00     0.134 A 
ATOM     21  C   UNL     1      18.195  50.307  30.337  1.00  0.00     0.006 A 
ATOM     22  N   UNL     1      19.339  50.755  32.208  1.00  0.00    -0.191 N 
ATOM     23  C   UNL     1      18.710  51.306  31.136  1.00  0.00     0.087 A 
ATOM     24  C   UNL     1      17.465  50.577  29.180  1.00  0.00     0.011 A 
ATOM     25  C   UNL     1      18.508  52.655  30.800  1.00  0.00     0.030 A 
ATOM     26  C   UNL     1      17.257  51.918  28.831  1.00  0.00     0.001 A 
ATOM     27  C   UNL     1      17.777  52.951  29.636  1.00  0.00     0.002 A 
BRANCH  22  28
ATOM     28  O   UNL     1      19.982  51.337  33.292  1.00  0.00    -0.417 OA
ATOM     29  C   UNL     1      19.328  51.955  34.390  1.00  0.00     0.313 C 
ENDBRANCH  22  28
ENDBRANCH  18  19
ENDBRANCH   7  18
ENDBRANCH   4   7
ENDBRANCH   2   3
BRANCH   2  30
ATOM     30  N   UNL     1      12.569  47.479  31.815  1.00  0.00    -0.343 N 
ATOM     31  C   UNL     1      12.591  46.806  30.546  1.00  0.00     0.243 C 
ATOM     32  H   UNL     1      11.988  47.077  32.586  1.00  0.00     0.164 HD
ATOM     33  O   UNL     1      13.237  47.301  29.582  1.00  0.00    -0.273 OA
BRANCH  31  34
ATOM     34  C   UNL     1      11.790  45.545  30.328  1.00  0.00     0.174 C 
ATOM     35  N   UNL     1      12.662  44.350  30.414  1.00  0.00    -0.329 N 
ATOM     36  C   UNL     1      11.079  45.667  28.963  1.00  0.00     0.035 C 
ATOM     37  C   UNL     1      12.309  43.097  29.729  1.00  0.00     0.120 C 
ATOM     38  C   UNL     1      10.512  44.331  28.500  1.00  0.00     0.004 C 
ATOM     39  C   UNL     1      11.645  43.325  28.371  1.00  0.00     0.022 C 
BRANCH  35  40
ATOM     40  C   UNL     1      13.446  44.186  31.609  1.00  0.00     0.246 CG0
ATOM     41  O   UNL     1      12.907  44.368  32.735  1.00  0.00    -0.272 OA
ATOM     42  G   UNL     1      14.919  43.866  31.528  1.00  0.00     0.000 G0
ENDBRANCH  35  40
ENDBRANCH  31  34
ENDBRANCH   2  30
ENDBRANCH   1   2
BRANCH   1  43
ATOM     43  C   UNL     1      11.815  50.689  32.673  1.00  0.00     0.003 C 
BRANCH  43  44
ATOM     44  C   UNL     1      10.362  50.299  32.348  1.00  0.00     0.001 C 
BRANCH  44  45
ATOM     45  C   UNL     1       9.568  51.435  31.684  1.00  0.00     0.008 C 
BRANCH  45  46
ATOM     46  C   UNL     1       8.447  50.879  30.800  1.00  0.00     0.075 C 
BRANCH  46  47
ATOM     47  C   UNL     1       8.944  50.639  29.400  1.00  0.00     0.132 C 
ATOM     48  O   UNL     1       9.005  51.578  28.619  1.00  0.00    -0.300 OA
BRANCH  47  49
ATOM     49  C   UNL     1       9.362  49.267  28.942  1.00  0.00     0.072 C 
ATOM     50  C   UNL     1       8.792  48.191  29.861  1.00  0.00     0.012 C 
ENDBRANCH  47  49
ENDBRANCH  46  47
ENDBRANCH  45  46
ENDBRANCH  44  45
ENDBRANCH  43  44
ENDBRANCH   1  43
TORSDOF 12
ENDMDL
MODEL 7
REMARK VINA RESULT:    -6.244      1.975      3.194
REMARK INTER + INTRA:         -15.706
REMARK INTER:                 -12.965
REMARK INTRA:                  -2.740
REMARK UNBOUND:                -2.527
REMARK SMILES CCC(=O)CCCCC[C@@H]1NC(=O)[C@H]2CCCCN2C(=O)[C@H]([C@H](C)CC)NC(=O)[C@@H](Cc2cn(OC)c3ccccc23)NC1=O
REMARK SMILES IDX 9 1 10 2 44 3 43 4 45 6 30 7 28 8 27 9 29 11 22 12 23 14
REMARK SMILES IDX 24 15 25 16 26 17 31 18 32 19 33 20 42 21 34 22 37 23 41 24
REMARK SMILES IDX 38 25 40 26 39 27 35 28 36 29 11 30 12 31 13 33 14 34 19 35
REMARK SMILES IDX 15 36 18 37 16 38 17 39 20 40 21 41 8 43 7 44 6 45 5 46 3 47
REMARK SMILES IDX 4 48 2 49 1 50
REMARK H PARENT 43 5 27 10 11 32
REMARK Flexibility Score: 80.00
ROOT
ATOM      1  C   UNL     1      12.446  48.125  28.822  1.00  0.00     0.035 C 
ENDROOT
BRANCH   1   2
ATOM      2  C   UNL     1      13.687  47.258  29.124  1.00  0.00     0.171 C 
BRANCH   2   3
ATOM      3  C   UNL     1      14.608  47.930  30.111  1.00  0.00     0.243 C 
ATOM      4  N   UNL     1      16.030  47.843  29.944  1.00  0.00    -0.342 N 
ATOM      5  H   UNL     1      16.401  47.521  29.021  1.00  0.00     0.164 HD
ATOM      6  O   UNL     1      14.125  48.513  31.119  1.00  0.00    -0.273 OA
BRANCH   4   7
ATOM      7  C   UNL     1      16.907  47.729  31.108  1.00  0.00     0.175 C 
BRANCH   7   8
ATOM      8  C   UNL     1      16.750  46.349  31.693  1.00  0.00     0.243 C 
ATOM      9  N   UNL     1      15.632  46.068  32.544  1.00  0.00    -0.342 N 
ATOM     10  H   UNL     1      15.035  46.870  32.857  1.00  0.00     0.164 HD
ATOM     11  O   UNL     1      17.548  45.429  31.363  1.00  0.00    -0.273 OA
BRANCH   9  12
ATOM     12  C   UNL     1      15.300  44.729  33.038  1.00  0.00     0.174 CG0
ATOM     13  G   UNL     1      14.108  44.234  32.257  1.00  0.00     0.000 G0
BRANCH  12  14
ATOM     14  C   UNL     1      15.036  44.789  34.572  1.00  0.00     0.018 C 
ATOM     15  C   UNL     1      15.208  46.237  35.081  1.00  0.00     0.010 C 
BRANCH  14  16
ATOM     16  C   UNL     1      15.958  43.812  35.343  1.00  0.00     0.002 C 
ATOM     17  C   UNL     1      16.885  44.508  36.343  1.00  0.00     0.004 C 
ENDBRANCH  14  16
ENDBRANCH  12  14
ENDBRANCH   9  12
ENDBRANCH   7   8
BRANCH   7  18
ATOM     18  C   UNL     1      18.365  48.038  30.719  1.00  0.00     0.073 C 
BRANCH  18  19
ATOM     19  C   UNL     1      18.774  49.406  31.193  1.00  0.00    -0.016 A 
ATOM     20  C   UNL     1      19.395  49.706  32.398  1.00  0.00     0.134 A 
ATOM     21  C   UNL     1      18.449  50.624  30.627  1.00  0.00     0.006 A 
ATOM     22  N   UNL     1      19.465  51.043  32.577  1.00  0.00    -0.191 N 
ATOM     23  C   UNL     1      18.880  51.610  31.489  1.00  0.00     0.087 A 
ATOM     24  C   UNL     1      17.778  50.911  29.439  1.00  0.00     0.011 A 
ATOM     25  C   UNL     1      18.648  52.963  31.188  1.00  0.00     0.030 A 
ATOM     26  C   UNL     1      17.542  52.256  29.124  1.00  0.00     0.001 A 
ATOM     27  C   UNL     1      17.975  53.275  29.994  1.00  0.00     0.002 A 
BRANCH  22  28
ATOM     28  O   UNL     1      20.023  51.607  33.716  1.00  0.00    -0.417 OA
ATOM     29  C   UNL     1      21.385  51.491  34.098  1.00  0.00     0.313 C 
ENDBRANCH  22  28
ENDBRANCH  18  19
ENDBRANCH   7  18
ENDBRANCH   4   7
ENDBRANCH   2   3
BRANCH   2  30
ATOM     30  N   UNL     1      13.278  45.956  29.668  1.00  0.00    -0.343 N 
ATOM     31  C   UNL     1      13.987  44.748  29.346  1.00  0.00     0.243 C 
ATOM     32  H   UNL     1      12.465  45.901  30.323  1.00  0.00     0.164 HD
ATOM     33  O   UNL     1      14.935  44.776  28.515  1.00  0.00    -0.273 OA
BRANCH  31  34
ATOM     34  C   UNL     1      13.565  43.425  29.940  1.00  0.00     0.174 C 
ATOM     35  N   UNL     1      14.241  43.195  31.237  1.00  0.00    -0.329 N 
ATOM     36  C   UNL     1      13.871  42.323  28.903  1.00  0.00     0.035 C 
ATOM     37  C   UNL     1      14.461  41.834  31.752  1.00  0.00     0.120 C 
ATOM     38  C   UNL     1      13.788  40.932  29.517  1.00  0.00     0.004 C 
ATOM     39  C   UNL     1      14.794  40.826  30.652  1.00  0.00     0.022 C 
BRANCH  35  40
ATOM     40  C   UNL     1      14.101  44.208  32.249  1.00  0.00     0.246 CG0
ATOM     41  O   UNL     1      12.968  44.720  32.461  1.00  0.00    -0.272 OA
ATOM     42  G   UNL     1      15.303  44.713  33.008  1.00  0.00     0.000 G0
ENDBRANCH  35  40
ENDBRANCH  31  34
ENDBRANCH   2  30
ENDBRANCH   1   2
BRANCH   1  43
ATOM     43  C   UNL     1      11.095  47.444  29.132  1.00  0.00     0.003 C 
BRANCH  43  44
ATOM     44  C   UNL     1      10.566  47.649  30.564  1.00  0.00     0.001 C 
BRANCH  44  45
ATOM     45  C   UNL     1      10.674  49.105  31.042  1.00  0.00     0.008 C 
BRANCH  45  46
ATOM     46  C   UNL     1       9.298  49.665  31.418  1.00  0.00     0.075 C 
BRANCH  46  47
ATOM     47  C   UNL     1       8.902  50.773  30.481  1.00  0.00     0.132 C 
ATOM     48  O   UNL     1       9.111  51.934  30.806  1.00  0.00    -0.300 OA
BRANCH  47  49
ATOM     49  C   UNL     1       8.250  50.481  29.155  1.00  0.00     0.072 C 
ATOM     50  C   UNL     1       9.073  51.056  28.007  1.00  0.00     0.012 C 
ENDBRANCH  47  49
ENDBRANCH  46  47
ENDBRANCH  45  46
ENDBRANCH  44  45
ENDBRANCH  43  44
ENDBRANCH   1  43
TORSDOF 12
ENDMDL
MODEL 8
REMARK VINA RESULT:    -6.204      2.067      7.291
REMARK INTER + INTRA:         -15.621
REMARK INTER:                 -13.376
REMARK INTRA:                  -2.245
REMARK UNBOUND:                -2.527
REMARK SMILES CCC(=O)CCCCC[C@@H]1NC(=O)[C@H]2CCCCN2C(=O)[C@H]([C@H](C)CC)NC(=O)[C@@H](Cc2cn(OC)c3ccccc23)NC1=O
REMARK SMILES IDX 9 1 10 2 44 3 43 4 45 6 30 7 28 8 27 9 29 11 22 12 23 14
REMARK SMILES IDX 24 15 25 16 26 17 31 18 32 19 33 20 42 21 34 22 37 23 41 24
REMARK SMILES IDX 38 25 40 26 39 27 35 28 36 29 11 30 12 31 13 33 14 34 19 35
REMARK SMILES IDX 15 36 18 37 16 38 17 39 20 40 21 41 8 43 7 44 6 45 5 46 3 47
REMARK SMILES IDX 4 48 2 49 1 50
REMARK H PARENT 43 5 27 10 11 32
REMARK Flexibility Score: 80.00
ROOT
ATOM      1  C   UNL     1      17.839  48.746  30.680  1.00  0.00     0.035 C 
ENDROOT
BRANCH   1   2
ATOM      2  C   UNL     1      16.737  48.014  31.475  1.00  0.00     0.171 C 
BRANCH   2   3
ATOM      3  C   UNL     1      15.368  48.560  31.160  1.00  0.00     0.243 C 
ATOM      4  N   UNL     1      14.395  48.712  32.203  1.00  0.00    -0.342 N 
ATOM      5  H   UNL     1      14.721  48.667  33.194  1.00  0.00     0.164 HD
ATOM      6  O   UNL     1      15.060  48.822  29.966  1.00  0.00    -0.273 OA
BRANCH   4   7
ATOM      7  C   UNL     1      12.980  48.455  31.939  1.00  0.00     0.175 C 
BRANCH   7   8
ATOM      8  C   UNL     1      12.780  46.966  31.812  1.00  0.00     0.243 C 
ATOM      9  N   UNL     1      12.900  46.348  30.524  1.00  0.00    -0.342 N 
ATOM     10  H   UNL     1      12.976  46.967  29.683  1.00  0.00     0.164 HD
ATOM     11  O   UNL     1      12.597  46.263  32.843  1.00  0.00    -0.273 OA
BRANCH   9  12
ATOM     12  C   UNL     1      12.879  44.898  30.313  1.00  0.00     0.174 CG0
ATOM     13  G   UNL     1      14.309  44.423  30.240  1.00  0.00     0.000 G0
BRANCH  12  14
ATOM     14  C   UNL     1      12.068  44.571  29.023  1.00  0.00     0.018 C 
ATOM     15  C   UNL     1      10.869  45.536  28.894  1.00  0.00     0.010 C 
BRANCH  14  16
ATOM     16  C   UNL     1      11.599  43.094  29.009  1.00  0.00     0.002 C 
ATOM     17  C   UNL     1      11.250  42.577  27.611  1.00  0.00     0.004 C 
ENDBRANCH  14  16
ENDBRANCH  12  14
ENDBRANCH   9  12
ENDBRANCH   7   8
BRANCH   7  18
ATOM     18  C   UNL     1      12.103  49.071  33.045  1.00  0.00     0.073 C 
BRANCH  18  19
ATOM     19  C   UNL     1      11.113  50.047  32.470  1.00  0.00    -0.016 A 
ATOM     20  C   UNL     1      10.716  51.248  33.043  1.00  0.00     0.134 A 
ATOM     21  C   UNL     1      10.281  49.859  31.384  1.00  0.00     0.006 A 
ATOM     22  N   UNL     1       9.694  51.792  32.348  1.00  0.00    -0.191 N 
ATOM     23  C   UNL     1       9.421  50.936  31.328  1.00  0.00     0.087 A 
ATOM     24  C   UNL     1      10.211  48.800  30.480  1.00  0.00     0.011 A 
ATOM     25  C   UNL     1       8.428  50.997  30.336  1.00  0.00     0.030 A 
ATOM     26  C   UNL     1       9.227  48.848  29.483  1.00  0.00     0.001 A 
ATOM     27  C   UNL     1       8.341  49.941  29.412  1.00  0.00     0.002 A 
BRANCH  22  28
ATOM     28  O   UNL     1       9.096  52.986  32.726  1.00  0.00    -0.417 OA
ATOM     29  C   UNL     1       9.775  54.224  32.875  1.00  0.00     0.313 C 
ENDBRANCH  22  28
ENDBRANCH  18  19
ENDBRANCH   7  18
ENDBRANCH   4   7
ENDBRANCH   2   3
BRANCH   2  30
ATOM     30  N   UNL     1      16.757  46.578  31.169  1.00  0.00    -0.343 N 
ATOM     31  C   UNL     1      16.274  45.600  32.105  1.00  0.00     0.243 C 
ATOM     32  H   UNL     1      17.110  46.252  30.241  1.00  0.00     0.164 HD
ATOM     33  O   UNL     1      15.897  45.960  33.253  1.00  0.00    -0.273 OA
BRANCH  31  34
ATOM     34  C   UNL     1      16.280  44.131  31.756  1.00  0.00     0.174 C 
ATOM     35  N   UNL     1      14.933  43.693  31.320  1.00  0.00    -0.329 N 
ATOM     36  C   UNL     1      16.789  43.355  32.989  1.00  0.00     0.035 C 
ATOM     37  C   UNL     1      14.508  42.290  31.450  1.00  0.00     0.120 C 
ATOM     38  C   UNL     1      16.528  41.860  32.862  1.00  0.00     0.004 C 
ATOM     39  C   UNL     1      15.033  41.623  32.720  1.00  0.00     0.022 C 
BRANCH  35  40
ATOM     40  C   UNL     1      14.320  44.412  30.235  1.00  0.00     0.246 CG0
ATOM     41  O   UNL     1      15.007  44.705  29.218  1.00  0.00    -0.272 OA
ATOM     42  G   UNL     1      12.888  44.879  30.329  1.00  0.00     0.000 G0
ENDBRANCH  35  40
ENDBRANCH  31  34
ENDBRANCH   2  30
ENDBRANCH   1   2
BRANCH   1  43
ATOM     43  C   UNL     1      19.038  49.221  31.530  1.00  0.00     0.003 C 
BRANCH  43  44
ATOM     44  C   UNL     1      18.698  50.224  32.648  1.00  0.00     0.001 C 
BRANCH  44  45
ATOM     45  C   UNL     1      19.225  51.639  32.367  1.00  0.00     0.008 C 
BRANCH  45  46
ATOM     46  C   UNL     1      18.183  52.476  31.619  1.00  0.00     0.075 C 
BRANCH  46  47
ATOM     47  C   UNL     1      18.661  52.799  30.229  1.00  0.00     0.132 C 
ATOM     48  O   UNL     1      18.676  51.916  29.383  1.00  0.00    -0.300 OA
BRANCH  47  49
ATOM     49  C   UNL     1      19.125  54.184  29.862  1.00  0.00     0.072 C 
ATOM     50  C   UNL     1      19.902  54.818  31.011  1.00  0.00     0.012 C 
ENDBRANCH  47  49
ENDBRANCH  46  47
ENDBRANCH  45  46
ENDBRANCH  44  45
ENDBRANCH  43  44
ENDBRANCH   1  43
TORSDOF 12
ENDMDL
MODEL 9
REMARK VINA RESULT:    -6.039      3.541      8.758
REMARK INTER + INTRA:         -15.274
REMARK INTER:                 -11.930
REMARK INTRA:                  -3.344
REMARK UNBOUND:                -2.527
REMARK SMILES CCC(=O)CCCCC[C@@H]1NC(=O)[C@H]2CCCCN2C(=O)[C@H]([C@H](C)CC)NC(=O)[C@@H](Cc2cn(OC)c3ccccc23)NC1=O
REMARK SMILES IDX 9 1 10 2 44 3 43 4 45 6 30 7 28 8 27 9 29 11 22 12 23 14
REMARK SMILES IDX 24 15 25 16 26 17 31 18 32 19 33 20 42 21 34 22 37 23 41 24
REMARK SMILES IDX 38 25 40 26 39 27 35 28 36 29 11 30 12 31 13 33 14 34 19 35
REMARK SMILES IDX 15 36 18 37 16 38 17 39 20 40 21 41 8 43 7 44 6 45 5 46 3 47
REMARK SMILES IDX 4 48 2 49 1 50
REMARK H PARENT 43 5 27 10 11 32
REMARK Flexibility Score: 80.00
ROOT
ATOM      1  C   UNL     1      15.573  45.604  32.614  1.00  0.00     0.035 C 
ENDROOT
BRANCH   1   2
ATOM      2  C   UNL     1      14.991  46.995  32.281  1.00  0.00     0.171 C 
BRANCH   2   3
ATOM      3  C   UNL     1      14.075  47.490  33.372  1.00  0.00     0.243 C 
ATOM      4  N   UNL     1      12.805  48.068  33.040  1.00  0.00    -0.342 N 
ATOM      5  H   UNL     1      12.434  47.924  32.073  1.00  0.00     0.164 HD
ATOM      6  O   UNL     1      14.457  47.453  34.572  1.00  0.00    -0.273 OA
BRANCH   4   7
ATOM      7  C   UNL     1      12.279  49.194  33.811  1.00  0.00     0.175 C 
BRANCH   7   8
ATOM      8  C   UNL     1      13.049  50.434  33.434  1.00  0.00     0.243 C 
ATOM      9  N   UNL     1      14.223  50.787  34.177  1.00  0.00    -0.342 N 
ATOM     10  H   UNL     1      14.430  50.256  35.056  1.00  0.00     0.164 HD
ATOM     11  O   UNL     1      12.711  51.102  32.419  1.00  0.00    -0.273 OA
BRANCH   9  12
ATOM     12  C   UNL     1      15.127  51.877  33.802  1.00  0.00     0.174 CG0
ATOM     13  G   UNL     1      16.392  51.259  33.260  1.00  0.00     0.000 G0
BRANCH  12  14
ATOM     14  C   UNL     1      15.383  52.792  35.037  1.00  0.00     0.018 C 
ATOM     15  C   UNL     1      14.157  52.765  35.976  1.00  0.00     0.010 C 
BRANCH  14  16
ATOM     16  C   UNL     1      15.726  54.240  34.607  1.00  0.00     0.002 C 
ATOM     17  C   UNL     1      14.762  55.288  35.169  1.00  0.00     0.004 C 
ENDBRANCH  14  16
ENDBRANCH  12  14
ENDBRANCH   9  12
ENDBRANCH   7   8
BRANCH   7  18
ATOM     18  C   UNL     1      10.765  49.350  33.575  1.00  0.00     0.073 C 
BRANCH  18  19
ATOM     19  C   UNL     1      10.385  48.908  32.188  1.00  0.00    -0.016 A 
ATOM     20  C   UNL     1      10.195  49.731  31.087  1.00  0.00     0.134 A 
ATOM     21  C   UNL     1       9.973  47.651  31.790  1.00  0.00     0.006 A 
ATOM     22  N   UNL     1       9.698  49.027  30.047  1.00  0.00    -0.191 N 
ATOM     23  C   UNL     1       9.556  47.746  30.479  1.00  0.00     0.087 A 
ATOM     24  C   UNL     1       9.909  46.458  32.510  1.00  0.00     0.011 A 
ATOM     25  C   UNL     1       9.043  46.619  29.817  1.00  0.00     0.030 A 
ATOM     26  C   UNL     1       9.402  45.324  31.861  1.00  0.00     0.001 A 
ATOM     27  C   UNL     1       8.972  45.405  30.522  1.00  0.00     0.002 A 
BRANCH  22  28
ATOM     28  O   UNL     1       9.396  49.622  28.829  1.00  0.00    -0.417 OA
ATOM     29  C   UNL     1       8.617  50.798  28.669  1.00  0.00     0.313 C 
ENDBRANCH  22  28
ENDBRANCH  18  19
ENDBRANCH   7  18
ENDBRANCH   4   7
ENDBRANCH   2   3
BRANCH   2  30
ATOM     30  N   UNL     1      16.073  47.969  32.092  1.00  0.00    -0.343 N 
ATOM     31  C   UNL     1      15.907  49.131  31.265  1.00  0.00     0.243 C 
ATOM     32  H   UNL     1      16.985  47.831  32.585  1.00  0.00     0.164 HD
ATOM     33  O   UNL     1      14.839  49.293  30.613  1.00  0.00    -0.273 OA
BRANCH  31  34
ATOM     34  C   UNL     1      17.026  50.133  31.108  1.00  0.00     0.174 C 
ATOM     35  N   UNL     1      16.717  51.381  31.844  1.00  0.00    -0.329 N 
ATOM     36  C   UNL     1      17.240  50.369  29.598  1.00  0.00     0.035 C 
ATOM     37  C   UNL     1      17.307  52.669  31.445  1.00  0.00     0.120 C 
ATOM     38  C   UNL     1      18.112  51.590  29.335  1.00  0.00     0.004 C 
ATOM     39  C   UNL     1      17.443  52.819  29.930  1.00  0.00     0.022 C 
BRANCH  35  40
ATOM     40  C   UNL     1      16.406  51.267  33.244  1.00  0.00     0.246 CG0
ATOM     41  O   UNL     1      17.171  50.602  33.997  1.00  0.00    -0.272 OA
ATOM     42  G   UNL     1      15.144  51.872  33.808  1.00  0.00     0.000 G0
ENDBRANCH  35  40
ENDBRANCH  31  34
ENDBRANCH   2  30
ENDBRANCH   1   2
BRANCH   1  43
ATOM     43  C   UNL     1      15.793  44.690  31.389  1.00  0.00     0.003 C 
BRANCH  43  44
ATOM     44  C   UNL     1      14.550  43.919  30.909  1.00  0.00     0.001 C 
BRANCH  44  45
ATOM     45  C   UNL     1      14.212  44.183  29.433  1.00  0.00     0.008 C 
BRANCH  45  46
ATOM     46  C   UNL     1      15.235  45.128  28.794  1.00  0.00     0.075 C 
BRANCH  46  47
ATOM     47  C   UNL     1      14.589  46.436  28.426  1.00  0.00     0.132 C 
ATOM     48  O   UNL     1      15.292  47.361  28.042  1.00  0.00    -0.300 OA
BRANCH  47  49
ATOM     49  C   UNL     1      13.099  46.630  28.526  1.00  0.00     0.072 C 
ATOM     50  C   UNL     1      12.729  48.098  28.347  1.00  0.00     0.012 C 
ENDBRANCH  47  49
ENDBRANCH  46  47
ENDBRANCH  45  46
ENDBRANCH  44  45
ENDBRANCH  43  44
ENDBRANCH   1  43
TORSDOF 12
ENDMDL
