MODEL 1
REMARK VINA RESULT:    -3.988      0.000      0.000
REMARK INTER + INTRA:          -5.270
REMARK INTER:                  -5.154
REMARK INTRA:                  -0.116
REMARK UNBOUND:                -0.116
REMARK SMILES CCCCCCC(=O)[O-]
REMARK SMILES IDX 5 1 6 2 7 3 8 4 9 5 4 6 3 7 2 8 1 9
REMARK H PARENT
REMARK Flexibility Score: inf
ROOT
ATOM      1  C   UNL     1       4.383   7.151 -10.154  1.00  0.00     0.006 C 
ENDROOT
BRANCH   1   2
ATOM      2  C   UNL     1       5.037   8.065 -11.198  1.00  0.00     0.053 C 
BRANCH   2   3
ATOM      3  C   UNL     1       4.440   7.870 -12.559  1.00  0.00     0.041 C 
ATOM      4  O   UNL     1       3.230   7.551 -12.681  1.00  0.00    -0.550 OA
ATOM      5  O   UNL     1       5.233   8.011 -13.691  1.00  0.00    -0.550 OA
ENDBRANCH   2   3
ENDBRANCH   1   2
BRANCH   1   6
ATOM      6  C   UNL     1       4.541   7.694  -8.726  1.00  0.00     0.000 C 
BRANCH   6   7
ATOM      7  C   UNL     1       4.209   6.611  -7.688  1.00  0.00    -0.000 C 
BRANCH   7   8
ATOM      8  C   UNL     1       3.817   7.202  -6.324  1.00  0.00    -0.003 C 
ATOM      9  C   UNL     1       2.601   8.125  -6.406  1.00  0.00     0.004 C 
ENDBRANCH   7   8
ENDBRANCH   6   7
ENDBRANCH   1   6
TORSDOF 5
ENDMDL
MODEL 2
REMARK VINA RESULT:    -3.683     21.160     22.023
REMARK INTER + INTRA:          -4.876
REMARK INTER:                  -4.671
REMARK INTRA:                  -0.205
REMARK UNBOUND:                -0.116
REMARK SMILES CCCCCCC(=O)[O-]
REMARK SMILES IDX 5 1 6 2 7 3 8 4 9 5 4 6 3 7 2 8 1 9
REMARK H PARENT
REMARK Flexibility Score: inf
ROOT
ATOM      1  C   UNL     1      -7.884  -8.107  -0.546  1.00  0.00     0.006 C 
ENDROOT
BRANCH   1   2
ATOM      2  C   UNL     1      -7.133  -8.704  -1.744  1.00  0.00     0.053 C 
BRANCH   2   3
ATOM      3  C   UNL     1      -5.699  -8.987  -1.416  1.00  0.00     0.041 C 
ATOM      4  O   UNL     1      -5.047  -8.196  -0.687  1.00  0.00    -0.550 OA
ATOM      5  O   UNL     1      -5.076 -10.112  -1.942  1.00  0.00    -0.550 OA
ENDBRANCH   2   3
ENDBRANCH   1   2
BRANCH   1   6
ATOM      6  C   UNL     1      -9.405  -8.267  -0.674  1.00  0.00     0.000 C 
BRANCH   6   7
ATOM      7  C   UNL     1      -9.814  -8.466  -2.142  1.00  0.00    -0.000 C 
BRANCH   7   8
ATOM      8  C   UNL     1     -11.092  -7.695  -2.509  1.00  0.00    -0.003 C 
ATOM      9  C   UNL     1     -10.830  -6.216  -2.795  1.00  0.00     0.004 C 
ENDBRANCH   7   8
ENDBRANCH   6   7
ENDBRANCH   1   6
TORSDOF 5
ENDMDL
MODEL 3
REMARK VINA RESULT:    -3.649     21.084     22.217
REMARK INTER + INTRA:          -4.832
REMARK INTER:                  -4.596
REMARK INTRA:                  -0.236
REMARK UNBOUND:                -0.116
REMARK SMILES CCCCCCC(=O)[O-]
REMARK SMILES IDX 5 1 6 2 7 3 8 4 9 5 4 6 3 7 2 8 1 9
REMARK H PARENT
REMARK Flexibility Score: inf
ROOT
ATOM      1  C   UNL     1      -7.563  -8.407  -2.537  1.00  0.00     0.006 C 
ENDROOT
BRANCH   1   2
ATOM      2  C   UNL     1      -6.970  -8.706  -1.153  1.00  0.00     0.053 C 
BRANCH   2   3
ATOM      3  C   UNL     1      -5.500  -8.984  -1.226  1.00  0.00     0.041 C 
ATOM      4  O   UNL     1      -4.674  -8.158  -0.758  1.00  0.00    -0.550 OA
ATOM      5  O   UNL     1      -5.042 -10.143  -1.841  1.00  0.00    -0.550 OA
ENDBRANCH   2   3
ENDBRANCH   1   2
BRANCH   1   6
ATOM      6  C   UNL     1      -8.996  -7.864  -2.451  1.00  0.00     0.000 C 
BRANCH   6   7
ATOM      7  C   UNL     1      -9.570  -8.053  -1.039  1.00  0.00    -0.000 C 
BRANCH   7   8
ATOM      8  C   UNL     1     -10.763  -9.021  -1.011  1.00  0.00    -0.003 C 
ATOM      9  C   UNL     1     -11.108  -9.576  -2.393  1.00  0.00     0.004 C 
ENDBRANCH   7   8
ENDBRANCH   6   7
ENDBRANCH   1   6
TORSDOF 5
ENDMDL
MODEL 4
REMARK VINA RESULT:    -3.607      2.975      5.166
REMARK INTER + INTRA:          -4.777
REMARK INTER:                  -4.661
REMARK INTRA:                  -0.116
REMARK UNBOUND:                -0.116
REMARK SMILES CCCCCCC(=O)[O-]
REMARK SMILES IDX 5 1 6 2 7 3 8 4 9 5 4 6 3 7 2 8 1 9
REMARK H PARENT
REMARK Flexibility Score: inf
ROOT
ATOM      1  C   UNL     1       4.568   6.857 -10.542  1.00  0.00     0.006 C 
ENDROOT
BRANCH   1   2
ATOM      2  C   UNL     1       4.632   7.934  -9.451  1.00  0.00     0.053 C 
BRANCH   2   3
ATOM      3  C   UNL     1       4.261   7.385  -8.106  1.00  0.00     0.041 C 
ATOM      4  O   UNL     1       4.660   6.245  -7.754  1.00  0.00    -0.550 OA
ATOM      5  O   UNL     1       3.448   8.124  -7.256  1.00  0.00    -0.550 OA
ENDBRANCH   2   3
ENDBRANCH   1   2
BRANCH   1   6
ATOM      6  C   UNL     1       4.832   7.431 -11.942  1.00  0.00     0.000 C 
BRANCH   6   7
ATOM      7  C   UNL     1       3.578   8.125 -12.495  1.00  0.00    -0.000 C 
BRANCH   7   8
ATOM      8  C   UNL     1       2.811   7.248 -13.498  1.00  0.00    -0.003 C 
ATOM      9  C   UNL     1       1.376   7.725 -13.724  1.00  0.00     0.004 C 
ENDBRANCH   7   8
ENDBRANCH   6   7
ENDBRANCH   1   6
TORSDOF 5
ENDMDL
MODEL 5
REMARK VINA RESULT:    -2.859     11.186     12.030
REMARK INTER + INTRA:          -3.811
REMARK INTER:                  -3.451
REMARK INTRA:                  -0.360
REMARK UNBOUND:                -0.116
REMARK SMILES CCCCCCC(=O)[O-]
REMARK SMILES IDX 5 1 6 2 7 3 8 4 9 5 4 6 3 7 2 8 1 9
REMARK H PARENT
REMARK Flexibility Score: inf
ROOT
ATOM      1  C   UNL     1       5.613  -2.708 -11.999  1.00  0.00     0.006 C 
ENDROOT
BRANCH   1   2
ATOM      2  C   UNL     1       5.519  -2.006 -13.360  1.00  0.00     0.053 C 
BRANCH   2   3
ATOM      3  C   UNL     1       4.099  -1.868 -13.817  1.00  0.00     0.041 C 
ATOM      4  O   UNL     1       3.429  -2.887 -14.125  1.00  0.00    -0.550 OA
ATOM      5  O   UNL     1       3.526  -0.607 -13.932  1.00  0.00    -0.550 OA
ENDBRANCH   2   3
ENDBRANCH   1   2
BRANCH   1   6
ATOM      6  C   UNL     1       6.417  -4.014 -12.073  1.00  0.00     0.000 C 
BRANCH   6   7
ATOM      7  C   UNL     1       6.880  -4.292 -13.511  1.00  0.00    -0.000 C 
BRANCH   7   8
ATOM      8  C   UNL     1       6.560  -5.724 -13.968  1.00  0.00    -0.003 C 
ATOM      9  C   UNL     1       5.059  -5.973 -14.124  1.00  0.00     0.004 C 
ENDBRANCH   7   8
ENDBRANCH   6   7
ENDBRANCH   1   6
TORSDOF 5
ENDMDL
MODEL 6
REMARK VINA RESULT:    -2.851     11.313     12.176
REMARK INTER + INTRA:          -3.801
REMARK INTER:                  -3.597
REMARK INTRA:                  -0.204
REMARK UNBOUND:                -0.116
REMARK SMILES CCCCCCC(=O)[O-]
REMARK SMILES IDX 5 1 6 2 7 3 8 4 9 5 4 6 3 7 2 8 1 9
REMARK H PARENT
REMARK Flexibility Score: inf
ROOT
ATOM      1  C   UNL     1       6.224  -4.051 -13.618  1.00  0.00     0.006 C 
ENDROOT
BRANCH   1   2
ATOM      2  C   UNL     1       6.845  -4.627 -12.339  1.00  0.00     0.053 C 
BRANCH   2   3
ATOM      3  C   UNL     1       6.496  -3.809 -11.134  1.00  0.00     0.041 C 
ATOM      4  O   UNL     1       6.761  -4.233  -9.980  1.00  0.00    -0.550 OA
ATOM      5  O   UNL     1       5.848  -2.589 -11.287  1.00  0.00    -0.550 OA
ENDBRANCH   2   3
ENDBRANCH   1   2
BRANCH   1   6
ATOM      6  C   UNL     1       4.841  -4.651 -13.915  1.00  0.00     0.000 C 
BRANCH   6   7
ATOM      7  C   UNL     1       3.797  -3.544 -14.124  1.00  0.00    -0.000 C 
BRANCH   7   8
ATOM      8  C   UNL     1       4.418  -2.138 -14.125  1.00  0.00    -0.003 C 
ATOM      9  C   UNL     1       3.534  -1.100 -13.432  1.00  0.00     0.004 C 
ENDBRANCH   7   8
ENDBRANCH   6   7
ENDBRANCH   1   6
TORSDOF 5
ENDMDL
MODEL 7
REMARK VINA RESULT:    -2.760     21.407     21.893
REMARK INTER + INTRA:          -3.682
REMARK INTER:                  -3.568
REMARK INTRA:                  -0.115
REMARK UNBOUND:                -0.116
REMARK SMILES CCCCCCC(=O)[O-]
REMARK SMILES IDX 5 1 6 2 7 3 8 4 9 5 4 6 3 7 2 8 1 9
REMARK H PARENT
REMARK Flexibility Score: inf
ROOT
ATOM      1  C   UNL     1      -7.322 -10.393 -12.933  1.00  0.00     0.006 C 
ENDROOT
BRANCH   1   2
ATOM      2  C   UNL     1      -6.268 -10.498 -14.043  1.00  0.00     0.053 C 
BRANCH   2   3
ATOM      3  C   UNL     1      -4.879 -10.325 -13.510  1.00  0.00     0.041 C 
ATOM      4  O   UNL     1      -4.133 -11.324 -13.346  1.00  0.00    -0.550 OA
ATOM      5  O   UNL     1      -4.421  -9.059 -13.164  1.00  0.00    -0.550 OA
ENDBRANCH   2   3
ENDBRANCH   1   2
BRANCH   1   6
ATOM      6  C   UNL     1      -8.138 -11.685 -12.782  1.00  0.00     0.000 C 
BRANCH   6   7
ATOM      7  C   UNL     1      -8.617 -11.866 -11.334  1.00  0.00    -0.000 C 
BRANCH   7   8
ATOM      8  C   UNL     1      -9.929 -11.118 -11.047  1.00  0.00    -0.003 C 
ATOM      9  C   UNL     1     -10.304 -11.128  -9.565  1.00  0.00     0.004 C 
ENDBRANCH   7   8
ENDBRANCH   6   7
ENDBRANCH   1   6
TORSDOF 5
ENDMDL
MODEL 8
REMARK VINA RESULT:    -2.389     21.815     22.565
REMARK INTER + INTRA:          -3.203
REMARK INTER:                  -3.095
REMARK INTRA:                  -0.108
REMARK UNBOUND:                -0.116
REMARK SMILES CCCCCCC(=O)[O-]
REMARK SMILES IDX 5 1 6 2 7 3 8 4 9 5 4 6 3 7 2 8 1 9
REMARK H PARENT
REMARK Flexibility Score: inf
ROOT
ATOM      1  C   UNL     1      -8.557 -10.075 -13.047  1.00  0.00     0.006 C 
ENDROOT
BRANCH   1   2
ATOM      2  C   UNL     1      -9.721 -11.018 -12.714  1.00  0.00     0.053 C 
BRANCH   2   3
ATOM      3  C   UNL     1     -10.171 -10.866 -11.293  1.00  0.00     0.041 C 
ATOM      4  O   UNL     1     -11.123 -10.095 -11.008  1.00  0.00    -0.550 OA
ATOM      5  O   UNL     1      -9.515 -11.554 -10.280  1.00  0.00    -0.550 OA
ENDBRANCH   2   3
ENDBRANCH   1   2
BRANCH   1   6
ATOM      6  C   UNL     1      -7.190 -10.735 -12.815  1.00  0.00     0.000 C 
BRANCH   6   7
ATOM      7  C   UNL     1      -6.290 -10.581 -14.051  1.00  0.00    -0.000 C 
BRANCH   7   8
ATOM      8  C   UNL     1      -4.913  -9.989 -13.709  1.00  0.00    -0.003 C 
ATOM      9  C   UNL     1      -3.817 -11.052 -13.627  1.00  0.00     0.004 C 
ENDBRANCH   7   8
ENDBRANCH   6   7
ENDBRANCH   1   6
TORSDOF 5
ENDMDL
