MODEL 1
REMARK VINA RESULT:    -3.831      0.000      0.000
REMARK INTER + INTRA:          -5.825
REMARK INTER:                  -5.175
REMARK INTRA:                  -0.649
REMARK UNBOUND:                -0.649
REMARK SMILES C[C@H](O)[C@@H](O)[C@H](O)[C@H](O)C=O
REMARK SMILES IDX 4 1 2 2 1 3 3 4 6 6 8 7 10 8 11 9 9 10 7 12 5 14
REMARK H PARENT 3 5 9 11 7 13 5 15
REMARK Flexibility Score: inf
ROOT
ATOM      1  C   UNL     1      44.830  27.499  -2.566  1.00  0.00     0.174 C 
ENDROOT
BRANCH   1   2
ATOM      2  C   UNL     1      43.824  26.798  -1.613  1.00  0.00     0.142 C 
ATOM      3  C   UNL     1      44.072  27.159  -0.143  1.00  0.00     0.041 C 
BRANCH   2   4
ATOM      4  O   UNL     1      43.837  25.402  -1.785  1.00  0.00    -0.391 OA
ATOM      5  H   UNL     1      43.330  25.002  -1.031  1.00  0.00     0.211 HD
ENDBRANCH   2   4
ENDBRANCH   1   2
BRANCH   1   6
ATOM      6  C   UNL     1      44.155  28.131  -3.814  1.00  0.00     0.181 C 
BRANCH   6   7
ATOM      7  C   UNL     1      43.171  27.181  -4.548  1.00  0.00     0.209 C 
BRANCH   7   8
ATOM      8  C   UNL     1      42.573  27.793  -5.791  1.00  0.00     0.258 C 
ATOM      9  O   UNL     1      41.713  28.657  -5.713  1.00  0.00    -0.300 OA
ENDBRANCH   7   8
BRANCH   7  10
ATOM     10  O   UNL     1      43.792  25.954  -4.852  1.00  0.00    -0.383 OA
ATOM     11  H   UNL     1      43.945  25.921  -5.832  1.00  0.00     0.211 HD
ENDBRANCH   7  10
ENDBRANCH   6   7
BRANCH   6  12
ATOM     12  O   UNL     1      43.469  29.298  -3.427  1.00  0.00    -0.387 OA
ATOM     13  H   UNL     1      44.153  29.970  -3.171  1.00  0.00     0.211 HD
ENDBRANCH   6  12
ENDBRANCH   1   6
BRANCH   1  14
ATOM     14  O   UNL     1      45.793  26.570  -3.004  1.00  0.00    -0.388 OA
ATOM     15  H   UNL     1      45.877  25.875  -2.300  1.00  0.00     0.211 HD
ENDBRANCH   1  14
TORSDOF 8
ENDMDL
MODEL 2
REMARK VINA RESULT:    -3.685      1.163      4.197
REMARK INTER + INTRA:          -5.627
REMARK INTER:                  -5.009
REMARK INTRA:                  -0.618
REMARK UNBOUND:                -0.649
REMARK SMILES C[C@H](O)[C@@H](O)[C@H](O)[C@H](O)C=O
REMARK SMILES IDX 4 1 2 2 1 3 3 4 6 6 8 7 10 8 11 9 9 10 7 12 5 14
REMARK H PARENT 3 5 9 11 7 13 5 15
REMARK Flexibility Score: inf
ROOT
ATOM      1  C   UNL     1      44.132  28.060  -5.591  1.00  0.00     0.174 C 
ENDROOT
BRANCH   1   2
ATOM      2  C   UNL     1      42.618  27.974  -5.923  1.00  0.00     0.142 C 
ATOM      3  C   UNL     1      42.202  28.994  -6.991  1.00  0.00     0.041 C 
BRANCH   2   4
ATOM      4  O   UNL     1      41.827  28.121  -4.770  1.00  0.00    -0.391 OA
ATOM      5  H   UNL     1      41.836  29.081  -4.519  1.00  0.00     0.211 HD
ENDBRANCH   2   4
ENDBRANCH   1   2
BRANCH   1   6
ATOM      6  C   UNL     1      44.637  26.877  -4.719  1.00  0.00     0.181 C 
BRANCH   6   7
ATOM      7  C   UNL     1      45.128  27.297  -3.308  1.00  0.00     0.209 C 
BRANCH   7   8
ATOM      8  C   UNL     1      44.094  27.076  -2.232  1.00  0.00     0.258 C 
ATOM      9  O   UNL     1      44.019  26.007  -1.645  1.00  0.00    -0.300 OA
ENDBRANCH   7   8
BRANCH   7  10
ATOM     10  O   UNL     1      46.329  26.640  -2.980  1.00  0.00    -0.383 OA
ATOM     11  H   UNL     1      46.413  25.840  -3.563  1.00  0.00     0.211 HD
ENDBRANCH   7  10
ENDBRANCH   6   7
BRANCH   6  12
ATOM     12  O   UNL     1      43.605  25.928  -4.586  1.00  0.00    -0.387 OA
ATOM     13  H   UNL     1      43.325  25.930  -3.634  1.00  0.00     0.211 HD
ENDBRANCH   6  12
ENDBRANCH   1   6
BRANCH   1  14
ATOM     14  O   UNL     1      44.400  29.260  -4.907  1.00  0.00    -0.388 OA
ATOM     15  H   UNL     1      44.679  29.932  -5.583  1.00  0.00     0.211 HD
ENDBRANCH   1  14
TORSDOF 8
ENDMDL
MODEL 3
REMARK VINA RESULT:    -3.675      2.400      4.960
REMARK INTER + INTRA:          -5.613
REMARK INTER:                  -5.085
REMARK INTRA:                  -0.528
REMARK UNBOUND:                -0.649
REMARK SMILES C[C@H](O)[C@@H](O)[C@H](O)[C@H](O)C=O
REMARK SMILES IDX 4 1 2 2 1 3 3 4 6 6 8 7 10 8 11 9 9 10 7 12 5 14
REMARK H PARENT 3 5 9 11 7 13 5 15
REMARK Flexibility Score: inf
ROOT
ATOM      1  C   UNL     1      43.928  26.847  -1.996  1.00  0.00     0.174 C 
ENDROOT
BRANCH   1   2
ATOM      2  C   UNL     1      44.935  27.238  -3.111  1.00  0.00     0.142 C 
ATOM      3  C   UNL     1      44.342  27.058  -4.514  1.00  0.00     0.041 C 
BRANCH   2   4
ATOM      4  O   UNL     1      46.140  26.524  -2.992  1.00  0.00    -0.391 OA
ATOM      5  H   UNL     1      45.913  25.589  -2.747  1.00  0.00     0.211 HD
ENDBRANCH   2   4
ENDBRANCH   1   2
BRANCH   1   6
ATOM      6  C   UNL     1      44.283  27.452  -0.609  1.00  0.00     0.181 C 
BRANCH   6   7
ATOM      7  C   UNL     1      43.316  27.030   0.529  1.00  0.00     0.209 C 
BRANCH   7   8
ATOM      8  C   UNL     1      43.995  26.922   1.872  1.00  0.00     0.258 C 
ATOM      9  O   UNL     1      44.576  25.899   2.201  1.00  0.00    -0.300 OA
ENDBRANCH   7   8
BRANCH   7  10
ATOM     10  O   UNL     1      42.216  27.907   0.602  1.00  0.00    -0.383 OA
ATOM     11  H   UNL     1      42.536  28.775   0.962  1.00  0.00     0.211 HD
ENDBRANCH   7  10
ENDBRANCH   6   7
BRANCH   6  12
ATOM     12  O   UNL     1      45.595  27.077  -0.264  1.00  0.00    -0.387 OA
ATOM     13  H   UNL     1      45.529  26.269   0.309  1.00  0.00     0.211 HD
ENDBRANCH   6  12
ENDBRANCH   1   6
BRANCH   1  14
ATOM     14  O   UNL     1      43.882  25.446  -1.869  1.00  0.00    -0.388 OA
ATOM     15  H   UNL     1      43.658  25.074  -2.763  1.00  0.00     0.211 HD
ENDBRANCH   1  14
TORSDOF 8
ENDMDL
MODEL 4
REMARK VINA RESULT:    -3.645      1.662      2.108
REMARK INTER + INTRA:          -5.573
REMARK INTER:                  -4.882
REMARK INTRA:                  -0.691
REMARK UNBOUND:                -0.649
REMARK SMILES C[C@H](O)[C@@H](O)[C@H](O)[C@H](O)C=O
REMARK SMILES IDX 4 1 2 2 1 3 3 4 6 6 8 7 10 8 11 9 9 10 7 12 5 14
REMARK H PARENT 3 5 9 11 7 13 5 15
REMARK Flexibility Score: inf
ROOT
ATOM      1  C   UNL     1      44.851  27.249  -2.888  1.00  0.00     0.174 C 
ENDROOT
BRANCH   1   2
ATOM      2  C   UNL     1      43.816  26.688  -1.876  1.00  0.00     0.142 C 
ATOM      3  C   UNL     1      44.061  27.205  -0.452  1.00  0.00     0.041 C 
BRANCH   2   4
ATOM      4  O   UNL     1      43.789  25.282  -1.890  1.00  0.00    -0.391 OA
ATOM      5  H   UNL     1      42.885  25.001  -2.186  1.00  0.00     0.211 HD
ENDBRANCH   2   4
ENDBRANCH   1   2
BRANCH   1   6
ATOM      6  C   UNL     1      44.381  27.149  -4.366  1.00  0.00     0.181 C 
BRANCH   6   7
ATOM      7  C   UNL     1      45.539  27.156  -5.399  1.00  0.00     0.209 C 
BRANCH   7   8
ATOM      8  C   UNL     1      45.067  27.380  -6.814  1.00  0.00     0.258 C 
ATOM      9  O   UNL     1      43.901  27.191  -7.124  1.00  0.00    -0.300 OA
ENDBRANCH   7   8
BRANCH   7  10
ATOM     10  O   UNL     1      46.516  28.107  -5.049  1.00  0.00    -0.383 OA
ATOM     11  H   UNL     1      47.294  27.988  -5.653  1.00  0.00     0.211 HD
ENDBRANCH   7  10
ENDBRANCH   6   7
BRANCH   6  12
ATOM     12  O   UNL     1      43.622  25.975  -4.530  1.00  0.00    -0.387 OA
ATOM     13  H   UNL     1      43.320  25.950  -5.475  1.00  0.00     0.211 HD
ENDBRANCH   6  12
ENDBRANCH   1   6
BRANCH   1  14
ATOM     14  O   UNL     1      46.065  26.548  -2.761  1.00  0.00    -0.388 OA
ATOM     15  H   UNL     1      45.844  25.612  -2.517  1.00  0.00     0.211 HD
ENDBRANCH   1  14
TORSDOF 8
ENDMDL
MODEL 5
REMARK VINA RESULT:    -3.628      1.110      4.133
REMARK INTER + INTRA:          -5.550
REMARK INTER:                  -5.006
REMARK INTRA:                  -0.543
REMARK UNBOUND:                -0.649
REMARK SMILES C[C@H](O)[C@@H](O)[C@H](O)[C@H](O)C=O
REMARK SMILES IDX 4 1 2 2 1 3 3 4 6 6 8 7 10 8 11 9 9 10 7 12 5 14
REMARK H PARENT 3 5 9 11 7 13 5 15
REMARK Flexibility Score: inf
ROOT
ATOM      1  C   UNL     1      43.338  26.842  -4.367  1.00  0.00     0.174 C 
ENDROOT
BRANCH   1   2
ATOM      2  C   UNL     1      42.631  27.672  -5.472  1.00  0.00     0.142 C 
ATOM      3  C   UNL     1      43.473  27.768  -6.751  1.00  0.00     0.041 C 
BRANCH   2   4
ATOM      4  O   UNL     1      42.288  28.956  -5.013  1.00  0.00    -0.391 OA
ATOM      5  H   UNL     1      42.379  29.583  -5.777  1.00  0.00     0.211 HD
ENDBRANCH   2   4
ENDBRANCH   1   2
BRANCH   1   6
ATOM      6  C   UNL     1      43.743  27.688  -3.128  1.00  0.00     0.181 C 
BRANCH   6   7
ATOM      7  C   UNL     1      44.138  26.843  -1.888  1.00  0.00     0.209 C 
BRANCH   7   8
ATOM      8  C   UNL     1      43.425  27.271  -0.629  1.00  0.00     0.258 C 
ATOM      9  O   UNL     1      43.236  26.482   0.284  1.00  0.00    -0.300 OA
ENDBRANCH   7   8
BRANCH   7  10
ATOM     10  O   UNL     1      43.930  25.472  -2.130  1.00  0.00    -0.383 OA
ATOM     11  H   UNL     1      43.911  25.003  -1.255  1.00  0.00     0.211 HD
ENDBRANCH   7  10
ENDBRANCH   6   7
BRANCH   6  12
ATOM     12  O   UNL     1      44.817  28.530  -3.476  1.00  0.00    -0.387 OA
ATOM     13  H   UNL     1      45.011  28.378  -4.437  1.00  0.00     0.211 HD
ENDBRANCH   6  12
ENDBRANCH   1   6
BRANCH   1  14
ATOM     14  O   UNL     1      44.498  26.243  -4.893  1.00  0.00    -0.388 OA
ATOM     15  H   UNL     1      45.027  26.958  -5.335  1.00  0.00     0.211 HD
ENDBRANCH   1  14
TORSDOF 8
ENDMDL
MODEL 6
REMARK VINA RESULT:    -3.617      1.512      2.044
REMARK INTER + INTRA:          -5.535
REMARK INTER:                  -5.019
REMARK INTRA:                  -0.516
REMARK UNBOUND:                -0.649
REMARK SMILES C[C@H](O)[C@@H](O)[C@H](O)[C@H](O)C=O
REMARK SMILES IDX 4 1 2 2 1 3 3 4 6 6 8 7 10 8 11 9 9 10 7 12 5 14
REMARK H PARENT 3 5 9 11 7 13 5 15
REMARK Flexibility Score: inf
ROOT
ATOM      1  C   UNL     1      45.456  27.557  -2.702  1.00  0.00     0.174 C 
ENDROOT
BRANCH   1   2
ATOM      2  C   UNL     1      45.695  28.209  -1.313  1.00  0.00     0.142 C 
ATOM      3  C   UNL     1      47.082  27.877  -0.748  1.00  0.00     0.041 C 
BRANCH   2   4
ATOM      4  O   UNL     1      44.692  27.849  -0.395  1.00  0.00    -0.391 OA
ATOM      5  H   UNL     1      44.126  27.155  -0.824  1.00  0.00     0.211 HD
ENDBRANCH   2   4
ENDBRANCH   1   2
BRANCH   1   6
ATOM      6  C   UNL     1      44.059  26.892  -2.836  1.00  0.00     0.181 C 
BRANCH   6   7
ATOM      7  C   UNL     1      43.610  26.657  -4.303  1.00  0.00     0.209 C 
BRANCH   7   8
ATOM      8  C   UNL     1      42.952  27.867  -4.920  1.00  0.00     0.258 C 
ATOM      9  O   UNL     1      41.768  27.853  -5.219  1.00  0.00    -0.300 OA
ENDBRANCH   7   8
BRANCH   7  10
ATOM     10  O   UNL     1      44.691  26.226  -5.094  1.00  0.00    -0.383 OA
ATOM     11  H   UNL     1      45.379  25.838  -4.493  1.00  0.00     0.211 HD
ENDBRANCH   7  10
ENDBRANCH   6   7
BRANCH   6  12
ATOM     12  O   UNL     1      44.066  25.662  -2.152  1.00  0.00    -0.387 OA
ATOM     13  H   UNL     1      43.746  25.837  -1.228  1.00  0.00     0.211 HD
ENDBRANCH   6  12
ENDBRANCH   1   6
BRANCH   1  14
ATOM     14  O   UNL     1      46.439  26.578  -2.940  1.00  0.00    -0.388 OA
ATOM     15  H   UNL     1      47.325  27.008  -2.813  1.00  0.00     0.211 HD
ENDBRANCH   1  14
TORSDOF 8
ENDMDL
MODEL 7
REMARK VINA RESULT:    -3.496      1.590      4.423
REMARK INTER + INTRA:          -5.371
REMARK INTER:                  -4.645
REMARK INTRA:                  -0.726
REMARK UNBOUND:                -0.649
REMARK SMILES C[C@H](O)[C@@H](O)[C@H](O)[C@H](O)C=O
REMARK SMILES IDX 4 1 2 2 1 3 3 4 6 6 8 7 10 8 11 9 9 10 7 12 5 14
REMARK H PARENT 3 5 9 11 7 13 5 15
REMARK Flexibility Score: inf
ROOT
ATOM      1  C   UNL     1      44.155  27.802  -3.233  1.00  0.00     0.174 C 
ENDROOT
BRANCH   1   2
ATOM      2  C   UNL     1      44.551  26.789  -4.341  1.00  0.00     0.142 C 
ATOM      3  C   UNL     1      45.092  27.486  -5.596  1.00  0.00     0.041 C 
BRANCH   2   4
ATOM      4  O   UNL     1      43.478  25.943  -4.675  1.00  0.00    -0.391 OA
ATOM      5  H   UNL     1      43.855  25.053  -4.898  1.00  0.00     0.211 HD
ENDBRANCH   2   4
ENDBRANCH   1   2
BRANCH   1   6
ATOM      6  C   UNL     1      44.151  27.182  -1.809  1.00  0.00     0.181 C 
BRANCH   6   7
ATOM      7  C   UNL     1      43.065  27.770  -0.868  1.00  0.00     0.209 C 
BRANCH   7   8
ATOM      8  C   UNL     1      43.026  27.097   0.482  1.00  0.00     0.258 C 
ATOM      9  O   UNL     1      43.960  26.412   0.869  1.00  0.00    -0.300 OA
ENDBRANCH   7   8
BRANCH   7  10
ATOM     10  O   UNL     1      43.229  29.160  -0.722  1.00  0.00    -0.383 OA
ATOM     11  H   UNL     1      43.623  29.332   0.174  1.00  0.00     0.211 HD
ENDBRANCH   7  10
ENDBRANCH   6   7
BRANCH   6  12
ATOM     12  O   UNL     1      43.969  25.790  -1.912  1.00  0.00    -0.387 OA
ATOM     13  H   UNL     1      44.539  25.367  -1.218  1.00  0.00     0.211 HD
ENDBRANCH   6  12
ENDBRANCH   1   6
BRANCH   1  14
ATOM     14  O   UNL     1      42.871  28.316  -3.497  1.00  0.00    -0.388 OA
ATOM     15  H   UNL     1      42.266  27.983  -2.784  1.00  0.00     0.211 HD
ENDBRANCH   1  14
TORSDOF 8
ENDMDL
MODEL 8
REMARK VINA RESULT:    -3.483      1.944      3.292
REMARK INTER + INTRA:          -5.354
REMARK INTER:                  -5.008
REMARK INTRA:                  -0.345
REMARK UNBOUND:                -0.649
REMARK SMILES C[C@H](O)[C@@H](O)[C@H](O)[C@H](O)C=O
REMARK SMILES IDX 4 1 2 2 1 3 3 4 6 6 8 7 10 8 11 9 9 10 7 12 5 14
REMARK H PARENT 3 5 9 11 7 13 5 15
REMARK Flexibility Score: inf
ROOT
ATOM      1  C   UNL     1      44.477  27.750  -1.099  1.00  0.00     0.174 C 
ENDROOT
BRANCH   1   2
ATOM      2  C   UNL     1      43.322  28.543  -0.429  1.00  0.00     0.142 C 
ATOM      3  C   UNL     1      42.499  27.669   0.526  1.00  0.00     0.041 C 
BRANCH   2   4
ATOM      4  O   UNL     1      42.486  29.145  -1.387  1.00  0.00    -0.391 OA
ATOM      5  H   UNL     1      42.461  28.550  -2.181  1.00  0.00     0.211 HD
ENDBRANCH   2   4
ENDBRANCH   1   2
BRANCH   1   6
ATOM      6  C   UNL     1      44.029  26.965  -2.363  1.00  0.00     0.181 C 
BRANCH   6   7
ATOM      7  C   UNL     1      44.862  27.287  -3.633  1.00  0.00     0.209 C 
BRANCH   7   8
ATOM      8  C   UNL     1      46.331  27.478  -3.344  1.00  0.00     0.258 C 
ATOM      9  O   UNL     1      47.039  26.529  -3.043  1.00  0.00    -0.300 OA
ENDBRANCH   7   8
BRANCH   7  10
ATOM     10  O   UNL     1      44.678  26.297  -4.616  1.00  0.00    -0.383 OA
ATOM     11  H   UNL     1      44.040  26.647  -5.293  1.00  0.00     0.211 HD
ENDBRANCH   7  10
ENDBRANCH   6   7
BRANCH   6  12
ATOM     12  O   UNL     1      44.103  25.585  -2.100  1.00  0.00    -0.387 OA
ATOM     13  H   UNL     1      43.360  25.363  -1.479  1.00  0.00     0.211 HD
ENDBRANCH   6  12
ENDBRANCH   1   6
BRANCH   1  14
ATOM     14  O   UNL     1      45.020  26.835  -0.178  1.00  0.00    -0.388 OA
ATOM     15  H   UNL     1      44.997  27.265   0.717  1.00  0.00     0.211 HD
ENDBRANCH   1  14
TORSDOF 8
ENDMDL
MODEL 9
REMARK VINA RESULT:    -3.409      1.767      4.214
REMARK INTER + INTRA:          -5.254
REMARK INTER:                  -4.882
REMARK INTRA:                  -0.372
REMARK UNBOUND:                -0.649
REMARK SMILES C[C@H](O)[C@@H](O)[C@H](O)[C@H](O)C=O
REMARK SMILES IDX 4 1 2 2 1 3 3 4 6 6 8 7 10 8 11 9 9 10 7 12 5 14
REMARK H PARENT 3 5 9 11 7 13 5 15
REMARK Flexibility Score: inf
ROOT
ATOM      1  C   UNL     1      43.869  26.991  -2.386  1.00  0.00     0.174 C 
ENDROOT
BRANCH   1   2
ATOM      2  C   UNL     1      43.992  27.193  -3.921  1.00  0.00     0.142 C 
ATOM      3  C   UNL     1      43.048  28.285  -4.439  1.00  0.00     0.041 C 
BRANCH   2   4
ATOM      4  O   UNL     1      43.781  25.990  -4.618  1.00  0.00    -0.391 OA
ATOM      5  H   UNL     1      44.155  26.102  -5.531  1.00  0.00     0.211 HD
ENDBRANCH   2   4
ENDBRANCH   1   2
BRANCH   1   6
ATOM      6  C   UNL     1      44.898  27.823  -1.573  1.00  0.00     0.181 C 
BRANCH   6   7
ATOM      7  C   UNL     1      44.585  27.905  -0.055  1.00  0.00     0.209 C 
BRANCH   7   8
ATOM      8  C   UNL     1      43.148  28.266   0.234  1.00  0.00     0.258 C 
ATOM      9  O   UNL     1      42.391  27.459   0.751  1.00  0.00    -0.300 OA
ENDBRANCH   7   8
BRANCH   7  10
ATOM     10  O   UNL     1      44.931  26.704   0.593  1.00  0.00    -0.383 OA
ATOM     11  H   UNL     1      45.507  26.176  -0.021  1.00  0.00     0.211 HD
ENDBRANCH   7  10
ENDBRANCH   6   7
BRANCH   6  12
ATOM     12  O   UNL     1      46.181  27.273  -1.752  1.00  0.00    -0.387 OA
ATOM     13  H   UNL     1      46.088  26.286  -1.696  1.00  0.00     0.211 HD
ENDBRANCH   6  12
ENDBRANCH   1   6
BRANCH   1  14
ATOM     14  O   UNL     1      44.050  25.631  -2.071  1.00  0.00    -0.388 OA
ATOM     15  H   UNL     1      44.169  25.567  -1.087  1.00  0.00     0.211 HD
ENDBRANCH   1  14
TORSDOF 8
ENDMDL
