MODEL 1
REMARK VINA RESULT:    -3.303      0.000      0.000
REMARK INTER + INTRA:          -5.734
REMARK INTER:                  -4.751
REMARK INTRA:                  -0.984
REMARK UNBOUND:                -0.984
REMARK SMILES O=C(CO)[C@H](O)[C@H](O)[C@H](O)CO
REMARK SMILES IDX 7 1 9 2 11 3 12 4 10 6 5 8 2 9 1 10 3 11 4 12 6 14 8 16
REMARK H PARENT 12 5 10 7 4 13 6 15 8 17
REMARK Flexibility Score: inf
ROOT
ATOM      1  C   UNL     1     -17.410 -14.511  10.746  1.00  0.00     0.181 C 
ENDROOT
BRANCH   1   2
ATOM      2  C   UNL     1     -18.774 -14.421  11.484  1.00  0.00     0.171 C 
BRANCH   2   3
ATOM      3  C   UNL     1     -19.125 -15.672  12.324  1.00  0.00     0.190 C 
BRANCH   3   4
ATOM      4  O   UNL     1     -18.360 -15.728  13.498  1.00  0.00    -0.394 OA
ATOM      5  H   UNL     1     -18.015 -16.657  13.570  1.00  0.00     0.210 HD
ENDBRANCH   3   4
ENDBRANCH   2   3
BRANCH   2   6
ATOM      6  O   UNL     1     -18.799 -13.275  12.299  1.00  0.00    -0.388 OA
ATOM      7  H   UNL     1     -18.575 -12.493  11.729  1.00  0.00     0.211 HD
ENDBRANCH   2   6
ENDBRANCH   1   2
BRANCH   1   8
ATOM      8  C   UNL     1     -17.549 -14.700   9.217  1.00  0.00     0.214 C 
BRANCH   8   9
ATOM      9  C   UNL     1     -17.507 -16.168   8.850  1.00  0.00     0.189 C 
ATOM     10  O   UNL     1     -18.443 -16.890   9.155  1.00  0.00    -0.294 OA
BRANCH   9  11
ATOM     11  C   UNL     1     -16.326 -16.763   8.135  1.00  0.00     0.234 C 
BRANCH  11  12
ATOM     12  O   UNL     1     -15.213 -16.746   8.984  1.00  0.00    -0.388 OA
ATOM     13  H   UNL     1     -15.552 -16.474   9.876  1.00  0.00     0.211 HD
ENDBRANCH  11  12
ENDBRANCH   9  11
ENDBRANCH   8   9
BRANCH   8  14
ATOM     14  O   UNL     1     -16.519 -14.019   8.549  1.00  0.00    -0.382 OA
ATOM     15  H   UNL     1     -16.953 -13.338   7.970  1.00  0.00     0.211 HD
ENDBRANCH   8  14
ENDBRANCH   1   8
BRANCH   1  16
ATOM     16  O   UNL     1     -16.650 -15.563  11.290  1.00  0.00    -0.387 OA
ATOM     17  H   UNL     1     -15.949 -15.155  11.863  1.00  0.00     0.211 HD
ENDBRANCH   1  16
TORSDOF 10
ENDMDL
MODEL 2
REMARK VINA RESULT:    -3.211      1.440      4.269
REMARK INTER + INTRA:          -5.602
REMARK INTER:                  -4.684
REMARK INTRA:                  -0.918
REMARK UNBOUND:                -0.984
REMARK SMILES O=C(CO)[C@H](O)[C@H](O)[C@H](O)CO
REMARK SMILES IDX 7 1 9 2 11 3 12 4 10 6 5 8 2 9 1 10 3 11 4 12 6 14 8 16
REMARK H PARENT 12 5 10 7 4 13 6 15 8 17
REMARK Flexibility Score: inf
ROOT
ATOM      1  C   UNL     1     -16.728 -15.234  10.865  1.00  0.00     0.181 C 
ENDROOT
BRANCH   1   2
ATOM      2  C   UNL     1     -16.569 -16.233   9.686  1.00  0.00     0.171 C 
BRANCH   2   3
ATOM      3  C   UNL     1     -17.098 -15.705   8.331  1.00  0.00     0.190 C 
BRANCH   3   4
ATOM      4  O   UNL     1     -16.365 -14.591   7.897  1.00  0.00    -0.394 OA
ATOM      5  H   UNL     1     -16.360 -13.943   8.649  1.00  0.00     0.210 HD
ENDBRANCH   3   4
ENDBRANCH   2   3
BRANCH   2   6
ATOM      6  O   UNL     1     -15.219 -16.607   9.559  1.00  0.00    -0.388 OA
ATOM      7  H   UNL     1     -15.172 -17.347   8.898  1.00  0.00     0.211 HD
ENDBRANCH   2   6
ENDBRANCH   1   2
BRANCH   1   8
ATOM      8  C   UNL     1     -18.202 -14.988  11.267  1.00  0.00     0.214 C 
BRANCH   8   9
ATOM      9  C   UNL     1     -18.579 -13.536  11.070  1.00  0.00     0.189 C 
ATOM     10  O   UNL     1     -18.553 -12.775  12.024  1.00  0.00    -0.294 OA
BRANCH   9  11
ATOM     11  C   UNL     1     -19.004 -13.012   9.727  1.00  0.00     0.234 C 
BRANCH  11  12
ATOM     12  O   UNL     1     -17.919 -12.377   9.112  1.00  0.00    -0.388 OA
ATOM     13  H   UNL     1     -17.538 -11.762   9.792  1.00  0.00     0.211 HD
ENDBRANCH  11  12
ENDBRANCH   9  11
ENDBRANCH   8   9
BRANCH   8  14
ATOM     14  O   UNL     1     -18.403 -15.348  12.610  1.00  0.00    -0.382 OA
ATOM     15  H   UNL     1     -17.781 -16.097  12.803  1.00  0.00     0.211 HD
ENDBRANCH   8  14
ENDBRANCH   1   8
BRANCH   1  16
ATOM     16  O   UNL     1     -16.115 -14.012  10.532  1.00  0.00    -0.387 OA
ATOM     17  H   UNL     1     -16.008 -13.995   9.545  1.00  0.00     0.211 HD
ENDBRANCH   1  16
TORSDOF 10
ENDMDL
MODEL 3
REMARK VINA RESULT:    -2.849      1.292      4.066
REMARK INTER + INTRA:          -5.082
REMARK INTER:                  -4.645
REMARK INTRA:                  -0.437
REMARK UNBOUND:                -0.984
REMARK SMILES O=C(CO)[C@H](O)[C@H](O)[C@H](O)CO
REMARK SMILES IDX 7 1 9 2 11 3 12 4 10 6 5 8 2 9 1 10 3 11 4 12 6 14 8 16
REMARK H PARENT 12 5 10 7 4 13 6 15 8 17
REMARK Flexibility Score: inf
ROOT
ATOM      1  C   UNL     1     -17.496 -13.893   9.632  1.00  0.00     0.181 C 
ENDROOT
BRANCH   1   2
ATOM      2  C   UNL     1     -16.885 -14.879   8.598  1.00  0.00     0.171 C 
BRANCH   2   3
ATOM      3  C   UNL     1     -15.948 -15.944   9.216  1.00  0.00     0.190 C 
BRANCH   3   4
ATOM      4  O   UNL     1     -15.599 -15.615  10.533  1.00  0.00    -0.394 OA
ATOM      5  H   UNL     1     -14.665 -15.922  10.667  1.00  0.00     0.210 HD
ENDBRANCH   3   4
ENDBRANCH   2   3
BRANCH   2   6
ATOM      6  O   UNL     1     -17.914 -15.509   7.876  1.00  0.00    -0.388 OA
ATOM      7  H   UNL     1     -17.561 -15.725   6.973  1.00  0.00     0.211 HD
ENDBRANCH   2   6
ENDBRANCH   1   2
BRANCH   1   8
ATOM      8  C   UNL     1     -18.868 -14.351  10.181  1.00  0.00     0.214 C 
BRANCH   8   9
ATOM      9  C   UNL     1     -19.023 -13.962  11.636  1.00  0.00     0.189 C 
ATOM     10  O   UNL     1     -19.060 -12.780  11.940  1.00  0.00    -0.294 OA
BRANCH   9  11
ATOM     11  C   UNL     1     -19.112 -15.000  12.719  1.00  0.00     0.234 C 
BRANCH  11  12
ATOM     12  O   UNL     1     -17.935 -15.757  12.734  1.00  0.00    -0.388 OA
ATOM     13  H   UNL     1     -18.191 -16.657  13.068  1.00  0.00     0.211 HD
ENDBRANCH  11  12
ENDBRANCH   9  11
ENDBRANCH   8   9
BRANCH   8  14
ATOM     14  O   UNL     1     -19.002 -15.743  10.050  1.00  0.00    -0.382 OA
ATOM     15  H   UNL     1     -19.759 -16.014  10.633  1.00  0.00     0.211 HD
ENDBRANCH   8  14
ENDBRANCH   1   8
BRANCH   1  16
ATOM     16  O   UNL     1     -17.617 -12.617   9.051  1.00  0.00    -0.387 OA
ATOM     17  H   UNL     1     -18.426 -12.192   9.439  1.00  0.00     0.211 HD
ENDBRANCH   1  16
TORSDOF 10
ENDMDL
MODEL 4
REMARK VINA RESULT:    -2.835      1.322      2.325
REMARK INTER + INTRA:          -5.061
REMARK INTER:                  -4.564
REMARK INTRA:                  -0.497
REMARK UNBOUND:                -0.984
REMARK SMILES O=C(CO)[C@H](O)[C@H](O)[C@H](O)CO
REMARK SMILES IDX 7 1 9 2 11 3 12 4 10 6 5 8 2 9 1 10 3 11 4 12 6 14 8 16
REMARK H PARENT 12 5 10 7 4 13 6 15 8 17
REMARK Flexibility Score: inf
ROOT
ATOM      1  C   UNL     1     -17.820 -14.991  11.099  1.00  0.00     0.181 C 
ENDROOT
BRANCH   1   2
ATOM      2  C   UNL     1     -19.013 -14.010  10.933  1.00  0.00     0.171 C 
BRANCH   2   3
ATOM      3  C   UNL     1     -18.983 -12.806  11.905  1.00  0.00     0.190 C 
BRANCH   3   4
ATOM      4  O   UNL     1     -19.121 -13.223  13.237  1.00  0.00    -0.394 OA
ATOM      5  H   UNL     1     -19.094 -12.403  13.797  1.00  0.00     0.210 HD
ENDBRANCH   3   4
ENDBRANCH   2   3
BRANCH   2   6
ATOM      6  O   UNL     1     -19.070 -13.551   9.605  1.00  0.00    -0.388 OA
ATOM      7  H   UNL     1     -18.745 -14.283   9.018  1.00  0.00     0.211 HD
ENDBRANCH   2   6
ENDBRANCH   1   2
BRANCH   1   8
ATOM      8  C   UNL     1     -17.723 -16.038   9.964  1.00  0.00     0.214 C 
BRANCH   8   9
ATOM      9  C   UNL     1     -16.488 -15.805   9.121  1.00  0.00     0.189 C 
ATOM     10  O   UNL     1     -15.428 -16.307   9.458  1.00  0.00    -0.294 OA
BRANCH   9  11
ATOM     11  C   UNL     1     -16.534 -14.951   7.884  1.00  0.00     0.234 C 
BRANCH  11  12
ATOM     12  O   UNL     1     -16.504 -13.601   8.251  1.00  0.00    -0.388 OA
ATOM     13  H   UNL     1     -17.136 -13.509   9.012  1.00  0.00     0.211 HD
ENDBRANCH  11  12
ENDBRANCH   9  11
ENDBRANCH   8   9
BRANCH   8  14
ATOM     14  O   UNL     1     -18.866 -15.977   9.150  1.00  0.00    -0.382 OA
ATOM     15  H   UNL     1     -18.856 -16.789   8.580  1.00  0.00     0.211 HD
ENDBRANCH   8  14
ENDBRANCH   1   8
BRANCH   1  16
ATOM     16  O   UNL     1     -17.917 -15.644  12.342  1.00  0.00    -0.387 OA
ATOM     17  H   UNL     1     -18.869 -15.608  12.620  1.00  0.00     0.211 HD
ENDBRANCH   1  16
TORSDOF 10
ENDMDL
MODEL 5
REMARK VINA RESULT:    -2.697      1.650      3.890
REMARK INTER + INTRA:          -4.864
REMARK INTER:                  -4.210
REMARK INTRA:                  -0.654
REMARK UNBOUND:                -0.984
REMARK SMILES O=C(CO)[C@H](O)[C@H](O)[C@H](O)CO
REMARK SMILES IDX 7 1 9 2 11 3 12 4 10 6 5 8 2 9 1 10 3 11 4 12 6 14 8 16
REMARK H PARENT 12 5 10 7 4 13 6 15 8 17
REMARK Flexibility Score: inf
ROOT
ATOM      1  C   UNL     1     -17.064 -15.298  10.827  1.00  0.00     0.181 C 
ENDROOT
BRANCH   1   2
ATOM      2  C   UNL     1     -18.124 -16.086  10.010  1.00  0.00     0.171 C 
BRANCH   2   3
ATOM      3  C   UNL     1     -17.526 -17.124   9.030  1.00  0.00     0.190 C 
BRANCH   3   4
ATOM      4  O   UNL     1     -16.793 -16.500   8.012  1.00  0.00    -0.394 OA
ATOM      5  H   UNL     1     -17.311 -16.618   7.173  1.00  0.00     0.210 HD
ENDBRANCH   3   4
ENDBRANCH   2   3
BRANCH   2   6
ATOM      6  O   UNL     1     -19.025 -16.719  10.885  1.00  0.00    -0.388 OA
ATOM      7  H   UNL     1     -18.689 -16.589  11.810  1.00  0.00     0.211 HD
ENDBRANCH   2   6
ENDBRANCH   1   2
BRANCH   1   8
ATOM      8  C   UNL     1     -16.889 -13.834  10.356  1.00  0.00     0.214 C 
BRANCH   8   9
ATOM      9  C   UNL     1     -18.216 -13.107  10.351  1.00  0.00     0.189 C 
ATOM     10  O   UNL     1     -18.558 -12.488   9.356  1.00  0.00    -0.294 OA
BRANCH   9  11
ATOM     11  C   UNL     1     -19.118 -13.114  11.554  1.00  0.00     0.234 C 
BRANCH  11  12
ATOM     12  O   UNL     1     -18.626 -12.215  12.508  1.00  0.00    -0.388 OA
ATOM     13  H   UNL     1     -17.636 -12.281  12.462  1.00  0.00     0.211 HD
ENDBRANCH  11  12
ENDBRANCH   9  11
ENDBRANCH   8   9
BRANCH   8  14
ATOM     14  O   UNL     1     -16.332 -13.804   9.067  1.00  0.00    -0.382 OA
ATOM     15  H   UNL     1     -16.316 -12.853   8.783  1.00  0.00     0.211 HD
ENDBRANCH   8  14
ENDBRANCH   1   8
BRANCH   1  16
ATOM     16  O   UNL     1     -15.829 -15.969  10.768  1.00  0.00    -0.387 OA
ATOM     17  H   UNL     1     -15.856 -16.695  11.445  1.00  0.00     0.211 HD
ENDBRANCH   1  16
TORSDOF 10
ENDMDL
MODEL 6
REMARK VINA RESULT:    -2.199      1.548      3.250
REMARK INTER + INTRA:          -4.147
REMARK INTER:                  -3.572
REMARK INTRA:                  -0.575
REMARK UNBOUND:                -0.984
REMARK SMILES O=C(CO)[C@H](O)[C@H](O)[C@H](O)CO
REMARK SMILES IDX 7 1 9 2 11 3 12 4 10 6 5 8 2 9 1 10 3 11 4 12 6 14 8 16
REMARK H PARENT 12 5 10 7 4 13 6 15 8 17
REMARK Flexibility Score: inf
ROOT
ATOM      1  C   UNL     1     -16.908 -15.765   9.392  1.00  0.00     0.181 C 
ENDROOT
BRANCH   1   2
ATOM      2  C   UNL     1     -16.661 -15.268  10.842  1.00  0.00     0.171 C 
BRANCH   2   3
ATOM      3  C   UNL     1     -17.715 -15.752  11.867  1.00  0.00     0.190 C 
BRANCH   3   4
ATOM      4  O   UNL     1     -18.576 -14.711  12.242  1.00  0.00    -0.394 OA
ATOM      5  H   UNL     1     -18.178 -14.287  13.047  1.00  0.00     0.210 HD
ENDBRANCH   3   4
ENDBRANCH   2   3
BRANCH   2   6
ATOM      6  O   UNL     1     -15.374 -15.649  11.263  1.00  0.00    -0.388 OA
ATOM      7  H   UNL     1     -14.910 -16.056  10.486  1.00  0.00     0.211 HD
ENDBRANCH   2   6
ENDBRANCH   1   2
BRANCH   1   8
ATOM      8  C   UNL     1     -17.847 -14.844   8.577  1.00  0.00     0.214 C 
BRANCH   8   9
ATOM      9  C   UNL     1     -17.295 -13.437   8.508  1.00  0.00     0.189 C 
ATOM     10  O   UNL     1     -16.255 -13.230   7.903  1.00  0.00    -0.294 OA
BRANCH   9  11
ATOM     11  C   UNL     1     -17.988 -12.289   9.187  1.00  0.00     0.234 C 
BRANCH  11  12
ATOM     12  O   UNL     1     -17.703 -12.318  10.557  1.00  0.00    -0.388 OA
ATOM     13  H   UNL     1     -18.213 -13.085  10.927  1.00  0.00     0.211 HD
ENDBRANCH  11  12
ENDBRANCH   9  11
ENDBRANCH   8   9
BRANCH   8  14
ATOM     14  O   UNL     1     -19.125 -14.819   9.160  1.00  0.00    -0.382 OA
ATOM     15  H   UNL     1     -19.125 -15.501   9.882  1.00  0.00     0.211 HD
ENDBRANCH   8  14
ENDBRANCH   1   8
BRANCH   1  16
ATOM     16  O   UNL     1     -17.431 -17.071   9.424  1.00  0.00    -0.387 OA
ATOM     17  H   UNL     1     -17.617 -17.290  10.375  1.00  0.00     0.211 HD
ENDBRANCH   1  16
TORSDOF 10
ENDMDL
MODEL 7
REMARK VINA RESULT:    -2.179      1.506      3.154
REMARK INTER + INTRA:          -4.118
REMARK INTER:                  -3.877
REMARK INTRA:                  -0.241
REMARK UNBOUND:                -0.984
REMARK SMILES O=C(CO)[C@H](O)[C@H](O)[C@H](O)CO
REMARK SMILES IDX 7 1 9 2 11 3 12 4 10 6 5 8 2 9 1 10 3 11 4 12 6 14 8 16
REMARK H PARENT 12 5 10 7 4 13 6 15 8 17
REMARK Flexibility Score: inf
ROOT
ATOM      1  C   UNL     1     -16.611 -15.386  10.259  1.00  0.00     0.181 C 
ENDROOT
BRANCH   1   2
ATOM      2  C   UNL     1     -17.958 -16.141  10.097  1.00  0.00     0.171 C 
BRANCH   2   3
ATOM      3  C   UNL     1     -18.680 -16.446  11.431  1.00  0.00     0.190 C 
BRANCH   3   4
ATOM      4  O   UNL     1     -18.096 -15.747  12.497  1.00  0.00    -0.394 OA
ATOM      5  H   UNL     1     -18.740 -15.786  13.251  1.00  0.00     0.210 HD
ENDBRANCH   3   4
ENDBRANCH   2   3
BRANCH   2   6
ATOM      6  O   UNL     1     -18.811 -15.415   9.246  1.00  0.00    -0.388 OA
ATOM      7  H   UNL     1     -18.870 -14.488   9.597  1.00  0.00     0.211 HD
ENDBRANCH   2   6
ENDBRANCH   1   2
BRANCH   1   8
ATOM      8  C   UNL     1     -16.445 -14.206   9.271  1.00  0.00     0.214 C 
BRANCH   8   9
ATOM      9  C   UNL     1     -17.441 -13.107   9.573  1.00  0.00     0.189 C 
ATOM     10  O   UNL     1     -17.967 -12.505   8.650  1.00  0.00    -0.294 OA
BRANCH   9  11
ATOM     11  C   UNL     1     -17.785 -12.727  10.986  1.00  0.00     0.234 C 
BRANCH  11  12
ATOM     12  O   UNL     1     -19.124 -13.045  11.239  1.00  0.00    -0.388 OA
ATOM     13  H   UNL     1     -19.581 -12.183  11.422  1.00  0.00     0.211 HD
ENDBRANCH  11  12
ENDBRANCH   9  11
ENDBRANCH   8   9
BRANCH   8  14
ATOM     14  O   UNL     1     -16.622 -14.652   7.951  1.00  0.00    -0.382 OA
ATOM     15  H   UNL     1     -15.760 -14.503   7.480  1.00  0.00     0.211 HD
ENDBRANCH   8  14
ENDBRANCH   1   8
BRANCH   1  16
ATOM     16  O   UNL     1     -15.543 -16.289  10.107  1.00  0.00    -0.387 OA
ATOM     17  H   UNL     1     -14.727 -15.753   9.929  1.00  0.00     0.211 HD
ENDBRANCH   1  16
TORSDOF 10
ENDMDL
