MODEL 1
REMARK VINA RESULT:    -4.124      0.000      0.000
REMARK INTER + INTRA:          -4.532
REMARK INTER:                  -4.365
REMARK INTRA:                  -0.167
REMARK UNBOUND:                -0.167
REMARK SMILES C=C(C)[C@H]1CC=C(C)C(=O)C1
REMARK SMILES IDX 8 1 7 2 6 3 5 4 4 5 11 6 9 7 10 8 2 9 1 10 3 11
REMARK H PARENT
REMARK Flexibility Score: inf
ROOT
ATOM      1  C   UNL     1      11.516  59.765  23.245  1.00  0.00     0.048 C 
ATOM      2  C   UNL     1      11.960  60.924  22.395  1.00  0.00    -0.012 C 
ATOM      3  C   UNL     1      12.178  60.747  21.084  1.00  0.00    -0.019 C 
ATOM      4  C   UNL     1      12.590  61.887  20.196  1.00  0.00     0.036 C 
ATOM      5  C   UNL     1      13.562  62.841  20.914  1.00  0.00     0.025 C 
ATOM      6  C   UNL     1      12.941  63.331  22.244  1.00  0.00     0.089 C 
ATOM      7  C   UNL     1      12.289  62.223  23.031  1.00  0.00     0.158 C 
ATOM      8  O   UNL     1      12.016  62.418  24.246  1.00  0.00    -0.295 OA
ENDROOT
BRANCH   5   9
ATOM      9  C   UNL     1      14.959  62.224  21.031  1.00  0.00    -0.077 C 
ATOM     10  C   UNL     1      15.789  62.679  21.984  1.00  0.00     0.008 C 
ATOM     11  C   UNL     1      15.471  61.129  20.123  1.00  0.00     0.039 C 
ENDBRANCH   5   9
TORSDOF 1
ENDMDL
MODEL 2
REMARK VINA RESULT:    -3.942     14.890     16.579
REMARK INTER + INTRA:          -4.339
REMARK INTER:                  -4.112
REMARK INTRA:                  -0.227
REMARK UNBOUND:                -0.167
REMARK SMILES C=C(C)[C@H]1CC=C(C)C(=O)C1
REMARK SMILES IDX 8 1 7 2 6 3 5 4 4 5 11 6 9 7 10 8 2 9 1 10 3 11
REMARK H PARENT
REMARK Flexibility Score: inf
ROOT
ATOM      1  C   UNL     1      19.257  52.231  33.262  1.00  0.00     0.048 C 
ATOM      2  C   UNL     1      18.363  52.987  34.206  1.00  0.00    -0.012 C 
ATOM      3  C   UNL     1      18.434  52.755  35.524  1.00  0.00    -0.019 C 
ATOM      4  C   UNL     1      17.582  53.514  36.502  1.00  0.00     0.036 C 
ATOM      5  C   UNL     1      16.171  53.773  35.941  1.00  0.00     0.025 C 
ATOM      6  C   UNL     1      16.265  54.486  34.572  1.00  0.00     0.089 C 
ATOM      7  C   UNL     1      17.313  53.886  33.668  1.00  0.00     0.158 C 
ATOM      8  O   UNL     1      17.291  54.166  32.440  1.00  0.00    -0.295 OA
ENDROOT
BRANCH   5   9
ATOM      9  C   UNL     1      15.325  52.496  35.958  1.00  0.00    -0.077 C 
ATOM     10  C   UNL     1      15.251  51.785  37.095  1.00  0.00     0.008 C 
ATOM     11  C   UNL     1      14.569  51.974  34.757  1.00  0.00     0.039 C 
ENDBRANCH   5   9
TORSDOF 1
ENDMDL
MODEL 3
REMARK VINA RESULT:    -3.840     14.977     16.244
REMARK INTER + INTRA:          -4.231
REMARK INTER:                  -4.006
REMARK INTRA:                  -0.225
REMARK UNBOUND:                -0.167
REMARK SMILES C=C(C)[C@H]1CC=C(C)C(=O)C1
REMARK SMILES IDX 8 1 7 2 6 3 5 4 4 5 11 6 9 7 10 8 2 9 1 10 3 11
REMARK H PARENT
REMARK Flexibility Score: inf
ROOT
ATOM      1  C   UNL     1      16.782  56.390  35.115  1.00  0.00     0.048 C 
ATOM      2  C   UNL     1      17.229  54.978  35.376  1.00  0.00    -0.012 C 
ATOM      3  C   UNL     1      18.507  54.632  35.166  1.00  0.00    -0.019 C 
ATOM      4  C   UNL     1      19.000  53.239  35.448  1.00  0.00     0.036 C 
ATOM      5  C   UNL     1      17.946  52.180  35.071  1.00  0.00     0.025 C 
ATOM      6  C   UNL     1      16.609  52.482  35.786  1.00  0.00     0.089 C 
ATOM      7  C   UNL     1      16.230  53.941  35.732  1.00  0.00     0.158 C 
ATOM      8  O   UNL     1      15.045  54.273  36.003  1.00  0.00    -0.295 OA
ENDROOT
BRANCH   5   9
ATOM      9  C   UNL     1      17.854  52.007  33.552  1.00  0.00    -0.077 C 
ATOM     10  C   UNL     1      18.977  51.755  32.861  1.00  0.00     0.008 C 
ATOM     11  C   UNL     1      16.563  52.116  32.772  1.00  0.00     0.039 C 
ENDBRANCH   5   9
TORSDOF 1
ENDMDL
MODEL 4
REMARK VINA RESULT:    -3.831      2.030      3.062
REMARK INTER + INTRA:          -4.221
REMARK INTER:                  -3.997
REMARK INTRA:                  -0.225
REMARK UNBOUND:                -0.167
REMARK SMILES C=C(C)[C@H]1CC=C(C)C(=O)C1
REMARK SMILES IDX 8 1 7 2 6 3 5 4 4 5 11 6 9 7 10 8 2 9 1 10 3 11
REMARK H PARENT
REMARK Flexibility Score: inf
ROOT
ATOM      1  C   UNL     1      14.242  58.519  21.780  1.00  0.00     0.048 C 
ATOM      2  C   UNL     1      14.666  59.896  21.346  1.00  0.00    -0.012 C 
ATOM      3  C   UNL     1      15.969  60.182  21.211  1.00  0.00    -0.019 C 
ATOM      4  C   UNL     1      16.431  61.535  20.748  1.00  0.00     0.036 C 
ATOM      5  C   UNL     1      15.553  62.661  21.326  1.00  0.00     0.025 C 
ATOM      6  C   UNL     1      14.066  62.404  20.986  1.00  0.00     0.089 C 
ATOM      7  C   UNL     1      13.653  60.970  21.204  1.00  0.00     0.158 C 
ATOM      8  O   UNL     1      12.426  60.691  21.256  1.00  0.00    -0.295 OA
ENDROOT
BRANCH   5   9
ATOM      9  C   UNL     1      15.856  62.893  22.809  1.00  0.00    -0.077 C 
ATOM     10  C   UNL     1      17.138  62.973  23.202  1.00  0.00     0.008 C 
ATOM     11  C   UNL     1      14.790  63.028  23.872  1.00  0.00     0.039 C 
ENDBRANCH   5   9
TORSDOF 1
ENDMDL
MODEL 5
REMARK VINA RESULT:    -3.826      2.478      4.331
REMARK INTER + INTRA:          -4.216
REMARK INTER:                  -3.996
REMARK INTRA:                  -0.220
REMARK UNBOUND:                -0.167
REMARK SMILES C=C(C)[C@H]1CC=C(C)C(=O)C1
REMARK SMILES IDX 8 1 7 2 6 3 5 4 4 5 11 6 9 7 10 8 2 9 1 10 3 11
REMARK H PARENT
REMARK Flexibility Score: inf
ROOT
ATOM      1  C   UNL     1      17.505  60.551  23.803  1.00  0.00     0.048 C 
ATOM      2  C   UNL     1      16.860  61.077  22.550  1.00  0.00    -0.012 C 
ATOM      3  C   UNL     1      16.475  62.360  22.485  1.00  0.00    -0.019 C 
ATOM      4  C   UNL     1      15.858  62.931  21.239  1.00  0.00     0.036 C 
ATOM      5  C   UNL     1      14.927  61.915  20.552  1.00  0.00     0.025 C 
ATOM      6  C   UNL     1      15.689  60.598  20.275  1.00  0.00     0.089 C 
ATOM      7  C   UNL     1      16.527  60.147  21.444  1.00  0.00     0.158 C 
ATOM      8  O   UNL     1      16.951  58.961  21.468  1.00  0.00    -0.295 OA
ENDROOT
BRANCH   5   9
ATOM      9  C   UNL     1      13.610  61.762  21.320  1.00  0.00    -0.077 C 
ATOM     10  C   UNL     1      12.996  62.866  21.775  1.00  0.00     0.008 C 
ATOM     11  C   UNL     1      12.959  60.429  21.612  1.00  0.00     0.039 C 
ENDBRANCH   5   9
TORSDOF 1
ENDMDL
MODEL 6
REMARK VINA RESULT:    -3.713     14.561     16.461
REMARK INTER + INTRA:          -4.097
REMARK INTER:                  -3.954
REMARK INTRA:                  -0.143
REMARK UNBOUND:                -0.167
REMARK SMILES C=C(C)[C@H]1CC=C(C)C(=O)C1
REMARK SMILES IDX 8 1 7 2 6 3 5 4 4 5 11 6 9 7 10 8 2 9 1 10 3 11
REMARK H PARENT
REMARK Flexibility Score: inf
ROOT
ATOM      1  C   UNL     1      13.365  55.665  34.829  1.00  0.00     0.048 C 
ATOM      2  C   UNL     1      13.886  54.369  35.386  1.00  0.00    -0.012 C 
ATOM      3  C   UNL     1      14.434  54.340  36.609  1.00  0.00    -0.019 C 
ATOM      4  C   UNL     1      14.936  53.059  37.215  1.00  0.00     0.036 C 
ATOM      5  C   UNL     1      15.602  52.157  36.158  1.00  0.00     0.025 C 
ATOM      6  C   UNL     1      14.629  51.906  34.982  1.00  0.00     0.089 C 
ATOM      7  C   UNL     1      13.917  53.157  34.532  1.00  0.00     0.158 C 
ATOM      8  O   UNL     1      13.337  53.158  33.413  1.00  0.00    -0.295 OA
ENDROOT
BRANCH   5   9
ATOM      9  C   UNL     1      16.982  52.693  35.764  1.00  0.00    -0.077 C 
ATOM     10  C   UNL     1      17.540  52.263  34.621  1.00  0.00     0.008 C 
ATOM     11  C   UNL     1      17.770  53.677  36.599  1.00  0.00     0.039 C 
ENDBRANCH   5   9
TORSDOF 1
ENDMDL
MODEL 7
REMARK VINA RESULT:    -3.674      2.112      3.948
REMARK INTER + INTRA:          -4.055
REMARK INTER:                  -3.837
REMARK INTRA:                  -0.218
REMARK UNBOUND:                -0.167
REMARK SMILES C=C(C)[C@H]1CC=C(C)C(=O)C1
REMARK SMILES IDX 8 1 7 2 6 3 5 4 4 5 11 6 9 7 10 8 2 9 1 10 3 11
REMARK H PARENT
REMARK Flexibility Score: inf
ROOT
ATOM      1  C   UNL     1      16.687  62.563  22.982  1.00  0.00     0.048 C 
ATOM      2  C   UNL     1      15.401  62.522  22.203  1.00  0.00    -0.012 C 
ATOM      3  C   UNL     1      14.267  62.970  22.761  1.00  0.00    -0.019 C 
ATOM      4  C   UNL     1      12.969  62.977  22.003  1.00  0.00     0.036 C 
ATOM      5  C   UNL     1      12.830  61.731  21.108  1.00  0.00     0.025 C 
ATOM      6  C   UNL     1      14.054  61.612  20.169  1.00  0.00     0.089 C 
ATOM      7  C   UNL     1      15.362  61.863  20.875  1.00  0.00     0.158 C 
ATOM      8  O   UNL     1      16.434  61.509  20.315  1.00  0.00    -0.295 OA
ENDROOT
BRANCH   5   9
ATOM      9  C   UNL     1      12.518  60.483  21.939  1.00  0.00    -0.077 C 
ATOM     10  C   UNL     1      11.439  60.493  22.739  1.00  0.00     0.008 C 
ATOM     11  C   UNL     1      13.365  59.231  21.924  1.00  0.00     0.039 C 
ENDBRANCH   5   9
TORSDOF 1
ENDMDL
MODEL 8
REMARK VINA RESULT:    -3.645     15.289     16.400
REMARK INTER + INTRA:          -4.025
REMARK INTER:                  -3.819
REMARK INTRA:                  -0.206
REMARK UNBOUND:                -0.167
REMARK SMILES C=C(C)[C@H]1CC=C(C)C(=O)C1
REMARK SMILES IDX 8 1 7 2 6 3 5 4 4 5 11 6 9 7 10 8 2 9 1 10 3 11
REMARK H PARENT
REMARK Flexibility Score: inf
ROOT
ATOM      1  C   UNL     1      18.904  52.121  31.872  1.00  0.00     0.048 C 
ATOM      2  C   UNL     1      18.696  52.368  33.341  1.00  0.00    -0.012 C 
ATOM      3  C   UNL     1      17.523  52.057  33.911  1.00  0.00    -0.019 C 
ATOM      4  C   UNL     1      17.289  52.258  35.383  1.00  0.00     0.036 C 
ATOM      5  C   UNL     1      17.963  53.545  35.892  1.00  0.00     0.025 C 
ATOM      6  C   UNL     1      19.469  53.534  35.537  1.00  0.00     0.089 C 
ATOM      7  C   UNL     1      19.735  53.079  34.124  1.00  0.00     0.158 C 
ATOM      8  O   UNL     1      20.865  53.305  33.615  1.00  0.00    -0.295 OA
ENDROOT
BRANCH   5   9
ATOM      9  C   UNL     1      17.193  54.790  35.442  1.00  0.00    -0.077 C 
ATOM     10  C   UNL     1      17.882  55.903  35.142  1.00  0.00     0.008 C 
ATOM     11  C   UNL     1      15.687  54.848  35.323  1.00  0.00     0.039 C 
ENDBRANCH   5   9
TORSDOF 1
ENDMDL
MODEL 9
REMARK VINA RESULT:    -3.633      1.649      2.145
REMARK INTER + INTRA:          -4.011
REMARK INTER:                  -3.787
REMARK INTRA:                  -0.225
REMARK UNBOUND:                -0.167
REMARK SMILES C=C(C)[C@H]1CC=C(C)C(=O)C1
REMARK SMILES IDX 8 1 7 2 6 3 5 4 4 5 11 6 9 7 10 8 2 9 1 10 3 11
REMARK H PARENT
REMARK Flexibility Score: inf
ROOT
ATOM      1  C   UNL     1      12.592  60.091  23.440  1.00  0.00     0.048 C 
ATOM      2  C   UNL     1      13.429  61.210  22.883  1.00  0.00    -0.012 C 
ATOM      3  C   UNL     1      13.310  61.555  21.593  1.00  0.00    -0.019 C 
ATOM      4  C   UNL     1      14.104  62.689  21.008  1.00  0.00     0.036 C 
ATOM      5  C   UNL     1      15.530  62.739  21.588  1.00  0.00     0.025 C 
ATOM      6  C   UNL     1      15.475  62.801  23.132  1.00  0.00     0.089 C 
ATOM      7  C   UNL     1      14.478  61.835  23.723  1.00  0.00     0.158 C 
ATOM      8  O   UNL     1      14.545  61.569  24.953  1.00  0.00    -0.295 OA
ENDROOT
BRANCH   5   9
ATOM      9  C   UNL     1      16.404  61.623  21.007  1.00  0.00    -0.077 C 
ATOM     10  C   UNL     1      16.376  61.403  19.683  1.00  0.00     0.008 C 
ATOM     11  C   UNL     1      17.297  60.735  21.844  1.00  0.00     0.039 C 
ENDBRANCH   5   9
TORSDOF 1
ENDMDL
