MODEL 1
REMARK VINA RESULT:    -3.343      0.000      0.000
REMARK INTER + INTRA:          -3.766
REMARK INTER:                  -3.734
REMARK INTRA:                  -0.032
REMARK UNBOUND:                -0.032
REMARK SMILES CCCC(=O)[O-]
REMARK SMILES IDX 3 1 4 2 5 3 6 4 2 5 1 6
REMARK H PARENT
REMARK Flexibility Score: inf
ROOT
ATOM      1  C   UNL     1      18.480   4.801 -10.848  1.00  0.00     0.052 C 
ENDROOT
BRANCH   1   2
ATOM      2  C   UNL     1      17.121   4.184 -10.772  1.00  0.00     0.041 C 
ATOM      3  O   UNL     1      16.929   3.018 -11.207  1.00  0.00    -0.550 OA
ATOM      4  O   UNL     1      16.053   4.913 -10.264  1.00  0.00    -0.550 OA
ENDBRANCH   1   2
BRANCH   1   5
ATOM      5  C   UNL     1      18.386   6.324 -10.713  1.00  0.00     0.003 C 
ATOM      6  C   UNL     1      18.767   7.017 -12.019  1.00  0.00     0.004 C 
ENDBRANCH   1   5
TORSDOF 2
ENDMDL
MODEL 2
REMARK VINA RESULT:    -3.335      2.671      3.588
REMARK INTER + INTRA:          -3.757
REMARK INTER:                  -3.740
REMARK INTRA:                  -0.017
REMARK UNBOUND:                -0.032
REMARK SMILES CCCC(=O)[O-]
REMARK SMILES IDX 3 1 4 2 5 3 6 4 2 5 1 6
REMARK H PARENT
REMARK Flexibility Score: inf
ROOT
ATOM      1  C   UNL     1      18.980   5.221 -10.819  1.00  0.00     0.052 C 
ENDROOT
BRANCH   1   2
ATOM      2  C   UNL     1      19.405   6.197 -11.868  1.00  0.00     0.041 C 
ATOM      3  O   UNL     1      18.631   7.125 -12.222  1.00  0.00    -0.550 OA
ATOM      4  O   UNL     1      20.639   6.054 -12.493  1.00  0.00    -0.550 OA
ENDBRANCH   1   2
BRANCH   1   5
ATOM      5  C   UNL     1      17.453   5.114 -10.774  1.00  0.00     0.003 C 
ATOM      6  C   UNL     1      17.002   3.657 -10.800  1.00  0.00     0.004 C 
ENDBRANCH   1   5
TORSDOF 2
ENDMDL
MODEL 3
REMARK VINA RESULT:    -3.211      3.323      3.900
REMARK INTER + INTRA:          -3.618
REMARK INTER:                  -3.551
REMARK INTRA:                  -0.067
REMARK UNBOUND:                -0.032
REMARK SMILES CCCC(=O)[O-]
REMARK SMILES IDX 3 1 4 2 5 3 6 4 2 5 1 6
REMARK H PARENT
REMARK Flexibility Score: inf
ROOT
ATOM      1  C   UNL     1      19.313   6.808 -10.051  1.00  0.00     0.052 C 
ENDROOT
BRANCH   1   2
ATOM      2  C   UNL     1      20.671   6.183 -10.000  1.00  0.00     0.041 C 
ATOM      3  O   UNL     1      21.101   5.690  -8.924  1.00  0.00    -0.550 OA
ATOM      4  O   UNL     1      21.483   6.189 -11.127  1.00  0.00    -0.550 OA
ENDBRANCH   1   2
BRANCH   1   5
ATOM      5  C   UNL     1      18.474   6.176 -11.165  1.00  0.00     0.003 C 
ATOM      6  C   UNL     1      18.304   4.675 -10.943  1.00  0.00     0.004 C 
ENDBRANCH   1   5
TORSDOF 2
ENDMDL
MODEL 4
REMARK VINA RESULT:    -3.186      3.907      4.392
REMARK INTER + INTRA:          -3.590
REMARK INTER:                  -3.583
REMARK INTRA:                  -0.007
REMARK UNBOUND:                -0.032
REMARK SMILES CCCC(=O)[O-]
REMARK SMILES IDX 3 1 4 2 5 3 6 4 2 5 1 6
REMARK H PARENT
REMARK Flexibility Score: inf
ROOT
ATOM      1  C   UNL     1      20.127   5.608 -12.284  1.00  0.00     0.052 C 
ENDROOT
BRANCH   1   2
ATOM      2  C   UNL     1      21.575   5.902 -12.056  1.00  0.00     0.041 C 
ATOM      3  O   UNL     1      22.460   5.192 -12.603  1.00  0.00    -0.550 OA
ATOM      4  O   UNL     1      21.950   6.929 -11.198  1.00  0.00    -0.550 OA
ENDBRANCH   1   2
BRANCH   1   5
ATOM      5  C   UNL     1      19.362   5.621 -10.958  1.00  0.00     0.003 C 
ATOM      6  C   UNL     1      18.255   4.570 -10.951  1.00  0.00     0.004 C 
ENDBRANCH   1   5
TORSDOF 2
ENDMDL
MODEL 5
REMARK VINA RESULT:    -3.161     13.052     13.807
REMARK INTER + INTRA:          -3.562
REMARK INTER:                  -3.557
REMARK INTRA:                  -0.005
REMARK UNBOUND:                -0.032
REMARK SMILES CCCC(=O)[O-]
REMARK SMILES IDX 3 1 4 2 5 3 6 4 2 5 1 6
REMARK H PARENT
REMARK Flexibility Score: inf
ROOT
ATOM      1  C   UNL     1      24.634  -2.597 -19.048  1.00  0.00     0.052 C 
ENDROOT
BRANCH   1   2
ATOM      2  C   UNL     1      25.297  -3.746 -19.736  1.00  0.00     0.041 C 
ATOM      3  O   UNL     1      26.192  -3.539 -20.597  1.00  0.00    -0.550 OA
ATOM      4  O   UNL     1      24.893  -5.048 -19.463  1.00  0.00    -0.550 OA
ENDBRANCH   1   2
BRANCH   1   5
ATOM      5  C   UNL     1      24.957  -2.608 -17.551  1.00  0.00     0.003 C 
ATOM      6  C   UNL     1      24.286  -1.439 -16.835  1.00  0.00     0.004 C 
ENDBRANCH   1   5
TORSDOF 2
ENDMDL
MODEL 6
REMARK VINA RESULT:    -3.151     13.478     14.189
REMARK INTER + INTRA:          -3.551
REMARK INTER:                  -3.550
REMARK INTRA:                  -0.001
REMARK UNBOUND:                -0.032
REMARK SMILES CCCC(=O)[O-]
REMARK SMILES IDX 3 1 4 2 5 3 6 4 2 5 1 6
REMARK H PARENT
REMARK Flexibility Score: inf
ROOT
ATOM      1  C   UNL     1      24.947  -4.012 -18.860  1.00  0.00     0.052 C 
ENDROOT
BRANCH   1   2
ATOM      2  C   UNL     1      25.450  -3.503 -20.172  1.00  0.00     0.041 C 
ATOM      3  O   UNL     1      26.187  -4.226 -20.893  1.00  0.00    -0.550 OA
ATOM      4  O   UNL     1      25.146  -2.209 -20.580  1.00  0.00    -0.550 OA
ENDBRANCH   1   2
BRANCH   1   5
ATOM      5  C   UNL     1      25.550  -3.208 -17.705  1.00  0.00     0.003 C 
ATOM      6  C   UNL     1      24.587  -2.126 -17.225  1.00  0.00     0.004 C 
ENDBRANCH   1   5
TORSDOF 2
ENDMDL
MODEL 7
REMARK VINA RESULT:    -3.123      2.767      3.002
REMARK INTER + INTRA:          -3.520
REMARK INTER:                  -3.514
REMARK INTRA:                  -0.006
REMARK UNBOUND:                -0.032
REMARK SMILES CCCC(=O)[O-]
REMARK SMILES IDX 3 1 4 2 5 3 6 4 2 5 1 6
REMARK H PARENT
REMARK Flexibility Score: inf
ROOT
ATOM      1  C   UNL     1      19.995   5.601 -12.171  1.00  0.00     0.052 C 
ENDROOT
BRANCH   1   2
ATOM      2  C   UNL     1      19.085   5.552 -10.986  1.00  0.00     0.041 C 
ATOM      3  O   UNL     1      18.353   4.546 -10.791  1.00  0.00    -0.550 OA
ATOM      4  O   UNL     1      19.006   6.638 -10.123  1.00  0.00    -0.550 OA
ENDBRANCH   1   2
BRANCH   1   5
ATOM      5  C   UNL     1      21.416   5.974 -11.740  1.00  0.00     0.003 C 
ATOM      6  C   UNL     1      22.457   5.272 -12.608  1.00  0.00     0.004 C 
ENDBRANCH   1   5
TORSDOF 2
ENDMDL
MODEL 8
REMARK VINA RESULT:    -3.113      3.308      3.903
REMARK INTER + INTRA:          -3.509
REMARK INTER:                  -3.462
REMARK INTRA:                  -0.047
REMARK UNBOUND:                -0.032
REMARK SMILES CCCC(=O)[O-]
REMARK SMILES IDX 3 1 4 2 5 3 6 4 2 5 1 6
REMARK H PARENT
REMARK Flexibility Score: inf
ROOT
ATOM      1  C   UNL     1      19.298   5.510 -11.161  1.00  0.00     0.052 C 
ENDROOT
BRANCH   1   2
ATOM      2  C   UNL     1      20.148   5.821 -12.350  1.00  0.00     0.041 C 
ATOM      3  O   UNL     1      20.524   7.003 -12.569  1.00  0.00    -0.550 OA
ATOM      4  O   UNL     1      20.486   4.814 -13.247  1.00  0.00    -0.550 OA
ENDBRANCH   1   2
BRANCH   1   5
ATOM      5  C   UNL     1      19.729   6.354  -9.958  1.00  0.00     0.003 C 
ATOM      6  C   UNL     1      20.858   5.677  -9.186  1.00  0.00     0.004 C 
ENDBRANCH   1   5
TORSDOF 2
ENDMDL
MODEL 9
REMARK VINA RESULT:    -3.053     26.116     26.813
REMARK INTER + INTRA:          -3.442
REMARK INTER:                  -3.405
REMARK INTRA:                  -0.037
REMARK UNBOUND:                -0.032
REMARK SMILES CCCC(=O)[O-]
REMARK SMILES IDX 3 1 4 2 5 3 6 4 2 5 1 6
REMARK H PARENT
REMARK Flexibility Score: inf
ROOT
ATOM      1  C   UNL     1      30.697 -13.014 -26.874  1.00  0.00     0.052 C 
ENDROOT
BRANCH   1   2
ATOM      2  C   UNL     1      29.591 -12.344 -26.123  1.00  0.00     0.041 C 
ATOM      3  O   UNL     1      29.836 -11.358 -25.380  1.00  0.00    -0.550 OA
ATOM      4  O   UNL     1      28.295 -12.840 -26.204  1.00  0.00    -0.550 OA
ENDBRANCH   1   2
BRANCH   1   5
ATOM      5  C   UNL     1      30.368 -13.081 -28.368  1.00  0.00     0.003 C 
ATOM      6  C   UNL     1      31.002 -11.916 -29.124  1.00  0.00     0.004 C 
ENDBRANCH   1   5
TORSDOF 2
ENDMDL
