MODEL 1
REMARK VINA RESULT:    -7.073      0.000      0.000
REMARK INTER + INTRA:         -11.824
REMARK INTER:                 -10.175
REMARK INTRA:                  -1.649
REMARK UNBOUND:                -1.649
REMARK SMILES O=c1c(O[C@@H]2O[C@@H](CO)[C@@H](O)[C@H](O)[C@@H]2O)c(-c2ccc(O)cc2)oc2cc(O)cc(O)c12
REMARK SMILES IDX 4 1 3 2 16 3 24 4 2 5 25 6 1 7 32 8 26 9 30 10 27 11 29 12
REMARK SMILES IDX 17 13 18 14 19 15 20 16 23 17 22 18 21 19 31 21 28 23 5 25
REMARK SMILES IDX 14 26 6 27 12 28 7 29 10 30 15 31 13 33 8 35 9 36 11 38
REMARK H PARENT 21 20 31 22 28 24 15 32 13 34 9 37 11 39
REMARK Flexibility Score: inf
ROOT
ATOM      1  O   UNL     1      53.945   5.769  81.171  1.00  0.00    -0.454 OA
ENDROOT
BRANCH   1   2
ATOM      2  C   UNL     1      54.719   6.393  80.172  1.00  0.00     0.214 A 
ATOM      3  C   UNL     1      54.429   6.087  78.830  1.00  0.00     0.180 A 
ATOM      4  O   UNL     1      55.189   6.573  77.857  1.00  0.00    -0.452 OA
ATOM      5  C   UNL     1      55.786   7.280  80.445  1.00  0.00     0.239 A 
ATOM      6  C   UNL     1      56.206   7.397  78.065  1.00  0.00     0.146 A 
ATOM      7  O   UNL     1      56.085   7.545  81.636  1.00  0.00    -0.285 OA
ATOM      8  C   UNL     1      56.529   7.837  79.374  1.00  0.00     0.111 A 
ATOM      9  C   UNL     1      56.958   7.820  76.967  1.00  0.00     0.094 A 
ATOM     10  C   UNL     1      57.599   8.769  79.532  1.00  0.00     0.134 A 
ATOM     11  C   UNL     1      58.041   8.677  77.139  1.00  0.00     0.123 A 
ATOM     12  C   UNL     1      58.357   9.146  78.416  1.00  0.00     0.093 A 
BRANCH   3  13
ATOM     13  C   UNL     1      53.312   5.189  78.459  1.00  0.00     0.021 A 
ATOM     14  C   UNL     1      53.591   3.885  78.015  1.00  0.00     0.016 A 
ATOM     15  C   UNL     1      52.551   3.024  77.653  1.00  0.00     0.047 A 
ATOM     16  C   UNL     1      51.221   3.460  77.720  1.00  0.00     0.115 A 
ATOM     17  C   UNL     1      51.976   5.627  78.501  1.00  0.00     0.016 A 
ATOM     18  C   UNL     1      50.938   4.762  78.143  1.00  0.00     0.047 A 
BRANCH  16  19
ATOM     19  O   UNL     1      50.176   2.609  77.364  1.00  0.00    -0.508 OA
ATOM     20  H   UNL     1      50.229   2.021  76.540  1.00  0.00     0.293 HD
ENDBRANCH  16  19
ENDBRANCH   3  13
BRANCH  10  21
ATOM     21  O   UNL     1      57.937   9.374  80.747  1.00  0.00    -0.507 OA
ATOM     22  H   UNL     1      58.189  10.346  80.854  1.00  0.00     0.293 HD
ENDBRANCH  10  21
BRANCH  11  23
ATOM     23  O   UNL     1      58.791   9.069  76.033  1.00  0.00    -0.508 OA
ATOM     24  H   UNL     1      58.744  10.012  75.668  1.00  0.00     0.293 HD
ENDBRANCH  11  23
ENDBRANCH   1   2
BRANCH   1  25
ATOM     25  C   UNL     1      54.122   4.458  81.719  1.00  0.00     0.339 C 
ATOM     26  C   UNL     1      54.398   4.543  83.233  1.00  0.00     0.214 C 
ATOM     27  O   UNL     1      53.001   3.627  81.449  1.00  0.00    -0.332 OA
ATOM     28  C   UNL     1      53.141   4.998  84.001  1.00  0.00     0.180 C 
ATOM     29  C   UNL     1      51.815   4.142  82.034  1.00  0.00     0.179 C 
ATOM     30  C   UNL     1      51.927   4.148  83.576  1.00  0.00     0.177 C 
BRANCH  26  31
ATOM     31  O   UNL     1      55.467   5.422  83.470  1.00  0.00    -0.384 OA
ATOM     32  H   UNL     1      55.102   6.182  83.994  1.00  0.00     0.211 HD
ENDBRANCH  26  31
BRANCH  28  33
ATOM     33  O   UNL     1      52.894   6.359  83.750  1.00  0.00    -0.387 OA
ATOM     34  H   UNL     1      52.289   6.402  82.963  1.00  0.00     0.211 HD
ENDBRANCH  28  33
BRANCH  29  35
ATOM     35  C   UNL     1      50.628   3.294  81.554  1.00  0.00     0.191 C 
BRANCH  35  36
ATOM     36  O   UNL     1      49.453   4.060  81.492  1.00  0.00    -0.394 OA
ATOM     37  H   UNL     1      48.919   3.827  82.296  1.00  0.00     0.210 HD
ENDBRANCH  35  36
ENDBRANCH  29  35
BRANCH  30  38
ATOM     38  O   UNL     1      52.079   2.831  84.047  1.00  0.00    -0.387 OA
ATOM     39  H   UNL     1      52.442   2.897  84.970  1.00  0.00     0.211 HD
ENDBRANCH  30  38
ENDBRANCH   1  25
TORSDOF 11
ENDMDL
MODEL 2
REMARK VINA RESULT:    -6.534      2.191      7.031
REMARK INTER + INTRA:         -11.048
REMARK INTER:                  -9.227
REMARK INTRA:                  -1.821
REMARK UNBOUND:                -1.649
REMARK SMILES O=c1c(O[C@@H]2O[C@@H](CO)[C@@H](O)[C@H](O)[C@@H]2O)c(-c2ccc(O)cc2)oc2cc(O)cc(O)c12
REMARK SMILES IDX 4 1 3 2 16 3 24 4 2 5 25 6 1 7 32 8 26 9 30 10 27 11 29 12
REMARK SMILES IDX 17 13 18 14 19 15 20 16 23 17 22 18 21 19 31 21 28 23 5 25
REMARK SMILES IDX 14 26 6 27 12 28 7 29 10 30 15 31 13 33 8 35 9 36 11 38
REMARK H PARENT 21 20 31 22 28 24 15 32 13 34 9 37 11 39
REMARK Flexibility Score: inf
ROOT
ATOM      1  O   UNL     1      56.014   6.470  79.394  1.00  0.00    -0.454 OA
ENDROOT
BRANCH   1   2
ATOM      2  C   UNL     1      54.864   5.799  79.854  1.00  0.00     0.214 A 
ATOM      3  C   UNL     1      53.630   6.132  79.267  1.00  0.00     0.180 A 
ATOM      4  O   UNL     1      52.507   5.599  79.729  1.00  0.00    -0.452 OA
ATOM      5  C   UNL     1      54.877   4.837  80.890  1.00  0.00     0.239 A 
ATOM      6  C   UNL     1      52.469   4.704  80.706  1.00  0.00     0.146 A 
ATOM      7  O   UNL     1      55.962   4.543  81.453  1.00  0.00    -0.285 OA
ATOM      8  C   UNL     1      53.664   4.235  81.308  1.00  0.00     0.111 A 
ATOM      9  C   UNL     1      51.225   4.236  81.134  1.00  0.00     0.094 A 
ATOM     10  C   UNL     1      53.565   3.228  82.316  1.00  0.00     0.134 A 
ATOM     11  C   UNL     1      51.137   3.302  82.163  1.00  0.00     0.123 A 
ATOM     12  C   UNL     1      52.303   2.805  82.749  1.00  0.00     0.093 A 
BRANCH   3  13
ATOM     13  C   UNL     1      53.533   7.109  78.159  1.00  0.00     0.021 A 
ATOM     14  C   UNL     1      53.123   8.425  78.431  1.00  0.00     0.016 A 
ATOM     15  C   UNL     1      53.018   9.361  77.398  1.00  0.00     0.047 A 
ATOM     16  C   UNL     1      53.311   8.989  76.079  1.00  0.00     0.115 A 
ATOM     17  C   UNL     1      53.803   6.738  76.829  1.00  0.00     0.016 A 
ATOM     18  C   UNL     1      53.702   7.676  75.799  1.00  0.00     0.047 A 
BRANCH  16  19
ATOM     19  O   UNL     1      53.213   9.915  75.041  1.00  0.00    -0.508 OA
ATOM     20  H   UNL     1      52.619   9.748  74.238  1.00  0.00     0.293 HD
ENDBRANCH  16  19
ENDBRANCH   3  13
BRANCH  10  21
ATOM     21  O   UNL     1      54.668   2.593  82.897  1.00  0.00    -0.507 OA
ATOM     22  H   UNL     1      55.063   1.721  82.577  1.00  0.00     0.293 HD
ENDBRANCH  10  21
BRANCH  11  23
ATOM     23  O   UNL     1      49.885   2.865  82.591  1.00  0.00    -0.508 OA
ATOM     24  H   UNL     1      49.458   3.226  83.435  1.00  0.00     0.293 HD
ENDBRANCH  11  23
ENDBRANCH   1   2
BRANCH   1  25
ATOM     25  C   UNL     1      56.528   7.728  79.844  1.00  0.00     0.339 C 
ATOM     26  C   UNL     1      57.924   7.545  80.469  1.00  0.00     0.214 C 
ATOM     27  O   UNL     1      56.560   8.682  78.791  1.00  0.00    -0.332 OA
ATOM     28  C   UNL     1      58.970   7.187  79.394  1.00  0.00     0.180 C 
ATOM     29  C   UNL     1      57.409   8.265  77.734  1.00  0.00     0.179 C 
ATOM     30  C   UNL     1      58.875   8.176  78.216  1.00  0.00     0.177 C 
BRANCH  26  31
ATOM     31  O   UNL     1      57.872   6.550  81.459  1.00  0.00    -0.384 OA
ATOM     32  H   UNL     1      57.549   6.989  82.289  1.00  0.00     0.211 HD
ENDBRANCH  26  31
BRANCH  28  33
ATOM     33  O   UNL     1      58.761   5.871  78.944  1.00  0.00    -0.387 OA
ATOM     34  H   UNL     1      58.327   5.377  79.689  1.00  0.00     0.211 HD
ENDBRANCH  28  33
BRANCH  29  35
ATOM     35  C   UNL     1      57.254   9.253  76.567  1.00  0.00     0.191 C 
BRANCH  35  36
ATOM     36  O   UNL     1      58.461   9.398  75.865  1.00  0.00    -0.394 OA
ATOM     37  H   UNL     1      58.613   8.545  75.381  1.00  0.00     0.210 HD
ENDBRANCH  35  36
ENDBRANCH  29  35
BRANCH  30  38
ATOM     38  O   UNL     1      59.320   9.447  78.624  1.00  0.00    -0.387 OA
ATOM     39  H   UNL     1      58.878  10.110  78.031  1.00  0.00     0.211 HD
ENDBRANCH  30  38
ENDBRANCH   1  25
TORSDOF 11
ENDMDL
MODEL 3
REMARK VINA RESULT:    -6.463      2.347      2.931
REMARK INTER + INTRA:         -10.946
REMARK INTER:                  -9.456
REMARK INTRA:                  -1.490
REMARK UNBOUND:                -1.649
REMARK SMILES O=c1c(O[C@@H]2O[C@@H](CO)[C@@H](O)[C@H](O)[C@@H]2O)c(-c2ccc(O)cc2)oc2cc(O)cc(O)c12
REMARK SMILES IDX 4 1 3 2 16 3 24 4 2 5 25 6 1 7 32 8 26 9 30 10 27 11 29 12
REMARK SMILES IDX 17 13 18 14 19 15 20 16 23 17 22 18 21 19 31 21 28 23 5 25
REMARK SMILES IDX 14 26 6 27 12 28 7 29 10 30 15 31 13 33 8 35 9 36 11 38
REMARK H PARENT 21 20 31 22 28 24 15 32 13 34 9 37 11 39
REMARK Flexibility Score: inf
ROOT
ATOM      1  O   UNL     1      54.465   6.422  80.134  1.00  0.00    -0.454 OA
ENDROOT
BRANCH   1   2
ATOM      2  C   UNL     1      54.262   7.268  79.026  1.00  0.00     0.214 A 
ATOM      3  C   UNL     1      53.262   6.914  78.103  1.00  0.00     0.180 A 
ATOM      4  O   UNL     1      53.096   7.625  76.996  1.00  0.00    -0.452 OA
ATOM      5  C   UNL     1      55.027   8.431  78.776  1.00  0.00     0.239 A 
ATOM      6  C   UNL     1      53.796   8.713  76.712  1.00  0.00     0.146 A 
ATOM      7  O   UNL     1      55.948   8.752  79.568  1.00  0.00    -0.285 OA
ATOM      8  C   UNL     1      54.771   9.206  77.617  1.00  0.00     0.111 A 
ATOM      9  C   UNL     1      53.558   9.363  75.499  1.00  0.00     0.094 A 
ATOM     10  C   UNL     1      55.455  10.415  77.285  1.00  0.00     0.134 A 
ATOM     11  C   UNL     1      54.277  10.505  75.156  1.00  0.00     0.123 A 
ATOM     12  C   UNL     1      55.221  11.023  76.046  1.00  0.00     0.093 A 
BRANCH   3  13
ATOM     13  C   UNL     1      52.400   5.728  78.306  1.00  0.00     0.021 A 
ATOM     14  C   UNL     1      52.352   4.730  77.318  1.00  0.00     0.016 A 
ATOM     15  C   UNL     1      51.539   3.605  77.487  1.00  0.00     0.047 A 
ATOM     16  C   UNL     1      50.755   3.471  78.640  1.00  0.00     0.115 A 
ATOM     17  C   UNL     1      51.592   5.596  79.450  1.00  0.00     0.016 A 
ATOM     18  C   UNL     1      50.784   4.469  79.618  1.00  0.00     0.047 A 
BRANCH  16  19
ATOM     19  O   UNL     1      49.943   2.352  78.820  1.00  0.00    -0.508 OA
ATOM     20  H   UNL     1      49.015   2.302  78.416  1.00  0.00     0.293 HD
ENDBRANCH  16  19
ENDBRANCH   3  13
BRANCH  10  21
ATOM     21  O   UNL     1      56.344  11.071  78.143  1.00  0.00    -0.507 OA
ATOM     22  H   UNL     1      56.434  10.882  79.130  1.00  0.00     0.293 HD
ENDBRANCH  10  21
BRANCH  11  23
ATOM     23  O   UNL     1      54.040  11.125  73.932  1.00  0.00    -0.508 OA
ATOM     24  H   UNL     1      54.486  10.805  73.080  1.00  0.00     0.293 HD
ENDBRANCH  11  23
ENDBRANCH   1   2
BRANCH   1  25
ATOM     25  C   UNL     1      55.270   5.239  80.192  1.00  0.00     0.339 C 
ATOM     26  C   UNL     1      56.511   5.477  81.073  1.00  0.00     0.214 C 
ATOM     27  O   UNL     1      54.521   4.123  80.654  1.00  0.00    -0.332 OA
ATOM     28  C   UNL     1      56.118   5.617  82.558  1.00  0.00     0.180 C 
ATOM     29  C   UNL     1      54.031   4.331  81.969  1.00  0.00     0.179 C 
ATOM     30  C   UNL     1      55.201   4.450  82.973  1.00  0.00     0.177 C 
BRANCH  26  31
ATOM     31  O   UNL     1      57.192   6.623  80.632  1.00  0.00    -0.384 OA
ATOM     32  H   UNL     1      56.600   7.398  80.821  1.00  0.00     0.211 HD
ENDBRANCH  26  31
BRANCH  28  33
ATOM     33  O   UNL     1      55.467   6.846  82.766  1.00  0.00    -0.387 OA
ATOM     34  H   UNL     1      55.397   6.972  83.749  1.00  0.00     0.211 HD
ENDBRANCH  28  33
BRANCH  29  35
ATOM     35  C   UNL     1      53.091   3.170  82.328  1.00  0.00     0.191 C 
BRANCH  35  36
ATOM     36  O   UNL     1      53.620   1.942  81.900  1.00  0.00    -0.394 OA
ATOM     37  H   UNL     1      53.516   1.308  82.656  1.00  0.00     0.210 HD
ENDBRANCH  35  36
ENDBRANCH  29  35
BRANCH  30  38
ATOM     38  O   UNL     1      55.935   3.251  82.992  1.00  0.00    -0.387 OA
ATOM     39  H   UNL     1      55.645   2.723  82.203  1.00  0.00     0.211 HD
ENDBRANCH  30  38
ENDBRANCH   1  25
TORSDOF 11
ENDMDL
MODEL 4
REMARK VINA RESULT:    -6.375      2.237      7.576
REMARK INTER + INTRA:         -10.819
REMARK INTER:                  -8.889
REMARK INTRA:                  -1.930
REMARK UNBOUND:                -1.649
REMARK SMILES O=c1c(O[C@@H]2O[C@@H](CO)[C@@H](O)[C@H](O)[C@@H]2O)c(-c2ccc(O)cc2)oc2cc(O)cc(O)c12
REMARK SMILES IDX 4 1 3 2 16 3 24 4 2 5 25 6 1 7 32 8 26 9 30 10 27 11 29 12
REMARK SMILES IDX 17 13 18 14 19 15 20 16 23 17 22 18 21 19 31 21 28 23 5 25
REMARK SMILES IDX 14 26 6 27 12 28 7 29 10 30 15 31 13 33 8 35 9 36 11 38
REMARK H PARENT 21 20 31 22 28 24 15 32 13 34 9 37 11 39
REMARK Flexibility Score: inf
ROOT
ATOM      1  O   UNL     1      53.407   6.526  79.364  1.00  0.00    -0.454 OA
ENDROOT
BRANCH   1   2
ATOM      2  C   UNL     1      53.340   5.475  80.300  1.00  0.00     0.214 A 
ATOM      3  C   UNL     1      54.550   4.965  80.803  1.00  0.00     0.180 A 
ATOM      4  O   UNL     1      54.545   3.914  81.612  1.00  0.00    -0.452 OA
ATOM      5  C   UNL     1      52.130   4.886  80.734  1.00  0.00     0.239 A 
ATOM      6  C   UNL     1      53.438   3.322  82.036  1.00  0.00     0.146 A 
ATOM      7  O   UNL     1      51.036   5.302  80.277  1.00  0.00    -0.285 OA
ATOM      8  C   UNL     1      52.161   3.811  81.657  1.00  0.00     0.111 A 
ATOM      9  C   UNL     1      53.554   2.200  82.861  1.00  0.00     0.094 A 
ATOM     10  C   UNL     1      51.003   3.168  82.191  1.00  0.00     0.134 A 
ATOM     11  C   UNL     1      52.417   1.541  83.322  1.00  0.00     0.123 A 
ATOM     12  C   UNL     1      51.151   2.025  82.985  1.00  0.00     0.093 A 
BRANCH   3  13
ATOM     13  C   UNL     1      55.858   5.542  80.419  1.00  0.00     0.021 A 
ATOM     14  C   UNL     1      56.246   6.787  80.944  1.00  0.00     0.016 A 
ATOM     15  C   UNL     1      57.474   7.353  80.589  1.00  0.00     0.047 A 
ATOM     16  C   UNL     1      58.323   6.687  79.695  1.00  0.00     0.115 A 
ATOM     17  C   UNL     1      56.706   4.891  79.505  1.00  0.00     0.016 A 
ATOM     18  C   UNL     1      57.935   5.457  79.155  1.00  0.00     0.047 A 
BRANCH  16  19
ATOM     19  O   UNL     1      59.551   7.241  79.336  1.00  0.00    -0.508 OA
ATOM     20  H   UNL     1      59.834   7.316  78.366  1.00  0.00     0.293 HD
ENDBRANCH  16  19
ENDBRANCH   3  13
BRANCH  10  21
ATOM     21  O   UNL     1      49.696   3.627  81.997  1.00  0.00    -0.507 OA
ATOM     22  H   UNL     1      48.883   3.033  81.926  1.00  0.00     0.293 HD
ENDBRANCH  10  21
BRANCH  11  23
ATOM     23  O   UNL     1      52.556   0.412  84.125  1.00  0.00    -0.508 OA
ATOM     24  H   UNL     1      51.756  -0.145  84.398  1.00  0.00     0.293 HD
ENDBRANCH  11  23
ENDBRANCH   1   2
BRANCH   1  25
ATOM     25  C   UNL     1      53.292   6.434  77.940  1.00  0.00     0.339 C 
ATOM     26  C   UNL     1      52.197   7.390  77.428  1.00  0.00     0.214 C 
ATOM     27  O   UNL     1      54.535   6.691  77.301  1.00  0.00    -0.332 OA
ATOM     28  C   UNL     1      52.632   8.861  77.576  1.00  0.00     0.180 C 
ATOM     29  C   UNL     1      55.002   8.002  77.575  1.00  0.00     0.179 C 
ATOM     30  C   UNL     1      54.041   9.057  76.982  1.00  0.00     0.177 C 
BRANCH  26  31
ATOM     31  O   UNL     1      51.001   7.155  78.125  1.00  0.00    -0.384 OA
ATOM     32  H   UNL     1      50.405   6.653  77.510  1.00  0.00     0.211 HD
ENDBRANCH  26  31
BRANCH  28  33
ATOM     33  O   UNL     1      52.621   9.229  78.934  1.00  0.00    -0.387 OA
ATOM     34  H   UNL     1      52.565   8.387  79.459  1.00  0.00     0.211 HD
ENDBRANCH  28  33
BRANCH  29  35
ATOM     35  C   UNL     1      56.422   8.142  77.003  1.00  0.00     0.191 C 
BRANCH  35  36
ATOM     36  O   UNL     1      56.686   9.468  76.628  1.00  0.00    -0.394 OA
ATOM     37  H   UNL     1      56.666   9.493  75.635  1.00  0.00     0.210 HD
ENDBRANCH  35  36
ENDBRANCH  29  35
BRANCH  30  38
ATOM     38  O   UNL     1      53.990   8.923  75.583  1.00  0.00    -0.387 OA
ATOM     39  H   UNL     1      53.179   9.408  75.277  1.00  0.00     0.211 HD
ENDBRANCH  30  38
ENDBRANCH   1  25
TORSDOF 11
ENDMDL
MODEL 5
REMARK VINA RESULT:    -6.311      1.887      6.520
REMARK INTER + INTRA:         -10.728
REMARK INTER:                  -8.805
REMARK INTRA:                  -1.923
REMARK UNBOUND:                -1.649
REMARK SMILES O=c1c(O[C@@H]2O[C@@H](CO)[C@@H](O)[C@H](O)[C@@H]2O)c(-c2ccc(O)cc2)oc2cc(O)cc(O)c12
REMARK SMILES IDX 4 1 3 2 16 3 24 4 2 5 25 6 1 7 32 8 26 9 30 10 27 11 29 12
REMARK SMILES IDX 17 13 18 14 19 15 20 16 23 17 22 18 21 19 31 21 28 23 5 25
REMARK SMILES IDX 14 26 6 27 12 28 7 29 10 30 15 31 13 33 8 35 9 36 11 38
REMARK H PARENT 21 20 31 22 28 24 15 32 13 34 9 37 11 39
REMARK Flexibility Score: inf
ROOT
ATOM      1  O   UNL     1      54.531   6.311  81.518  1.00  0.00    -0.454 OA
ENDROOT
BRANCH   1   2
ATOM      2  C   UNL     1      53.838   5.555  80.552  1.00  0.00     0.214 A 
ATOM      3  C   UNL     1      54.452   5.368  79.300  1.00  0.00     0.180 A 
ATOM      4  O   UNL     1      53.802   4.746  78.326  1.00  0.00    -0.452 OA
ATOM      5  C   UNL     1      52.553   5.004  80.759  1.00  0.00     0.239 A 
ATOM      6  C   UNL     1      52.592   4.224  78.469  1.00  0.00     0.146 A 
ATOM      7  O   UNL     1      51.969   5.183  81.858  1.00  0.00    -0.285 OA
ATOM      8  C   UNL     1      51.919   4.282  79.717  1.00  0.00     0.111 A 
ATOM      9  C   UNL     1      51.989   3.620  77.363  1.00  0.00     0.094 A 
ATOM     10  C   UNL     1      50.642   3.653  79.828  1.00  0.00     0.134 A 
ATOM     11  C   UNL     1      50.716   3.068  77.466  1.00  0.00     0.123 A 
ATOM     12  C   UNL     1      50.049   3.088  78.693  1.00  0.00     0.093 A 
BRANCH   3  13
ATOM     13  C   UNL     1      55.807   5.889  79.012  1.00  0.00     0.021 A 
ATOM     14  C   UNL     1      55.958   6.973  78.131  1.00  0.00     0.016 A 
ATOM     15  C   UNL     1      57.230   7.476  77.839  1.00  0.00     0.047 A 
ATOM     16  C   UNL     1      58.366   6.894  78.416  1.00  0.00     0.115 A 
ATOM     17  C   UNL     1      56.955   5.295  79.568  1.00  0.00     0.016 A 
ATOM     18  C   UNL     1      58.224   5.803  79.278  1.00  0.00     0.047 A 
BRANCH  16  19
ATOM     19  O   UNL     1      59.638   7.389  78.134  1.00  0.00    -0.508 OA
ATOM     20  H   UNL     1      59.954   7.525  77.181  1.00  0.00     0.293 HD
ENDBRANCH  16  19
ENDBRANCH   3  13
BRANCH  10  21
ATOM     21  O   UNL     1      49.934   3.529  81.028  1.00  0.00    -0.507 OA
ATOM     22  H   UNL     1      49.260   4.200  81.369  1.00  0.00     0.293 HD
ENDBRANCH  10  21
BRANCH  11  23
ATOM     23  O   UNL     1      50.124   2.490  76.345  1.00  0.00    -0.508 OA
ATOM     24  H   UNL     1      49.847   3.048  75.546  1.00  0.00     0.293 HD
ENDBRANCH  11  23
ENDBRANCH   1   2
BRANCH   1  25
ATOM     25  C   UNL     1      54.315   7.681  81.872  1.00  0.00     0.339 C 
ATOM     26  C   UNL     1      54.151   7.822  83.397  1.00  0.00     0.214 C 
ATOM     27  O   UNL     1      55.362   8.514  81.391  1.00  0.00    -0.332 OA
ATOM     28  C   UNL     1      55.484   7.555  84.125  1.00  0.00     0.180 C 
ATOM     29  C   UNL     1      56.614   8.154  81.952  1.00  0.00     0.179 C 
ATOM     30  C   UNL     1      56.612   8.386  83.480  1.00  0.00     0.177 C 
BRANCH  26  31
ATOM     31  O   UNL     1      53.156   6.940  83.849  1.00  0.00    -0.384 OA
ATOM     32  H   UNL     1      53.624   6.152  84.232  1.00  0.00     0.211 HD
ENDBRANCH  26  31
BRANCH  28  33
ATOM     33  O   UNL     1      55.794   6.185  84.067  1.00  0.00    -0.387 OA
ATOM     34  H   UNL     1      55.237   5.794  83.342  1.00  0.00     0.211 HD
ENDBRANCH  28  33
BRANCH  29  35
ATOM     35  C   UNL     1      57.712   8.973  81.256  1.00  0.00     0.191 C 
BRANCH  35  36
ATOM     36  O   UNL     1      57.354  10.328  81.171  1.00  0.00    -0.394 OA
ATOM     37  H   UNL     1      58.006  10.829  81.727  1.00  0.00     0.210 HD
ENDBRANCH  35  36
ENDBRANCH  29  35
BRANCH  30  38
ATOM     38  O   UNL     1      56.414   9.751  83.755  1.00  0.00    -0.387 OA
ATOM     39  H   UNL     1      56.162  10.183  82.897  1.00  0.00     0.211 HD
ENDBRANCH  30  38
ENDBRANCH   1  25
TORSDOF 11
ENDMDL
MODEL 6
REMARK VINA RESULT:    -6.266      2.580      7.402
REMARK INTER + INTRA:         -10.663
REMARK INTER:                  -9.393
REMARK INTRA:                  -1.270
REMARK UNBOUND:                -1.649
REMARK SMILES O=c1c(O[C@@H]2O[C@@H](CO)[C@@H](O)[C@H](O)[C@@H]2O)c(-c2ccc(O)cc2)oc2cc(O)cc(O)c12
REMARK SMILES IDX 4 1 3 2 16 3 24 4 2 5 25 6 1 7 32 8 26 9 30 10 27 11 29 12
REMARK SMILES IDX 17 13 18 14 19 15 20 16 23 17 22 18 21 19 31 21 28 23 5 25
REMARK SMILES IDX 14 26 6 27 12 28 7 29 10 30 15 31 13 33 8 35 9 36 11 38
REMARK H PARENT 21 20 31 22 28 24 15 32 13 34 9 37 11 39
REMARK Flexibility Score: inf
ROOT
ATOM      1  O   UNL     1      53.573   6.628  78.407  1.00  0.00    -0.454 OA
ENDROOT
BRANCH   1   2
ATOM      2  C   UNL     1      53.378   5.779  79.515  1.00  0.00     0.214 A 
ATOM      3  C   UNL     1      54.507   5.421  80.274  1.00  0.00     0.180 A 
ATOM      4  O   UNL     1      54.391   4.550  81.268  1.00  0.00    -0.452 OA
ATOM      5  C   UNL     1      52.122   5.245  79.884  1.00  0.00     0.239 A 
ATOM      6  C   UNL     1      53.239   4.014  81.642  1.00  0.00     0.146 A 
ATOM      7  O   UNL     1      51.103   5.524  79.204  1.00  0.00    -0.285 OA
ATOM      8  C   UNL     1      52.027   4.374  80.998  1.00  0.00     0.111 A 
ATOM      9  C   UNL     1      53.242   3.081  82.682  1.00  0.00     0.094 A 
ATOM     10  C   UNL     1      50.808   3.808  81.481  1.00  0.00     0.134 A 
ATOM     11  C   UNL     1      52.056   2.486  83.101  1.00  0.00     0.123 A 
ATOM     12  C   UNL     1      50.848   2.849  82.501  1.00  0.00     0.093 A 
BRANCH   3  13
ATOM     13  C   UNL     1      55.853   5.957  79.970  1.00  0.00     0.021 A 
ATOM     14  C   UNL     1      56.740   5.198  79.190  1.00  0.00     0.016 A 
ATOM     15  C   UNL     1      58.018   5.683  78.898  1.00  0.00     0.047 A 
ATOM     16  C   UNL     1      58.428   6.928  79.391  1.00  0.00     0.115 A 
ATOM     17  C   UNL     1      56.280   7.196  80.482  1.00  0.00     0.016 A 
ATOM     18  C   UNL     1      57.556   7.681  80.184  1.00  0.00     0.047 A 
BRANCH  16  19
ATOM     19  O   UNL     1      59.699   7.423  79.104  1.00  0.00    -0.508 OA
ATOM     20  H   UNL     1      60.034   8.289  79.510  1.00  0.00     0.293 HD
ENDBRANCH  16  19
ENDBRANCH   3  13
BRANCH  10  21
ATOM     21  O   UNL     1      49.540   4.173  81.019  1.00  0.00    -0.507 OA
ATOM     22  H   UNL     1      48.670   3.893  81.448  1.00  0.00     0.293 HD
ENDBRANCH  10  21
BRANCH  11  23
ATOM     23  O   UNL     1      52.084   1.542  84.125  1.00  0.00    -0.508 OA
ATOM     24  H   UNL     1      52.902   0.969  84.295  1.00  0.00     0.293 HD
ENDBRANCH  11  23
ENDBRANCH   1   2
BRANCH   1  25
ATOM     25  C   UNL     1      53.831   8.036  78.421  1.00  0.00     0.339 C 
ATOM     26  C   UNL     1      54.599   8.453  77.153  1.00  0.00     0.214 C 
ATOM     27  O   UNL     1      52.631   8.783  78.563  1.00  0.00    -0.332 OA
ATOM     28  C   UNL     1      53.702   8.349  75.903  1.00  0.00     0.180 C 
ATOM     29  C   UNL     1      51.744   8.556  77.478  1.00  0.00     0.179 C 
ATOM     30  C   UNL     1      52.361   9.066  76.156  1.00  0.00     0.177 C 
BRANCH  26  31
ATOM     31  O   UNL     1      55.743   7.652  77.007  1.00  0.00    -0.384 OA
ATOM     32  H   UNL     1      55.928   7.252  77.897  1.00  0.00     0.211 HD
ENDBRANCH  26  31
BRANCH  28  33
ATOM     33  O   UNL     1      53.479   6.997  75.585  1.00  0.00    -0.387 OA
ATOM     34  H   UNL     1      53.020   6.590  76.367  1.00  0.00     0.211 HD
ENDBRANCH  28  33
BRANCH  29  35
ATOM     35  C   UNL     1      50.410   9.252  77.788  1.00  0.00     0.191 C 
BRANCH  35  36
ATOM     36  O   UNL     1      49.751   9.628  76.607  1.00  0.00    -0.394 OA
ATOM     37  H   UNL     1      48.993  10.210  76.877  1.00  0.00     0.210 HD
ENDBRANCH  35  36
ENDBRANCH  29  35
BRANCH  30  38
ATOM     38  O   UNL     1      52.571  10.455  76.232  1.00  0.00    -0.387 OA
ATOM     39  H   UNL     1      53.404  10.591  76.755  1.00  0.00     0.211 HD
ENDBRANCH  30  38
ENDBRANCH   1  25
TORSDOF 11
ENDMDL
MODEL 7
REMARK VINA RESULT:    -6.183      1.807      4.549
REMARK INTER + INTRA:         -10.543
REMARK INTER:                  -8.727
REMARK INTRA:                  -1.816
REMARK UNBOUND:                -1.649
REMARK SMILES O=c1c(O[C@@H]2O[C@@H](CO)[C@@H](O)[C@H](O)[C@@H]2O)c(-c2ccc(O)cc2)oc2cc(O)cc(O)c12
REMARK SMILES IDX 4 1 3 2 16 3 24 4 2 5 25 6 1 7 32 8 26 9 30 10 27 11 29 12
REMARK SMILES IDX 17 13 18 14 19 15 20 16 23 17 22 18 21 19 31 21 28 23 5 25
REMARK SMILES IDX 14 26 6 27 12 28 7 29 10 30 15 31 13 33 8 35 9 36 11 38
REMARK H PARENT 21 20 31 22 28 24 15 32 13 34 9 37 11 39
REMARK Flexibility Score: inf
ROOT
ATOM      1  O   UNL     1      54.491   5.569  79.342  1.00  0.00    -0.454 OA
ENDROOT
BRANCH   1   2
ATOM      2  C   UNL     1      55.606   6.126  80.000  1.00  0.00     0.214 A 
ATOM      3  C   UNL     1      55.763   5.854  81.371  1.00  0.00     0.180 A 
ATOM      4  O   UNL     1      56.741   6.431  82.057  1.00  0.00    -0.452 OA
ATOM      5  C   UNL     1      56.553   6.964  79.367  1.00  0.00     0.239 A 
ATOM      6  C   UNL     1      57.643   7.233  81.510  1.00  0.00     0.146 A 
ATOM      7  O   UNL     1      56.419   7.247  78.151  1.00  0.00    -0.285 OA
ATOM      8  C   UNL     1      57.628   7.504  80.118  1.00  0.00     0.111 A 
ATOM      9  C   UNL     1      58.610   7.811  82.337  1.00  0.00     0.094 A 
ATOM     10  C   UNL     1      58.659   8.329  79.576  1.00  0.00     0.134 A 
ATOM     11  C   UNL     1      59.572   8.667  81.807  1.00  0.00     0.123 A 
ATOM     12  C   UNL     1      59.592   8.923  80.435  1.00  0.00     0.093 A 
BRANCH   3  13
ATOM     13  C   UNL     1      54.830   4.966  82.101  1.00  0.00     0.021 A 
ATOM     14  C   UNL     1      54.857   3.583  81.854  1.00  0.00     0.016 A 
ATOM     15  C   UNL     1      53.981   2.727  82.528  1.00  0.00     0.047 A 
ATOM     16  C   UNL     1      53.058   3.245  83.446  1.00  0.00     0.115 A 
ATOM     17  C   UNL     1      53.886   5.480  83.007  1.00  0.00     0.016 A 
ATOM     18  C   UNL     1      53.013   4.622  83.682  1.00  0.00     0.047 A 
BRANCH  16  19
ATOM     19  O   UNL     1      52.181   2.401  84.125  1.00  0.00    -0.508 OA
ATOM     20  H   UNL     1      51.242   2.228  83.784  1.00  0.00     0.293 HD
ENDBRANCH  16  19
ENDBRANCH   3  13
BRANCH  10  21
ATOM     21  O   UNL     1      58.830   8.569  78.208  1.00  0.00    -0.507 OA
ATOM     22  H   UNL     1      58.317   9.258  77.678  1.00  0.00     0.293 HD
ENDBRANCH  10  21
BRANCH  11  23
ATOM     23  O   UNL     1      60.513   9.251  82.652  1.00  0.00    -0.508 OA
ATOM     24  H   UNL     1      61.507   9.160  82.481  1.00  0.00     0.293 HD
ENDBRANCH  11  23
ENDBRANCH   1   2
BRANCH   1  25
ATOM     25  C   UNL     1      53.276   6.231  78.973  1.00  0.00     0.339 C 
ATOM     26  C   UNL     1      52.940   5.950  77.496  1.00  0.00     0.214 C 
ATOM     27  O   UNL     1      52.201   5.856  79.824  1.00  0.00    -0.332 OA
ATOM     28  C   UNL     1      52.526   4.478  77.293  1.00  0.00     0.180 C 
ATOM     29  C   UNL     1      51.933   4.465  79.743  1.00  0.00     0.179 C 
ATOM     30  C   UNL     1      51.450   4.085  78.325  1.00  0.00     0.177 C 
BRANCH  26  31
ATOM     31  O   UNL     1      54.044   6.269  76.690  1.00  0.00    -0.384 OA
ATOM     32  H   UNL     1      53.702   6.373  75.764  1.00  0.00     0.211 HD
ENDBRANCH  26  31
BRANCH  28  33
ATOM     33  O   UNL     1      53.650   3.644  77.420  1.00  0.00    -0.387 OA
ATOM     34  H   UNL     1      53.436   2.977  78.126  1.00  0.00     0.211 HD
ENDBRANCH  28  33
BRANCH  29  35
ATOM     35  C   UNL     1      50.888   4.108  80.813  1.00  0.00     0.191 C 
BRANCH  35  36
ATOM     36  O   UNL     1      49.894   3.268  80.287  1.00  0.00    -0.394 OA
ATOM     37  H   UNL     1      49.057   3.476  80.778  1.00  0.00     0.210 HD
ENDBRANCH  35  36
ENDBRANCH  29  35
BRANCH  30  38
ATOM     38  O   UNL     1      50.247   4.754  78.036  1.00  0.00    -0.387 OA
ATOM     39  H   UNL     1      50.002   4.514  77.104  1.00  0.00     0.211 HD
ENDBRANCH  30  38
ENDBRANCH   1  25
TORSDOF 11
ENDMDL
MODEL 8
REMARK VINA RESULT:    -5.957      1.822      6.128
REMARK INTER + INTRA:         -10.218
REMARK INTER:                  -9.331
REMARK INTRA:                  -0.887
REMARK UNBOUND:                -1.649
REMARK SMILES O=c1c(O[C@@H]2O[C@@H](CO)[C@@H](O)[C@H](O)[C@@H]2O)c(-c2ccc(O)cc2)oc2cc(O)cc(O)c12
REMARK SMILES IDX 4 1 3 2 16 3 24 4 2 5 25 6 1 7 32 8 26 9 30 10 27 11 29 12
REMARK SMILES IDX 17 13 18 14 19 15 20 16 23 17 22 18 21 19 31 21 28 23 5 25
REMARK SMILES IDX 14 26 6 27 12 28 7 29 10 30 15 31 13 33 8 35 9 36 11 38
REMARK H PARENT 21 20 31 22 28 24 15 32 13 34 9 37 11 39
REMARK Flexibility Score: inf
ROOT
ATOM      1  O   UNL     1      55.098   7.461  80.610  1.00  0.00    -0.454 OA
ENDROOT
BRANCH   1   2
ATOM      2  C   UNL     1      54.332   6.585  79.815  1.00  0.00     0.214 A 
ATOM      3  C   UNL     1      54.559   6.589  78.427  1.00  0.00     0.180 A 
ATOM      4  O   UNL     1      53.800   5.853  77.626  1.00  0.00    -0.452 OA
ATOM      5  C   UNL     1      53.330   5.731  80.331  1.00  0.00     0.239 A 
ATOM      6  C   UNL     1      52.842   5.048  78.062  1.00  0.00     0.146 A 
ATOM      7  O   UNL     1      53.086   5.731  81.563  1.00  0.00    -0.285 OA
ATOM      8  C   UNL     1      52.588   4.905  79.450  1.00  0.00     0.111 A 
ATOM      9  C   UNL     1      52.082   4.346  77.123  1.00  0.00     0.094 A 
ATOM     10  C   UNL     1      51.582   3.980  79.863  1.00  0.00     0.134 A 
ATOM     11  C   UNL     1      51.059   3.496  77.535  1.00  0.00     0.123 A 
ATOM     12  C   UNL     1      50.813   3.318  78.898  1.00  0.00     0.093 A 
BRANCH   3  13
ATOM     13  C   UNL     1      55.607   7.434  77.811  1.00  0.00     0.021 A 
ATOM     14  C   UNL     1      55.304   8.757  77.448  1.00  0.00     0.016 A 
ATOM     15  C   UNL     1      56.277   9.569  76.859  1.00  0.00     0.047 A 
ATOM     16  C   UNL     1      57.562   9.065  76.615  1.00  0.00     0.115 A 
ATOM     17  C   UNL     1      56.892   6.928  77.543  1.00  0.00     0.016 A 
ATOM     18  C   UNL     1      57.864   7.743  76.958  1.00  0.00     0.047 A 
BRANCH  16  19
ATOM     19  O   UNL     1      58.541   9.867  76.031  1.00  0.00    -0.508 OA
ATOM     20  H   UNL     1      59.192  10.402  76.594  1.00  0.00     0.293 HD
ENDBRANCH  16  19
ENDBRANCH   3  13
BRANCH  10  21
ATOM     21  O   UNL     1      51.321   3.654  81.199  1.00  0.00    -0.507 OA
ATOM     22  H   UNL     1      51.572   2.779  81.636  1.00  0.00     0.293 HD
ENDBRANCH  10  21
BRANCH  11  23
ATOM     23  O   UNL     1      50.299   2.822  76.582  1.00  0.00    -0.508 OA
ATOM     24  H   UNL     1      50.295   3.106  75.610  1.00  0.00     0.293 HD
ENDBRANCH  11  23
ENDBRANCH   1   2
BRANCH   1  25
ATOM     25  C   UNL     1      56.500   7.385  80.889  1.00  0.00     0.339 C 
ATOM     26  C   UNL     1      56.849   8.242  82.121  1.00  0.00     0.214 C 
ATOM     27  O   UNL     1      56.922   6.039  81.065  1.00  0.00    -0.332 OA
ATOM     28  C   UNL     1      56.276   7.618  83.410  1.00  0.00     0.180 C 
ATOM     29  C   UNL     1      56.268   5.426  82.164  1.00  0.00     0.179 C 
ATOM     30  C   UNL     1      56.655   6.126  83.487  1.00  0.00     0.177 C 
BRANCH  26  31
ATOM     31  O   UNL     1      56.361   9.546  81.943  1.00  0.00    -0.384 OA
ATOM     32  H   UNL     1      55.583   9.646  82.552  1.00  0.00     0.211 HD
ENDBRANCH  26  31
BRANCH  28  33
ATOM     33  O   UNL     1      54.878   7.768  83.432  1.00  0.00    -0.387 OA
ATOM     34  H   UNL     1      54.611   7.837  84.387  1.00  0.00     0.211 HD
ENDBRANCH  28  33
BRANCH  29  35
ATOM     35  C   UNL     1      56.638   3.935  82.181  1.00  0.00     0.191 C 
BRANCH  35  36
ATOM     36  O   UNL     1      58.031   3.761  82.181  1.00  0.00    -0.394 OA
ATOM     37  H   UNL     1      58.422   4.600  81.822  1.00  0.00     0.210 HD
ENDBRANCH  35  36
ENDBRANCH  29  35
BRANCH  30  38
ATOM     38  O   UNL     1      58.038   5.996  83.708  1.00  0.00    -0.387 OA
ATOM     39  H   UNL     1      58.386   5.393  83.000  1.00  0.00     0.211 HD
ENDBRANCH  30  38
ENDBRANCH   1  25
TORSDOF 11
ENDMDL
