MODEL 1
REMARK VINA RESULT:    -3.857      0.000      0.000
REMARK INTER + INTRA:          -5.344
REMARK INTER:                  -4.984
REMARK INTRA:                  -0.359
REMARK UNBOUND:                -0.359
REMARK SMILES C=CC(=O)CCCCC
REMARK SMILES IDX 6 1 7 2 8 3 9 4 5 5 3 6 4 7 2 8 1 9
REMARK H PARENT
REMARK Flexibility Score: inf
ROOT
ATOM      1  C   UNL     1      -5.390  33.959   6.237  1.00  0.00     0.008 C 
ENDROOT
BRANCH   1   2
ATOM      2  C   UNL     1      -5.531  34.945   5.069  1.00  0.00     0.000 C 
BRANCH   2   3
ATOM      3  C   UNL     1      -6.892  34.790   4.382  1.00  0.00    -0.003 C 
ATOM      4  C   UNL     1      -7.904  34.117   5.305  1.00  0.00     0.004 C 
ENDBRANCH   2   3
ENDBRANCH   1   2
BRANCH   1   5
ATOM      5  C   UNL     1      -4.115  33.109   6.130  1.00  0.00     0.080 C 
BRANCH   5   6
ATOM      6  C   UNL     1      -4.414  31.699   5.708  1.00  0.00     0.155 C 
ATOM      7  O   UNL     1      -3.900  30.741   6.346  1.00  0.00    -0.295 OA
BRANCH   6   8
ATOM      8  C   UNL     1      -5.325  31.444   4.575  1.00  0.00     0.039 C 
ATOM      9  C   UNL     1      -5.433  30.248   4.000  1.00  0.00     0.012 C 
ENDBRANCH   6   8
ENDBRANCH   5   6
ENDBRANCH   1   5
TORSDOF 5
ENDMDL
MODEL 2
REMARK VINA RESULT:    -3.718      2.703      4.461
REMARK INTER + INTRA:          -5.165
REMARK INTER:                  -4.929
REMARK INTRA:                  -0.236
REMARK UNBOUND:                -0.359
REMARK SMILES C=CC(=O)CCCCC
REMARK SMILES IDX 6 1 7 2 8 3 9 4 5 5 3 6 4 7 2 8 1 9
REMARK H PARENT
REMARK Flexibility Score: inf
ROOT
ATOM      1  C   UNL     1      -5.802  34.225   5.439  1.00  0.00     0.008 C 
ENDROOT
BRANCH   1   2
ATOM      2  C   UNL     1      -4.973  33.396   4.448  1.00  0.00     0.000 C 
BRANCH   2   3
ATOM      3  C   UNL     1      -4.556  32.057   5.067  1.00  0.00    -0.003 C 
ATOM      4  C   UNL     1      -5.287  30.891   4.407  1.00  0.00     0.004 C 
ENDBRANCH   2   3
ENDBRANCH   1   2
BRANCH   1   5
ATOM      5  C   UNL     1      -5.299  34.079   6.882  1.00  0.00     0.080 C 
BRANCH   5   6
ATOM      6  C   UNL     1      -4.388  35.207   7.276  1.00  0.00     0.155 C 
ATOM      7  O   UNL     1      -4.344  36.244   6.560  1.00  0.00    -0.295 OA
BRANCH   6   8
ATOM      8  C   UNL     1      -3.577  35.107   8.505  1.00  0.00     0.039 C 
ATOM      9  C   UNL     1      -3.948  35.671   9.653  1.00  0.00     0.012 C 
ENDBRANCH   6   8
ENDBRANCH   5   6
ENDBRANCH   1   5
TORSDOF 5
ENDMDL
MODEL 3
REMARK VINA RESULT:    -3.718      2.227      4.065
REMARK INTER + INTRA:          -5.164
REMARK INTER:                  -4.754
REMARK INTRA:                  -0.410
REMARK UNBOUND:                -0.359
REMARK SMILES C=CC(=O)CCCCC
REMARK SMILES IDX 6 1 7 2 8 3 9 4 5 5 3 6 4 7 2 8 1 9
REMARK H PARENT
REMARK Flexibility Score: inf
ROOT
ATOM      1  C   UNL     1      -4.339  33.579   4.581  1.00  0.00     0.008 C 
ENDROOT
BRANCH   1   2
ATOM      2  C   UNL     1      -3.891  32.753   5.796  1.00  0.00     0.000 C 
BRANCH   2   3
ATOM      3  C   UNL     1      -4.564  31.376   5.802  1.00  0.00    -0.003 C 
ATOM      4  C   UNL     1      -5.224  31.078   4.458  1.00  0.00     0.004 C 
ENDBRANCH   2   3
ENDBRANCH   1   2
BRANCH   1   5
ATOM      5  C   UNL     1      -5.058  34.872   4.992  1.00  0.00     0.080 C 
BRANCH   5   6
ATOM      6  C   UNL     1      -6.510  34.853   4.609  1.00  0.00     0.155 C 
ATOM      7  O   UNL     1      -6.918  35.619   3.694  1.00  0.00    -0.295 OA
BRANCH   6   8
ATOM      8  C   UNL     1      -7.439  33.922   5.280  1.00  0.00     0.039 C 
ATOM      9  C   UNL     1      -8.730  34.199   5.449  1.00  0.00     0.012 C 
ENDBRANCH   6   8
ENDBRANCH   5   6
ENDBRANCH   1   5
TORSDOF 5
ENDMDL
MODEL 4
REMARK VINA RESULT:    -3.585      2.203      3.363
REMARK INTER + INTRA:          -4.992
REMARK INTER:                  -4.543
REMARK INTRA:                  -0.448
REMARK UNBOUND:                -0.359
REMARK SMILES C=CC(=O)CCCCC
REMARK SMILES IDX 6 1 7 2 8 3 9 4 5 5 3 6 4 7 2 8 1 9
REMARK H PARENT
REMARK Flexibility Score: inf
ROOT
ATOM      1  C   UNL     1      -4.863  34.034   7.282  1.00  0.00     0.008 C 
ENDROOT
BRANCH   1   2
ATOM      2  C   UNL     1      -3.819  35.160   7.298  1.00  0.00     0.000 C 
BRANCH   2   3
ATOM      3  C   UNL     1      -2.422  34.617   6.977  1.00  0.00    -0.003 C 
ATOM      4  C   UNL     1      -1.969  35.048   5.585  1.00  0.00     0.004 C 
ENDBRANCH   2   3
ENDBRANCH   1   2
BRANCH   1   5
ATOM      5  C   UNL     1      -5.803  34.131   6.072  1.00  0.00     0.080 C 
BRANCH   5   6
ATOM      6  C   UNL     1      -5.234  33.446   4.862  1.00  0.00     0.155 C 
ATOM      7  O   UNL     1      -5.208  34.058   3.761  1.00  0.00    -0.295 OA
BRANCH   6   8
ATOM      8  C   UNL     1      -4.684  32.080   4.977  1.00  0.00     0.039 C 
ATOM      9  C   UNL     1      -5.287  31.020   4.442  1.00  0.00     0.012 C 
ENDBRANCH   6   8
ENDBRANCH   5   6
ENDBRANCH   1   5
TORSDOF 5
ENDMDL
MODEL 5
REMARK VINA RESULT:    -3.574      2.512      3.395
REMARK INTER + INTRA:          -4.978
REMARK INTER:                  -4.801
REMARK INTRA:                  -0.177
REMARK UNBOUND:                -0.359
REMARK SMILES C=CC(=O)CCCCC
REMARK SMILES IDX 6 1 7 2 8 3 9 4 5 5 3 6 4 7 2 8 1 9
REMARK H PARENT
REMARK Flexibility Score: inf
ROOT
ATOM      1  C   UNL     1      -3.328  34.125   6.565  1.00  0.00     0.008 C 
ENDROOT
BRANCH   1   2
ATOM      2  C   UNL     1      -4.218  34.743   7.653  1.00  0.00     0.000 C 
BRANCH   2   3
ATOM      3  C   UNL     1      -3.372  35.298   8.805  1.00  0.00    -0.003 C 
ATOM      4  C   UNL     1      -4.250  35.753   9.966  1.00  0.00     0.004 C 
ENDBRANCH   2   3
ENDBRANCH   1   2
BRANCH   1   5
ATOM      5  C   UNL     1      -3.983  34.178   5.178  1.00  0.00     0.080 C 
BRANCH   5   6
ATOM      6  C   UNL     1      -5.029  33.113   5.010  1.00  0.00     0.155 C 
ATOM      7  O   UNL     1      -6.239  33.449   4.891  1.00  0.00    -0.295 OA
BRANCH   6   8
ATOM      8  C   UNL     1      -4.634  31.692   4.954  1.00  0.00     0.039 C 
ATOM      9  C   UNL     1      -5.376  30.768   4.346  1.00  0.00     0.012 C 
ENDBRANCH   6   8
ENDBRANCH   5   6
ENDBRANCH   1   5
TORSDOF 5
ENDMDL
MODEL 6
REMARK VINA RESULT:    -3.567      2.255      4.190
REMARK INTER + INTRA:          -4.969
REMARK INTER:                  -4.637
REMARK INTRA:                  -0.332
REMARK UNBOUND:                -0.359
REMARK SMILES C=CC(=O)CCCCC
REMARK SMILES IDX 6 1 7 2 8 3 9 4 5 5 3 6 4 7 2 8 1 9
REMARK H PARENT
REMARK Flexibility Score: inf
ROOT
ATOM      1  C   UNL     1      -4.425  33.970   4.569  1.00  0.00     0.008 C 
ENDROOT
BRANCH   1   2
ATOM      2  C   UNL     1      -5.567  32.954   4.713  1.00  0.00     0.000 C 
BRANCH   2   3
ATOM      3  C   UNL     1      -5.025  31.521   4.761  1.00  0.00    -0.003 C 
ATOM      4  C   UNL     1      -4.296  31.249   6.073  1.00  0.00     0.004 C 
ENDBRANCH   2   3
ENDBRANCH   1   2
BRANCH   1   5
ATOM      5  C   UNL     1      -4.504  35.086   5.620  1.00  0.00     0.080 C 
BRANCH   5   6
ATOM      6  C   UNL     1      -3.685  34.769   6.839  1.00  0.00     0.155 C 
ATOM      7  O   UNL     1      -2.487  34.400   6.699  1.00  0.00    -0.295 OA
BRANCH   6   8
ATOM      8  C   UNL     1      -4.273  34.919   8.184  1.00  0.00     0.039 C 
ATOM      9  C   UNL     1      -3.563  35.336   9.231  1.00  0.00     0.012 C 
ENDBRANCH   6   8
ENDBRANCH   5   6
ENDBRANCH   1   5
TORSDOF 5
ENDMDL
MODEL 7
REMARK VINA RESULT:    -3.478      2.604      4.162
REMARK INTER + INTRA:          -4.854
REMARK INTER:                  -4.510
REMARK INTRA:                  -0.344
REMARK UNBOUND:                -0.359
REMARK SMILES C=CC(=O)CCCCC
REMARK SMILES IDX 6 1 7 2 8 3 9 4 5 5 3 6 4 7 2 8 1 9
REMARK H PARENT
REMARK Flexibility Score: inf
ROOT
ATOM      1  C   UNL     1      -5.797  33.714   5.044  1.00  0.00     0.008 C 
ENDROOT
BRANCH   1   2
ATOM      2  C   UNL     1      -4.675  33.092   5.887  1.00  0.00     0.000 C 
BRANCH   2   3
ATOM      3  C   UNL     1      -4.185  31.779   5.264  1.00  0.00    -0.003 C 
ATOM      4  C   UNL     1      -5.316  31.056   4.538  1.00  0.00     0.004 C 
ENDBRANCH   2   3
ENDBRANCH   1   2
BRANCH   1   5
ATOM      5  C   UNL     1      -5.252  34.545   3.873  1.00  0.00     0.080 C 
BRANCH   5   6
ATOM      6  C   UNL     1      -4.269  35.584   4.332  1.00  0.00     0.155 C 
ATOM      7  O   UNL     1      -4.587  36.363   5.271  1.00  0.00    -0.295 OA
BRANCH   6   8
ATOM      8  C   UNL     1      -2.935  35.667   3.705  1.00  0.00     0.039 C 
ATOM      9  C   UNL     1      -1.970  34.785   3.959  1.00  0.00     0.012 C 
ENDBRANCH   6   8
ENDBRANCH   5   6
ENDBRANCH   1   5
TORSDOF 5
ENDMDL
MODEL 8
REMARK VINA RESULT:    -3.412     11.723     12.854
REMARK INTER + INTRA:          -4.768
REMARK INTER:                  -4.275
REMARK INTRA:                  -0.493
REMARK UNBOUND:                -0.359
REMARK SMILES C=CC(=O)CCCCC
REMARK SMILES IDX 6 1 7 2 8 3 9 4 5 5 3 6 4 7 2 8 1 9
REMARK H PARENT
REMARK Flexibility Score: inf
ROOT
ATOM      1  C   UNL     1     -16.606  34.842   5.759  1.00  0.00     0.008 C 
ENDROOT
BRANCH   1   2
ATOM      2  C   UNL     1     -16.847  35.713   4.519  1.00  0.00     0.000 C 
BRANCH   2   3
ATOM      3  C   UNL     1     -17.263  34.855   3.318  1.00  0.00    -0.003 C 
ATOM      4  C   UNL     1     -18.345  35.546   2.494  1.00  0.00     0.004 C 
ENDBRANCH   2   3
ENDBRANCH   1   2
BRANCH   1   5
ATOM      5  C   UNL     1     -17.882  34.647   6.591  1.00  0.00     0.080 C 
BRANCH   5   6
ATOM      6  C   UNL     1     -18.281  33.202   6.678  1.00  0.00     0.155 C 
ATOM      7  O   UNL     1     -18.112  32.579   7.761  1.00  0.00    -0.295 OA
BRANCH   6   8
ATOM      8  C   UNL     1     -18.892  32.533   5.513  1.00  0.00     0.039 C 
ATOM      9  C   UNL     1     -20.076  32.894   5.022  1.00  0.00     0.012 C 
ENDBRANCH   6   8
ENDBRANCH   5   6
ENDBRANCH   1   5
TORSDOF 5
ENDMDL
MODEL 9
REMARK VINA RESULT:    -3.411      7.119      8.512
REMARK INTER + INTRA:          -4.767
REMARK INTER:                  -4.374
REMARK INTRA:                  -0.394
REMARK UNBOUND:                -0.359
REMARK SMILES C=CC(=O)CCCCC
REMARK SMILES IDX 6 1 7 2 8 3 9 4 5 5 3 6 4 7 2 8 1 9
REMARK H PARENT
REMARK Flexibility Score: inf
ROOT
ATOM      1  C   UNL     1      -6.675  35.584  -0.420  1.00  0.00     0.008 C 
ENDROOT
BRANCH   1   2
ATOM      2  C   UNL     1      -8.092  35.873   0.094  1.00  0.00     0.000 C 
BRANCH   2   3
ATOM      3  C   UNL     1      -9.146  35.450  -0.935  1.00  0.00    -0.003 C 
ATOM      4  C   UNL     1      -9.807  34.132  -0.539  1.00  0.00     0.004 C 
ENDBRANCH   2   3
ENDBRANCH   1   2
BRANCH   1   5
ATOM      5  C   UNL     1      -5.936  36.863  -0.840  1.00  0.00     0.080 C 
BRANCH   5   6
ATOM      6  C   UNL     1      -5.812  36.976  -2.333  1.00  0.00     0.155 C 
ATOM      7  O   UNL     1      -5.013  36.217  -2.945  1.00  0.00    -0.295 OA
BRANCH   6   8
ATOM      8  C   UNL     1      -6.643  37.947  -3.072  1.00  0.00     0.039 C 
ATOM      9  C   UNL     1      -7.727  37.586  -3.756  1.00  0.00     0.012 C 
ENDBRANCH   6   8
ENDBRANCH   5   6
ENDBRANCH   1   5
TORSDOF 5
ENDMDL
