MODEL 1
REMARK VINA RESULT:    -4.021      0.000      0.000
REMARK INTER + INTRA:         -15.451
REMARK INTER:                 -10.132
REMARK INTRA:                  -5.319
REMARK UNBOUND:                -5.319
REMARK SMILES CCCCCCCCCCCCCCCCCCCCCCCCCCCC(=O)[O-]
REMARK SMILES IDX 15 1 16 2 17 3 18 4 19 5 20 6 21 7 22 8 23 9 24 10 25 11
REMARK SMILES IDX 26 12 27 13 28 14 29 15 30 16 14 17 13 18 12 19 11 20 10 21
REMARK SMILES IDX 9 22 8 23 7 24 6 25 5 26 4 27 3 28 2 29 1 30
REMARK H PARENT
REMARK Flexibility Score: inf
ROOT
ATOM      1  C   UNL     1      42.032  15.293  22.872  1.00  0.00     0.000 C 
ENDROOT
BRANCH   1   2
ATOM      2  C   UNL     1      41.684  15.908  21.505  1.00  0.00     0.000 C 
BRANCH   2   3
ATOM      3  C   UNL     1      42.852  16.613  20.787  1.00  0.00     0.000 C 
BRANCH   3   4
ATOM      4  C   UNL     1      44.242  16.013  21.061  1.00  0.00     0.000 C 
BRANCH   4   5
ATOM      5  C   UNL     1      45.256  17.062  21.542  1.00  0.00     0.000 C 
BRANCH   5   6
ATOM      6  C   UNL     1      45.410  17.029  23.069  1.00  0.00     0.000 C 
BRANCH   6   7
ATOM      7  C   UNL     1      45.678  15.615  23.610  1.00  0.00     0.000 C 
BRANCH   7   8
ATOM      8  C   UNL     1      45.092  15.363  25.016  1.00  0.00     0.000 C 
BRANCH   8   9
ATOM      9  C   UNL     1      44.195  16.514  25.528  1.00  0.00     0.000 C 
BRANCH   9  10
ATOM     10  C   UNL     1      43.073  16.048  26.475  1.00  0.00     0.000 C 
BRANCH  10  11
ATOM     11  C   UNL     1      42.931  14.520  26.596  1.00  0.00     0.000 C 
BRANCH  11  12
ATOM     12  C   UNL     1      41.463  14.066  26.693  1.00  0.00     0.006 C 
BRANCH  12  13
ATOM     13  C   UNL     1      40.485  15.252  26.718  1.00  0.00     0.053 C 
BRANCH  13  14
ATOM     14  C   UNL     1      39.793  15.408  28.040  1.00  0.00     0.041 C 
ATOM     15  O   UNL     1      40.293  14.919  29.089  1.00  0.00    -0.550 OA
ATOM     16  O   UNL     1      38.574  16.073  28.105  1.00  0.00    -0.550 OA
ENDBRANCH  13  14
ENDBRANCH  12  13
ENDBRANCH  11  12
ENDBRANCH  10  11
ENDBRANCH   9  10
ENDBRANCH   8   9
ENDBRANCH   7   8
ENDBRANCH   6   7
ENDBRANCH   5   6
ENDBRANCH   4   5
ENDBRANCH   3   4
ENDBRANCH   2   3
ENDBRANCH   1   2
BRANCH   1  17
ATOM     17  C   UNL     1      41.494  13.860  23.031  1.00  0.00     0.000 C 
BRANCH  17  18
ATOM     18  C   UNL     1      42.514  12.794  22.598  1.00  0.00     0.000 C 
BRANCH  18  19
ATOM     19  C   UNL     1      43.362  12.283  23.776  1.00  0.00     0.000 C 
BRANCH  19  20
ATOM     20  C   UNL     1      44.822  12.015  23.376  1.00  0.00     0.000 C 
BRANCH  20  21
ATOM     21  C   UNL     1      45.019  11.972  21.850  1.00  0.00     0.000 C 
BRANCH  21  22
ATOM     22  C   UNL     1      45.405  10.570  21.350  1.00  0.00    -0.000 C 
BRANCH  22  23
ATOM     23  C   UNL     1      44.182   9.653  21.168  1.00  0.00    -0.000 C 
BRANCH  23  24
ATOM     24  C   UNL     1      44.126   8.541  22.228  1.00  0.00    -0.000 C 
BRANCH  24  25
ATOM     25  C   UNL     1      45.467   8.351  22.955  1.00  0.00    -0.000 C 
BRANCH  25  26
ATOM     26  C   UNL     1      45.328   8.378  24.486  1.00  0.00    -0.000 C 
BRANCH  26  27
ATOM     27  C   UNL     1      43.929   8.814  24.972  1.00  0.00    -0.000 C 
BRANCH  27  28
ATOM     28  C   UNL     1      43.856   8.944  26.502  1.00  0.00    -0.000 C 
BRANCH  28  29
ATOM     29  C   UNL     1      43.052  10.182  26.910  1.00  0.00    -0.003 C 
ATOM     30  C   UNL     1      41.720  10.244  26.166  1.00  0.00     0.004 C 
ENDBRANCH  28  29
ENDBRANCH  27  28
ENDBRANCH  26  27
ENDBRANCH  25  26
ENDBRANCH  24  25
ENDBRANCH  23  24
ENDBRANCH  22  23
ENDBRANCH  21  22
ENDBRANCH  20  21
ENDBRANCH  19  20
ENDBRANCH  18  19
ENDBRANCH  17  18
ENDBRANCH   1  17
TORSDOF 26
ENDMDL
MODEL 2
REMARK VINA RESULT:    -3.900      2.431      3.796
REMARK INTER + INTRA:         -15.146
REMARK INTER:                 -10.302
REMARK INTRA:                  -4.844
REMARK UNBOUND:                -5.319
REMARK SMILES CCCCCCCCCCCCCCCCCCCCCCCCCCCC(=O)[O-]
REMARK SMILES IDX 15 1 16 2 17 3 18 4 19 5 20 6 21 7 22 8 23 9 24 10 25 11
REMARK SMILES IDX 26 12 27 13 28 14 29 15 30 16 14 17 13 18 12 19 11 20 10 21
REMARK SMILES IDX 9 22 8 23 7 24 6 25 5 26 4 27 3 28 2 29 1 30
REMARK H PARENT
REMARK Flexibility Score: inf
ROOT
ATOM      1  C   UNL     1      44.231  16.003  20.383  1.00  0.00     0.000 C 
ENDROOT
BRANCH   1   2
ATOM      2  C   UNL     1      45.512  16.101  21.230  1.00  0.00     0.000 C 
BRANCH   2   3
ATOM      3  C   UNL     1      45.743  17.465  21.912  1.00  0.00     0.000 C 
BRANCH   3   4
ATOM      4  C   UNL     1      45.849  17.417  23.447  1.00  0.00     0.000 C 
BRANCH   4   5
ATOM      5  C   UNL     1      45.463  16.047  24.024  1.00  0.00     0.000 C 
BRANCH   5   6
ATOM      6  C   UNL     1      44.341  16.175  25.063  1.00  0.00     0.000 C 
BRANCH   6   7
ATOM      7  C   UNL     1      44.023  14.844  25.765  1.00  0.00     0.000 C 
BRANCH   7   8
ATOM      8  C   UNL     1      42.583  14.756  26.314  1.00  0.00     0.000 C 
BRANCH   8   9
ATOM      9  C   UNL     1      42.033  13.312  26.381  1.00  0.00     0.000 C 
BRANCH   9  10
ATOM     10  C   UNL     1      40.541  13.202  26.012  1.00  0.00     0.000 C 
BRANCH  10  11
ATOM     11  C   UNL     1      39.938  11.798  26.197  1.00  0.00     0.000 C 
BRANCH  11  12
ATOM     12  C   UNL     1      38.571  11.827  26.904  1.00  0.00     0.006 C 
BRANCH  12  13
ATOM     13  C   UNL     1      37.506  11.016  26.149  1.00  0.00     0.053 C 
BRANCH  13  14
ATOM     14  C   UNL     1      37.229   9.685  26.782  1.00  0.00     0.041 C 
ATOM     15  O   UNL     1      37.938   8.680  26.501  1.00  0.00    -0.550 OA
ATOM     16  O   UNL     1      36.164   9.549  27.664  1.00  0.00    -0.550 OA
ENDBRANCH  13  14
ENDBRANCH  12  13
ENDBRANCH  11  12
ENDBRANCH  10  11
ENDBRANCH   9  10
ENDBRANCH   8   9
ENDBRANCH   7   8
ENDBRANCH   6   7
ENDBRANCH   5   6
ENDBRANCH   4   5
ENDBRANCH   3   4
ENDBRANCH   2   3
ENDBRANCH   1   2
BRANCH   1  17
ATOM     17  C   UNL     1      43.045  16.752  21.014  1.00  0.00     0.000 C 
BRANCH  17  18
ATOM     18  C   UNL     1      41.845  15.833  21.293  1.00  0.00     0.000 C 
BRANCH  18  19
ATOM     19  C   UNL     1      41.985  15.075  22.625  1.00  0.00     0.000 C 
BRANCH  19  20
ATOM     20  C   UNL     1      41.514  13.616  22.523  1.00  0.00     0.000 C 
BRANCH  20  21
ATOM     21  C   UNL     1      42.600  12.613  22.951  1.00  0.00     0.000 C 
BRANCH  21  22
ATOM     22  C   UNL     1      43.955  12.897  22.284  1.00  0.00    -0.000 C 
BRANCH  22  23
ATOM     23  C   UNL     1      45.144  12.491  23.173  1.00  0.00    -0.000 C 
BRANCH  23  24
ATOM     24  C   UNL     1      46.106  11.530  22.455  1.00  0.00    -0.000 C 
BRANCH  24  25
ATOM     25  C   UNL     1      45.386  10.617  21.449  1.00  0.00    -0.000 C 
BRANCH  25  26
ATOM     26  C   UNL     1      45.098   9.215  22.012  1.00  0.00    -0.000 C 
BRANCH  26  27
ATOM     27  C   UNL     1      45.338   9.098  23.532  1.00  0.00    -0.000 C 
BRANCH  27  28
ATOM     28  C   UNL     1      44.088   8.612  24.285  1.00  0.00    -0.000 C 
BRANCH  28  29
ATOM     29  C   UNL     1      43.426   9.761  25.050  1.00  0.00    -0.003 C 
ATOM     30  C   UNL     1      44.402  10.406  26.031  1.00  0.00     0.004 C 
ENDBRANCH  28  29
ENDBRANCH  27  28
ENDBRANCH  26  27
ENDBRANCH  25  26
ENDBRANCH  24  25
ENDBRANCH  23  24
ENDBRANCH  22  23
ENDBRANCH  21  22
ENDBRANCH  20  21
ENDBRANCH  19  20
ENDBRANCH  18  19
ENDBRANCH  17  18
ENDBRANCH   1  17
TORSDOF 26
ENDMDL
MODEL 3
REMARK VINA RESULT:    -3.881      2.342      5.180
REMARK INTER + INTRA:         -15.099
REMARK INTER:                 -10.558
REMARK INTRA:                  -4.540
REMARK UNBOUND:                -5.319
REMARK SMILES CCCCCCCCCCCCCCCCCCCCCCCCCCCC(=O)[O-]
REMARK SMILES IDX 15 1 16 2 17 3 18 4 19 5 20 6 21 7 22 8 23 9 24 10 25 11
REMARK SMILES IDX 26 12 27 13 28 14 29 15 30 16 14 17 13 18 12 19 11 20 10 21
REMARK SMILES IDX 9 22 8 23 7 24 6 25 5 26 4 27 3 28 2 29 1 30
REMARK H PARENT
REMARK Flexibility Score: inf
ROOT
ATOM      1  C   UNL     1      41.818  12.603  24.131  1.00  0.00     0.000 C 
ENDROOT
BRANCH   1   2
ATOM      2  C   UNL     1      43.011  11.813  24.697  1.00  0.00     0.000 C 
BRANCH   2   3
ATOM      3  C   UNL     1      43.875  12.577  25.721  1.00  0.00     0.000 C 
BRANCH   3   4
ATOM      4  C   UNL     1      43.980  14.094  25.482  1.00  0.00     0.000 C 
BRANCH   4   5
ATOM      5  C   UNL     1      43.262  14.914  26.564  1.00  0.00     0.000 C 
BRANCH   5   6
ATOM      6  C   UNL     1      42.383  16.008  25.943  1.00  0.00     0.000 C 
BRANCH   6   7
ATOM      7  C   UNL     1      40.899  15.609  25.871  1.00  0.00     0.000 C 
BRANCH   7   8
ATOM      8  C   UNL     1      40.323  15.103  27.211  1.00  0.00     0.000 C 
BRANCH   8   9
ATOM      9  C   UNL     1      39.747  13.670  27.135  1.00  0.00     0.000 C 
BRANCH   9  10
ATOM     10  C   UNL     1      40.534  12.643  27.973  1.00  0.00     0.000 C 
BRANCH  10  11
ATOM     11  C   UNL     1      40.591  11.231  27.364  1.00  0.00     0.000 C 
BRANCH  11  12
ATOM     12  C   UNL     1      39.509  11.000  26.294  1.00  0.00     0.006 C 
BRANCH  12  13
ATOM     13  C   UNL     1      38.356  10.123  26.810  1.00  0.00     0.053 C 
BRANCH  13  14
ATOM     14  C   UNL     1      37.064  10.379  26.091  1.00  0.00     0.041 C 
ATOM     15  O   UNL     1      36.824  11.507  25.583  1.00  0.00    -0.550 OA
ATOM     16  O   UNL     1      36.110   9.371  26.010  1.00  0.00    -0.550 OA
ENDBRANCH  13  14
ENDBRANCH  12  13
ENDBRANCH  11  12
ENDBRANCH  10  11
ENDBRANCH   9  10
ENDBRANCH   8   9
ENDBRANCH   7   8
ENDBRANCH   6   7
ENDBRANCH   5   6
ENDBRANCH   4   5
ENDBRANCH   3   4
ENDBRANCH   2   3
ENDBRANCH   1   2
BRANCH   1  17
ATOM     17  C   UNL     1      42.018  13.004  22.659  1.00  0.00     0.000 C 
BRANCH  17  18
ATOM     18  C   UNL     1      41.268  14.294  22.290  1.00  0.00     0.000 C 
BRANCH  18  19
ATOM     19  C   UNL     1      42.165  15.540  22.386  1.00  0.00     0.000 C 
BRANCH  19  20
ATOM     20  C   UNL     1      42.245  16.311  21.058  1.00  0.00     0.000 C 
BRANCH  20  21
ATOM     21  C   UNL     1      43.681  16.399  20.512  1.00  0.00     0.000 C 
BRANCH  21  22
ATOM     22  C   UNL     1      44.695  16.804  21.594  1.00  0.00    -0.000 C 
BRANCH  22  23
ATOM     23  C   UNL     1      46.011  16.012  21.492  1.00  0.00    -0.000 C 
BRANCH  23  24
ATOM     24  C   UNL     1      45.990  14.735  22.347  1.00  0.00    -0.000 C 
BRANCH  24  25
ATOM     25  C   UNL     1      46.013  13.455  21.496  1.00  0.00    -0.000 C 
BRANCH  25  26
ATOM     26  C   UNL     1      45.689  12.189  22.307  1.00  0.00    -0.000 C 
BRANCH  26  27
ATOM     27  C   UNL     1      45.482  10.933  21.435  1.00  0.00    -0.000 C 
BRANCH  27  28
ATOM     28  C   UNL     1      44.708   9.829  22.175  1.00  0.00    -0.000 C 
BRANCH  28  29
ATOM     29  C   UNL     1      44.978   8.457  21.551  1.00  0.00    -0.003 C 
ATOM     30  C   UNL     1      43.677   7.701  21.297  1.00  0.00     0.004 C 
ENDBRANCH  28  29
ENDBRANCH  27  28
ENDBRANCH  26  27
ENDBRANCH  25  26
ENDBRANCH  24  25
ENDBRANCH  23  24
ENDBRANCH  22  23
ENDBRANCH  21  22
ENDBRANCH  20  21
ENDBRANCH  19  20
ENDBRANCH  18  19
ENDBRANCH  17  18
ENDBRANCH   1  17
TORSDOF 26
ENDMDL
MODEL 4
REMARK VINA RESULT:    -3.854      2.780      4.973
REMARK INTER + INTRA:         -15.032
REMARK INTER:                 -10.705
REMARK INTRA:                  -4.327
REMARK UNBOUND:                -5.319
REMARK SMILES CCCCCCCCCCCCCCCCCCCCCCCCCCCC(=O)[O-]
REMARK SMILES IDX 15 1 16 2 17 3 18 4 19 5 20 6 21 7 22 8 23 9 24 10 25 11
REMARK SMILES IDX 26 12 27 13 28 14 29 15 30 16 14 17 13 18 12 19 11 20 10 21
REMARK SMILES IDX 9 22 8 23 7 24 6 25 5 26 4 27 3 28 2 29 1 30
REMARK H PARENT
REMARK Flexibility Score: inf
ROOT
ATOM      1  C   UNL     1      41.632  15.946  21.375  1.00  0.00     0.000 C 
ENDROOT
BRANCH   1   2
ATOM      2  C   UNL     1      42.029  15.296  22.712  1.00  0.00     0.000 C 
BRANCH   2   3
ATOM      3  C   UNL     1      41.440  13.892  22.957  1.00  0.00     0.000 C 
BRANCH   3   4
ATOM      4  C   UNL     1      41.237  13.519  24.436  1.00  0.00     0.000 C 
BRANCH   4   5
ATOM      5  C   UNL     1      41.355  12.008  24.687  1.00  0.00     0.000 C 
BRANCH   5   6
ATOM      6  C   UNL     1      42.434  11.699  25.733  1.00  0.00     0.000 C 
BRANCH   6   7
ATOM      7  C   UNL     1      42.702  12.881  26.681  1.00  0.00     0.000 C 
BRANCH   7   8
ATOM      8  C   UNL     1      42.062  12.720  28.076  1.00  0.00     0.000 C 
BRANCH   8   9
ATOM      9  C   UNL     1      40.598  13.213  28.146  1.00  0.00     0.000 C 
BRANCH   9  10
ATOM     10  C   UNL     1      39.559  12.097  27.918  1.00  0.00     0.000 C 
BRANCH  10  11
ATOM     11  C   UNL     1      38.281  12.553  27.190  1.00  0.00     0.000 C 
BRANCH  11  12
ATOM     12  C   UNL     1      37.758  11.501  26.195  1.00  0.00     0.006 C 
BRANCH  12  13
ATOM     13  C   UNL     1      36.818  10.484  26.861  1.00  0.00     0.053 C 
BRANCH  13  14
ATOM     14  C   UNL     1      37.190   9.062  26.560  1.00  0.00     0.041 C 
ATOM     15  O   UNL     1      38.341   8.628  26.834  1.00  0.00    -0.550 OA
ATOM     16  O   UNL     1      36.267   8.224  25.945  1.00  0.00    -0.550 OA
ENDBRANCH  13  14
ENDBRANCH  12  13
ENDBRANCH  11  12
ENDBRANCH  10  11
ENDBRANCH   9  10
ENDBRANCH   8   9
ENDBRANCH   7   8
ENDBRANCH   6   7
ENDBRANCH   5   6
ENDBRANCH   4   5
ENDBRANCH   3   4
ENDBRANCH   2   3
ENDBRANCH   1   2
BRANCH   1  17
ATOM     17  C   UNL     1      42.773  16.773  20.757  1.00  0.00     0.000 C 
BRANCH  17  18
ATOM     18  C   UNL     1      44.139  16.079  20.879  1.00  0.00     0.000 C 
BRANCH  18  19
ATOM     19  C   UNL     1      45.204  16.991  21.511  1.00  0.00     0.000 C 
BRANCH  19  20
ATOM     20  C   UNL     1      45.496  16.627  22.976  1.00  0.00     0.000 C 
BRANCH  20  21
ATOM     21  C   UNL     1      46.088  15.215  23.127  1.00  0.00     0.000 C 
BRANCH  21  22
ATOM     22  C   UNL     1      45.329  14.370  24.164  1.00  0.00    -0.000 C 
BRANCH  22  23
ATOM     23  C   UNL     1      45.179  12.901  23.729  1.00  0.00    -0.000 C 
BRANCH  23  24
ATOM     24  C   UNL     1      44.833  12.769  22.237  1.00  0.00    -0.000 C 
BRANCH  24  25
ATOM     25  C   UNL     1      44.347  11.358  21.868  1.00  0.00    -0.000 C 
BRANCH  25  26
ATOM     26  C   UNL     1      45.498  10.403  21.509  1.00  0.00    -0.000 C 
BRANCH  26  27
ATOM     27  C   UNL     1      45.293   8.965  22.032  1.00  0.00    -0.000 C 
BRANCH  27  28
ATOM     28  C   UNL     1      44.021   8.830  22.886  1.00  0.00    -0.000 C 
BRANCH  28  29
ATOM     29  C   UNL     1      44.366   8.772  24.377  1.00  0.00    -0.003 C 
ATOM     30  C   UNL     1      45.766   8.207  24.598  1.00  0.00     0.004 C 
ENDBRANCH  28  29
ENDBRANCH  27  28
ENDBRANCH  26  27
ENDBRANCH  25  26
ENDBRANCH  24  25
ENDBRANCH  23  24
ENDBRANCH  22  23
ENDBRANCH  21  22
ENDBRANCH  20  21
ENDBRANCH  19  20
ENDBRANCH  18  19
ENDBRANCH  17  18
ENDBRANCH   1  17
TORSDOF 26
ENDMDL
MODEL 5
REMARK VINA RESULT:    -3.847      1.189      2.359
REMARK INTER + INTRA:         -15.013
REMARK INTER:                  -9.702
REMARK INTRA:                  -5.311
REMARK UNBOUND:                -5.319
REMARK SMILES CCCCCCCCCCCCCCCCCCCCCCCCCCCC(=O)[O-]
REMARK SMILES IDX 15 1 16 2 17 3 18 4 19 5 20 6 21 7 22 8 23 9 24 10 25 11
REMARK SMILES IDX 26 12 27 13 28 14 29 15 30 16 14 17 13 18 12 19 11 20 10 21
REMARK SMILES IDX 9 22 8 23 7 24 6 25 5 26 4 27 3 28 2 29 1 30
REMARK H PARENT
REMARK Flexibility Score: inf
ROOT
ATOM      1  C   UNL     1      41.539  13.175  23.421  1.00  0.00     0.000 C 
ENDROOT
BRANCH   1   2
ATOM      2  C   UNL     1      41.236  14.205  22.318  1.00  0.00     0.000 C 
BRANCH   2   3
ATOM      3  C   UNL     1      41.970  15.553  22.461  1.00  0.00     0.000 C 
BRANCH   3   4
ATOM      4  C   UNL     1      41.943  16.447  21.209  1.00  0.00     0.000 C 
BRANCH   4   5
ATOM      5  C   UNL     1      43.290  16.475  20.472  1.00  0.00     0.000 C 
BRANCH   5   6
ATOM      6  C   UNL     1      44.420  15.925  21.352  1.00  0.00     0.000 C 
BRANCH   6   7
ATOM      7  C   UNL     1      45.504  16.974  21.656  1.00  0.00     0.000 C 
BRANCH   7   8
ATOM      8  C   UNL     1      46.118  16.845  23.066  1.00  0.00     0.000 C 
BRANCH   8   9
ATOM      9  C   UNL     1      45.130  16.307  24.126  1.00  0.00     0.000 C 
BRANCH   9  10
ATOM     10  C   UNL     1      45.607  15.013  24.814  1.00  0.00     0.000 C 
BRANCH  10  11
ATOM     11  C   UNL     1      44.700  14.526  25.958  1.00  0.00     0.000 C 
BRANCH  11  12
ATOM     12  C   UNL     1      43.516  15.474  26.223  1.00  0.00     0.006 C 
BRANCH  12  13
ATOM     13  C   UNL     1      42.502  14.879  27.214  1.00  0.00     0.053 C 
BRANCH  13  14
ATOM     14  C   UNL     1      41.092  15.302  26.929  1.00  0.00     0.041 C 
ATOM     15  O   UNL     1      40.190  15.161  27.798  1.00  0.00    -0.550 OA
ATOM     16  O   UNL     1      40.769  15.829  25.683  1.00  0.00    -0.550 OA
ENDBRANCH  13  14
ENDBRANCH  12  13
ENDBRANCH  11  12
ENDBRANCH  10  11
ENDBRANCH   9  10
ENDBRANCH   8   9
ENDBRANCH   7   8
ENDBRANCH   6   7
ENDBRANCH   5   6
ENDBRANCH   4   5
ENDBRANCH   3   4
ENDBRANCH   2   3
ENDBRANCH   1   2
BRANCH   1  17
ATOM     17  C   UNL     1      43.033  12.812  23.498  1.00  0.00     0.000 C 
BRANCH  17  18
ATOM     18  C   UNL     1      43.497  11.962  22.304  1.00  0.00     0.000 C 
BRANCH  18  19
ATOM     19  C   UNL     1      44.937  12.292  21.877  1.00  0.00     0.000 C 
BRANCH  19  20
ATOM     20  C   UNL     1      45.724  11.042  21.448  1.00  0.00     0.000 C 
BRANCH  20  21
ATOM     21  C   UNL     1      44.834   9.791  21.345  1.00  0.00     0.000 C 
BRANCH  21  22
ATOM     22  C   UNL     1      45.282   8.674  22.302  1.00  0.00    -0.000 C 
BRANCH  22  23
ATOM     23  C   UNL     1      44.600   8.769  23.678  1.00  0.00    -0.000 C 
BRANCH  23  24
ATOM     24  C   UNL     1      45.589   9.148  24.793  1.00  0.00    -0.000 C 
BRANCH  24  25
ATOM     25  C   UNL     1      45.550  10.647  25.131  1.00  0.00    -0.000 C 
BRANCH  25  26
ATOM     26  C   UNL     1      45.454  10.918  26.642  1.00  0.00    -0.000 C 
BRANCH  26  27
ATOM     27  C   UNL     1      44.135  10.426  27.275  1.00  0.00    -0.000 C 
BRANCH  27  28
ATOM     28  C   UNL     1      42.912  11.196  26.750  1.00  0.00    -0.000 C 
BRANCH  28  29
ATOM     29  C   UNL     1      41.927  10.252  26.056  1.00  0.00    -0.003 C 
ATOM     30  C   UNL     1      40.511  10.822  26.072  1.00  0.00     0.004 C 
ENDBRANCH  28  29
ENDBRANCH  27  28
ENDBRANCH  26  27
ENDBRANCH  25  26
ENDBRANCH  24  25
ENDBRANCH  23  24
ENDBRANCH  22  23
ENDBRANCH  21  22
ENDBRANCH  20  21
ENDBRANCH  19  20
ENDBRANCH  18  19
ENDBRANCH  17  18
ENDBRANCH   1  17
TORSDOF 26
ENDMDL
MODEL 6
REMARK VINA RESULT:    -3.736      1.869      6.059
REMARK INTER + INTRA:         -14.733
REMARK INTER:                 -10.154
REMARK INTRA:                  -4.579
REMARK UNBOUND:                -5.319
REMARK SMILES CCCCCCCCCCCCCCCCCCCCCCCCCCCC(=O)[O-]
REMARK SMILES IDX 15 1 16 2 17 3 18 4 19 5 20 6 21 7 22 8 23 9 24 10 25 11
REMARK SMILES IDX 26 12 27 13 28 14 29 15 30 16 14 17 13 18 12 19 11 20 10 21
REMARK SMILES IDX 9 22 8 23 7 24 6 25 5 26 4 27 3 28 2 29 1 30
REMARK H PARENT
REMARK Flexibility Score: inf
ROOT
ATOM      1  C   UNL     1      44.602  12.173  22.368  1.00  0.00     0.000 C 
ENDROOT
BRANCH   1   2
ATOM      2  C   UNL     1      43.871  10.899  21.910  1.00  0.00     0.000 C 
BRANCH   2   3
ATOM      3  C   UNL     1      44.775   9.812  21.295  1.00  0.00     0.000 C 
BRANCH   3   4
ATOM      4  C   UNL     1      45.922   9.328  22.200  1.00  0.00     0.000 C 
BRANCH   4   5
ATOM      5  C   UNL     1      45.749   7.868  22.645  1.00  0.00     0.000 C 
BRANCH   5   6
ATOM      6  C   UNL     1      45.752   7.748  24.175  1.00  0.00     0.000 C 
BRANCH   6   7
ATOM      7  C   UNL     1      45.358   9.059  24.877  1.00  0.00     0.000 C 
BRANCH   7   8
ATOM      8  C   UNL     1      43.972   9.011  25.555  1.00  0.00     0.000 C 
BRANCH   8   9
ATOM      9  C   UNL     1      43.203  10.351  25.486  1.00  0.00     0.000 C 
BRANCH   9  10
ATOM     10  C   UNL     1      42.150  10.517  26.599  1.00  0.00     0.000 C 
BRANCH  10  11
ATOM     11  C   UNL     1      40.692  10.502  26.108  1.00  0.00     0.000 C 
BRANCH  11  12
ATOM     12  C   UNL     1      40.040  11.896  26.139  1.00  0.00     0.006 C 
BRANCH  12  13
ATOM     13  C   UNL     1      38.591  11.875  25.626  1.00  0.00     0.053 C 
BRANCH  13  14
ATOM     14  C   UNL     1      37.601  11.510  26.692  1.00  0.00     0.041 C 
ATOM     15  O   UNL     1      36.806  12.373  27.154  1.00  0.00    -0.550 OA
ATOM     16  O   UNL     1      37.579  10.215  27.197  1.00  0.00    -0.550 OA
ENDBRANCH  13  14
ENDBRANCH  12  13
ENDBRANCH  11  12
ENDBRANCH  10  11
ENDBRANCH   9  10
ENDBRANCH   8   9
ENDBRANCH   7   8
ENDBRANCH   6   7
ENDBRANCH   5   6
ENDBRANCH   4   5
ENDBRANCH   3   4
ENDBRANCH   2   3
ENDBRANCH   1   2
BRANCH   1  17
ATOM     17  C   UNL     1      43.687  13.131  23.152  1.00  0.00     0.000 C 
BRANCH  17  18
ATOM     18  C   UNL     1      42.196  12.805  22.970  1.00  0.00     0.000 C 
BRANCH  18  19
ATOM     19  C   UNL     1      41.301  14.046  23.133  1.00  0.00     0.000 C 
BRANCH  19  20
ATOM     20  C   UNL     1      42.049  15.353  22.827  1.00  0.00     0.000 C 
BRANCH  20  21
ATOM     21  C   UNL     1      41.625  15.977  21.486  1.00  0.00     0.000 C 
BRANCH  21  22
ATOM     22  C   UNL     1      42.770  16.750  20.811  1.00  0.00    -0.000 C 
BRANCH  22  23
ATOM     23  C   UNL     1      44.120  16.022  20.930  1.00  0.00    -0.000 C 
BRANCH  23  24
ATOM     24  C   UNL     1      45.170  16.861  21.677  1.00  0.00    -0.000 C 
BRANCH  24  25
ATOM     25  C   UNL     1      45.718  16.147  22.922  1.00  0.00    -0.000 C 
BRANCH  25  26
ATOM     26  C   UNL     1      45.361  16.867  24.233  1.00  0.00    -0.000 C 
BRANCH  26  27
ATOM     27  C   UNL     1      44.853  15.919  25.340  1.00  0.00    -0.000 C 
BRANCH  27  28
ATOM     28  C   UNL     1      43.507  16.375  25.927  1.00  0.00    -0.000 C 
BRANCH  28  29
ATOM     29  C   UNL     1      42.831  15.237  26.697  1.00  0.00    -0.003 C 
ATOM     30  C   UNL     1      43.656  13.955  26.623  1.00  0.00     0.004 C 
ENDBRANCH  28  29
ENDBRANCH  27  28
ENDBRANCH  26  27
ENDBRANCH  25  26
ENDBRANCH  24  25
ENDBRANCH  23  24
ENDBRANCH  22  23
ENDBRANCH  21  22
ENDBRANCH  20  21
ENDBRANCH  19  20
ENDBRANCH  18  19
ENDBRANCH  17  18
ENDBRANCH   1  17
TORSDOF 26
ENDMDL
MODEL 7
REMARK VINA RESULT:    -3.736      1.552      4.659
REMARK INTER + INTRA:         -14.733
REMARK INTER:                  -9.806
REMARK INTRA:                  -4.927
REMARK UNBOUND:                -5.319
REMARK SMILES CCCCCCCCCCCCCCCCCCCCCCCCCCCC(=O)[O-]
REMARK SMILES IDX 15 1 16 2 17 3 18 4 19 5 20 6 21 7 22 8 23 9 24 10 25 11
REMARK SMILES IDX 26 12 27 13 28 14 29 15 30 16 14 17 13 18 12 19 11 20 10 21
REMARK SMILES IDX 9 22 8 23 7 24 6 25 5 26 4 27 3 28 2 29 1 30
REMARK H PARENT
REMARK Flexibility Score: inf
ROOT
ATOM      1  C   UNL     1      45.014  12.155  21.837  1.00  0.00     0.000 C 
ENDROOT
BRANCH   1   2
ATOM      2  C   UNL     1      45.200  12.790  23.227  1.00  0.00     0.000 C 
BRANCH   2   3
ATOM      3  C   UNL     1      43.968  13.539  23.773  1.00  0.00     0.000 C 
BRANCH   3   4
ATOM      4  C   UNL     1      42.840  13.772  22.753  1.00  0.00     0.000 C 
BRANCH   4   5
ATOM      5  C   UNL     1      42.231  15.178  22.853  1.00  0.00     0.000 C 
BRANCH   5   6
ATOM      6  C   UNL     1      41.972  15.775  21.464  1.00  0.00     0.000 C 
BRANCH   6   7
ATOM      7  C   UNL     1      43.062  16.771  21.031  1.00  0.00     0.000 C 
BRANCH   7   8
ATOM      8  C   UNL     1      44.302  16.103  20.400  1.00  0.00     0.000 C 
BRANCH   8   9
ATOM      9  C   UNL     1      45.551  16.130  21.311  1.00  0.00     0.000 C 
BRANCH   9  10
ATOM     10  C   UNL     1      45.434  17.116  22.490  1.00  0.00     0.000 C 
BRANCH  10  11
ATOM     11  C   UNL     1      45.858  16.537  23.852  1.00  0.00     0.000 C 
BRANCH  11  12
ATOM     12  C   UNL     1      45.282  17.329  25.040  1.00  0.00     0.006 C 
BRANCH  12  13
ATOM     13  C   UNL     1      44.071  16.628  25.676  1.00  0.00     0.053 C 
BRANCH  13  14
ATOM     14  C   UNL     1      44.419  15.899  26.941  1.00  0.00     0.041 C 
ATOM     15  O   UNL     1      45.226  14.931  26.923  1.00  0.00    -0.550 OA
ATOM     16  O   UNL     1      43.823  16.276  28.139  1.00  0.00    -0.550 OA
ENDBRANCH  13  14
ENDBRANCH  12  13
ENDBRANCH  11  12
ENDBRANCH  10  11
ENDBRANCH   9  10
ENDBRANCH   8   9
ENDBRANCH   7   8
ENDBRANCH   6   7
ENDBRANCH   5   6
ENDBRANCH   4   5
ENDBRANCH   3   4
ENDBRANCH   2   3
ENDBRANCH   1   2
BRANCH   1  17
ATOM     17  C   UNL     1      45.761  10.818  21.693  1.00  0.00     0.000 C 
BRANCH  17  18
ATOM     18  C   UNL     1      44.941   9.761  20.935  1.00  0.00     0.000 C 
BRANCH  18  19
ATOM     19  C   UNL     1      44.914   8.407  21.666  1.00  0.00     0.000 C 
BRANCH  19  20
ATOM     20  C   UNL     1      45.991   8.307  22.758  1.00  0.00     0.000 C 
BRANCH  20  21
ATOM     21  C   UNL     1      45.394   8.277  24.176  1.00  0.00     0.000 C 
BRANCH  21  22
ATOM     22  C   UNL     1      43.874   8.504  24.176  1.00  0.00    -0.000 C 
BRANCH  22  23
ATOM     23  C   UNL     1      43.493   9.942  24.571  1.00  0.00    -0.000 C 
BRANCH  23  24
ATOM     24  C   UNL     1      42.881  10.016  25.979  1.00  0.00    -0.000 C 
BRANCH  24  25
ATOM     25  C   UNL     1      42.209  11.370  26.260  1.00  0.00    -0.000 C 
BRANCH  25  26
ATOM     26  C   UNL     1      40.858  11.528  25.542  1.00  0.00    -0.000 C 
BRANCH  26  27
ATOM     27  C   UNL     1      40.447  12.999  25.317  1.00  0.00    -0.000 C 
BRANCH  27  28
ATOM     28  C   UNL     1      41.210  13.966  26.237  1.00  0.00    -0.000 C 
BRANCH  28  29
ATOM     29  C   UNL     1      40.242  14.802  27.079  1.00  0.00    -0.003 C 
ATOM     30  C   UNL     1      39.432  13.920  28.026  1.00  0.00     0.004 C 
ENDBRANCH  28  29
ENDBRANCH  27  28
ENDBRANCH  26  27
ENDBRANCH  25  26
ENDBRANCH  24  25
ENDBRANCH  23  24
ENDBRANCH  22  23
ENDBRANCH  21  22
ENDBRANCH  20  21
ENDBRANCH  19  20
ENDBRANCH  18  19
ENDBRANCH  17  18
ENDBRANCH   1  17
TORSDOF 26
ENDMDL
MODEL 8
REMARK VINA RESULT:    -3.734      1.458      4.437
REMARK INTER + INTRA:         -14.729
REMARK INTER:                  -9.304
REMARK INTRA:                  -5.425
REMARK UNBOUND:                -5.319
REMARK SMILES CCCCCCCCCCCCCCCCCCCCCCCCCCCC(=O)[O-]
REMARK SMILES IDX 15 1 16 2 17 3 18 4 19 5 20 6 21 7 22 8 23 9 24 10 25 11
REMARK SMILES IDX 26 12 27 13 28 14 29 15 30 16 14 17 13 18 12 19 11 20 10 21
REMARK SMILES IDX 9 22 8 23 7 24 6 25 5 26 4 27 3 28 2 29 1 30
REMARK H PARENT
REMARK Flexibility Score: inf
ROOT
ATOM      1  C   UNL     1      42.084  12.077  24.318  1.00  0.00     0.000 C 
ENDROOT
BRANCH   1   2
ATOM      2  C   UNL     1      41.744  11.327  25.618  1.00  0.00     0.000 C 
BRANCH   2   3
ATOM      3  C   UNL     1      42.841  11.366  26.701  1.00  0.00     0.000 C 
BRANCH   3   4
ATOM      4  C   UNL     1      43.531  12.729  26.882  1.00  0.00     0.000 C 
BRANCH   4   5
ATOM      5  C   UNL     1      45.004  12.710  26.447  1.00  0.00     0.000 C 
BRANCH   5   6
ATOM      6  C   UNL     1      45.512  14.123  26.133  1.00  0.00     0.000 C 
BRANCH   6   7
ATOM      7  C   UNL     1      44.723  14.802  25.000  1.00  0.00     0.000 C 
BRANCH   7   8
ATOM      8  C   UNL     1      44.183  16.201  25.366  1.00  0.00     0.000 C 
BRANCH   8   9
ATOM      9  C   UNL     1      42.773  16.174  25.998  1.00  0.00     0.000 C 
BRANCH   9  10
ATOM     10  C   UNL     1      42.783  16.259  27.537  1.00  0.00     0.000 C 
BRANCH  10  11
ATOM     11  C   UNL     1      41.561  15.622  28.221  1.00  0.00     0.000 C 
BRANCH  11  12
ATOM     12  C   UNL     1      40.441  15.266  27.226  1.00  0.00     0.006 C 
BRANCH  12  13
ATOM     13  C   UNL     1      39.818  13.891  27.516  1.00  0.00     0.053 C 
BRANCH  13  14
ATOM     14  C   UNL     1      38.585  13.978  28.367  1.00  0.00     0.041 C 
ATOM     15  O   UNL     1      38.317  13.074  29.203  1.00  0.00    -0.550 OA
ATOM     16  O   UNL     1      37.715  15.051  28.210  1.00  0.00    -0.550 OA
ENDBRANCH  13  14
ENDBRANCH  12  13
ENDBRANCH  11  12
ENDBRANCH  10  11
ENDBRANCH   9  10
ENDBRANCH   8   9
ENDBRANCH   7   8
ENDBRANCH   6   7
ENDBRANCH   5   6
ENDBRANCH   4   5
ENDBRANCH   3   4
ENDBRANCH   2   3
ENDBRANCH   1   2
BRANCH   1  17
ATOM     17  C   UNL     1      41.193  13.312  24.097  1.00  0.00     0.000 C 
BRANCH  17  18
ATOM     18  C   UNL     1      41.263  13.842  22.656  1.00  0.00     0.000 C 
BRANCH  18  19
ATOM     19  C   UNL     1      41.990  15.195  22.564  1.00  0.00     0.000 C 
BRANCH  19  20
ATOM     20  C   UNL     1      41.712  15.922  21.239  1.00  0.00     0.000 C 
BRANCH  20  21
ATOM     21  C   UNL     1      42.915  16.753  20.758  1.00  0.00     0.000 C 
BRANCH  21  22
ATOM     22  C   UNL     1      44.189  16.463  21.567  1.00  0.00    -0.000 C 
BRANCH  22  23
ATOM     23  C   UNL     1      45.270  15.758  20.729  1.00  0.00    -0.000 C 
BRANCH  23  24
ATOM     24  C   UNL     1      46.121  14.793  21.571  1.00  0.00    -0.000 C 
BRANCH  24  25
ATOM     25  C   UNL     1      45.879  13.320  21.203  1.00  0.00    -0.000 C 
BRANCH  25  26
ATOM     26  C   UNL     1      44.952  12.598  22.195  1.00  0.00    -0.000 C 
BRANCH  26  27
ATOM     27  C   UNL     1      45.688  11.605  23.119  1.00  0.00    -0.000 C 
BRANCH  27  28
ATOM     28  C   UNL     1      45.022  10.220  23.137  1.00  0.00    -0.000 C 
BRANCH  28  29
ATOM     29  C   UNL     1      44.173  10.003  21.881  1.00  0.00    -0.003 C 
ATOM     30  C   UNL     1      44.955   9.245  20.811  1.00  0.00     0.004 C 
ENDBRANCH  28  29
ENDBRANCH  27  28
ENDBRANCH  26  27
ENDBRANCH  25  26
ENDBRANCH  24  25
ENDBRANCH  23  24
ENDBRANCH  22  23
ENDBRANCH  21  22
ENDBRANCH  20  21
ENDBRANCH  19  20
ENDBRANCH  18  19
ENDBRANCH  17  18
ENDBRANCH   1  17
TORSDOF 26
ENDMDL
MODEL 9
REMARK VINA RESULT:    -3.684      4.718      9.519
REMARK INTER + INTRA:         -14.603
REMARK INTER:                 -10.880
REMARK INTRA:                  -3.723
REMARK UNBOUND:                -5.319
REMARK SMILES CCCCCCCCCCCCCCCCCCCCCCCCCCCC(=O)[O-]
REMARK SMILES IDX 15 1 16 2 17 3 18 4 19 5 20 6 21 7 22 8 23 9 24 10 25 11
REMARK SMILES IDX 26 12 27 13 28 14 29 15 30 16 14 17 13 18 12 19 11 20 10 21
REMARK SMILES IDX 9 22 8 23 7 24 6 25 5 26 4 27 3 28 2 29 1 30
REMARK H PARENT
REMARK Flexibility Score: inf
ROOT
ATOM      1  C   UNL     1      36.398   9.025  26.992  1.00  0.00     0.000 C 
ENDROOT
BRANCH   1   2
ATOM      2  C   UNL     1      36.408  10.293  26.119  1.00  0.00     0.000 C 
BRANCH   2   3
ATOM      3  C   UNL     1      37.643  11.199  26.295  1.00  0.00     0.000 C 
BRANCH   3   4
ATOM      4  C   UNL     1      38.372  11.053  27.642  1.00  0.00     0.000 C 
BRANCH   4   5
ATOM      5  C   UNL     1      39.899  10.994  27.485  1.00  0.00     0.000 C 
BRANCH   5   6
ATOM      6  C   UNL     1      40.305  10.898  26.008  1.00  0.00     0.000 C 
BRANCH   6   7
ATOM      7  C   UNL     1      41.383  11.924  25.618  1.00  0.00     0.000 C 
BRANCH   7   8
ATOM      8  C   UNL     1      40.813  13.247  25.063  1.00  0.00     0.000 C 
BRANCH   8   9
ATOM      9  C   UNL     1      41.239  13.541  23.606  1.00  0.00     0.000 C 
BRANCH   9  10
ATOM     10  C   UNL     1      42.753  13.390  23.363  1.00  0.00     0.000 C 
BRANCH  10  11
ATOM     11  C   UNL     1      43.634  14.324  24.212  1.00  0.00     0.000 C 
BRANCH  11  12
ATOM     12  C   UNL     1      43.945  15.654  23.502  1.00  0.00     0.006 C 
BRANCH  12  13
ATOM     13  C   UNL     1      43.394  15.694  22.068  1.00  0.00     0.053 C 
BRANCH  13  14
ATOM     14  C   UNL     1      44.317  16.386  21.109  1.00  0.00     0.041 C 
ATOM     15  O   UNL     1      44.255  16.148  19.872  1.00  0.00    -0.550 OA
ATOM     16  O   UNL     1      45.270  17.276  21.590  1.00  0.00    -0.550 OA
ENDBRANCH  13  14
ENDBRANCH  12  13
ENDBRANCH  11  12
ENDBRANCH  10  11
ENDBRANCH   9  10
ENDBRANCH   8   9
ENDBRANCH   7   8
ENDBRANCH   6   7
ENDBRANCH   5   6
ENDBRANCH   4   5
ENDBRANCH   3   4
ENDBRANCH   2   3
ENDBRANCH   1   2
BRANCH   1  17
ATOM     17  C   UNL     1      35.104   8.880  27.812  1.00  0.00     0.000 C 
BRANCH  17  18
ATOM     18  C   UNL     1      35.144   9.677  29.126  1.00  0.00     0.000 C 
BRANCH  18  19
ATOM     19  C   UNL     1      33.836  10.443  29.386  1.00  0.00     0.000 C 
BRANCH  19  20
ATOM     20  C   UNL     1      34.083  11.898  29.816  1.00  0.00     0.000 C 
BRANCH  20  21
ATOM     21  C   UNL     1      35.529  12.355  29.554  1.00  0.00     0.000 C 
BRANCH  21  22
ATOM     22  C   UNL     1      35.616  13.416  28.444  1.00  0.00    -0.000 C 
BRANCH  22  23
ATOM     23  C   UNL     1      34.863  14.708  28.806  1.00  0.00    -0.000 C 
BRANCH  23  24
ATOM     24  C   UNL     1      34.817  15.702  27.634  1.00  0.00    -0.000 C 
BRANCH  24  25
ATOM     25  C   UNL     1      35.623  16.981  27.912  1.00  0.00    -0.000 C 
BRANCH  25  26
ATOM     26  C   UNL     1      36.355  16.946  29.264  1.00  0.00    -0.000 C 
BRANCH  26  27
ATOM     27  C   UNL     1      37.892  16.904  29.134  1.00  0.00    -0.000 C 
BRANCH  27  28
ATOM     28  C   UNL     1      38.534  15.897  30.102  1.00  0.00    -0.000 C 
BRANCH  28  29
ATOM     29  C   UNL     1      38.874  14.587  29.385  1.00  0.00    -0.003 C 
ATOM     30  C   UNL     1      39.027  14.805  27.882  1.00  0.00     0.004 C 
ENDBRANCH  28  29
ENDBRANCH  27  28
ENDBRANCH  26  27
ENDBRANCH  25  26
ENDBRANCH  24  25
ENDBRANCH  23  24
ENDBRANCH  22  23
ENDBRANCH  21  22
ENDBRANCH  20  21
ENDBRANCH  19  20
ENDBRANCH  18  19
ENDBRANCH  17  18
ENDBRANCH   1  17
TORSDOF 26
ENDMDL
