MODEL 1
REMARK VINA RESULT:     1.486      0.000      0.000
REMARK INTER + INTRA:           2.590
REMARK INTER:                   2.268
REMARK INTRA:                   0.322
REMARK UNBOUND:                 0.322
REMARK SMILES CCCCCCCCCC=CC(=O)[O-]
REMARK SMILES IDX 7 1 8 2 9 3 10 4 11 5 12 6 13 7 14 8 6 9 5 10 4 11 3 12 2 13
REMARK SMILES IDX 1 14
REMARK H PARENT
REMARK Flexibility Score: inf
ROOT
ATOM      1  C   UNL     1     -19.121  17.453  18.921  1.00  0.00     0.000 C 
ENDROOT
BRANCH   1   2
ATOM      2  C   UNL     1     -18.622  16.260  18.094  1.00  0.00     0.004 C 
BRANCH   2   3
ATOM      3  C   UNL     1     -19.115  16.303  16.640  1.00  0.00     0.027 C 
BRANCH   3   4
ATOM      4  C   UNL     1     -19.022  17.691  16.060  1.00  0.00    -0.025 C 
ATOM      5  C   UNL     1     -18.997  18.019  14.758  1.00  0.00     0.020 C 
BRANCH   5   6
ATOM      6  C   UNL     1     -19.002  17.094  13.606  1.00  0.00     0.064 C 
ATOM      7  O   UNL     1     -18.944  15.856  13.822  1.00  0.00    -0.545 OA
ATOM      8  O   UNL     1     -19.125  17.539  12.297  1.00  0.00    -0.545 OA
ENDBRANCH   5   6
ENDBRANCH   3   4
ENDBRANCH   2   3
ENDBRANCH   1   2
BRANCH   1   9
ATOM      9  C   UNL     1     -18.554  17.469  20.351  1.00  0.00     0.000 C 
BRANCH   9  10
ATOM     10  C   UNL     1     -19.080  18.637  21.212  1.00  0.00     0.000 C 
BRANCH  10  11
ATOM     11  C   UNL     1     -17.946  19.567  21.681  1.00  0.00    -0.000 C 
BRANCH  11  12
ATOM     12  C   UNL     1     -18.460  20.758  22.507  1.00  0.00    -0.000 C 
BRANCH  12  13
ATOM     13  C   UNL     1     -18.826  21.968  21.636  1.00  0.00    -0.003 C 
ATOM     14  C   UNL     1     -18.717  21.629  20.152  1.00  0.00     0.004 C 
ENDBRANCH  12  13
ENDBRANCH  11  12
ENDBRANCH  10  11
ENDBRANCH   9  10
ENDBRANCH   1   9
TORSDOF 9
ENDMDL
MODEL 2
REMARK VINA RESULT:     2.271      1.168      2.038
REMARK INTER + INTRA:           3.788
REMARK INTER:                   3.809
REMARK INTRA:                  -0.021
REMARK UNBOUND:                 0.322
REMARK SMILES CCCCCCCCCC=CC(=O)[O-]
REMARK SMILES IDX 7 1 8 2 9 3 10 4 11 5 12 6 13 7 14 8 6 9 5 10 4 11 3 12 2 13
REMARK SMILES IDX 1 14
REMARK H PARENT
REMARK Flexibility Score: inf
ROOT
ATOM      1  C   UNL     1     -19.124  17.741  18.702  1.00  0.00     0.000 C 
ENDROOT
BRANCH   1   2
ATOM      2  C   UNL     1     -18.962  16.327  18.128  1.00  0.00     0.004 C 
BRANCH   2   3
ATOM      3  C   UNL     1     -19.060  16.298  16.595  1.00  0.00     0.027 C 
BRANCH   3   4
ATOM      4  C   UNL     1     -19.122  17.687  16.013  1.00  0.00    -0.025 C 
ATOM      5  C   UNL     1     -19.110  18.015  14.711  1.00  0.00     0.020 C 
BRANCH   5   6
ATOM      6  C   UNL     1     -18.980  17.097  13.561  1.00  0.00     0.064 C 
ATOM      7  O   UNL     1     -18.789  15.872  13.782  1.00  0.00    -0.545 OA
ATOM      8  O   UNL     1     -19.117  17.525  12.248  1.00  0.00    -0.545 OA
ENDBRANCH   5   6
ENDBRANCH   3   4
ENDBRANCH   2   3
ENDBRANCH   1   2
BRANCH   1   9
ATOM      9  C   UNL     1     -19.038  17.777  20.237  1.00  0.00     0.000 C 
BRANCH   9  10
ATOM     10  C   UNL     1     -18.881  19.199  20.815  1.00  0.00     0.000 C 
BRANCH  10  11
ATOM     11  C   UNL     1     -18.339  19.184  22.256  1.00  0.00    -0.000 C 
BRANCH  11  12
ATOM     12  C   UNL     1     -16.930  19.789  22.366  1.00  0.00    -0.000 C 
BRANCH  12  13
ATOM     13  C   UNL     1     -15.822  18.740  22.192  1.00  0.00    -0.003 C 
ATOM     14  C   UNL     1     -15.915  17.660  23.266  1.00  0.00     0.004 C 
ENDBRANCH  12  13
ENDBRANCH  11  12
ENDBRANCH  10  11
ENDBRANCH   9  10
ENDBRANCH   1   9
TORSDOF 9
ENDMDL
