MODEL 1
REMARK VINA RESULT:    -4.902      0.000      0.000
REMARK INTER + INTRA:          -5.332
REMARK INTER:                  -5.332
REMARK INTRA:                   0.000
REMARK UNBOUND:                 0.000
REMARK SMILES Oc1cccc(O)c1O
REMARK SMILES IDX 4 1 5 2 6 3 8 4 2 5 3 6 7 7 1 9 9 11
REMARK H PARENT 7 8 1 10 9 12
REMARK Flexibility Score: inf
ROOT
ATOM      1  C   UNL     1       1.515  44.533  -0.775  1.00  0.00     0.008 A 
ATOM      2  C   UNL     1       0.387  44.663  -1.585  1.00  0.00     0.050 A 
ATOM      3  C   UNL     1       0.510  44.595  -2.979  1.00  0.00     0.161 A 
ATOM      4  C   UNL     1       1.768  44.396  -3.569  1.00  0.00     0.200 A 
ATOM      5  C   UNL     1       2.913  44.265  -2.744  1.00  0.00     0.161 A 
ATOM      6  C   UNL     1       2.771  44.336  -1.353  1.00  0.00     0.050 A 
ENDROOT
BRANCH   3   7
ATOM      7  O   UNL     1      -0.618  44.724  -3.789  1.00  0.00    -0.504 OA
ATOM      8  H   UNL     1      -0.955  43.954  -4.356  1.00  0.00     0.293 HD
ENDBRANCH   3   7
BRANCH   5   9
ATOM      9  O   UNL     1       4.196  44.067  -3.258  1.00  0.00    -0.504 OA
ATOM     10  H   UNL     1       4.894  44.792  -3.330  1.00  0.00     0.293 HD
ENDBRANCH   5   9
BRANCH   4  11
ATOM     11  O   UNL     1       1.837  44.335  -4.963  1.00  0.00    -0.502 OA
ATOM     12  H   UNL     1       2.633  43.984  -5.475  1.00  0.00     0.293 HD
ENDBRANCH   4  11
TORSDOF 3
ENDMDL
MODEL 2
REMARK VINA RESULT:    -4.900      1.694      2.662
REMARK INTER + INTRA:          -5.329
REMARK INTER:                  -5.329
REMARK INTRA:                   0.000
REMARK UNBOUND:                 0.000
REMARK SMILES Oc1cccc(O)c1O
REMARK SMILES IDX 4 1 5 2 6 3 8 4 2 5 3 6 7 7 1 9 9 11
REMARK H PARENT 7 8 1 10 9 12
REMARK Flexibility Score: inf
ROOT
ATOM      1  C   UNL     1       1.205  44.447  -0.317  1.00  0.00     0.008 A 
ATOM      2  C   UNL     1      -0.123  44.718   0.011  1.00  0.00     0.050 A 
ATOM      3  C   UNL     1      -1.027  45.117  -0.982  1.00  0.00     0.161 A 
ATOM      4  C   UNL     1      -0.601  45.247  -2.314  1.00  0.00     0.200 A 
ATOM      5  C   UNL     1       0.749  44.971  -2.644  1.00  0.00     0.161 A 
ATOM      6  C   UNL     1       1.638  44.573  -1.638  1.00  0.00     0.050 A 
ENDROOT
BRANCH   3   7
ATOM      7  O   UNL     1      -2.355  45.386  -0.654  1.00  0.00    -0.504 OA
ATOM      8  H   UNL     1      -3.110  45.200  -1.304  1.00  0.00     0.293 HD
ENDBRANCH   3   7
BRANCH   5   9
ATOM      9  O   UNL     1       1.245  45.079  -3.945  1.00  0.00    -0.504 OA
ATOM     10  H   UNL     1       2.126  45.515  -4.180  1.00  0.00     0.293 HD
ENDBRANCH   5   9
BRANCH   4  11
ATOM     11  O   UNL     1      -1.541  45.647  -3.266  1.00  0.00    -0.502 OA
ATOM     12  H   UNL     1      -1.845  46.601  -3.394  1.00  0.00     0.293 HD
ENDBRANCH   4  11
TORSDOF 3
ENDMDL
MODEL 3
REMARK VINA RESULT:    -4.878      5.099      6.644
REMARK INTER + INTRA:          -5.306
REMARK INTER:                  -5.306
REMARK INTRA:                   0.000
REMARK UNBOUND:                 0.000
REMARK SMILES Oc1cccc(O)c1O
REMARK SMILES IDX 4 1 5 2 6 3 8 4 2 5 3 6 7 7 1 9 9 11
REMARK H PARENT 7 8 1 10 9 12
REMARK Flexibility Score: inf
ROOT
ATOM      1  C   UNL     1       8.857  46.173  -3.657  1.00  0.00     0.008 A 
ATOM      2  C   UNL     1       9.035  45.911  -5.015  1.00  0.00     0.050 A 
ATOM      3  C   UNL     1       7.996  45.347  -5.766  1.00  0.00     0.161 A 
ATOM      4  C   UNL     1       6.769  45.041  -5.155  1.00  0.00     0.200 A 
ATOM      5  C   UNL     1       6.591  45.308  -3.775  1.00  0.00     0.161 A 
ATOM      6  C   UNL     1       7.641  45.873  -3.041  1.00  0.00     0.050 A 
ENDROOT
BRANCH   3   7
ATOM      7  O   UNL     1       8.174  45.086  -7.123  1.00  0.00    -0.504 OA
ATOM      8  H   UNL     1       7.505  44.535  -7.650  1.00  0.00     0.293 HD
ENDBRANCH   3   7
BRANCH   5   9
ATOM      9  O   UNL     1       5.400  45.031  -3.100  1.00  0.00    -0.504 OA
ATOM     10  H   UNL     1       5.247  45.225  -2.121  1.00  0.00     0.293 HD
ENDBRANCH   5   9
BRANCH   4  11
ATOM     11  O   UNL     1       5.764  44.480  -5.948  1.00  0.00    -0.502 OA
ATOM     12  H   UNL     1       5.270  43.631  -5.716  1.00  0.00     0.293 HD
ENDBRANCH   4  11
TORSDOF 3
ENDMDL
MODEL 4
REMARK VINA RESULT:    -4.870     12.137     13.211
REMARK INTER + INTRA:          -5.297
REMARK INTER:                  -5.297
REMARK INTRA:                   0.000
REMARK UNBOUND:                 0.000
REMARK SMILES Oc1cccc(O)c1O
REMARK SMILES IDX 4 1 5 2 6 3 8 4 2 5 3 6 7 7 1 9 9 11
REMARK H PARENT 7 8 1 10 9 12
REMARK Flexibility Score: inf
ROOT
ATOM      1  C   UNL     1       1.632  48.644   9.784  1.00  0.00     0.008 A 
ATOM      2  C   UNL     1       1.037  48.177   8.612  1.00  0.00     0.050 A 
ATOM      3  C   UNL     1       0.158  47.087   8.655  1.00  0.00     0.161 A 
ATOM      4  C   UNL     1      -0.128  46.458   9.877  1.00  0.00     0.200 A 
ATOM      5  C   UNL     1       0.478  46.934  11.066  1.00  0.00     0.161 A 
ATOM      6  C   UNL     1       1.354  48.025  11.004  1.00  0.00     0.050 A 
ENDROOT
BRANCH   3   7
ATOM      7  O   UNL     1      -0.438  46.621   7.484  1.00  0.00    -0.504 OA
ATOM      8  H   UNL     1      -0.589  47.229   6.687  1.00  0.00     0.293 HD
ENDBRANCH   3   7
BRANCH   5   9
ATOM      9  O   UNL     1       0.242  46.359  12.316  1.00  0.00    -0.504 OA
ATOM     10  H   UNL     1       0.879  45.723  12.775  1.00  0.00     0.293 HD
ENDBRANCH   5   9
BRANCH   4  11
ATOM     11  O   UNL     1      -1.011  45.375   9.866  1.00  0.00    -0.502 OA
ATOM     12  H   UNL     1      -0.721  44.410   9.805  1.00  0.00     0.293 HD
ENDBRANCH   4  11
TORSDOF 3
ENDMDL
MODEL 5
REMARK VINA RESULT:    -4.852      0.109      2.817
REMARK INTER + INTRA:          -5.278
REMARK INTER:                  -5.278
REMARK INTRA:                   0.000
REMARK UNBOUND:                 0.000
REMARK SMILES Oc1cccc(O)c1O
REMARK SMILES IDX 4 1 5 2 6 3 8 4 2 5 3 6 7 7 1 9 9 11
REMARK H PARENT 7 8 1 10 9 12
REMARK Flexibility Score: inf
ROOT
ATOM      1  C   UNL     1       1.521  44.500  -0.834  1.00  0.00     0.008 A 
ATOM      2  C   UNL     1       2.791  44.357  -1.392  1.00  0.00     0.050 A 
ATOM      3  C   UNL     1       2.950  44.321  -2.783  1.00  0.00     0.161 A 
ATOM      4  C   UNL     1       1.831  44.428  -3.625  1.00  0.00     0.200 A 
ATOM      5  C   UNL     1       0.541  44.574  -3.056  1.00  0.00     0.161 A 
ATOM      6  C   UNL     1       0.402  44.608  -1.663  1.00  0.00     0.050 A 
ENDROOT
BRANCH   3   7
ATOM      7  O   UNL     1       4.220  44.179  -3.340  1.00  0.00    -0.504 OA
ATOM      8  H   UNL     1       5.038  44.595  -2.909  1.00  0.00     0.293 HD
ENDBRANCH   3   7
BRANCH   5   9
ATOM      9  O   UNL     1      -0.616  44.685  -3.829  1.00  0.00    -0.504 OA
ATOM     10  H   UNL     1      -1.503  44.270  -3.582  1.00  0.00     0.293 HD
ENDBRANCH   5   9
BRANCH   4  11
ATOM     11  O   UNL     1       2.043  44.387  -5.005  1.00  0.00    -0.502 OA
ATOM     12  H   UNL     1       1.317  44.206  -5.683  1.00  0.00     0.293 HD
ENDBRANCH   4  11
TORSDOF 3
ENDMDL
MODEL 6
REMARK VINA RESULT:    -4.850      6.451      7.729
REMARK INTER + INTRA:          -5.275
REMARK INTER:                  -5.275
REMARK INTRA:                   0.000
REMARK UNBOUND:                 0.000
REMARK SMILES Oc1cccc(O)c1O
REMARK SMILES IDX 4 1 5 2 6 3 8 4 2 5 3 6 7 7 1 9 9 11
REMARK H PARENT 7 8 1 10 9 12
REMARK Flexibility Score: inf
ROOT
ATOM      1  C   UNL     1       9.914  45.874  -6.343  1.00  0.00     0.008 A 
ATOM      2  C   UNL     1       8.631  45.408  -6.626  1.00  0.00     0.050 A 
ATOM      3  C   UNL     1       7.660  45.363  -5.617  1.00  0.00     0.161 A 
ATOM      4  C   UNL     1       7.973  45.785  -4.315  1.00  0.00     0.200 A 
ATOM      5  C   UNL     1       9.278  46.258  -4.030  1.00  0.00     0.161 A 
ATOM      6  C   UNL     1      10.236  46.296  -5.051  1.00  0.00     0.050 A 
ENDROOT
BRANCH   3   7
ATOM      7  O   UNL     1       6.377  44.898  -5.900  1.00  0.00    -0.504 OA
ATOM      8  H   UNL     1       5.775  44.524  -5.174  1.00  0.00     0.293 HD
ENDBRANCH   3   7
BRANCH   5   9
ATOM      9  O   UNL     1       9.663  46.693  -2.761  1.00  0.00    -0.504 OA
ATOM     10  H   UNL     1       9.032  46.777  -1.976  1.00  0.00     0.293 HD
ENDBRANCH   5   9
BRANCH   4  11
ATOM     11  O   UNL     1       6.970  45.720  -3.345  1.00  0.00    -0.502 OA
ATOM     12  H   UNL     1       6.485  44.872  -3.090  1.00  0.00     0.293 HD
ENDBRANCH   4  11
TORSDOF 3
ENDMDL
MODEL 7
REMARK VINA RESULT:    -4.841      5.162      6.417
REMARK INTER + INTRA:          -5.265
REMARK INTER:                  -5.265
REMARK INTRA:                   0.000
REMARK UNBOUND:                 0.000
REMARK SMILES Oc1cccc(O)c1O
REMARK SMILES IDX 4 1 5 2 6 3 8 4 2 5 3 6 7 7 1 9 9 11
REMARK H PARENT 7 8 1 10 9 12
REMARK Flexibility Score: inf
ROOT
ATOM      1  C   UNL     1       8.924  46.270  -3.657  1.00  0.00     0.008 A 
ATOM      2  C   UNL     1       7.726  45.950  -3.018  1.00  0.00     0.050 A 
ATOM      3  C   UNL     1       6.675  45.371  -3.741  1.00  0.00     0.161 A 
ATOM      4  C   UNL     1       6.821  45.111  -5.113  1.00  0.00     0.200 A 
ATOM      5  C   UNL     1       8.039  45.437  -5.760  1.00  0.00     0.161 A 
ATOM      6  C   UNL     1       9.079  46.015  -5.021  1.00  0.00     0.050 A 
ENDROOT
BRANCH   3   7
ATOM      7  O   UNL     1       5.479  45.051  -3.103  1.00  0.00    -0.504 OA
ATOM      8  H   UNL     1       5.382  45.113  -2.095  1.00  0.00     0.293 HD
ENDBRANCH   3   7
BRANCH   5   9
ATOM      9  O   UNL     1       8.257  45.208  -7.120  1.00  0.00    -0.504 OA
ATOM     10  H   UNL     1       9.166  45.228  -7.558  1.00  0.00     0.293 HD
ENDBRANCH   5   9
BRANCH   4  11
ATOM     11  O   UNL     1       5.744  44.532  -5.789  1.00  0.00    -0.502 OA
ATOM     12  H   UNL     1       5.424  44.827  -6.700  1.00  0.00     0.293 HD
ENDBRANCH   4  11
TORSDOF 3
ENDMDL
MODEL 8
REMARK VINA RESULT:    -4.828      1.705      3.506
REMARK INTER + INTRA:          -5.251
REMARK INTER:                  -5.251
REMARK INTRA:                   0.000
REMARK UNBOUND:                 0.000
REMARK SMILES Oc1cccc(O)c1O
REMARK SMILES IDX 4 1 5 2 6 3 8 4 2 5 3 6 7 7 1 9 9 11
REMARK H PARENT 7 8 1 10 9 12
REMARK Flexibility Score: inf
ROOT
ATOM      1  C   UNL     1       1.182  44.494  -0.390  1.00  0.00     0.008 A 
ATOM      2  C   UNL     1       1.569  44.546  -1.729  1.00  0.00     0.050 A 
ATOM      3  C   UNL     1       0.637  44.885  -2.719  1.00  0.00     0.161 A 
ATOM      4  C   UNL     1      -0.692  45.174  -2.369  1.00  0.00     0.200 A 
ATOM      5  C   UNL     1      -1.082  45.120  -1.008  1.00  0.00     0.161 A 
ATOM      6  C   UNL     1      -0.137  44.779  -0.033  1.00  0.00     0.050 A 
ENDROOT
BRANCH   3   7
ATOM      7  O   UNL     1       1.024  44.938  -4.057  1.00  0.00    -0.504 OA
ATOM      8  H   UNL     1       1.359  45.797  -4.479  1.00  0.00     0.293 HD
ENDBRANCH   3   7
BRANCH   5   9
ATOM      9  O   UNL     1      -2.385  45.393  -0.585  1.00  0.00    -0.504 OA
ATOM     10  H   UNL     1      -3.146  45.619  -1.209  1.00  0.00     0.293 HD
ENDBRANCH   5   9
BRANCH   4  11
ATOM     11  O   UNL     1      -1.582  45.507  -3.393  1.00  0.00    -0.502 OA
ATOM     12  H   UNL     1      -2.340  46.166  -3.291  1.00  0.00     0.293 HD
ENDBRANCH   4  11
TORSDOF 3
ENDMDL
MODEL 9
REMARK VINA RESULT:    -4.812     12.191     13.339
REMARK INTER + INTRA:          -5.234
REMARK INTER:                  -5.234
REMARK INTRA:                   0.000
REMARK UNBOUND:                 0.000
REMARK SMILES Oc1cccc(O)c1O
REMARK SMILES IDX 4 1 5 2 6 3 8 4 2 5 3 6 7 7 1 9 9 11
REMARK H PARENT 7 8 1 10 9 12
REMARK Flexibility Score: inf
ROOT
ATOM      1  C   UNL     1       1.605  48.743   9.791  1.00  0.00     0.008 A 
ATOM      2  C   UNL     1       1.357  48.125  11.017  1.00  0.00     0.050 A 
ATOM      3  C   UNL     1       0.499  47.021  11.089  1.00  0.00     0.161 A 
ATOM      4  C   UNL     1      -0.118  46.529   9.927  1.00  0.00     0.200 A 
ATOM      5  C   UNL     1       0.135  47.158   8.683  1.00  0.00     0.161 A 
ATOM      6  C   UNL     1       0.996  48.261   8.631  1.00  0.00     0.050 A 
ENDROOT
BRANCH   3   7
ATOM      7  O   UNL     1       0.252  46.403  12.314  1.00  0.00    -0.504 OA
ATOM      8  H   UNL     1       0.528  46.833  13.190  1.00  0.00     0.293 HD
ENDBRANCH   3   7
BRANCH   5   9
ATOM      9  O   UNL     1      -0.443  46.726   7.487  1.00  0.00    -0.504 OA
ATOM     10  H   UNL     1      -1.417  46.851   7.253  1.00  0.00     0.293 HD
ENDBRANCH   5   9
BRANCH   4  11
ATOM     11  O   UNL     1      -0.965  45.425  10.052  1.00  0.00    -0.502 OA
ATOM     12  H   UNL     1      -1.704  45.355  10.737  1.00  0.00     0.293 HD
ENDBRANCH   4  11
TORSDOF 3
ENDMDL
