MODEL 1
REMARK VINA RESULT:    -5.893      0.000      0.000
REMARK INTER + INTRA:          -9.477
REMARK INTER:                  -8.132
REMARK INTRA:                  -1.345
REMARK UNBOUND:                -1.345
REMARK SMILES CCCCc1cccc(O)c1CCCC
REMARK SMILES IDX 5 1 11 2 9 3 8 4 7 5 6 6 4 7 3 8 2 9 1 10 12 11 13 12 14 13
REMARK SMILES IDX 15 14 10 15
REMARK H PARENT 10 16
REMARK Flexibility Score: inf
ROOT
ATOM      1  C   UNL     1       8.947   5.207  -2.738  1.00  0.00    -0.041 A 
ATOM      2  C   UNL     1       8.594   6.538  -2.373  1.00  0.00    -0.003 A 
ATOM      3  C   UNL     1       8.340   6.834  -1.015  1.00  0.00     0.119 A 
ATOM      4  C   UNL     1       8.471   5.839  -0.038  1.00  0.00     0.046 A 
ATOM      5  C   UNL     1       8.838   4.546  -0.397  1.00  0.00     0.004 A 
ATOM      6  C   UNL     1       9.070   4.231  -1.733  1.00  0.00     0.004 A 
ENDROOT
BRANCH   1   7
ATOM      7  C   UNL     1       9.216   4.775  -4.169  1.00  0.00     0.036 C 
BRANCH   7   8
ATOM      8  C   UNL     1      10.685   4.379  -4.390  1.00  0.00     0.004 C 
BRANCH   8   9
ATOM      9  C   UNL     1      11.652   5.544  -4.138  1.00  0.00    -0.003 C 
ATOM     10  C   UNL     1      12.537   5.269  -2.925  1.00  0.00     0.004 C 
ENDBRANCH   8   9
ENDBRANCH   7   8
ENDBRANCH   1   7
BRANCH   2  11
ATOM     11  C   UNL     1       8.411   7.636  -3.404  1.00  0.00     0.040 C 
BRANCH  11  12
ATOM     12  C   UNL     1       9.713   8.422  -3.596  1.00  0.00     0.005 C 
BRANCH  12  13
ATOM     13  C   UNL     1       9.852   8.912  -5.041  1.00  0.00    -0.003 C 
ATOM     14  C   UNL     1       9.401   7.843  -6.031  1.00  0.00     0.004 C 
ENDBRANCH  12  13
ENDBRANCH  11  12
ENDBRANCH   2  11
BRANCH   3  15
ATOM     15  O   UNL     1       7.950   8.119  -0.634  1.00  0.00    -0.508 OA
ATOM     16  H   UNL     1       8.498   8.936  -0.878  1.00  0.00     0.293 HD
ENDBRANCH   3  15
TORSDOF 7
ENDMDL
MODEL 2
REMARK VINA RESULT:    -5.748      2.202      3.905
REMARK INTER + INTRA:          -9.277
REMARK INTER:                  -8.402
REMARK INTRA:                  -0.875
REMARK UNBOUND:                -1.345
REMARK SMILES CCCCc1cccc(O)c1CCCC
REMARK SMILES IDX 5 1 11 2 9 3 8 4 7 5 6 6 4 7 3 8 2 9 1 10 12 11 13 12 14 13
REMARK SMILES IDX 15 14 10 15
REMARK H PARENT 10 16
REMARK Flexibility Score: inf
ROOT
ATOM      1  C   UNL     1       8.837   5.614  -2.191  1.00  0.00    -0.041 A 
ATOM      2  C   UNL     1       9.531   4.815  -3.146  1.00  0.00    -0.003 A 
ATOM      3  C   UNL     1      10.199   3.649  -2.710  1.00  0.00     0.119 A 
ATOM      4  C   UNL     1      10.148   3.266  -1.365  1.00  0.00     0.046 A 
ATOM      5  C   UNL     1       9.450   4.036  -0.441  1.00  0.00     0.004 A 
ATOM      6  C   UNL     1       8.804   5.201  -0.847  1.00  0.00     0.004 A 
ENDROOT
BRANCH   1   7
ATOM      7  C   UNL     1       8.107   6.897  -2.546  1.00  0.00     0.036 C 
BRANCH   7   8
ATOM      8  C   UNL     1       8.627   8.102  -1.745  1.00  0.00     0.004 C 
BRANCH   8   9
ATOM      9  C   UNL     1       7.497   8.895  -1.075  1.00  0.00    -0.003 C 
ATOM     10  C   UNL     1       6.352   9.149  -2.051  1.00  0.00     0.004 C 
ENDBRANCH   8   9
ENDBRANCH   7   8
ENDBRANCH   1   7
BRANCH   2  11
ATOM     11  C   UNL     1       9.637   5.213  -4.606  1.00  0.00     0.040 C 
BRANCH  11  12
ATOM     12  C   UNL     1      10.927   6.000  -4.862  1.00  0.00     0.005 C 
BRANCH  12  13
ATOM     13  C   UNL     1      10.733   7.027  -5.982  1.00  0.00    -0.003 C 
ATOM     14  C   UNL     1       9.334   7.634  -5.936  1.00  0.00     0.004 C 
ENDBRANCH  12  13
ENDBRANCH  11  12
ENDBRANCH   2  11
BRANCH   3  15
ATOM     15  O   UNL     1      10.923   2.872  -3.616  1.00  0.00    -0.508 OA
ATOM     16  H   UNL     1      11.748   3.228  -4.084  1.00  0.00     0.293 HD
ENDBRANCH   3  15
TORSDOF 7
ENDMDL
MODEL 3
REMARK VINA RESULT:    -5.627      1.533      2.606
REMARK INTER + INTRA:          -9.110
REMARK INTER:                  -8.021
REMARK INTRA:                  -1.089
REMARK UNBOUND:                -1.345
REMARK SMILES CCCCc1cccc(O)c1CCCC
REMARK SMILES IDX 5 1 11 2 9 3 8 4 7 5 6 6 4 7 3 8 2 9 1 10 12 11 13 12 14 13
REMARK SMILES IDX 15 14 10 15
REMARK H PARENT 10 16
REMARK Flexibility Score: inf
ROOT
ATOM      1  C   UNL     1       9.549   4.619  -3.221  1.00  0.00    -0.041 A 
ATOM      2  C   UNL     1       9.018   5.311  -2.095  1.00  0.00    -0.003 A 
ATOM      3  C   UNL     1       9.160   4.742  -0.809  1.00  0.00     0.119 A 
ATOM      4  C   UNL     1       9.847   3.534  -0.643  1.00  0.00     0.046 A 
ATOM      5  C   UNL     1      10.385   2.873  -1.743  1.00  0.00     0.004 A 
ATOM      6  C   UNL     1      10.234   3.407  -3.020  1.00  0.00     0.004 A 
ENDROOT
BRANCH   1   7
ATOM      7  C   UNL     1       9.431   5.126  -4.647  1.00  0.00     0.036 C 
BRANCH   7   8
ATOM      8  C   UNL     1      10.793   5.523  -5.239  1.00  0.00     0.004 C 
BRANCH   8   9
ATOM      9  C   UNL     1      10.789   6.939  -5.829  1.00  0.00    -0.003 C 
ATOM     10  C   UNL     1       9.380   7.526  -5.836  1.00  0.00     0.004 C 
ENDBRANCH   8   9
ENDBRANCH   7   8
ENDBRANCH   1   7
BRANCH   2  11
ATOM     11  C   UNL     1       8.240   6.605  -2.236  1.00  0.00     0.040 C 
BRANCH  11  12
ATOM     12  C   UNL     1       9.181   7.814  -2.174  1.00  0.00     0.005 C 
BRANCH  12  13
ATOM     13  C   UNL     1       8.415   9.120  -2.406  1.00  0.00    -0.003 C 
ATOM     14  C   UNL     1       6.909   8.902  -2.303  1.00  0.00     0.004 C 
ENDBRANCH  12  13
ENDBRANCH  11  12
ENDBRANCH   2  11
BRANCH   3  15
ATOM     15  O   UNL     1       8.612   5.376   0.307  1.00  0.00    -0.508 OA
ATOM     16  H   UNL     1       7.711   5.840   0.268  1.00  0.00     0.293 HD
ENDBRANCH   3  15
TORSDOF 7
ENDMDL
MODEL 4
REMARK VINA RESULT:    -5.504      1.641      3.476
REMARK INTER + INTRA:          -8.941
REMARK INTER:                  -7.857
REMARK INTRA:                  -1.084
REMARK UNBOUND:                -1.345
REMARK SMILES CCCCc1cccc(O)c1CCCC
REMARK SMILES IDX 5 1 11 2 9 3 8 4 7 5 6 6 4 7 3 8 2 9 1 10 12 11 13 12 14 13
REMARK SMILES IDX 15 14 10 15
REMARK H PARENT 10 16
REMARK Flexibility Score: inf
ROOT
ATOM      1  C   UNL     1       8.514   6.505  -2.314  1.00  0.00    -0.041 A 
ATOM      2  C   UNL     1       8.845   7.193  -3.518  1.00  0.00    -0.003 A 
ATOM      3  C   UNL     1       8.668   8.594  -3.578  1.00  0.00     0.119 A 
ATOM      4  C   UNL     1       8.211   9.298  -2.459  1.00  0.00     0.046 A 
ATOM      5  C   UNL     1       7.910   8.625  -1.279  1.00  0.00     0.004 A 
ATOM      6  C   UNL     1       8.056   7.242  -1.208  1.00  0.00     0.004 A 
ENDROOT
BRANCH   1   7
ATOM      7  C   UNL     1       8.641   5.001  -2.149  1.00  0.00     0.036 C 
BRANCH   7   8
ATOM      8  C   UNL     1       8.919   4.598  -0.692  1.00  0.00     0.004 C 
BRANCH   8   9
ATOM      9  C   UNL     1      10.099   3.625  -0.566  1.00  0.00    -0.003 C 
ATOM     10  C   UNL     1      10.343   2.886  -1.878  1.00  0.00     0.004 C 
ENDBRANCH   8   9
ENDBRANCH   7   8
ENDBRANCH   1   7
BRANCH   2  11
ATOM     11  C   UNL     1       9.314   6.464  -4.762  1.00  0.00     0.040 C 
BRANCH  11  12
ATOM     12  C   UNL     1      10.842   6.515  -4.878  1.00  0.00     0.005 C 
BRANCH  12  13
ATOM     13  C   UNL     1      11.475   5.215  -4.372  1.00  0.00    -0.003 C 
ATOM     14  C   UNL     1      12.347   5.469  -3.146  1.00  0.00     0.004 C 
ENDBRANCH  12  13
ENDBRANCH  11  12
ENDBRANCH   2  11
BRANCH   3  15
ATOM     15  O   UNL     1       8.944   9.288  -4.758  1.00  0.00    -0.508 OA
ATOM     16  H   UNL     1       9.684   9.978  -4.810  1.00  0.00     0.293 HD
ENDBRANCH   3  15
TORSDOF 7
ENDMDL
MODEL 5
REMARK VINA RESULT:    -5.484      1.523      3.717
REMARK INTER + INTRA:          -8.913
REMARK INTER:                  -7.960
REMARK INTRA:                  -0.953
REMARK UNBOUND:                -1.345
REMARK SMILES CCCCc1cccc(O)c1CCCC
REMARK SMILES IDX 5 1 11 2 9 3 8 4 7 5 6 6 4 7 3 8 2 9 1 10 12 11 13 12 14 13
REMARK SMILES IDX 15 14 10 15
REMARK H PARENT 10 16
REMARK Flexibility Score: inf
ROOT
ATOM      1  C   UNL     1       8.951   6.214  -3.437  1.00  0.00    -0.041 A 
ATOM      2  C   UNL     1       8.951   5.124  -2.519  1.00  0.00    -0.003 A 
ATOM      3  C   UNL     1       8.648   5.371  -1.160  1.00  0.00     0.119 A 
ATOM      4  C   UNL     1       8.316   6.662  -0.732  1.00  0.00     0.046 A 
ATOM      5  C   UNL     1       8.295   7.718  -1.637  1.00  0.00     0.004 A 
ATOM      6  C   UNL     1       8.613   7.499  -2.975  1.00  0.00     0.004 A 
ENDROOT
BRANCH   1   7
ATOM      7  C   UNL     1       9.285   6.067  -4.911  1.00  0.00     0.036 C 
BRANCH   7   8
ATOM      8  C   UNL     1      10.602   6.768  -5.281  1.00  0.00     0.004 C 
BRANCH   8   9
ATOM      9  C   UNL     1      10.397   7.922  -6.270  1.00  0.00    -0.003 C 
ATOM     10  C   UNL     1       8.914   8.143  -6.556  1.00  0.00     0.004 C 
ENDBRANCH   8   9
ENDBRANCH   7   8
ENDBRANCH   1   7
BRANCH   2  11
ATOM     11  C   UNL     1       9.335   3.718  -2.935  1.00  0.00     0.040 C 
BRANCH  11  12
ATOM     12  C   UNL     1      10.717   3.347  -2.384  1.00  0.00     0.005 C 
BRANCH  12  13
ATOM     13  C   UNL     1      11.832   3.890  -3.285  1.00  0.00    -0.003 C 
ATOM     14  C   UNL     1      12.522   5.090  -2.644  1.00  0.00     0.004 C 
ENDBRANCH  12  13
ENDBRANCH  11  12
ENDBRANCH   2  11
BRANCH   3  15
ATOM     15  O   UNL     1       8.683   4.330  -0.231  1.00  0.00    -0.508 OA
ATOM     16  H   UNL     1       9.148   3.452  -0.431  1.00  0.00     0.293 HD
ENDBRANCH   3  15
TORSDOF 7
ENDMDL
MODEL 6
REMARK VINA RESULT:    -5.472      1.095      3.877
REMARK INTER + INTRA:          -8.897
REMARK INTER:                  -7.737
REMARK INTRA:                  -1.159
REMARK UNBOUND:                -1.345
REMARK SMILES CCCCc1cccc(O)c1CCCC
REMARK SMILES IDX 5 1 11 2 9 3 8 4 7 5 6 6 4 7 3 8 2 9 1 10 12 11 13 12 14 13
REMARK SMILES IDX 15 14 10 15
REMARK H PARENT 10 16
REMARK Flexibility Score: inf
ROOT
ATOM      1  C   UNL     1       9.399   6.312  -4.295  1.00  0.00    -0.041 A 
ATOM      2  C   UNL     1       8.934   7.246  -3.324  1.00  0.00    -0.003 A 
ATOM      3  C   UNL     1       9.141   8.627  -3.546  1.00  0.00     0.119 A 
ATOM      4  C   UNL     1       9.759   9.070  -4.720  1.00  0.00     0.046 A 
ATOM      5  C   UNL     1      10.191   8.156  -5.676  1.00  0.00     0.004 A 
ATOM      6  C   UNL     1      10.017   6.790  -5.465  1.00  0.00     0.004 A 
ENDROOT
BRANCH   1   7
ATOM      7  C   UNL     1       9.253   4.808  -4.146  1.00  0.00     0.036 C 
BRANCH   7   8
ATOM      8  C   UNL     1      10.580   4.069  -4.380  1.00  0.00     0.004 C 
BRANCH   8   9
ATOM      9  C   UNL     1      11.402   3.913  -3.094  1.00  0.00    -0.003 C 
ATOM     10  C   UNL     1      12.390   5.064  -2.931  1.00  0.00     0.004 C 
ENDBRANCH   8   9
ENDBRANCH   7   8
ENDBRANCH   1   7
BRANCH   2  11
ATOM     11  C   UNL     1       8.288   6.806  -2.025  1.00  0.00     0.040 C 
BRANCH  11  12
ATOM     12  C   UNL     1       9.342   6.267  -1.050  1.00  0.00     0.005 C 
BRANCH  12  13
ATOM     13  C   UNL     1       8.739   5.212  -0.116  1.00  0.00    -0.003 C 
ATOM     14  C   UNL     1       9.357   3.840  -0.363  1.00  0.00     0.004 C 
ENDBRANCH  12  13
ENDBRANCH  11  12
ENDBRANCH   2  11
BRANCH   3  15
ATOM     15  O   UNL     1       8.734   9.562  -2.592  1.00  0.00    -0.508 OA
ATOM     16  H   UNL     1       8.965   9.457  -1.611  1.00  0.00     0.293 HD
ENDBRANCH   3  15
TORSDOF 7
ENDMDL
MODEL 7
REMARK VINA RESULT:    -5.443      1.285      3.944
REMARK INTER + INTRA:          -8.856
REMARK INTER:                  -7.524
REMARK INTRA:                  -1.332
REMARK UNBOUND:                -1.345
REMARK SMILES CCCCc1cccc(O)c1CCCC
REMARK SMILES IDX 5 1 11 2 9 3 8 4 7 5 6 6 4 7 3 8 2 9 1 10 12 11 13 12 14 13
REMARK SMILES IDX 15 14 10 15
REMARK H PARENT 10 16
REMARK Flexibility Score: inf
ROOT
ATOM      1  C   UNL     1       9.888   7.176  -3.317  1.00  0.00    -0.041 A 
ATOM      2  C   UNL     1       9.335   7.117  -2.005  1.00  0.00    -0.003 A 
ATOM      3  C   UNL     1       8.382   8.087  -1.617  1.00  0.00     0.119 A 
ATOM      4  C   UNL     1       7.961   9.067  -2.524  1.00  0.00     0.046 A 
ATOM      5  C   UNL     1       8.487   9.106  -3.811  1.00  0.00     0.004 A 
ATOM      6  C   UNL     1       9.444   8.174  -4.204  1.00  0.00     0.004 A 
ENDROOT
BRANCH   1   7
ATOM      7  C   UNL     1      10.935   6.203  -3.828  1.00  0.00     0.036 C 
BRANCH   7   8
ATOM      8  C   UNL     1      10.420   5.359  -5.005  1.00  0.00     0.004 C 
BRANCH   8   9
ATOM      9  C   UNL     1       9.869   3.999  -4.557  1.00  0.00    -0.003 C 
ATOM     10  C   UNL     1       8.361   4.065  -4.330  1.00  0.00     0.004 C 
ENDBRANCH   8   9
ENDBRANCH   7   8
ENDBRANCH   1   7
BRANCH   2  11
ATOM     11  C   UNL     1       9.787   6.092  -0.983  1.00  0.00     0.040 C 
BRANCH  11  12
ATOM     12  C   UNL     1       8.719   5.008  -0.793  1.00  0.00     0.005 C 
BRANCH  12  13
ATOM     13  C   UNL     1       9.352   3.614  -0.743  1.00  0.00    -0.003 C 
ATOM     14  C   UNL     1      10.822   3.662  -1.148  1.00  0.00     0.004 C 
ENDBRANCH  12  13
ENDBRANCH  11  12
ENDBRANCH   2  11
BRANCH   3  15
ATOM     15  O   UNL     1       7.855   8.079  -0.324  1.00  0.00    -0.508 OA
ATOM     16  H   UNL     1       7.475   7.236   0.091  1.00  0.00     0.293 HD
ENDBRANCH   3  15
TORSDOF 7
ENDMDL
MODEL 8
REMARK VINA RESULT:    -5.335      2.128      5.030
REMARK INTER + INTRA:          -8.707
REMARK INTER:                  -7.849
REMARK INTRA:                  -0.857
REMARK UNBOUND:                -1.345
REMARK SMILES CCCCc1cccc(O)c1CCCC
REMARK SMILES IDX 5 1 11 2 9 3 8 4 7 5 6 6 4 7 3 8 2 9 1 10 12 11 13 12 14 13
REMARK SMILES IDX 15 14 10 15
REMARK H PARENT 10 16
REMARK Flexibility Score: inf
ROOT
ATOM      1  C   UNL     1       9.624   6.944  -3.631  1.00  0.00    -0.041 A 
ATOM      2  C   UNL     1       9.307   5.594  -3.300  1.00  0.00    -0.003 A 
ATOM      3  C   UNL     1       9.792   4.554  -4.125  1.00  0.00     0.119 A 
ATOM      4  C   UNL     1      10.602   4.845  -5.229  1.00  0.00     0.046 A 
ATOM      5  C   UNL     1      10.927   6.163  -5.534  1.00  0.00     0.004 A 
ATOM      6  C   UNL     1      10.440   7.203  -4.746  1.00  0.00     0.004 A 
ENDROOT
BRANCH   1   7
ATOM      7  C   UNL     1       9.135   8.138  -2.830  1.00  0.00     0.036 C 
BRANCH   7   8
ATOM      8  C   UNL     1       7.826   8.717  -3.389  1.00  0.00     0.004 C 
BRANCH   8   9
ATOM      9  C   UNL     1       6.788   8.990  -2.292  1.00  0.00    -0.003 C 
ATOM     10  C   UNL     1       7.428   8.949  -0.908  1.00  0.00     0.004 C 
ENDBRANCH   8   9
ENDBRANCH   7   8
ENDBRANCH   1   7
BRANCH   2  11
ATOM     11  C   UNL     1       8.407   5.238  -2.133  1.00  0.00     0.040 C 
BRANCH  11  12
ATOM     12  C   UNL     1       9.084   5.583  -0.801  1.00  0.00     0.005 C 
BRANCH  12  13
ATOM     13  C   UNL     1      10.440   4.879  -0.675  1.00  0.00    -0.003 C 
ATOM     14  C   UNL     1      10.268   3.367  -0.567  1.00  0.00     0.004 C 
ENDBRANCH  12  13
ENDBRANCH  11  12
ENDBRANCH   2  11
BRANCH   3  15
ATOM     15  O   UNL     1       9.462   3.225  -3.850  1.00  0.00    -0.508 OA
ATOM     16  H   UNL     1       9.061   2.949  -2.962  1.00  0.00     0.293 HD
ENDBRANCH   3  15
TORSDOF 7
ENDMDL
MODEL 9
REMARK VINA RESULT:    -5.273      1.995      4.042
REMARK INTER + INTRA:          -8.621
REMARK INTER:                  -7.790
REMARK INTRA:                  -0.831
REMARK UNBOUND:                -1.345
REMARK SMILES CCCCc1cccc(O)c1CCCC
REMARK SMILES IDX 5 1 11 2 9 3 8 4 7 5 6 6 4 7 3 8 2 9 1 10 12 11 13 12 14 13
REMARK SMILES IDX 15 14 10 15
REMARK H PARENT 10 16
REMARK Flexibility Score: inf
ROOT
ATOM      1  C   UNL     1      10.788   6.133  -3.158  1.00  0.00    -0.041 A 
ATOM      2  C   UNL     1       9.994   7.289  -3.413  1.00  0.00    -0.003 A 
ATOM      3  C   UNL     1       9.838   7.736  -4.745  1.00  0.00     0.119 A 
ATOM      4  C   UNL     1      10.426   7.029  -5.801  1.00  0.00     0.046 A 
ATOM      5  C   UNL     1      11.182   5.888  -5.549  1.00  0.00     0.004 A 
ATOM      6  C   UNL     1      11.365   5.446  -4.242  1.00  0.00     0.004 A 
ENDROOT
BRANCH   1   7
ATOM      7  C   UNL     1      11.041   5.583  -1.766  1.00  0.00     0.036 C 
BRANCH   7   8
ATOM      8  C   UNL     1      10.957   4.048  -1.724  1.00  0.00     0.004 C 
BRANCH   8   9
ATOM      9  C   UNL     1       9.955   3.543  -0.677  1.00  0.00    -0.003 C 
ATOM     10  C   UNL     1       8.819   4.541  -0.477  1.00  0.00     0.004 C 
ENDBRANCH   8   9
ENDBRANCH   7   8
ENDBRANCH   1   7
BRANCH   2  11
ATOM     11  C   UNL     1       9.366   8.100  -2.296  1.00  0.00     0.040 C 
BRANCH  11  12
ATOM     12  C   UNL     1       7.895   7.715  -2.105  1.00  0.00     0.005 C 
BRANCH  12  13
ATOM     13  C   UNL     1       7.110   8.850  -1.438  1.00  0.00    -0.003 C 
ATOM     14  C   UNL     1       5.886   9.233  -2.265  1.00  0.00     0.004 C 
ENDBRANCH  12  13
ENDBRANCH  11  12
ENDBRANCH   2  11
BRANCH   3  15
ATOM     15  O   UNL     1       9.102   8.889  -5.020  1.00  0.00    -0.508 OA
ATOM     16  H   UNL     1       8.305   8.876  -5.646  1.00  0.00     0.293 HD
ENDBRANCH   3  15
TORSDOF 7
ENDMDL
