MODEL 1
REMARK VINA RESULT:    -3.287      0.000      0.000
REMARK INTER + INTRA:          -3.914
REMARK INTER:                  -3.864
REMARK INTRA:                  -0.050
REMARK UNBOUND:                -0.050
REMARK SMILES O=C([O-])CCC(=O)[O-]
REMARK SMILES IDX 4 1 2 2 1 3 3 4 5 5 6 6 7 7 8 8
REMARK H PARENT
REMARK Flexibility Score: inf
ROOT
ATOM      1  C   UNL     1     156.383  -9.780  26.620  1.00  0.00     0.059 C 
ENDROOT
BRANCH   1   2
ATOM      2  C   UNL     1     155.677 -10.100  27.903  1.00  0.00     0.042 C 
ATOM      3  O   UNL     1     154.492  -9.718  28.086  1.00  0.00    -0.550 OA
ATOM      4  O   UNL     1     156.316 -10.856  28.878  1.00  0.00    -0.550 OA
ENDBRANCH   1   2
BRANCH   1   5
ATOM      5  C   UNL     1     155.745  -8.584  25.907  1.00  0.00     0.059 C 
BRANCH   5   6
ATOM      6  C   UNL     1     156.779  -7.604  25.442  1.00  0.00     0.042 C 
ATOM      7  O   UNL     1     157.990  -7.942  25.380  1.00  0.00    -0.550 OA
ATOM      8  O   UNL     1     156.409  -6.305  25.115  1.00  0.00    -0.550 OA
ENDBRANCH   5   6
ENDBRANCH   1   5
TORSDOF 3
ENDMDL
MODEL 2
REMARK VINA RESULT:    -3.276      0.554      4.201
REMARK INTER + INTRA:          -3.901
REMARK INTER:                  -3.863
REMARK INTRA:                  -0.038
REMARK UNBOUND:                -0.050
REMARK SMILES O=C([O-])CCC(=O)[O-]
REMARK SMILES IDX 4 1 2 2 1 3 3 4 5 5 6 6 7 7 8 8
REMARK H PARENT
REMARK Flexibility Score: inf
ROOT
ATOM      1  C   UNL     1     155.843  -8.514  25.949  1.00  0.00     0.059 C 
ENDROOT
BRANCH   1   2
ATOM      2  C   UNL     1     156.854  -7.835  25.077  1.00  0.00     0.042 C 
ATOM      3  O   UNL     1     156.495  -7.273  24.009  1.00  0.00    -0.550 OA
ATOM      4  O   UNL     1     158.187  -7.788  25.465  1.00  0.00    -0.550 OA
ENDBRANCH   1   2
BRANCH   1   5
ATOM      5  C   UNL     1     156.430  -9.751  26.637  1.00  0.00     0.059 C 
BRANCH   5   6
ATOM      6  C   UNL     1     155.662 -10.113  27.871  1.00  0.00     0.042 C 
ATOM      7  O   UNL     1     154.480  -9.705  28.024  1.00  0.00    -0.550 OA
ATOM      8  O   UNL     1     156.264 -10.867  28.870  1.00  0.00    -0.550 OA
ENDBRANCH   5   6
ENDBRANCH   1   5
TORSDOF 3
ENDMDL
MODEL 3
REMARK VINA RESULT:    -3.251      0.755      4.200
REMARK INTER + INTRA:          -3.872
REMARK INTER:                  -3.836
REMARK INTRA:                  -0.035
REMARK UNBOUND:                -0.050
REMARK SMILES O=C([O-])CCC(=O)[O-]
REMARK SMILES IDX 4 1 2 2 1 3 3 4 5 5 6 6 7 7 8 8
REMARK H PARENT
REMARK Flexibility Score: inf
ROOT
ATOM      1  C   UNL     1     156.012  -8.434  25.885  1.00  0.00     0.059 C 
ENDROOT
BRANCH   1   2
ATOM      2  C   UNL     1     157.052  -7.883  24.957  1.00  0.00     0.042 C 
ATOM      3  O   UNL     1     158.240  -7.742  25.348  1.00  0.00    -0.550 OA
ATOM      4  O   UNL     1     156.715  -7.566  23.647  1.00  0.00    -0.550 OA
ENDBRANCH   1   2
BRANCH   1   5
ATOM      5  C   UNL     1     156.460  -9.757  26.514  1.00  0.00     0.059 C 
BRANCH   5   6
ATOM      6  C   UNL     1     155.717 -10.045  27.782  1.00  0.00     0.042 C 
ATOM      7  O   UNL     1     156.254 -10.734  28.689  1.00  0.00    -0.550 OA
ATOM      8  O   UNL     1     154.416  -9.585  27.946  1.00  0.00    -0.550 OA
ENDBRANCH   5   6
ENDBRANCH   1   5
TORSDOF 3
ENDMDL
MODEL 4
REMARK VINA RESULT:    -3.162      0.236      1.165
REMARK INTER + INTRA:          -3.766
REMARK INTER:                  -3.721
REMARK INTRA:                  -0.046
REMARK UNBOUND:                -0.050
REMARK SMILES O=C([O-])CCC(=O)[O-]
REMARK SMILES IDX 4 1 2 2 1 3 3 4 5 5 6 6 7 7 8 8
REMARK H PARENT
REMARK Flexibility Score: inf
ROOT
ATOM      1  C   UNL     1     156.411  -9.757  26.516  1.00  0.00     0.059 C 
ENDROOT
BRANCH   1   2
ATOM      2  C   UNL     1     155.763 -10.125  27.816  1.00  0.00     0.042 C 
ATOM      3  O   UNL     1     156.375 -10.844  28.648  1.00  0.00    -0.550 OA
ATOM      4  O   UNL     1     154.498  -9.639  28.124  1.00  0.00    -0.550 OA
ENDBRANCH   1   2
BRANCH   1   5
ATOM      5  C   UNL     1     155.750  -8.527  25.885  1.00  0.00     0.059 C 
BRANCH   5   6
ATOM      6  C   UNL     1     156.764  -7.493  25.500  1.00  0.00     0.042 C 
ATOM      7  O   UNL     1     157.915  -7.842  25.127  1.00  0.00    -0.550 OA
ATOM      8  O   UNL     1     156.451  -6.143  25.591  1.00  0.00    -0.550 OA
ENDBRANCH   5   6
ENDBRANCH   1   5
TORSDOF 3
ENDMDL
MODEL 5
REMARK VINA RESULT:    -3.161      1.712      1.901
REMARK INTER + INTRA:          -3.765
REMARK INTER:                  -3.648
REMARK INTRA:                  -0.117
REMARK UNBOUND:                -0.050
REMARK SMILES O=C([O-])CCC(=O)[O-]
REMARK SMILES IDX 4 1 2 2 1 3 3 4 5 5 6 6 7 7 8 8
REMARK H PARENT
REMARK Flexibility Score: inf
ROOT
ATOM      1  C   UNL     1     156.389  -9.750  26.564  1.00  0.00     0.059 C 
ENDROOT
BRANCH   1   2
ATOM      2  C   UNL     1     155.621 -10.073  27.810  1.00  0.00     0.042 C 
ATOM      3  O   UNL     1     154.432  -9.683  27.942  1.00  0.00    -0.550 OA
ATOM      4  O   UNL     1     156.209 -10.841  28.808  1.00  0.00    -0.550 OA
ENDBRANCH   1   2
BRANCH   1   5
ATOM      5  C   UNL     1     155.876  -8.466  25.902  1.00  0.00     0.059 C 
BRANCH   5   6
ATOM      6  C   UNL     1     155.323  -8.734  24.536  1.00  0.00     0.042 C 
ATOM      7  O   UNL     1     154.198  -9.285  24.405  1.00  0.00    -0.550 OA
ATOM      8  O   UNL     1     156.066  -8.411  23.408  1.00  0.00    -0.550 OA
ENDBRANCH   5   6
ENDBRANCH   1   5
TORSDOF 3
ENDMDL
MODEL 6
REMARK VINA RESULT:    -3.143      0.932      3.981
REMARK INTER + INTRA:          -3.745
REMARK INTER:                  -3.658
REMARK INTRA:                  -0.087
REMARK UNBOUND:                -0.050
REMARK SMILES O=C([O-])CCC(=O)[O-]
REMARK SMILES IDX 4 1 2 2 1 3 3 4 5 5 6 6 7 7 8 8
REMARK H PARENT
REMARK Flexibility Score: inf
ROOT
ATOM      1  C   UNL     1     155.421  -8.954  25.701  1.00  0.00     0.059 C 
ENDROOT
BRANCH   1   2
ATOM      2  C   UNL     1     155.606  -7.477  25.872  1.00  0.00     0.042 C 
ATOM      3  O   UNL     1     154.711  -6.785  26.423  1.00  0.00    -0.550 OA
ATOM      4  O   UNL     1     156.787  -6.872  25.459  1.00  0.00    -0.550 OA
ENDBRANCH   1   2
BRANCH   1   5
ATOM      5  C   UNL     1     156.343  -9.750  26.631  1.00  0.00     0.059 C 
BRANCH   5   6
ATOM      6  C   UNL     1     155.645 -10.137  27.899  1.00  0.00     0.042 C 
ATOM      7  O   UNL     1     154.459  -9.769  28.107  1.00  0.00    -0.550 OA
ATOM      8  O   UNL     1     156.320 -10.868  28.869  1.00  0.00    -0.550 OA
ENDBRANCH   5   6
ENDBRANCH   1   5
TORSDOF 3
ENDMDL
MODEL 7
REMARK VINA RESULT:    -3.141      1.651      4.183
REMARK INTER + INTRA:          -3.742
REMARK INTER:                  -3.636
REMARK INTRA:                  -0.106
REMARK UNBOUND:                -0.050
REMARK SMILES O=C([O-])CCC(=O)[O-]
REMARK SMILES IDX 4 1 2 2 1 3 3 4 5 5 6 6 7 7 8 8
REMARK H PARENT
REMARK Flexibility Score: inf
ROOT
ATOM      1  C   UNL     1     155.867  -8.457  26.013  1.00  0.00     0.059 C 
ENDROOT
BRANCH   1   2
ATOM      2  C   UNL     1     155.375  -8.666  24.613  1.00  0.00     0.042 C 
ATOM      3  O   UNL     1     156.043  -8.239  23.636  1.00  0.00    -0.550 OA
ATOM      4  O   UNL     1     154.198  -9.370  24.389  1.00  0.00    -0.550 OA
ENDBRANCH   1   2
BRANCH   1   5
ATOM      5  C   UNL     1     156.402  -9.756  26.624  1.00  0.00     0.059 C 
BRANCH   5   6
ATOM      6  C   UNL     1     155.660 -10.125  27.872  1.00  0.00     0.042 C 
ATOM      7  O   UNL     1     154.475  -9.736  28.043  1.00  0.00    -0.550 OA
ATOM      8  O   UNL     1     156.292 -10.864  28.865  1.00  0.00    -0.550 OA
ENDBRANCH   5   6
ENDBRANCH   1   5
TORSDOF 3
ENDMDL
MODEL 8
REMARK VINA RESULT:    -3.111     17.307     18.273
REMARK INTER + INTRA:          -3.707
REMARK INTER:                  -3.950
REMARK INTRA:                   0.243
REMARK UNBOUND:                -0.050
REMARK SMILES O=C([O-])CCC(=O)[O-]
REMARK SMILES IDX 4 1 2 2 1 3 3 4 5 5 6 6 7 7 8 8
REMARK H PARENT
REMARK Flexibility Score: inf
ROOT
ATOM      1  C   UNL     1     167.987 -20.202  19.875  1.00  0.00     0.059 C 
ENDROOT
BRANCH   1   2
ATOM      2  C   UNL     1     167.747 -19.281  21.031  1.00  0.00     0.042 C 
ATOM      3  O   UNL     1     168.357 -19.455  22.119  1.00  0.00    -0.550 OA
ATOM      4  O   UNL     1     166.879 -18.204  20.893  1.00  0.00    -0.550 OA
ENDBRANCH   1   2
BRANCH   1   5
ATOM      5  C   UNL     1     168.736 -21.467  20.306  1.00  0.00     0.059 C 
BRANCH   5   6
ATOM      6  C   UNL     1     170.177 -21.181  20.603  1.00  0.00     0.042 C 
ATOM      7  O   UNL     1     170.746 -21.739  21.577  1.00  0.00    -0.550 OA
ATOM      8  O   UNL     1     170.879 -20.267  19.827  1.00  0.00    -0.550 OA
ENDBRANCH   5   6
ENDBRANCH   1   5
TORSDOF 3
ENDMDL
MODEL 9
REMARK VINA RESULT:    -3.110     17.784     18.782
REMARK INTER + INTRA:          -3.706
REMARK INTER:                  -3.966
REMARK INTRA:                   0.260
REMARK UNBOUND:                -0.050
REMARK SMILES O=C([O-])CCC(=O)[O-]
REMARK SMILES IDX 4 1 2 2 1 3 3 4 5 5 6 6 7 7 8 8
REMARK H PARENT
REMARK Flexibility Score: inf
ROOT
ATOM      1  C   UNL     1     169.405 -21.482  19.478  1.00  0.00     0.059 C 
ENDROOT
BRANCH   1   2
ATOM      2  C   UNL     1     170.593 -21.020  20.265  1.00  0.00     0.042 C 
ATOM      3  O   UNL     1     170.994 -21.683  21.257  1.00  0.00    -0.550 OA
ATOM      4  O   UNL     1     171.282 -19.877  19.876  1.00  0.00    -0.550 OA
ENDBRANCH   1   2
BRANCH   1   5
ATOM      5  C   UNL     1     168.368 -20.366  19.313  1.00  0.00     0.059 C 
BRANCH   5   6
ATOM      6  C   UNL     1     167.870 -19.876  20.639  1.00  0.00     0.042 C 
ATOM      7  O   UNL     1     167.288 -18.763  20.724  1.00  0.00    -0.550 OA
ATOM      8  O   UNL     1     168.084 -20.631  21.785  1.00  0.00    -0.550 OA
ENDBRANCH   5   6
ENDBRANCH   1   5
TORSDOF 3
ENDMDL
