MODEL 1
REMARK VINA RESULT:    -4.057      0.000      0.000
REMARK INTER + INTRA:          -5.866
REMARK INTER:                  -5.480
REMARK INTRA:                  -0.386
REMARK UNBOUND:                -0.386
REMARK SMILES CCCCCCC=CC(=O)[O-]
REMARK SMILES IDX 5 1 6 2 7 3 8 4 9 5 10 6 11 7 4 8 3 9 2 10 1 11
REMARK H PARENT
REMARK Flexibility Score: inf
ROOT
ATOM      1  C   UNL     1      46.775  44.374  33.530  1.00  0.00     0.004 C 
ENDROOT
BRANCH   1   2
ATOM      2  C   UNL     1      46.553  42.854  33.642  1.00  0.00     0.027 C 
BRANCH   2   3
ATOM      3  C   UNL     1      46.925  42.314  34.994  1.00  0.00    -0.025 C 
ATOM      4  C   UNL     1      47.626  43.039  35.870  1.00  0.00     0.020 C 
BRANCH   4   5
ATOM      5  C   UNL     1      47.996  42.531  37.200  1.00  0.00     0.064 C 
ATOM      6  O   UNL     1      47.729  43.185  38.244  1.00  0.00    -0.545 OA
ATOM      7  O   UNL     1      48.645  41.308  37.309  1.00  0.00    -0.545 OA
ENDBRANCH   4   5
ENDBRANCH   2   3
ENDBRANCH   1   2
BRANCH   1   8
ATOM      8  C   UNL     1      47.826  44.784  32.483  1.00  0.00     0.000 C 
BRANCH   8   9
ATOM      9  C   UNL     1      47.531  44.214  31.088  1.00  0.00    -0.000 C 
BRANCH   9  10
ATOM     10  C   UNL     1      46.165  44.689  30.580  1.00  0.00    -0.003 C 
ATOM     11  C   UNL     1      45.385  43.542  29.943  1.00  0.00     0.004 C 
ENDBRANCH   9  10
ENDBRANCH   8   9
ENDBRANCH   1   8
TORSDOF 6
ENDMDL
MODEL 2
REMARK VINA RESULT:    -4.051      3.414      3.867
REMARK INTER + INTRA:          -5.858
REMARK INTER:                  -5.107
REMARK INTRA:                  -0.752
REMARK UNBOUND:                -0.386
REMARK SMILES CCCCCCC=CC(=O)[O-]
REMARK SMILES IDX 5 1 6 2 7 3 8 4 9 5 10 6 11 7 4 8 3 9 2 10 1 11
REMARK H PARENT
REMARK Flexibility Score: inf
ROOT
ATOM      1  C   UNL     1      47.404  44.796  33.099  1.00  0.00     0.004 C 
ENDROOT
BRANCH   1   2
ATOM      2  C   UNL     1      46.867  43.477  33.682  1.00  0.00     0.027 C 
BRANCH   2   3
ATOM      3  C   UNL     1      45.397  43.538  33.992  1.00  0.00    -0.025 C 
ATOM      4  C   UNL     1      44.666  44.621  33.710  1.00  0.00     0.020 C 
BRANCH   4   5
ATOM      5  C   UNL     1      43.226  44.699  34.000  1.00  0.00     0.064 C 
ATOM      6  O   UNL     1      42.761  45.600  34.747  1.00  0.00    -0.545 OA
ATOM      7  O   UNL     1      42.364  43.766  33.439  1.00  0.00    -0.545 OA
ENDBRANCH   4   5
ENDBRANCH   2   3
ENDBRANCH   1   2
BRANCH   1   8
ATOM      8  C   UNL     1      48.101  44.647  31.734  1.00  0.00     0.000 C 
BRANCH   8   9
ATOM      9  C   UNL     1      47.342  43.716  30.777  1.00  0.00    -0.000 C 
BRANCH   9  10
ATOM     10  C   UNL     1      46.116  44.419  30.186  1.00  0.00    -0.003 C 
ATOM     11  C   UNL     1      44.906  43.489  30.160  1.00  0.00     0.004 C 
ENDBRANCH   9  10
ENDBRANCH   8   9
ENDBRANCH   1   8
TORSDOF 6
ENDMDL
MODEL 3
REMARK VINA RESULT:    -3.996      1.565      2.479
REMARK INTER + INTRA:          -5.784
REMARK INTER:                  -5.098
REMARK INTRA:                  -0.685
REMARK UNBOUND:                -0.386
REMARK SMILES CCCCCCC=CC(=O)[O-]
REMARK SMILES IDX 5 1 6 2 7 3 8 4 9 5 10 6 11 7 4 8 3 9 2 10 1 11
REMARK H PARENT
REMARK Flexibility Score: inf
ROOT
ATOM      1  C   UNL     1      44.705  43.731  31.974  1.00  0.00     0.004 C 
ENDROOT
BRANCH   1   2
ATOM      2  C   UNL     1      44.594  44.506  33.300  1.00  0.00     0.027 C 
BRANCH   2   3
ATOM      3  C   UNL     1      45.536  43.991  34.351  1.00  0.00    -0.025 C 
ATOM      4  C   UNL     1      46.078  42.772  34.269  1.00  0.00     0.020 C 
BRANCH   4   5
ATOM      5  C   UNL     1      47.007  42.250  35.285  1.00  0.00     0.064 C 
ATOM      6  O   UNL     1      47.826  43.009  35.868  1.00  0.00    -0.545 OA
ATOM      7  O   UNL     1      46.978  40.901  35.608  1.00  0.00    -0.545 OA
ENDBRANCH   4   5
ENDBRANCH   2   3
ENDBRANCH   1   2
BRANCH   1   8
ATOM      8  C   UNL     1      45.395  44.512  30.841  1.00  0.00     0.000 C 
BRANCH   8   9
ATOM      9  C   UNL     1      46.558  43.738  30.205  1.00  0.00    -0.000 C 
BRANCH   9  10
ATOM     10  C   UNL     1      47.742  43.636  31.173  1.00  0.00    -0.003 C 
ATOM     11  C   UNL     1      48.095  45.000  31.758  1.00  0.00     0.004 C 
ENDBRANCH   9  10
ENDBRANCH   8   9
ENDBRANCH   1   8
TORSDOF 6
ENDMDL
MODEL 4
REMARK VINA RESULT:    -3.976      1.352      2.341
REMARK INTER + INTRA:          -5.757
REMARK INTER:                  -5.465
REMARK INTRA:                  -0.291
REMARK UNBOUND:                -0.386
REMARK SMILES CCCCCCC=CC(=O)[O-]
REMARK SMILES IDX 5 1 6 2 7 3 8 4 9 5 10 6 11 7 4 8 3 9 2 10 1 11
REMARK H PARENT
REMARK Flexibility Score: inf
ROOT
ATOM      1  C   UNL     1      46.688  42.430  34.650  1.00  0.00     0.004 C 
ENDROOT
BRANCH   1   2
ATOM      2  C   UNL     1      47.626  43.108  35.667  1.00  0.00     0.027 C 
BRANCH   2   3
ATOM      3  C   UNL     1      47.772  42.316  36.936  1.00  0.00    -0.025 C 
ATOM      4  C   UNL     1      48.387  41.130  36.954  1.00  0.00     0.020 C 
BRANCH   4   5
ATOM      5  C   UNL     1      48.546  40.341  38.186  1.00  0.00     0.064 C 
ATOM      6  O   UNL     1      48.818  40.897  39.283  1.00  0.00    -0.545 OA
ATOM      7  O   UNL     1      48.390  38.962  38.140  1.00  0.00    -0.545 OA
ENDBRANCH   4   5
ENDBRANCH   2   3
ENDBRANCH   1   2
BRANCH   1   8
ATOM      8  C   UNL     1      46.674  43.096  33.262  1.00  0.00     0.000 C 
BRANCH   8   9
ATOM      9  C   UNL     1      47.259  44.515  33.276  1.00  0.00    -0.000 C 
BRANCH   9  10
ATOM     10  C   UNL     1      48.013  44.810  31.974  1.00  0.00    -0.003 C 
ATOM     11  C   UNL     1      47.416  44.033  30.804  1.00  0.00     0.004 C 
ENDBRANCH   9  10
ENDBRANCH   8   9
ENDBRANCH   1   8
TORSDOF 6
ENDMDL
MODEL 5
REMARK VINA RESULT:    -3.948      3.270      6.017
REMARK INTER + INTRA:          -5.719
REMARK INTER:                  -5.402
REMARK INTRA:                  -0.318
REMARK UNBOUND:                -0.386
REMARK SMILES CCCCCCC=CC(=O)[O-]
REMARK SMILES IDX 5 1 6 2 7 3 8 4 9 5 10 6 11 7 4 8 3 9 2 10 1 11
REMARK H PARENT
REMARK Flexibility Score: inf
ROOT
ATOM      1  C   UNL     1      47.805  42.688  36.070  1.00  0.00     0.004 C 
ENDROOT
BRANCH   1   2
ATOM      2  C   UNL     1      46.461  42.769  35.325  1.00  0.00     0.027 C 
BRANCH   2   3
ATOM      3  C   UNL     1      46.624  43.145  33.878  1.00  0.00    -0.025 C 
ATOM      4  C   UNL     1      47.202  44.294  33.514  1.00  0.00     0.020 C 
BRANCH   4   5
ATOM      5  C   UNL     1      47.376  44.677  32.104  1.00  0.00     0.064 C 
ATOM      6  O   UNL     1      46.396  44.709  31.313  1.00  0.00    -0.545 OA
ATOM      7  O   UNL     1      48.640  45.012  31.638  1.00  0.00    -0.545 OA
ENDBRANCH   4   5
ENDBRANCH   2   3
ENDBRANCH   1   2
BRANCH   1   8
ATOM      8  C   UNL     1      47.691  42.840  37.598  1.00  0.00     0.000 C 
BRANCH   8   9
ATOM      9  C   UNL     1      48.113  41.573  38.357  1.00  0.00    -0.000 C 
BRANCH   9  10
ATOM     10  C   UNL     1      49.054  40.713  37.506  1.00  0.00    -0.003 C 
ATOM     11  C   UNL     1      48.569  39.268  37.438  1.00  0.00     0.004 C 
ENDBRANCH   9  10
ENDBRANCH   8   9
ENDBRANCH   1   8
TORSDOF 6
ENDMDL
MODEL 6
REMARK VINA RESULT:    -3.879      3.302      6.002
REMARK INTER + INTRA:          -5.625
REMARK INTER:                  -5.296
REMARK INTRA:                  -0.329
REMARK UNBOUND:                -0.386
REMARK SMILES CCCCCCC=CC(=O)[O-]
REMARK SMILES IDX 5 1 6 2 7 3 8 4 9 5 10 6 11 7 4 8 3 9 2 10 1 11
REMARK H PARENT
REMARK Flexibility Score: inf
ROOT
ATOM      1  C   UNL     1      46.690  42.278  35.319  1.00  0.00     0.004 C 
ENDROOT
BRANCH   1   2
ATOM      2  C   UNL     1      45.764  43.483  35.071  1.00  0.00     0.027 C 
BRANCH   2   3
ATOM      3  C   UNL     1      46.193  44.308  33.890  1.00  0.00    -0.025 C 
ATOM      4  C   UNL     1      46.895  43.778  32.883  1.00  0.00     0.020 C 
BRANCH   4   5
ATOM      5  C   UNL     1      47.319  44.567  31.716  1.00  0.00     0.064 C 
ATOM      6  O   UNL     1      48.509  44.964  31.597  1.00  0.00    -0.545 OA
ATOM      7  O   UNL     1      46.394  44.877  30.728  1.00  0.00    -0.545 OA
ENDBRANCH   4   5
ENDBRANCH   2   3
ENDBRANCH   1   2
BRANCH   1   8
ATOM      8  C   UNL     1      47.857  42.565  36.281  1.00  0.00     0.000 C 
BRANCH   8   9
ATOM      9  C   UNL     1      47.387  42.911  37.702  1.00  0.00    -0.000 C 
BRANCH   9  10
ATOM     10  C   UNL     1      47.910  41.887  38.716  1.00  0.00    -0.003 C 
ATOM     11  C   UNL     1      48.753  40.815  38.032  1.00  0.00     0.004 C 
ENDBRANCH   9  10
ENDBRANCH   8   9
ENDBRANCH   1   8
TORSDOF 6
ENDMDL
MODEL 7
REMARK VINA RESULT:    -3.878      1.154      1.979
REMARK INTER + INTRA:          -5.624
REMARK INTER:                  -5.258
REMARK INTRA:                  -0.366
REMARK UNBOUND:                -0.386
REMARK SMILES CCCCCCC=CC(=O)[O-]
REMARK SMILES IDX 5 1 6 2 7 3 8 4 9 5 10 6 11 7 4 8 3 9 2 10 1 11
REMARK H PARENT
REMARK Flexibility Score: inf
ROOT
ATOM      1  C   UNL     1      45.936  43.255  34.267  1.00  0.00     0.004 C 
ENDROOT
BRANCH   1   2
ATOM      2  C   UNL     1      47.250  42.710  34.855  1.00  0.00     0.027 C 
BRANCH   2   3
ATOM      3  C   UNL     1      47.304  42.823  36.353  1.00  0.00    -0.025 C 
ATOM      4  C   UNL     1      48.007  41.962  37.095  1.00  0.00     0.020 C 
BRANCH   4   5
ATOM      5  C   UNL     1      48.077  42.058  38.562  1.00  0.00     0.064 C 
ATOM      6  O   UNL     1      48.505  41.098  39.257  1.00  0.00    -0.545 OA
ATOM      7  O   UNL     1      47.669  43.227  39.190  1.00  0.00    -0.545 OA
ENDBRANCH   4   5
ENDBRANCH   2   3
ENDBRANCH   1   2
BRANCH   1   8
ATOM      8  C   UNL     1      46.127  44.284  33.139  1.00  0.00     0.000 C 
BRANCH   8   9
ATOM      9  C   UNL     1      47.556  44.845  33.079  1.00  0.00    -0.000 C 
BRANCH   9  10
ATOM     10  C   UNL     1      48.085  44.844  31.641  1.00  0.00    -0.003 C 
ATOM     11  C   UNL     1      47.327  43.842  30.775  1.00  0.00     0.004 C 
ENDBRANCH   9  10
ENDBRANCH   8   9
ENDBRANCH   1   8
TORSDOF 6
ENDMDL
MODEL 8
REMARK VINA RESULT:    -3.785     11.200     14.496
REMARK INTER + INTRA:          -5.498
REMARK INTER:                  -4.824
REMARK INTRA:                  -0.674
REMARK UNBOUND:                -0.386
REMARK SMILES CCCCCCC=CC(=O)[O-]
REMARK SMILES IDX 5 1 6 2 7 3 8 4 9 5 10 6 11 7 4 8 3 9 2 10 1 11
REMARK H PARENT
REMARK Flexibility Score: inf
ROOT
ATOM      1  C   UNL     1      43.363  37.809  47.082  1.00  0.00     0.004 C 
ENDROOT
BRANCH   1   2
ATOM      2  C   UNL     1      43.718  36.509  46.336  1.00  0.00     0.027 C 
BRANCH   2   3
ATOM      3  C   UNL     1      44.226  36.761  44.945  1.00  0.00    -0.025 C 
ATOM      4  C   UNL     1      45.190  37.654  44.702  1.00  0.00     0.020 C 
BRANCH   4   5
ATOM      5  C   UNL     1      45.705  37.912  43.348  1.00  0.00     0.064 C 
ATOM      6  O   UNL     1      46.917  38.202  43.158  1.00  0.00    -0.545 OA
ATOM      7  O   UNL     1      44.844  37.832  42.263  1.00  0.00    -0.545 OA
ENDBRANCH   4   5
ENDBRANCH   2   3
ENDBRANCH   1   2
BRANCH   1   8
ATOM      8  C   UNL     1      44.099  37.989  48.423  1.00  0.00     0.000 C 
BRANCH   8   9
ATOM      9  C   UNL     1      44.990  36.790  48.779  1.00  0.00    -0.000 C 
BRANCH   9  10
ATOM     10  C   UNL     1      46.469  37.193  48.794  1.00  0.00    -0.003 C 
ATOM     11  C   UNL     1      47.264  36.408  47.754  1.00  0.00     0.004 C 
ENDBRANCH   9  10
ENDBRANCH   8   9
ENDBRANCH   1   8
TORSDOF 6
ENDMDL
MODEL 9
REMARK VINA RESULT:    -3.643      3.815      5.616
REMARK INTER + INTRA:          -5.307
REMARK INTER:                  -4.760
REMARK INTRA:                  -0.547
REMARK UNBOUND:                -0.386
REMARK SMILES CCCCCCC=CC(=O)[O-]
REMARK SMILES IDX 5 1 6 2 7 3 8 4 9 5 10 6 11 7 4 8 3 9 2 10 1 11
REMARK H PARENT
REMARK Flexibility Score: inf
ROOT
ATOM      1  C   UNL     1      47.618  43.594  30.946  1.00  0.00     0.004 C 
ENDROOT
BRANCH   1   2
ATOM      2  C   UNL     1      46.549  43.907  29.883  1.00  0.00     0.027 C 
BRANCH   2   3
ATOM      3  C   UNL     1      45.261  43.173  30.125  1.00  0.00    -0.025 C 
ATOM      4  C   UNL     1      44.357  43.616  31.005  1.00  0.00     0.020 C 
BRANCH   4   5
ATOM      5  C   UNL     1      43.087  42.916  31.253  1.00  0.00     0.064 C 
ATOM      6  O   UNL     1      42.630  42.084  30.424  1.00  0.00    -0.545 OA
ATOM      7  O   UNL     1      42.382  43.173  32.422  1.00  0.00    -0.545 OA
ENDBRANCH   4   5
ENDBRANCH   2   3
ENDBRANCH   1   2
BRANCH   1   8
ATOM      8  C   UNL     1      47.998  44.794  31.833  1.00  0.00     0.000 C 
BRANCH   8   9
ATOM      9  C   UNL     1      47.343  44.739  33.221  1.00  0.00    -0.000 C 
BRANCH   9  10
ATOM     10  C   UNL     1      46.987  43.298  33.602  1.00  0.00    -0.003 C 
ATOM     11  C   UNL     1      47.245  43.041  35.084  1.00  0.00     0.004 C 
ENDBRANCH   9  10
ENDBRANCH   8   9
ENDBRANCH   1   8
TORSDOF 6
ENDMDL
